158

Mg -3.23300 17.26500 25.56500
C  -3.24600 14.82100 28.20100
C  -3.95500 19.57000 27.92100
C  -3.35700 19.41900 23.09200
C  -2.77800 14.68500 23.33000
N  -3.55300 17.13600 27.91500
C  -3.39300 16.11200 28.73000
C  -3.50500 16.53600 30.20100
C  -4.04400 18.00500 30.08100
C  -3.87200 18.30600 28.53100
C  -5.43500 18.42800 30.61200
C  -2.08500 16.32900 30.85500
C  -1.52600 17.08200 32.06300
H  -1.30600 16.17800 33.29500
N  -3.63900 19.21100 25.47100
C  -3.82700 19.99300 26.57000
C  -4.08300 21.29500 26.11600
C  -3.83300 21.38600 24.75000
C  -3.63000 19.96600 24.35700
C  -4.47400 22.45400 27.09700
C  -3.71600 22.66500 23.82500
O  -3.68500 22.56600 22.62200
C  -3.55400 24.03300 24.50500
N  -2.74600 17.11600 23.51200
C  -2.97700 18.16700 22.70800
C  -2.76700 17.82200 21.20600
C  -2.85700 16.28200 21.36800
C  -2.66600 15.98800 22.80200
C  -3.77100 18.36500 20.12400
C  -1.97000 15.43000 20.36900
C  -2.56900 14.24400 19.64100
N  -3.16400 15.23800 25.71000
C  -3.05200 14.31800 24.69100
C  -3.14700 12.97900 25.15000
C  -3.19500 13.17100 26.48800
C  -3.22400 14.56200 26.83800
C  -3.06000 11.67800 24.43800
C  -3.26200 12.39900 27.72400
O  -3.16600 11.19500 27.89300
C  -3.26100 13.49300 28.89100
C  -2.03900 13.12200 29.71500
O  -0.86100 13.31500 29.42900
O  -2.47800 12.56700 30.90900
C  -1.47700 12.48000 31.93200
H  -4.35400 20.26100 28.66700
H  -3.39400 20.10100 22.24000
H  -2.81000 13.91600 22.55600
H  -4.23500 15.84400 30.62100
H  -3.37400 18.65500 30.64300
H  -5.93700 17.59300 31.10100
H  -6.08900 18.70900 29.78700
H  -5.43500 19.23000 31.35000
H  -1.34000 16.51800 30.08200
H  -2.02100 15.24700 30.97500
H  -2.28500 17.83400 32.27900
H  -0.52100 17.43600 31.83400
H  -4.88100 22.04300 28.02100
H  -5.25900 22.96600 26.54200
H  -3.58700 23.06600 27.26300
H  -3.50800 24.80800 23.73900
H  -2.60300 24.07500 25.03700
H  -4.38600 24.22700 25.18200
H  -1.77000 18.08400 20.85000
H  -3.81800 15.80700 21.17300
H  -4.72300 18.60400 20.59700
H  -3.81500 17.66700 19.28700
H  -3.32500 19.31200 19.82100
H  -1.14900 15.05500 20.98000
H  -1.56400 16.13500 19.64400
H  -3.56800 14.09200 20.05000
H  -1.91100 13.37800 19.70700
H  -2.63600 14.54600 18.59600
H  -4.07300 11.37600 24.17000
H  -2.51500 10.87700 24.93600
H  -2.39000 11.71600 23.57900
H  -4.13100 13.29300 29.51600
H  -0.65300 13.19300 31.95100
H  -1.05500 11.48100 31.82900
H  -2.11300 12.65400 32.80100
Mg 8.40600 3.82400 26.77900
C  9.95800 2.27200 29.51000
C  6.41000 5.46900 28.77500
C  6.92300 4.87400 23.91600
C  10.43500 1.62200 24.70300
N  8.10800 3.56400 28.83600
C  8.86500 3.06200 29.86200
C  8.49500 3.50800 31.23700
C  7.23000 4.42100 30.94100
C  7.23800 4.50100 29.38700
C  5.94000 4.05200 31.61300
C  9.64600 4.20100 31.99900
C  9.09500 5.12900 33.15000
H  9.75400 5.11500 34.54100
N  6.93000 5.08400 26.41000
C  6.20900 5.62800 27.36800
C  5.27500 6.55500 26.72500
C  5.55400 6.56200 25.34300
C  6.48800 5.49300 25.16000
C  4.31100 7.46000 27.61100
C  4.96300 7.36400 24.17500
O  5.24600 7.28200 23.01800
C  3.94400 8.36100 24.54600
N  8.63600 3.27100 24.59900
C  7.88200 3.88100 23.59800
C  8.16200 3.39300 22.21600
C  9.36100 2.42300 22.50900
C  9.52700 2.39300 24.01800
C  7.04000 2.76700 21.40400
C  10.77500 2.76600 21.80600
C  11.15700 1.92500 20.68000
N  9.90600 2.28700 26.95600
C  10.69700 1.61700 26.05900
C  11.54200 0.67500 26.77700
C  11.33200 0.93900 28.12800
C  10.36100 1.99400 28.19400
C  12.43500 -0.51100 26.25300
C  11.75400 0.48100 29.47700
O  12.54400 -0.37600 29.83200
C  10.87500 1.41600 30.39600
C  10.17700 0.63900 31.43900
O  9.31200 -0.14400 31.27700
O  10.73700 0.90900 32.65300
C  10.08200 0.41900 33.85300
H  5.93300 6.21300 29.41600
H  6.44300 5.16900 22.98000
H  10.92500 0.97600 23.97200
H  8.23400 2.56100 31.70900
H  7.38200 5.44300 31.28800
H  5.95000 2.96200 31.64400
H  5.00600 4.42900 31.19700
H  5.93400 4.40400 32.64400
H  10.12300 4.75200 31.18800
H  10.29800 3.45000 32.44600
H  8.09100 4.86500 33.48500
H  9.16400 6.17000 32.83500
H  4.46800 8.50200 27.33000
H  4.39600 7.36200 28.69300
H  3.26800 7.20600 27.42000
H  3.19400 7.90000 25.18900
H  3.39700 8.70400 23.66800
H  4.45200 9.22300 24.97900
H  8.57600 4.20100 21.61300
H  9.01700 1.42500 22.23700
H  6.90700 3.44500 20.56100
H  6.10800 2.76500 21.97000
H  7.17500 1.73800 21.07100
H  11.62200 2.71100 22.49000
H  10.85500 3.73700 21.31600
H  11.59500 2.53300 19.88900
H  10.28000 1.48600 20.20400
H  11.76000 1.04500 20.90300
H  12.72100 -0.34100 25.21600
H  12.00400 -1.49500 26.44300
H  13.32500 -0.52100 26.88300
H  11.58300 2.10700 30.85500
H  9.09100 0.83500 34.03100
H  10.68000 0.82400 34.67000
H  10.22800 -0.63800 34.07700

