158

Mg 9.26300 2.63000 27.72100
C  10.74100 1.00500 30.56600
C  7.23500 4.32000 29.93200
C  7.38500 3.66600 25.19700
C  11.01300 0.42800 25.72800
N  9.01300 2.61400 29.91100
C  9.77700 1.96500 30.90000
C  9.42100 2.45900 32.36300
C  8.15900 3.34100 32.10900
C  8.12400 3.40800 30.57700
C  6.84500 2.78000 32.68600
C  10.63400 3.24700 33.04400
C  10.41800 4.17000 34.31000
H  11.05400 3.61400 35.57800
N  7.61100 3.95100 27.60500
C  6.91300 4.56600 28.61900
C  5.83300 5.35300 28.08300
C  5.88500 5.24700 26.59300
C  6.96300 4.21400 26.40600
C  4.81500 6.12800 28.83800
C  5.06300 5.85700 25.44200
O  5.23200 5.54400 24.22900
C  4.05200 6.97100 25.74700
N  9.29700 2.16700 25.69300
C  8.44900 2.76000 24.84400
C  8.70300 2.26000 23.39100
C  9.89900 1.33400 23.56000
C  10.13900 1.32400 25.08900
C  7.43200 1.56400 22.75500
C  11.14300 1.75000 22.76400
C  11.79200 0.58600 22.09800
N  10.55400 0.95900 27.99400
C  11.22100 0.22300 27.08300
C  12.11700 -0.70200 27.73300
C  11.96300 -0.46800 29.08900
C  11.04500 0.65100 29.21800
C  13.02800 -1.71900 27.10800
C  12.41600 -0.80400 30.41400
O  13.29000 -1.56500 30.76900
C  11.60200 0.14400 31.47100
C  10.78900 -0.67200 32.37500
O  10.24200 -1.70600 32.03800
O  10.73200 -0.20200 33.66000
C  10.22300 -1.17100 34.62900
H  6.58900 4.83300 30.64700
H  6.81300 3.87800 24.29200
H  11.54600 -0.25700 25.06500
H  9.12700 1.60100 32.96700
H  8.38300 4.34400 32.47200
H  6.27600 3.55500 33.19900
H  7.05100 1.83600 33.19100
H  6.15600 2.57500 31.86600
H  11.15300 3.89500 32.33800
H  11.32200 2.44000 33.29400
H  9.36600 4.42000 34.44800
H  10.84600 5.16100 34.16200
H  4.99000 7.20300 28.79900
H  4.82800 5.81200 29.88200
H  3.92200 5.82100 28.29300
H  3.62400 7.30300 24.80100
H  4.46400 7.79200 26.33400
H  3.25200 6.44800 26.27200
H  8.86500 3.05800 22.66700
H  9.59800 0.34600 23.21200
H  6.74600 2.37300 22.50300
H  6.93100 0.98300 23.52900
H  7.59800 0.80000 21.99500
H  11.88600 2.12800 23.46600
H  10.96200 2.67700 22.21800
H  11.56700 0.75900 21.04600
H  11.50200 -0.39400 22.47600
H  12.84800 0.57900 22.37000
H  13.65500 -1.39200 26.27800
H  12.54900 -2.63100 26.75300
H  13.77000 -2.02600 27.84500
H  12.25600 0.76500 32.08300
H  10.53000 -2.20400 34.46000
H  9.14900 -1.08800 34.79000
H  10.68100 -0.94300 35.59100
Mg 26.53900 0.04200 28.75300
C  28.32600 -0.51400 31.76800
C  23.66000 0.01700 30.66100
C  24.91100 0.59600 25.91300
C  29.48000 -0.87400 26.86600
N  26.10300 -0.28700 30.89600
C  26.98400 -0.17000 31.99700
C  26.32400 0.12600 33.36000
C  24.78800 -0.03100 33.01800
C  24.84500 -0.10400 31.43400
C  24.04600 -1.20100 33.67700
C  26.73700 1.42200 34.14500
C  27.08000 1.17000 35.60500
H  26.50400 1.97800 36.76900
N  24.49700 0.34900 28.38700
C  23.47000 0.19600 29.24300
C  22.21400 0.55000 28.54100
C  22.59500 0.85100 27.14500
C  24.03600 0.59500 27.07600
C  20.80200 0.56400 29.19400
C  21.75600 1.19500 25.93700
O  22.15400 1.54200 24.85500
C  20.25300 1.32300 26.17200
N  27.11700 -0.12500 26.66400
C  26.27800 0.27800 25.74800
C  26.85600 0.17000 24.28800
C  28.36300 -0.14300 24.61900
C  28.32900 -0.41800 26.12200
C  26.22600 -0.88300 23.27600
C  29.30900 1.07500 24.20500
C  30.77800 0.68700 23.81600
N  28.53900 -0.60200 29.18400
C  29.62400 -0.97400 28.26700
C  30.74100 -1.30400 29.09500
C  30.31300 -1.15700 30.38100
C  28.94500 -0.73500 30.47200
C  32.10700 -1.64100 28.69000
C  30.67600 -1.29000 31.82300
O  31.70500 -1.70100 32.39400
C  29.47200 -0.80100 32.68900
C  29.03500 -1.85500 33.63500
O  28.64500 -2.97700 33.30100
O  29.16300 -1.40000 34.92800
C  29.05500 -2.44900 35.90900
H  22.73300 0.14000 31.22500
H  24.47100 0.91800 24.96700
H  30.29400 -1.20100 26.21600
H  26.42300 -0.76300 33.98300
H  24.33300 0.89800 33.36100
H  24.30200 -2.18800 33.29400
H  23.02400 -0.93600 33.40600
H  24.06500 -1.26100 34.76600
H  25.88900 2.10700 34.15300
H  27.62700 1.78800 33.63300
H  28.16400 1.20900 35.71500
H  26.81400 0.15000 35.88200
H  20.39000 1.55700 29.36900
H  20.88200 0.07800 30.16700
H  20.21000 -0.03900 28.50500
H  19.90400 0.29400 26.26100
H  19.85000 1.75800 25.25800
H  19.88000 1.97500 26.96300
H  26.71500 1.16000 23.85600
H  28.68500 -1.02600 24.06700
H  25.23400 -1.06200 23.69000
H  26.85200 -1.75700 23.09700
H  26.00700 -0.40600 22.32000
H  29.35000 1.80200 25.01600
H  28.79400 1.52600 23.35600
H  30.93000 -0.39100 23.77500
H  31.42900 1.11600 24.57800
H  31.11900 1.07600 22.85600
H  32.65900 -0.77800 28.31800
H  31.96900 -2.45600 27.98000
H  32.53000 -2.16700 29.54600
H  29.62200 0.11500 33.26100
H  29.27500 -2.03500 36.89300
H  29.86700 -3.16200 35.76900
H  28.15100 -3.05800 35.92800

