158

Mg 25.70800 0.80600 29.60400
C  27.55900 0.53000 32.47300
C  22.77400 0.96700 31.40500
C  23.98900 0.74100 26.64900
C  28.61900 0.27000 27.72100
N  25.24100 0.76200 31.72100
C  26.19900 0.79100 32.73600
C  25.52400 0.90700 34.09800
C  24.04400 0.76000 33.77000
C  23.97400 0.81600 32.19600
C  23.35000 -0.47600 34.38200
C  25.92200 2.20400 34.93000
C  26.46700 1.91300 36.38700
H  26.05100 2.88500 37.52600
N  23.77700 0.83400 29.12100
C  22.64300 0.92300 30.02500
C  21.39300 1.13200 29.30400
C  21.70800 1.07900 27.93000
C  23.22500 0.83000 27.85100
C  19.93800 1.04200 29.95900
C  20.78900 1.16200 26.66900
O  21.25400 1.05300 25.50100
C  19.33100 1.39900 26.89100
N  26.25100 0.63300 27.48100
C  25.35100 0.65000 26.46400
C  26.03800 0.72300 25.12000
C  27.60200 0.56500 25.51400
C  27.46800 0.48800 27.00800
C  25.46400 -0.26800 24.09600
C  28.44300 1.75000 25.10400
C  29.93600 1.46700 24.62200
N  27.71600 0.59000 30.03000
C  28.77000 0.35700 29.14800
C  29.97300 0.10400 29.93600
C  29.51400 0.22000 31.25600
C  28.17300 0.39700 31.24100
C  31.29900 -0.31000 29.41300
C  29.94900 0.15100 32.58600
O  31.09200 -0.08900 33.01700
C  28.70500 0.45400 33.46100
C  28.64300 -0.80100 34.42600
O  28.32200 -1.93800 34.15200
O  29.07600 -0.46300 35.69300
C  28.74900 -1.38100 36.82200
H  21.84400 0.83700 31.96100
H  23.43200 1.10500 25.78300
H  29.42100 -0.06200 27.05800
H  25.86500 -0.00400 34.59100
H  23.46000 1.61700 34.10300
H  22.93200 -1.19700 33.68000
H  22.51900 -0.20600 35.03500
H  24.11300 -1.01100 34.94600
H  24.99400 2.74000 35.12500
H  26.69000 2.86900 34.53400
H  27.54900 1.88200 36.25800
H  26.26200 0.90800 36.75800
H  19.34500 0.23200 29.53400
H  19.24100 1.84700 29.72400
H  19.87500 0.83900 31.02800
H  18.78100 1.76100 26.02200
H  19.14000 2.12300 27.68300
H  18.74800 0.50100 27.09500
H  25.89300 1.73100 24.73300
H  28.09600 -0.29400 25.06000
H  24.74900 -1.04200 24.37500
H  26.25200 -0.91400 23.70900
H  24.89600 0.33600 23.38800
H  28.45400 2.64000 25.73400
H  27.97500 2.24100 24.25100
H  30.24000 0.42100 24.58000
H  30.67800 1.94100 25.26600
H  30.05200 1.81200 23.59500
H  31.36500 -1.34900 29.09000
H  31.97700 -0.18600 30.25800
H  31.68900 0.29200 28.59200
H  28.84900 1.31900 34.10900
H  28.39300 -2.38300 36.58100
H  28.02800 -0.85000 37.44300
H  29.67300 -1.41500 37.40100
Mg -1.63600 34.52500 26.71700
C  -3.34200 32.61500 29.06600
C  -0.77900 36.77400 29.17800
C  -0.80400 36.63000 24.29600
C  -3.10400 32.39300 24.17800
N  -1.90100 34.61000 28.92200
C  -2.53900 33.63200 29.66000
C  -2.46400 34.04200 31.17800
C  -1.75500 35.45300 31.16500
C  -1.49000 35.66300 29.67800
C  -2.68200 36.53600 31.88800
C  -1.73600 33.01700 32.18000
C  -2.40500 32.68300 33.58000
H  -1.63600 32.59300 34.88700
N  -0.68600 36.27900 26.70400
C  -0.35900 37.03900 27.82000
C  0.47800 38.14300 27.32100
C  0.44000 38.25000 25.93500
C  -0.37500 37.00900 25.57200
C  1.25700 38.94900 28.31500
C  1.03000 39.17200 24.98700
O  0.91600 38.99000 23.78700
C  1.95400 40.37500 25.48800
N  -1.77500 34.45000 24.53500
C  -1.44900 35.46300 23.81400
C  -1.70200 35.23700 22.29700
C  -2.27800 33.80600 22.26100
C  -2.32300 33.45500 23.76200
C  -2.59900 36.41900 21.60400
C  -1.59800 32.87400 21.30600
C  -0.38000 32.08000 21.90000
N  -2.79700 32.79000 26.62500
C  -3.32900 32.08100 25.53900
C  -4.14100 30.96400 26.04900
C  -4.22100 31.16900 27.42900
C  -3.39200 32.28100 27.76300
C  -4.89700 29.95200 25.23100
C  -4.77200 30.68700 28.66200
O  -5.53900 29.79500 28.82500
C  -4.08800 31.53800 29.80200
C  -5.15200 32.01600 30.76800
O  -5.92700 32.94700 30.66400
O  -5.20300 31.13100 31.79700
C  -6.19600 31.45100 32.83300
H  -0.52700 37.49300 29.96000
H  -0.52600 37.34000 23.51400
H  -3.59100 31.85500 23.36100
H  -3.48500 34.15200 31.54500
H  -0.82600 35.41300 31.73500
H  -3.54000 36.02100 32.32100
H  -3.09600 37.22300 31.14900
H  -1.99500 37.00000 32.59500
H  -0.71200 33.25000 32.47400
H  -1.78600 32.07200 31.63800
H  -3.05200 31.80800 33.51200
H  -3.03300 33.56400 33.70900
H  1.21500 38.65300 29.36300
H  0.88600 39.97200 28.27100
H  2.30100 38.93500 28.00100
H  2.80800 39.91700 25.98800
H  1.39600 40.91600 26.25200
H  2.46700 41.04100 24.79500
H  -0.75100 35.18500 21.76700
H  -3.30500 33.91000 21.90900
H  -2.02700 36.74600 20.73600
H  -2.70500 37.28300 22.26100
H  -3.54500 35.98600 21.27900
H  -1.26100 33.28500 20.35500
H  -2.36300 32.15300 21.01900
H  -0.07200 32.45600 22.87600
H  0.46700 32.25500 21.23600
H  -0.65300 31.04100 22.08700
H  -4.26600 29.78700 24.35800
H  -5.87100 30.33200 24.92100
H  -4.97200 28.97800 25.71400
H  -3.39000 30.82700 30.24500
H  -7.23500 31.26100 32.56300
H  -6.21200 32.48600 33.17700
H  -5.97300 30.85300 33.71600

