158

Mg 9.45000 47.84400 26.16400
C  7.74700 47.97800 29.20600
C  12.13200 49.37100 27.83400
C  11.25300 47.54400 23.37900
C  6.55300 46.96300 24.58500
N  9.84100 48.68700 28.27800
C  9.07100 48.38700 29.36100
C  9.70400 48.84800 30.67100
C  11.00600 49.62600 30.19100
C  10.95500 49.27900 28.68600
C  11.04100 51.13200 30.55200
C  10.00500 47.50000 31.51100
C  9.88900 47.77300 33.15300
H  9.89000 46.52600 34.08700
N  11.41000 48.37100 25.68900
C  12.35800 48.83200 26.48600
C  13.68100 48.78500 25.87000
C  13.47100 48.32000 24.56100
C  11.99400 48.02000 24.48600
C  14.92000 49.21400 26.68800
C  14.46800 48.29900 23.40500
O  14.11700 48.02200 22.30800
C  15.86400 48.76900 23.66800
N  8.96100 47.35600 24.28800
C  9.86300 47.30500 23.22800
C  9.28800 46.64900 21.98200
C  7.87400 46.13800 22.53600
C  7.73100 46.90100 23.87300
C  9.42600 47.41500 20.66100
C  7.72000 44.62600 22.75900
C  8.80900 43.89900 23.55000
N  7.48500 47.65700 26.73400
C  6.42200 47.28800 26.00000
C  5.26600 47.19300 26.81800
C  5.70400 47.42800 28.15200
C  7.09100 47.72400 28.00700
C  3.87100 46.68300 26.34800
C  5.42000 47.41500 29.57500
O  4.38400 47.20600 30.15100
C  6.79200 47.72200 30.29900
C  6.99400 46.38100 31.00000
O  7.04800 45.24600 30.48500
O  7.14300 46.59300 32.37700
C  6.92500 45.50700 33.42100
H  12.93200 49.97300 28.27000
H  11.92900 47.35700 22.54200
H  5.66000 46.48000 24.18400
H  9.07100 49.51400 31.25700
H  11.92800 49.19800 30.58600
H  10.13900 51.49700 31.04200
H  11.14500 51.65800 29.60300
H  11.92900 51.52300 31.04800
H  11.07900 47.33800 31.42400
H  9.51300 46.61500 31.10800
H  8.94600 48.27100 33.37700
H  10.60000 48.56100 33.40000
H  14.84100 48.97100 27.74800
H  15.04900 50.27700 26.48500
H  15.87000 48.74700 26.42700
H  16.39400 49.08500 22.77000
H  16.42800 48.04600 24.25800
H  15.91700 49.70100 24.23000
H  9.84600 45.73800 21.76400
H  7.08900 46.51300 21.88000
H  8.42400 47.83600 20.58100
H  9.67400 46.77100 19.81700
H  10.23400 48.12500 20.83800
H  7.35800 44.09500 21.87900
H  6.89000 44.58100 23.46300
H  8.54000 43.71800 24.59000
H  9.77400 44.40500 23.52100
H  9.05900 42.93700 23.10200
H  3.41900 46.11500 27.16100
H  4.11200 45.99900 25.53500
H  3.30300 47.54200 25.98900
H  6.67700 48.53800 31.01300
H  7.25200 46.01700 34.32700
H  7.49900 44.59300 33.26500
H  5.88200 45.19300 33.44100
Mg -12.37900 17.03100 42.24100
C  -9.24900 15.36700 42.08400
C  -10.73200 19.77000 40.90700
C  -15.34200 18.07300 41.42700
C  -13.73400 13.99100 43.46500
N  -10.20600 17.48000 41.58600
C  -9.09400 16.66000 41.53100
C  -7.80300 17.40600 41.15700
C  -8.36200 18.89700 41.11500
C  -9.86100 18.78800 41.15500
C  -7.80800 19.72600 42.22900
C  -7.23100 16.88600 39.84400
C  -5.72900 16.63700 39.86000
H  -5.25100 15.34600 39.18700
N  -12.95500 18.77600 41.39200
C  -12.12600 19.79500 40.97100
C  -13.05300 20.79200 40.36500
C  -14.36400 20.42200 40.58800
C  -14.30500 19.06600 41.21700
C  -12.59200 22.06700 39.55500
C  -15.58100 21.10400 40.08000
O  -15.54800 22.21800 39.49200
C  -16.93900 20.59000 40.37000
N  -14.21800 16.20300 42.54500
C  -15.34500 16.87700 42.14000
C  -16.64400 16.21300 42.58900
C  -16.16100 14.82300 43.17500
C  -14.58600 15.01600 43.05100
C  -17.46900 17.01100 43.56800
C  -16.66800 13.55200 42.47600
C  -17.67100 12.60800 43.20200
N  -11.69700 15.14600 42.70700
C  -12.33500 14.03800 43.25300
C  -11.34200 13.00700 43.61500
C  -10.15800 13.53700 43.18800
C  -10.42200 14.79100 42.61600
C  -11.63800 11.61600 44.17100
C  -8.81800 13.25000 43.09400
O  -8.18500 12.25400 43.45300
C  -8.16100 14.38300 42.36900
C  -7.08100 14.96300 43.31700
O  -7.41800 15.52800 44.31800
O  -5.86900 14.82300 42.81100
C  -4.77000 15.41400 43.65300
H  -10.29000 20.69500 40.53200
H  -16.33000 18.26200 41.00100
H  -14.07800 13.04900 43.89800
H  -7.00600 17.19500 41.87000
H  -8.14300 19.52200 40.24900
H  -7.35100 19.11200 43.00500
H  -8.65900 20.16100 42.75300
H  -7.13900 20.50100 41.85300
H  -7.41000 17.59800 39.03900
H  -7.76900 15.97100 39.59400
H  -5.36000 16.57900 40.88300
H  -5.31400 17.50900 39.35500
H  -13.04500 22.10700 38.56400
H  -11.50600 22.06600 39.46100
H  -12.76500 22.99200 40.10500
H  -17.73300 21.33600 40.33200
H  -16.80200 20.32100 41.41700
H  -17.13500 19.78600 39.66000
H  -17.23500 15.99000 41.70100
H  -16.39400 14.72300 44.23500
H  -17.55600 16.58500 44.56700
H  -18.43800 17.11700 43.07900
H  -17.05800 18.01200 43.70100
H  -15.75700 12.98700 42.27900
H  -17.10800 13.86500 41.53000
H  -17.14900 11.65600 43.28900
H  -18.51800 12.55300 42.51800
H  -17.84000 13.11700 44.15200
H  -11.96900 11.80400 45.19300
H  -10.71200 11.04200 44.14100
H  -12.41800 11.04600 43.66700
H  -7.74500 13.93100 41.46900
H  -5.16000 15.73300 44.62000
H  -4.34100 16.29200 43.17100
H  -3.96400 14.68500 43.73800

