158

Mg 0.08500 44.06900 25.13900
C  2.14200 44.01100 28.10700
C  -2.45000 42.98600 27.13200
C  -1.70700 44.24600 22.42700
C  2.95300 44.71200 23.27000
N  -0.08000 43.48800 27.39900
C  0.86500 43.66800 28.41200
C  0.22100 43.34200 29.82600
C  -1.13600 42.67800 29.36500
C  -1.23900 43.13800 27.87100
C  -1.34900 41.16900 29.53700
C  -0.05600 44.66600 30.55500
C  0.06000 44.62400 32.04600
H  -0.29200 43.30200 32.75200
N  -1.77600 43.72700 24.84300
C  -2.71300 43.35100 25.75800
C  -3.98400 43.20500 25.08700
C  -3.83100 43.55900 23.71900
C  -2.43800 43.97700 23.63500
C  -5.25200 42.93200 25.85300
C  -4.85100 43.60200 22.50900
O  -4.49100 43.97500 21.39800
C  -6.31200 43.26000 22.69800
N  0.65200 44.02200 22.96000
C  -0.37600 44.36800 22.09200
C  0.17000 44.96000 20.73400
C  1.69300 45.29600 21.17500
C  1.73100 44.66400 22.59000
C  0.12800 43.95500 19.55900
C  2.10900 46.76800 21.10900
C  1.37000 47.73200 22.05900
N  2.11700 44.23700 25.50600
C  3.13100 44.49000 24.67900
C  4.39200 44.47900 25.35300
C  4.02600 44.36000 26.71400
C  2.58800 44.20300 26.74300
C  5.85200 44.69100 24.75500
C  4.53900 44.29700 28.03700
O  5.73200 44.23000 28.31600
C  3.28900 44.08500 28.99400
C  3.58100 42.90200 29.88900
O  3.67000 41.74100 29.44400
O  3.63200 43.27500 31.20700
C  3.87800 42.13700 32.15000
H  -3.21700 42.68100 27.84700
H  -2.29900 44.55600 21.56300
H  3.78100 45.06500 22.65300
H  0.79700 42.67500 30.46700
H  -1.93500 43.19900 29.89300
H  -0.58300 40.87500 30.25500
H  -1.10500 40.63500 28.61900
H  -2.28400 40.86300 30.00500
H  -1.05000 45.05200 30.33100
H  0.65900 45.42600 30.23900
H  -0.44300 45.46000 32.53200
H  1.11900 44.74400 32.27500
H  -5.48800 43.88500 26.32600
H  -4.89300 42.26700 26.63800
H  -5.96300 42.47100 25.16800
H  -6.74400 43.67300 23.61000
H  -6.23400 42.17400 22.75400
H  -6.98400 43.63300 21.92500
H  -0.45500 45.84100 20.58800
H  2.37000 44.71800 20.54600
H  -0.58600 44.32000 18.82100
H  -0.18400 42.99100 19.96100
H  1.00100 43.93100 18.90700
H  1.72700 47.00800 20.11700
H  3.19800 46.81500 21.11500
H  1.97800 48.23900 22.80800
H  0.74600 47.01800 22.59700
H  0.65100 48.35500 21.52600
H  5.82700 45.43300 23.95700
H  6.37400 43.78400 24.45000
H  6.45500 45.07300 25.57800
H  3.18800 44.95900 29.63600
H  2.87000 41.81200 32.41100
H  4.49700 42.45400 32.99000
H  4.43800 41.29500 31.74300
Mg -1.42600 34.90300 26.05400
C  -3.00300 32.98900 28.45500
C  -0.15400 36.85200 28.45600
C  -0.30700 36.82500 23.57200
C  -2.84100 32.70700 23.52600
N  -1.59500 34.89100 28.26100
C  -2.17600 33.97600 29.03400
C  -2.06800 34.29400 30.52700
C  -1.34100 35.67900 30.51300
C  -1.02200 35.84700 28.97200
C  -1.97800 36.91300 31.05900
C  -1.20900 33.22100 31.30600
C  -2.02300 32.42900 32.38200
H  -1.36100 32.22200 33.71100
N  -0.34700 36.59300 26.00300
C  0.13400 37.26700 27.11000
C  0.95400 38.36300 26.69200
C  0.79800 38.45000 25.29600
C  -0.07200 37.32200 24.88500
C  1.69900 39.30400 27.74200
C  1.42900 39.49100 24.40400
O  1.28100 39.54300 23.20400
C  2.30100 40.54400 24.97600
N  -1.51900 34.79000 23.89900
C  -0.95600 35.71000 23.12700
C  -1.09100 35.35900 21.67100
C  -1.67700 33.94200 21.70700
C  -2.06800 33.82000 23.12700
C  -1.89700 36.43700 20.98100
C  -0.63500 32.88800 21.22500
C  0.35200 32.27700 22.20500
N  -2.73700 33.24300 25.92100
C  -3.14800 32.39400 24.87300
C  -4.05600 31.34900 25.37100
C  -4.07400 31.59200 26.80900
C  -3.20300 32.68200 27.03600
C  -4.83400 30.43500 24.53200
C  -4.71800 31.18500 28.11000
O  -5.64200 30.44900 28.33200
C  -3.80500 31.92500 29.17200
C  -4.77700 32.48100 30.12800
O  -5.37500 33.53700 29.97300
O  -4.94600 31.66700 31.21600
C  -5.65200 32.24100 32.37500
H  0.17600 37.63800 29.13800
H  0.19700 37.45700 22.83900
H  -3.26400 32.04100 22.77200
H  -3.07100 34.47500 30.91400
H  -0.46400 35.52600 31.14300
H  -3.04200 36.68300 31.00800
H  -1.81200 37.71700 30.34200
H  -1.71900 37.25400 32.06100
H  -0.32400 33.58300 31.82900
H  -0.88300 32.49200 30.56300
H  -2.26000 31.45600 31.95100
H  -2.93100 32.99700 32.57900
H  2.00900 38.73900 28.62200
H  0.93800 40.02300 28.04700
H  2.58400 39.84900 27.41600
H  1.82500 41.19900 25.70600
H  2.54100 41.10600 24.07400
H  3.24500 40.22700 25.41800
H  -0.08600 35.36400 21.24700
H  -2.52700 33.81200 21.03700
H  -2.17800 37.18700 21.72100
H  -2.80800 36.00800 20.56500
H  -1.21400 36.87800 20.25500
H  -0.12800 33.49100 20.47100
H  -1.26600 32.07400 20.86700
H  0.09300 32.50700 23.23900
H  1.41300 32.43900 22.01400
H  0.18300 31.20200 22.27000
H  -4.22100 30.00500 23.73900
H  -5.68500 30.96000 24.09900
H  -5.27900 29.62700 25.11400
H  -3.31800 31.10800 29.70400
H  -6.57800 32.69400 32.02200
H  -4.97400 32.94100 32.86200
H  -5.88500 31.45800 33.09600

