158

Mg -2.42900 17.35700 27.07700
C  -3.11600 15.24000 29.72900
C  -3.09200 20.12800 29.22000
C  -2.19000 19.43400 24.47300
C  -2.50900 14.64900 24.81500
N  -2.93100 17.55500 29.20800
C  -3.03400 16.55200 30.15000
C  -3.36000 17.06300 31.56100
C  -3.36600 18.58700 31.32100
C  -3.09400 18.82500 29.83600
C  -4.76700 19.22500 31.79800
C  -2.51100 16.59500 32.72200
C  -2.29100 17.50800 33.94800
H  -1.66700 16.83600 35.19300
N  -2.53800 19.47500 26.89000
C  -2.84400 20.44200 27.88200
C  -2.66100 21.73200 27.32300
C  -2.29900 21.56500 25.94300
C  -2.35300 20.09700 25.69700
C  -3.00000 23.05300 28.04200
C  -2.09100 22.66000 24.85700
O  -1.81800 22.39900 23.71200
C  -2.09900 24.02400 25.24900
N  -2.59700 17.06000 24.90000
C  -2.27100 18.11800 24.11100
C  -1.98600 17.61000 22.62400
C  -1.97800 16.09400 22.84900
C  -2.31500 15.90800 24.27800
C  -3.05000 18.07500 21.64500
C  -0.73300 15.34000 22.40400
C  0.48600 15.30800 23.30900
N  -2.72500 15.32500 27.18100
C  -2.67700 14.32500 26.19700
C  -2.81400 13.04400 26.84300
C  -3.02000 13.41800 28.19700
C  -2.96200 14.73800 28.34200
C  -2.64600 11.68800 26.38100
C  -3.22000 12.77600 29.39600
O  -3.28100 11.58900 29.60700
C  -3.34300 13.92900 30.48300
C  -2.38600 13.68700 31.58700
O  -1.21300 14.03100 31.49100
O  -3.10300 13.15500 32.58000
C  -2.32200 12.87400 33.84200
H  -3.12800 20.99100 29.88900
H  -1.94000 20.00200 23.57400
H  -2.48300 13.81800 24.10700
H  -4.33000 16.70600 31.90500
H  -2.50700 18.99100 31.85800
H  -4.86100 19.14800 32.88200
H  -5.64900 18.76800 31.35100
H  -4.82100 20.26500 31.47800
H  -1.56400 16.21200 32.34100
H  -3.06200 15.76700 33.16600
H  -3.26000 17.86800 34.29400
H  -1.70200 18.40300 33.74900
H  -3.57800 22.90500 28.95400
H  -3.59400 23.61700 27.32300
H  -2.11200 23.66100 28.21500
H  -1.47800 24.14800 26.13600
H  -3.10900 24.38400 25.44000
H  -1.63200 24.63300 24.47500
H  -1.00300 17.95800 22.30600
H  -2.79300 15.56000 22.36000
H  -3.71100 17.21700 21.52100
H  -2.67000 18.56700 20.75000
H  -3.55000 18.88900 22.16900
H  -0.35300 15.80900 21.49600
H  -0.98400 14.30600 22.17000
H  0.37100 15.66800 24.33100
H  1.33300 15.82000 22.85200
H  0.82200 14.30200 23.56100
H  -1.88200 11.09200 26.88000
H  -2.36900 11.74400 25.32800
H  -3.63700 11.24600 26.48200
H  -4.35100 14.05300 30.87900
H  -2.22500 13.89700 34.20600
H  -1.32300 12.52700 33.57400
H  -2.75500 12.12100 34.50000
Mg -5.76200 25.63300 25.70600
C  -4.53000 27.09800 28.75700
C  -7.66700 23.48800 27.74400
C  -6.80700 24.05500 23.01900
C  -3.48200 27.48900 23.95000
N  -6.21300 25.47500 28.00500
C  -5.54700 26.12700 28.98600
C  -6.07600 25.75300 30.36600
C  -7.06800 24.57500 30.03700
C  -6.98400 24.46000 28.48800
C  -6.63500 23.27700 30.76000
C  -6.72400 26.93700 31.13000
C  -6.53600 26.80400 32.65300
H  -6.14600 25.49200 33.29600
N  -7.18900 24.15900 25.38500
C  -7.70200 23.30100 26.36000
C  -8.67100 22.49900 25.68500
C  -8.43500 22.51100 24.32600
C  -7.44100 23.59300 24.15200
C  -9.72600 21.69500 26.52900
C  -9.16700 21.80900 23.20800
O  -8.93200 22.03500 22.01500
C  -10.24100 20.70100 23.54700
N  -5.20300 25.75700 23.82500
C  -5.75700 24.99000 22.85700
C  -5.09200 25.25100 21.52800
C  -4.05700 26.38700 21.77300
C  -4.23000 26.57300 23.25900
C  -4.30800 23.85000 21.13000
C  -4.33100 27.64400 21.01100
C  -3.40300 27.98400 19.74300
N  -4.30800 27.04100 26.20700
C  -3.41100 27.68100 25.35800
C  -2.70900 28.63000 26.11100
C  -3.02200 28.34600 27.41600
C  -4.07600 27.43000 27.45900
C  -1.72900 29.58300 25.58900
C  -2.66800 28.72200 28.71900
O  -1.83100 29.45400 29.15300
C  -3.71300 28.01300 29.71100
C  -2.97500 27.22400 30.81000
O  -2.55400 26.05300 30.66300
O  -2.77000 28.02100 31.88600
C  -2.26900 27.17800 33.05100
H  -8.20900 22.73800 28.32500
H  -7.10100 23.63600 22.05400
H  -2.92900 28.27500 23.43200
H  -5.15300 25.48700 30.88100
H  -8.04700 24.90500 30.38500
H  -6.46200 22.43200 30.09300
H  -7.27400 22.99200 31.59500
H  -5.69200 23.39800 31.29300
H  -7.80500 26.96400 30.99100
H  -6.22000 27.85400 30.82300
H  -7.49900 27.16400 33.01600
H  -5.85100 27.58900 32.97500
H  -10.67800 21.56700 26.01500
H  -9.94000 22.06900 27.53000
H  -9.35200 20.67300 26.58900
H  -10.03300 20.02600 24.37600
H  -10.30700 20.15500 22.60600
H  -11.12300 21.32000 23.71400
H  -5.82100 25.44500 20.74200
H  -3.02300 26.04900 21.70400
H  -3.24500 24.09000 21.09100
H  -4.77200 23.70600 20.15400
H  -4.53600 23.05700 21.84200
H  -4.34000 28.45800 21.73600
H  -5.34700 27.61500 20.61700
H  -3.13200 29.03800 19.80200
H  -4.02600 27.81700 18.86400
H  -2.47700 27.41000 19.71000
H  -0.99900 29.05600 24.97400
H  -1.23900 30.03200 26.45300
H  -2.16000 30.36600 24.96500
H  -4.42700 28.68800 30.18400
H  -1.22800 27.44100 33.23700
H  -2.54400 26.12300 33.04600
H  -2.87100 27.54800 33.88000

