158

Mg 48.64500 14.93300 28.02100
C  46.91000 15.24200 31.13900
C  51.12900 16.75200 29.41100
C  50.01500 15.20300 25.08000
C  45.60400 13.80900 26.60300
N  48.92300 15.96100 30.10500
C  48.12500 15.93100 31.18700
C  48.78800 16.51600 32.41800
C  50.16800 17.06200 31.80200
C  50.06300 16.59100 30.39000
C  50.35000 18.60300 32.00000
C  48.95400 15.45300 33.56700
C  48.42400 15.85200 34.97500
H  48.36700 17.37200 35.39200
N  50.43900 15.75100 27.34300
C  51.36000 16.41600 28.06700
C  52.51500 16.82400 27.24700
C  52.23000 16.31400 25.95300
C  50.86300 15.70300 26.10900
C  53.70300 17.52800 27.87300
C  53.08900 16.36900 24.64500
O  52.70400 15.99500 23.56500
C  54.40000 17.11600 24.72200
N  47.89800 14.61200 26.11000
C  48.72000 14.72500 25.03500
C  47.93600 14.46800 23.76900
C  46.54700 14.02200 24.22700
C  46.66500 14.11500 25.74800
C  48.02100 15.68200 22.87200
C  46.04100 12.72000 23.65800
C  46.63800 11.47500 24.31500
N  46.66400 14.62800 28.63200
C  45.63200 14.13500 27.93700
C  44.45000 13.97100 28.81500
C  44.96500 14.30500 30.04900
C  46.27000 14.76500 29.92300
C  43.07200 13.63900 28.45900
C  44.56400 14.36600 31.41700
O  43.50600 14.05800 31.94600
C  45.81700 14.96400 32.24500
C  45.38400 16.21000 32.90500
O  45.42200 17.33200 32.38700
O  44.71400 15.91900 34.01100
C  44.05300 17.02900 34.68900
H  51.91300 17.39600 29.81400
H  50.57800 15.16500 24.14600
H  44.58200 13.63000 26.26500
H  48.11100 17.29800 32.76200
H  50.94700 16.51000 32.32800
H  49.38000 19.08000 32.14200
H  50.94300 19.04500 31.19900
H  50.93000 18.69400 32.91900
H  49.95200 15.22200 33.94100
H  48.51500 14.50600 33.25200
H  49.02100 15.33900 35.72900
H  47.43400 15.40000 34.91600
H  54.12100 18.24700 27.16800
H  54.43000 16.76600 28.15200
H  53.46900 17.96400 28.84400
H  54.27700 18.16700 24.98200
H  54.88500 16.90600 23.76800
H  54.96400 16.56400 25.47400
H  48.48700 13.70300 23.22300
H  45.73600 14.69900 23.96000
H  49.05900 15.81400 22.56800
H  47.65500 16.57900 23.37300
H  47.44000 15.48200 21.97100
H  46.22700 12.67400 22.58500
H  44.96200 12.82000 23.78000
H  47.59500 11.73400 24.76700
H  46.72900 10.69400 23.55900
H  46.03900 11.10400 25.14700
H  43.08800 12.62800 28.05300
H  42.76700 14.25600 27.61400
H  42.38000 13.88300 29.26600
H  46.10500 14.29800 33.05800
H  44.79000 17.56400 35.28800
H  43.20400 16.63800 35.25100
H  43.47500 17.73300 34.09100
Mg 42.21300 40.99100 27.06000
C  41.61600 43.41400 29.51200
C  43.03100 38.87100 29.56200
C  43.21100 38.73800 24.69200
C  41.71000 43.38300 24.63000
N  42.51900 41.17000 29.22900
C  41.92700 42.19400 30.00300
C  41.79300 41.66000 31.44400
C  42.60100 40.40100 31.54300
C  42.72500 40.10300 30.03300
C  43.99000 40.61400 32.31800
C  40.32200 41.59000 31.94800
C  39.98200 42.17600 33.39000
H  39.42600 41.23300 34.45000
N  42.95100 38.98300 27.11200
C  43.21400 38.27400 28.27200
C  43.77000 36.96300 27.96200
C  43.75400 36.86000 26.51800
C  43.25700 38.18700 26.05200
C  44.23400 35.87300 28.92800
C  44.21400 35.71300 25.64800
O  44.17800 35.72700 24.43700
C  44.59400 34.39200 26.23800
N  42.33900 40.95400 24.95800
C  42.83100 40.00800 24.24600
C  42.67100 40.30100 22.74900
C  42.14500 41.74300 22.71600
C  42.01400 42.06300 24.22000
C  44.03600 40.13100 21.99400
C  40.71300 41.97700 22.09800
C  40.43500 43.27300 21.39400
N  41.72700 42.98000 27.03400
C  41.56000 43.83900 25.98300
C  41.24800 45.16100 26.40600
C  41.12500 45.02100 27.80800
C  41.49500 43.66600 28.17800
C  40.91500 46.35800 25.47200
C  40.85200 45.72800 29.04000
O  40.58800 46.88700 29.30400
C  41.07900 44.70400 30.20000
C  42.19300 45.30000 30.96300
O  43.36900 45.15900 30.74100
O  41.69000 45.80100 32.09000
C  42.57800 46.23500 33.21700
H  43.31000 38.19000 30.36900
H  43.59000 37.98300 24.00000
H  41.60400 44.13100 23.84200
H  42.22900 42.43300 32.07600
H  42.12100 39.59500 32.09800
H  44.90500 40.27400 31.83200
H  43.76400 40.05300 33.22500
H  44.21200 41.64300 32.60300
H  39.93100 40.57300 31.90100
H  39.66600 42.17100 31.30100
H  39.25600 42.95800 33.16700
H  40.88800 42.64200 33.77800
H  45.27200 35.58500 28.76500
H  43.49300 35.07400 28.92000
H  44.16800 36.20700 29.96300
H  43.77300 33.93600 26.79100
H  45.41300 34.53200 26.94300
H  44.96100 33.79000 25.40600
H  42.05300 39.52800 22.29200
H  42.93700 42.38800 22.33500
H  44.14900 39.16200 21.50600
H  44.82500 40.00000 22.73400
H  44.28200 40.95000 21.31900
H  39.91400 41.99200 22.84000
H  40.63300 41.13400 21.41100
H  39.55100 43.71100 21.85800
H  40.38500 43.14000 20.31300
H  41.29300 43.94300 21.35300
H  40.81200 47.15500 26.20800
H  39.92000 46.11500 25.10000
H  41.61800 46.65300 24.69300
H  40.16500 44.68600 30.79500
H  42.87900 45.34100 33.76200
H  42.09400 46.80200 34.01300
H  43.48300 46.76100 32.91300

