158

Mg 7.74900 2.73400 27.44300
C  9.07600 0.90100 30.16400
C  5.86900 4.57700 29.47800
C  6.24100 3.96400 24.73700
C  9.11800 0.26800 25.31300
N  7.53600 2.75800 29.53300
C  8.28100 2.06500 30.48900
C  8.11100 2.73500 31.87700
C  6.94600 3.74400 31.66200
C  6.69100 3.67900 30.12700
C  5.81700 3.65700 32.62900
C  9.39500 3.40800 32.42400
C  9.18600 3.95100 33.82300
H  10.10600 3.51500 34.95700
N  6.21500 4.15400 27.10200
C  5.54500 4.81500 28.12900
C  4.67600 5.81900 27.56400
C  4.78400 5.67900 26.17700
C  5.80300 4.55600 25.95100
C  3.70200 6.62400 28.37600
C  4.00200 6.41500 25.07800
O  4.06200 6.11600 23.88800
C  2.96100 7.45400 25.45000
N  7.55100 2.01600 25.30400
C  6.92100 2.84800 24.44300
C  7.02200 2.29600 23.02500
C  8.01500 1.10100 23.22000
C  8.21700 1.07100 24.71900
C  5.69100 1.70800 22.47000
C  9.32200 1.37900 22.47100
C  9.98000 0.05400 22.13800
N  8.93500 1.07000 27.65600
C  9.41400 0.12300 26.68100
C  10.24800 -0.88600 27.30300
C  10.26600 -0.53200 28.66600
C  9.28100 0.54100 28.85000
C  11.00000 -1.99800 26.63200
C  10.80000 -0.85500 30.00200
O  11.59300 -1.68600 30.44000
C  10.03300 0.15200 31.03400
C  9.33200 -0.67400 32.08100
O  8.44600 -1.44500 31.86100
O  9.84400 -0.34400 33.28900
C  9.49900 -1.19500 34.50000
H  5.34800 5.28700 30.12400
H  5.91600 4.54000 23.86800
H  9.67700 -0.46900 24.73200
H  7.78400 2.01900 32.63100
H  7.41300 4.72100 31.77900
H  4.98200 3.15600 32.14100
H  5.46800 4.68100 32.76400
H  6.10300 3.12100 33.53300
H  9.73500 4.15600 31.70800
H  10.17500 2.64700 32.45600
H  8.15600 3.64000 33.99700
H  9.26100 5.03600 33.74700
H  3.90800 7.69400 28.34500
H  3.75600 6.41600 29.44500
H  2.64500 6.51100 28.13400
H  2.15300 6.93100 25.96200
H  2.58700 8.11600 24.66900
H  3.40000 8.16100 26.15300
H  7.38800 3.08600 22.37000
H  7.53200 0.20000 22.84000
H  4.93400 1.93700 23.22000
H  5.60800 0.64400 22.24900
H  5.39700 2.25800 21.57600
H  9.98000 1.95900 23.11800
H  9.13200 1.94400 21.55800
H  9.34000 -0.79500 22.37900
H  10.95200 0.03500 22.63100
H  10.03100 -0.04400 21.05400
H  11.44500 -1.75600 25.66700
H  10.54700 -2.97700 26.47400
H  11.84900 -2.06000 27.31300
H  10.75500 0.73400 31.60600
H  9.25500 -0.49800 35.30100
H  10.40200 -1.68800 34.85900
H  8.64800 -1.81700 34.22200
Mg 46.51700 25.70300 28.26800
C  47.77200 27.93100 30.73100
C  45.91900 23.47600 30.71900
C  46.04500 23.47400 25.78400
C  47.85500 27.93700 25.77300
N  46.71500 25.76300 30.48200
C  47.12400 26.81100 31.28000
C  46.84000 26.55800 32.73400
C  46.45700 25.05200 32.74900
C  46.39400 24.66600 31.19600
C  47.46800 24.09300 33.58800
C  45.62400 27.46100 33.26100
C  45.12500 27.03300 34.65200
H  44.76700 28.15000 35.66300
N  45.81100 23.76800 28.29800
C  45.74100 22.97500 29.40200
C  45.46200 21.63000 28.96300
C  45.42400 21.59100 27.53100
C  45.72900 22.97500 27.13400
C  45.45200 20.48400 29.94000
C  45.18700 20.43600 26.51000
O  45.24200 20.55700 25.29100
C  44.91500 19.20200 27.09700
N  46.77600 25.79000 26.08800
C  46.46700 24.71500 25.35500
C  46.62400 25.08200 23.83900
C  47.08000 26.50200 23.79600
C  47.27800 26.74600 25.32700
C  47.71200 24.14200 23.27900
C  45.97500 27.41200 23.15600
C  46.05700 27.50800 21.61800
N  47.64000 27.51700 28.18800
C  48.13000 28.27200 27.12100
C  48.86800 29.41300 27.65200
C  48.72900 29.38500 29.06300
C  47.96600 28.20100 29.33300
C  49.54400 30.51200 26.81500
C  48.97900 30.04700 30.37500
O  49.59300 31.07700 30.60900
C  48.32500 29.21600 31.46700
C  49.34900 28.87500 32.52000
O  50.42500 28.35400 32.26900
O  48.90600 29.18800 33.76100
C  49.90000 29.07900 34.88400
H  45.56600 22.86000 31.54900
H  45.85600 22.71800 25.02000
H  48.17600 28.64800 25.00800
H  47.75700 26.87000 33.23300
H  45.44900 24.87100 33.12300
H  46.97100 23.61600 34.43300
H  48.27600 24.64000 34.07400
H  47.91800 23.33300 32.94900
H  44.82200 27.44200 32.52400
H  46.04900 28.46400 33.22300
H  45.92800 26.40900 35.04500
H  44.21400 26.46100 34.47800
H  45.90500 19.53900 29.64200
H  44.43500 20.19100 30.19800
H  45.88100 20.76400 30.90200
H  44.17800 19.25400 27.89800
H  45.86100 18.83200 27.49300
H  44.52200 18.47800 26.38300
H  45.68200 24.86500 23.33600
H  48.04900 26.66400 23.32400
H  48.52400 24.08500 24.00300
H  48.05100 24.53800 22.32200
H  47.33500 23.12200 23.19900
H  46.12200 28.41100 23.56500
H  44.94600 27.09000 23.31500
H  46.38600 28.49300 21.28700
H  45.04400 27.44900 21.21900
H  46.71400 26.74400 21.20300
H  49.81900 31.37000 27.42900
H  49.02100 30.84200 25.91800
H  50.45300 29.96500 26.56300
H  47.57500 29.81100 31.98700
H  49.63200 28.32400 35.62200
H  49.86300 30.02100 35.43100
H  50.91900 28.92600 34.52900

