158

Mg -10.00200 39.15000 42.09900
C  -8.69100 35.96800 41.01400
C  -7.00700 40.43500 40.70400
C  -11.29300 42.17400 42.38400
C  -13.04400 37.58700 42.75700
N  -8.06200 38.28300 40.91800
C  -7.75400 36.95600 40.71700
C  -6.42500 36.73100 39.99300
C  -5.87200 38.23900 40.00600
C  -7.02200 39.07200 40.57000
C  -4.49500 38.52500 40.64300
C  -6.52300 36.03800 38.60200
C  -5.45300 34.95000 38.27700
H  -4.50400 35.13900 37.01700
N  -9.26000 40.98900 41.69100
C  -7.99700 41.31500 41.19500
C  -7.89300 42.80200 41.14700
C  -9.14000 43.30300 41.60200
C  -9.95800 42.13400 41.98400
C  -6.73000 43.55900 40.55700
C  -9.52200 44.82900 41.71500
O  -8.62900 45.63600 41.39600
C  -10.86300 45.48300 42.16200
N  -11.89500 39.78800 42.61300
C  -12.16500 41.09800 42.75600
C  -13.61300 41.37100 43.13000
C  -14.18600 39.87000 43.29200
C  -13.01600 39.02700 42.78400
C  -13.88500 42.23500 44.33000
C  -15.48200 39.56400 42.53100
C  -16.76200 40.35000 43.04900
N  -10.76600 37.19600 42.00900
C  -12.07700 36.69100 42.28200
C  -12.02600 35.26400 42.15500
C  -10.70600 34.95400 41.69900
C  -10.00100 36.16400 41.56900
C  -13.23000 34.41900 42.47700
C  -9.82400 33.82600 41.35200
O  -10.05500 32.60900 41.31700
C  -8.51100 34.42400 40.88300
C  -7.41600 33.95400 41.73600
O  -7.46000 33.79400 42.97000
O  -6.43400 33.47800 40.91000
C  -5.22900 32.93700 41.54100
H  -6.04100 40.87300 40.44400
H  -11.90500 43.06300 42.55200
H  -13.96100 37.00200 42.85600
H  -5.83200 36.11100 40.66600
H  -5.86500 38.57300 38.96900
H  -4.54800 39.40800 41.28000
H  -3.75000 38.61800 39.85300
H  -4.14500 37.62700 41.15200
H  -6.39800 36.77400 37.80700
H  -7.47700 35.55100 38.40100
H  -6.05400 34.04300 38.21600
H  -4.85300 34.78300 39.17100
H  -7.05600 44.29400 39.82100
H  -5.86200 42.95800 40.28800
H  -6.26200 44.12400 41.36300
H  -11.66700 45.66100 41.44800
H  -10.57100 46.49100 42.45700
H  -11.23100 45.01700 43.07600
H  -14.17700 41.77600 42.29000
H  -14.36500 39.56900 44.32500
H  -12.96800 42.38700 44.89900
H  -14.70100 41.80900 44.91400
H  -14.11800 43.18200 43.84400
H  -15.87200 38.54700 42.53100
H  -15.41100 39.80100 41.46900
H  -17.65300 39.75400 42.84900
H  -16.94200 41.36800 42.70300
H  -16.75100 40.40700 44.13700
H  -13.81100 34.34300 41.55800
H  -13.94300 34.74800 43.23300
H  -12.96100 33.39100 42.72100
H  -8.23000 34.29800 39.83800
H  -4.45800 33.69700 41.67000
H  -4.61600 32.24300 40.96600
H  -5.52600 32.47900 42.48400
Mg -10.89200 16.95900 42.08800
C  -7.44100 17.35800 42.46100
C  -11.22200 20.31900 41.50200
C  -13.98200 16.42200 41.39600
C  -10.18700 13.40200 41.78700
N  -9.45600 18.61600 41.83100
C  -8.14600 18.54200 42.26200
C  -7.52400 19.93000 42.13500
C  -8.76800 20.82900 42.48500
C  -9.92600 19.86100 41.92700
C  -9.06800 21.06100 43.97800
C  -6.90500 20.16800 40.66700
C  -5.44300 20.53600 40.57200
H  -4.75100 19.54600 39.76600
N  -12.38600 18.23100 41.38200
C  -12.37700 19.61300 41.30200
C  -13.65700 20.07800 41.01500
C  -14.57500 18.98500 41.03400
C  -13.68600 17.84800 41.29400
C  -13.91700 21.53300 40.70100
C  -16.10700 19.12300 40.88100
O  -16.74100 20.13700 40.71500
C  -16.93000 17.84900 41.10800
N  -11.81200 15.21800 41.45800
C  -13.14400 15.34400 41.49900
C  -13.82600 13.95000 41.74400
C  -12.65500 13.03200 41.57300
C  -11.43900 13.88200 41.61500
C  -14.61400 13.80200 43.07900
C  -12.76900 11.98200 40.41100
C  -12.74000 10.56700 40.87900
N  -9.21900 15.57100 42.18600
C  -9.08400 14.17300 42.03300
C  -7.72400 13.83100 42.30500
C  -7.06900 15.03700 42.51200
C  -8.00400 16.06400 42.41200
C  -7.14000 12.49300 42.33100
C  -5.76900 15.61400 42.65900
O  -4.63100 15.18500 42.65300
C  -5.94700 17.15600 42.67900
C  -5.49500 17.66100 44.03900
O  -5.84900 17.30400 45.15700
O  -4.44800 18.56700 43.79000
C  -3.88600 19.20000 44.99600
H  -11.32900 21.40300 41.57400
H  -15.02800 16.11000 41.43600
H  -10.02100 12.32400 41.74300
H  -6.72600 20.10700 42.85600
H  -8.89500 21.73000 41.88400
H  -8.14500 21.10800 44.55500
H  -9.73800 20.34000 44.44700
H  -9.61900 21.99300 44.10700
H  -7.33500 21.14100 40.43100
H  -7.25500 19.37100 40.01000
H  -4.92600 20.44600 41.52800
H  -5.27300 21.57700 40.29500
H  -13.55700 22.15300 41.52100
H  -14.98000 21.77400 40.67000
H  -13.37400 21.81000 39.79700
H  -18.01200 17.93200 41.21600
H  -16.46600 17.39800 41.98400
H  -16.72700 17.20700 40.25100
H  -14.54800 13.89800 40.92900
H  -12.58800 12.49000 42.51600
H  -14.33200 14.61400 43.74900
H  -14.44800 12.80300 43.48300
H  -15.68600 13.87800 42.89700
H  -11.84300 12.09800 39.84800
H  -13.69100 12.12300 39.84800
H  -12.50300 10.30500 41.91000
H  -11.93200 9.99300 40.42400
H  -13.62500 10.01000 40.57300
H  -6.65800 12.28900 41.37500
H  -7.88200 11.69800 42.39700
H  -6.56700 12.41400 43.25500
H  -5.42000 17.64800 41.86200
H  -3.23800 18.46200 45.46800
H  -4.70400 19.46900 45.66400
H  -3.27700 20.07700 44.77600

