158

Mg -2.41500 17.53200 26.03700
C  -2.77900 15.18600 28.72500
C  -2.86000 20.12500 28.36800
C  -2.73000 19.76900 23.53200
C  -2.41700 14.93600 23.82900
N  -2.72800 17.60600 28.35100
C  -2.67600 16.52900 29.19300
C  -2.56800 17.05500 30.62600
C  -2.78300 18.65700 30.45600
C  -2.73000 18.82700 28.98300
C  -4.00300 19.20000 31.26600
C  -1.16700 16.63400 31.25800
C  -0.76200 17.53100 32.42900
H  -0.31900 16.83500 33.74200
N  -2.68300 19.56500 25.94600
C  -2.92600 20.40000 27.01000
C  -3.35700 21.67600 26.49400
C  -3.19700 21.72100 25.14400
C  -2.91000 20.28000 24.80200
C  -3.91600 22.72300 27.37700
C  -3.51100 22.85200 24.16100
O  -3.41600 22.71000 22.94500
C  -3.83400 24.29500 24.68900
N  -2.67800 17.36900 23.91900
C  -2.61700 18.49000 23.13400
C  -2.31800 18.01500 21.66500
C  -2.33000 16.44400 21.82200
C  -2.39200 16.27600 23.28000
C  -3.36300 18.66100 20.63900
C  -1.05500 15.80900 21.24300
C  0.28900 15.89500 21.93500
N  -2.55700 15.53100 26.17800
C  -2.52200 14.56300 25.16600
C  -2.56800 13.24600 25.76300
C  -2.59500 13.48200 27.07500
C  -2.67300 14.80900 27.36600
C  -2.39100 11.84000 25.16600
C  -2.66500 12.79900 28.38500
O  -2.66100 11.60500 28.58000
C  -2.71000 13.85400 29.51400
C  -1.49200 13.62300 30.30100
O  -0.37700 13.78900 29.96800
O  -1.93200 13.06300 31.52800
C  -0.80600 12.60300 32.34300
H  -2.97500 20.95400 29.07000
H  -2.53800 20.59200 22.84100
H  -2.26300 14.06300 23.19100
H  -3.38000 16.52800 31.12800
H  -1.85700 19.04800 30.87600
H  -3.77900 19.88400 32.08400
H  -4.66700 18.39600 31.58500
H  -4.65600 19.83800 30.67100
H  -0.42300 16.68400 30.46400
H  -1.26700 15.60400 31.60300
H  -1.66400 18.05300 32.74900
H  -0.09000 18.29600 32.03900
H  -3.24600 23.57600 27.48100
H  -4.15900 22.26800 28.33700
H  -4.81200 23.16500 26.94100
H  -4.87600 24.19600 24.99300
H  -3.68500 24.86900 23.77400
H  -3.17800 24.66100 25.48000
H  -1.27200 18.23500 21.45400
H  -3.25600 16.02900 21.42500
H  -4.08900 19.38800 21.00300
H  -4.04100 17.96800 20.14100
H  -2.78500 19.22300 19.90600
H  -0.77500 16.30800 20.31500
H  -1.23700 14.73600 21.17200
H  0.26300 16.62600 22.74200
H  0.94500 16.30200 21.16600
H  0.69100 14.94100 22.27800
H  -2.10800 11.90000 24.11500
H  -3.30000 11.24800 25.27100
H  -1.56000 11.41100 25.72600
H  -3.58700 13.63800 30.12500
H  -0.38500 13.48700 32.82400
H  -0.10200 12.00300 31.76600
H  -1.14300 11.99700 33.18400
Mg 24.88400 -6.75500 47.75500
C  27.66500 -4.73800 46.90100
C  22.94400 -4.81500 45.87900
C  22.73800 -9.34600 47.83200
C  27.24400 -8.77800 49.63500
N  25.35200 -5.13800 46.21400
C  26.47100 -4.36800 46.17200
C  26.21800 -3.09600 45.39400
C  24.66700 -3.04500 45.29300
C  24.28900 -4.43100 45.85900
C  23.94300 -1.89800 46.03200
C  26.92200 -3.01200 43.99600
C  26.89600 -1.63500 43.22500
H  25.99000 -1.57100 42.02000
N  23.03900 -6.98100 46.99500
C  22.33000 -6.10100 46.21400
C  21.02400 -6.65200 45.86200
C  20.85900 -7.88600 46.58100
C  22.26500 -8.15900 47.16000
C  20.09600 -5.89600 44.98400
C  19.62900 -8.76500 46.59000
O  18.59300 -8.43800 46.03200
C  19.55600 -10.09200 47.25600
N  25.10100 -8.79900 48.44900
C  24.01800 -9.62200 48.50400
C  24.10800 -10.89000 49.33100
C  25.56100 -10.64900 49.95300
C  26.04700 -9.37300 49.32700
C  23.01400 -10.90500 50.43300
C  26.53100 -11.85200 49.80200
C  27.72400 -12.07900 50.76900
N  26.90900 -6.71800 48.33000
C  27.73500 -7.62000 49.13700
C  29.04500 -7.08200 49.23900
C  29.09000 -5.94000 48.40400
C  27.81100 -5.78800 47.86500
C  30.23800 -7.76500 49.78600
C  29.94000 -4.94700 47.86400
O  31.15200 -4.75100 47.94700
C  29.07600 -4.15100 46.87400
C  29.15200 -2.70400 47.24500
O  29.35100 -2.22900 48.29900
O  29.02800 -1.98700 46.09800
C  28.76500 -0.58400 46.26800
H  22.25400 -4.16300 45.33900
H  22.02600 -10.12700 48.10400
H  27.87800 -9.26400 50.37900
H  26.68400 -2.36200 46.05200
H  24.31300 -3.02800 44.26200
H  24.56600 -1.00500 46.01900
H  23.73300 -2.24800 47.04200
H  22.97300 -1.80800 45.54100
H  26.40400 -3.71600 43.34400
H  27.95900 -3.32500 44.11000
H  27.92000 -1.42700 42.91700
H  26.48200 -0.84000 43.84500
H  20.50200 -5.70200 43.99200
H  19.91500 -4.99200 45.56500
H  19.14600 -6.40400 44.81700
H  18.68400 -10.73400 47.13400
H  19.78500 -9.95000 48.31300
H  20.32300 -10.64100 46.71000
H  24.10300 -11.76800 48.68500
H  25.52800 -10.35000 51.00100
H  22.27100 -10.12200 50.28300
H  23.45600 -10.76300 51.41900
H  22.56100 -11.89000 50.55200
H  26.93300 -11.83200 48.78900
H  25.92800 -12.75900 49.85900
H  27.53900 -13.05900 51.20900
H  27.69100 -11.44500 51.65500
H  28.65500 -12.07100 50.20200
H  31.11100 -7.25700 49.37800
H  30.28400 -8.79500 49.43200
H  30.23000 -7.78800 50.87600
H  29.54900 -4.37800 45.91900
H  29.68000 -0.22600 46.74000
H  27.90600 -0.28300 46.86700
H  28.74000 -0.14600 45.27000

