158

Mg 54.20100 24.02700 45.35600
C  51.84100 26.33100 44.30500
C  52.33700 21.41700 44.33900
C  56.86800 22.15100 45.77500
C  56.24000 26.92300 46.23800
N  52.36200 23.86900 44.25500
C  51.49900 24.99200 43.96800
C  50.15600 24.40200 43.42700
C  50.20600 22.90000 43.88100
C  51.73400 22.73400 44.19300
C  49.37900 22.62900 45.12500
C  50.12800 24.53400 41.87800
C  48.78100 24.68700 41.24100
H  48.40400 23.73400 40.09800
N  54.59600 22.08300 44.90400
C  53.66700 21.11900 44.58100
C  54.31700 19.86600 44.63800
C  55.69400 20.06700 45.02300
C  55.81200 21.48800 45.25200
C  53.61300 18.54500 44.43200
C  56.62700 18.94800 45.37800
O  56.31600 17.77800 45.15600
C  57.97200 19.11700 46.05900
N  56.32000 24.45900 45.78600
C  57.21200 23.47000 46.01600
C  58.48400 23.95200 46.63900
C  58.34900 25.52600 46.62300
C  56.89400 25.69600 46.10400
C  58.68200 23.39700 48.10300
C  59.30600 26.28900 45.71000
C  60.63700 26.70500 46.35300
N  53.98300 26.19100 45.48200
C  54.88000 27.20400 45.89500
C  54.20800 28.47500 45.93600
C  52.93700 28.14800 45.29200
C  52.99000 26.79500 44.92400
C  54.59800 29.74400 46.57300
C  51.62700 28.68700 44.82000
O  51.08900 29.81300 44.80700
C  50.90900 27.46000 44.17700
C  50.62700 27.73600 42.78500
O  51.34000 28.18100 41.90500
O  49.28200 27.87400 42.67800
C  48.77800 28.59800 41.46900
H  51.64000 20.57800 44.30000
H  57.74800 21.53900 45.98300
H  56.70100 27.81500 46.66700
H  49.34000 24.99200 43.84400
H  49.84500 22.24700 43.08700
H  48.90200 23.48100 45.60800
H  50.08400 22.20100 45.83800
H  48.57000 21.91500 44.97600
H  50.50300 23.60000 41.45900
H  50.79900 25.30200 41.49400
H  48.65000 25.73400 40.97100
H  48.12100 24.34400 42.03700
H  54.20800 18.06700 43.65400
H  52.54400 18.46000 44.23700
H  53.78000 17.97400 45.34500
H  58.50300 18.19300 46.28700
H  57.82000 19.66100 46.99200
H  58.74100 19.61300 45.46600
H  59.32500 23.66700 46.00800
H  58.61000 25.91100 47.60900
H  59.66100 23.59700 48.53900
H  58.71500 22.30800 48.13200
H  57.86500 23.65200 48.77700
H  58.64200 27.13100 45.51300
H  59.39500 25.69700 44.79900
H  61.44100 26.67600 45.61800
H  60.91100 26.33500 47.34100
H  60.48900 27.75600 46.60100
H  55.64200 30.04500 46.48500
H  54.40800 29.50400 47.61900
H  53.87600 30.52600 46.34000
H  50.10100 27.15800 44.84400
H  47.81300 28.17900 41.18400
H  49.41500 28.62100 40.58500
H  48.64300 29.64600 41.73500
Mg 6.57200 54.24300 41.36800
C  5.89000 50.89100 40.60200
C  9.58100 53.89800 39.79500
C  6.68700 57.65500 41.33900
C  3.24100 54.50200 42.67600
N  7.59200 52.59600 40.29300
C  7.10400 51.35800 40.04200
C  8.19900 50.61300 39.25200
C  9.50500 51.37000 39.48500
C  8.87600 52.72300 39.93000
C  10.40400 50.86300 40.68500
C  7.79900 50.59900 37.73700
C  8.09300 49.25700 37.02700
H  7.36400 49.20100 35.68900
N  8.02400 55.61100 40.83600
C  9.20600 55.22200 40.18600
C  9.95600 56.47400 40.09900
C  9.04500 57.56200 40.36200
C  7.87100 56.95400 40.87000
C  11.40600 56.49000 39.55700
C  9.40700 59.03800 40.11700
O  10.54600 59.37200 39.78900
C  8.41000 60.10900 40.17200
N  5.12000 55.85400 42.12100
C  5.46900 57.12400 41.89400
C  4.34600 58.05500 42.26400
C  3.28400 57.10500 42.81200
C  3.84700 55.73100 42.46700
C  4.83600 59.13400 43.26900
C  1.87800 57.31900 42.27300
C  0.73700 56.97600 43.18300
N  4.93500 53.01300 41.57100
C  3.69700 53.23100 42.20200
C  3.02500 51.97500 42.43200
C  3.85900 51.02800 41.74800
C  4.97100 51.65800 41.27900
C  1.84900 51.72800 43.25600
C  4.05600 49.60100 41.47200
O  3.30700 48.68100 41.78400
C  5.37800 49.43300 40.52900
C  4.90900 48.93400 39.13600
O  4.25700 49.65100 38.36800
O  5.20800 47.58800 39.03800
C  4.55600 46.98500 37.86700
H  10.60900 53.84300 39.43000
H  6.53900 58.72600 41.18700
H  2.25500 54.49700 43.14600
H  8.34000 49.57200 39.54000
H  10.10400 51.38100 38.57500
H  10.12500 49.86800 41.03200
H  10.37000 51.40300 41.63100
H  11.42700 50.89200 40.31100
H  8.42400 51.31700 37.20700
H  6.76700 50.92000 37.60000
H  7.71500 48.57000 37.78400
H  9.14000 49.07400 36.78500
H  12.05500 57.14700 40.13700
H  11.58900 56.99800 38.61000
H  11.81500 55.48000 39.56900
H  8.88000 61.05500 39.90300
H  7.98800 60.23500 41.16900
H  7.53400 59.99300 39.53400
H  3.98100 58.60800 41.39800
H  3.33200 57.22100 43.89500
H  4.25800 59.21900 44.18900
H  4.70200 60.12100 42.82700
H  5.88600 59.14000 43.55900
H  1.60600 56.72800 41.39800
H  1.81900 58.36600 41.97400
H  1.05700 56.58700 44.15000
H  0.18600 56.16900 42.70000
H  0.00500 57.77200 43.04500
H  0.95500 52.20700 42.85700
H  2.01200 52.04000 44.28800
H  1.50600 50.69500 43.31500
H  6.10600 48.71100 40.89700
H  3.60800 47.44900 37.59400
H  4.49100 45.90600 38.01200
H  5.26900 47.19300 37.06900

