158

Mg 49.24700 36.08500 27.58800
C  47.48300 34.25400 30.06200
C  49.97400 38.53900 30.05900
C  51.13100 37.67000 25.30500
C  48.26300 33.81600 25.26100
N  48.69100 36.33300 29.81800
C  48.08000 35.41300 30.61500
C  48.09100 35.90300 32.10400
C  48.54400 37.37100 31.92700
C  49.03900 37.47400 30.45000
C  47.38700 38.39400 32.41800
C  49.19600 34.95500 32.87100
C  49.08000 34.72600 34.39500
H  48.29600 35.64300 35.24700
N  50.33400 37.86900 27.63300
C  50.52700 38.71000 28.75000
C  51.41900 39.80300 28.41700
C  51.72300 39.61300 26.98600
C  51.06300 38.36000 26.56100
C  51.55200 40.94900 29.37500
C  52.47400 40.53200 26.05100
O  52.65000 40.35300 24.88200
C  53.27700 41.72300 26.67300
N  49.57400 35.84500 25.53400
C  50.42800 36.60400 24.81000
C  50.35900 36.31500 23.32500
C  49.44200 35.08400 23.23600
C  49.08800 34.83500 24.77800
C  49.86500 37.44400 22.48400
C  50.05800 33.79100 22.59600
C  49.51300 33.42000 21.19100
N  48.21700 34.30800 27.59200
C  47.83600 33.56900 26.56900
C  46.80000 32.58300 27.00400
C  46.67100 32.81200 28.35000
C  47.53000 33.89800 28.68700
C  46.16900 31.57300 26.15500
C  46.05600 32.35700 29.51900
O  45.27800 31.43800 29.68300
C  46.48600 33.34500 30.61900
C  46.85300 32.63700 31.92300
O  47.83700 31.93800 32.05100
O  45.85000 32.89200 32.81500
C  45.91600 31.98400 34.00800
H  50.18800 39.30500 30.80800
H  51.62000 38.16300 24.46200
H  47.81400 33.10800 24.56200
H  47.12500 35.77800 32.59300
H  49.49700 37.55900 32.42100
H  46.42600 37.88400 32.48400
H  47.30300 39.27400 31.78100
H  47.69200 38.70700 33.41700
H  50.22600 35.15700 32.57700
H  49.20400 33.95500 32.43500
H  50.10100 34.65100 34.76900
H  48.83300 33.68500 34.60100
H  52.19500 41.76300 29.04100
H  52.08600 40.63500 30.27200
H  50.62300 41.49200 29.54900
H  53.85900 41.44300 27.55100
H  52.59100 42.53200 26.92300
H  53.89000 42.07800 25.84400
H  51.36600 36.00200 23.05000
H  48.45600 35.20100 22.78700
H  49.10800 37.96000 23.07500
H  49.34700 37.06800 21.60200
H  50.71900 38.06900 22.22200
H  49.82800 32.90400 23.18700
H  51.13800 33.93200 22.58700
H  48.78800 34.13900 20.81100
H  49.06500 32.42800 21.24700
H  50.30100 33.51500 20.44300
H  45.25800 32.02300 25.76000
H  45.86600 30.76200 26.81700
H  46.82000 31.26400 25.33700
H  45.58000 33.92900 30.78000
H  45.32200 32.49300 34.76700
H  46.89200 31.72300 34.41700
H  45.36700 31.07800 33.75000
Mg 27.35100 51.29300 26.15200
C  25.52200 52.43400 28.94600
C  29.79300 50.28200 28.37000
C  29.30700 50.68900 23.53200
C  25.02300 52.83900 24.04700
N  27.60900 51.33500 28.43600
C  26.75800 51.83900 29.34100
C  27.23400 51.51600 30.73800
C  28.71800 51.18200 30.51900
C  28.75800 50.91600 29.03900
C  29.76800 52.12000 31.09700
C  26.43000 50.31300 31.41900
C  25.66000 50.76400 32.70000
H  25.55900 49.67000 33.71200
N  29.23700 50.41300 25.99200
C  29.99900 50.06200 26.98000
C  31.20100 49.39600 26.44900
C  31.04600 49.47900 25.04400
C  29.82500 50.26800 24.79300
C  32.44100 48.87000 27.26100
C  31.78200 48.86300 23.86100
O  31.40600 48.79800 22.68200
C  33.17000 48.26600 24.11800
N  27.28500 51.84200 24.02700
C  28.19000 51.40000 23.14400
C  27.71800 51.67700 21.71800
C  26.21900 52.19100 21.96500
C  26.17700 52.33200 23.43000
C  28.59600 52.69600 20.91000
C  25.12900 51.17100 21.46300
C  23.95600 51.68300 20.74300
N  25.58800 52.33800 26.36900
C  24.75600 52.96500 25.39800
C  23.63100 53.48900 26.08400
C  23.95000 53.35700 27.42800
C  25.13400 52.58200 27.55500
C  22.46800 54.19400 25.47900
C  23.46200 53.71300 28.74400
O  22.44600 54.30000 29.11300
C  24.38800 52.99200 29.77500
C  24.87000 54.03900 30.74900
O  25.44100 55.09900 30.42000
O  24.52500 53.57600 31.99500
C  24.89100 54.47000 33.09300
H  30.72500 49.97700 28.85200
H  29.91800 50.41000 22.67100
H  24.16500 53.08300 23.41600
H  27.07400 52.45500 31.26800
H  28.96900 50.20900 30.94200
H  30.40700 51.55400 31.77500
H  29.49400 53.03200 31.62900
H  30.45400 52.35400 30.28300
H  27.04100 49.43600 31.63100
H  25.62400 50.05800 30.73100
H  24.65700 51.14900 32.51700
H  26.17800 51.63400 33.10500
H  33.36200 48.94200 26.68300
H  32.31700 47.84600 27.61500
H  32.59800 49.41400 28.19200
H  33.10000 47.44600 24.83300
H  33.75000 49.02000 24.65100
H  33.77400 47.90700 23.28600
H  27.76800 50.76200 21.12900
H  26.10300 53.20200 21.57500
H  29.63900 52.77200 21.21700
H  28.19400 53.70100 20.78500
H  28.60000 52.29800 19.89600
H  24.89400 50.58200 22.35000
H  25.60600 50.53300 20.71900
H  23.00700 51.29200 21.11100
H  24.06900 51.30400 19.72700
H  24.05200 52.76800 20.70400
H  22.75700 54.59900 24.50900
H  22.22300 55.11200 26.01400
H  21.55200 53.62500 25.32100
H  23.80400 52.24600 30.31400
H  25.70100 53.97100 33.62400
H  24.08400 54.58400 33.81700
H  25.00400 55.49500 32.74000

