158

Mg 36.03000 48.80100 24.71900
C  36.39400 47.06500 27.67000
C  34.91200 51.53200 26.56000
C  35.50400 50.60600 21.85100
C  37.20300 46.07100 22.93400
N  35.82000 49.26200 26.93800
C  35.83500 48.30400 27.92900
C  35.49900 48.91100 29.27400
C  34.78500 50.28200 28.89800
C  35.13300 50.36600 27.34400
C  33.31000 50.36200 29.25700
C  36.82800 49.15800 30.03200
C  36.75300 48.78200 31.50200
H  35.37500 48.81900 32.18400
N  35.29500 50.74500 24.28400
C  34.97800 51.72600 25.20300
C  34.55300 52.89000 24.45900
C  34.74400 52.69200 23.05500
C  35.21300 51.27400 22.98400
C  33.97700 54.14600 25.15400
C  34.38600 53.56100 21.83100
O  34.42000 53.16800 20.65400
C  33.93700 54.97200 22.06800
N  36.11300 48.36300 22.73000
C  35.86700 49.18600 21.69500
C  36.26300 48.55400 20.33900
C  37.01000 47.28200 20.78800
C  36.79100 47.26700 22.28600
C  34.99200 48.35000 19.45700
C  38.46300 47.14800 20.33200
C  39.46900 47.94000 21.20500
N  36.62200 46.90000 25.12600
C  37.10400 45.90200 24.32600
C  37.49500 44.82200 25.18900
C  37.31700 45.18000 26.52600
C  36.76900 46.51600 26.44900
C  38.13100 43.53200 24.78000
C  37.43400 44.78700 27.89400
O  37.77600 43.74300 28.45300
C  36.88500 46.03900 28.66100
C  35.84300 45.52800 29.50800
O  34.72200 45.16700 29.03000
O  36.25700 45.30500 30.77100
C  35.27300 44.59700 31.55700
H  34.55200 52.37800 27.15000
H  35.42500 51.03700 20.85000
H  37.60400 45.20800 22.39900
H  34.77000 48.24700 29.73900
H  35.37200 51.09800 29.32000
H  33.08700 51.28800 29.78700
H  32.86600 49.60100 29.89800
H  32.72800 50.30700 28.33700
H  37.27400 50.14100 29.88700
H  37.54900 48.49200 29.55700
H  37.18000 49.64500 32.01300
H  37.20100 47.83300 31.79600
H  33.38000 53.84300 26.01400
H  33.34000 54.69600 24.46200
H  34.75800 54.79900 25.54200
H  32.93300 55.02300 22.48900
H  33.87000 55.51900 21.12800
H  34.63600 55.48800 22.72600
H  36.95800 49.25500 19.87700
H  36.39400 46.53400 20.28800
H  34.39900 47.49700 19.78700
H  35.16200 48.20500 18.39000
H  34.40200 49.26100 19.55800
H  38.62600 47.57300 19.34200
H  38.61900 46.07000 20.32900
H  40.44000 47.46000 21.32800
H  39.05000 48.07600 22.20200
H  39.61000 48.88700 20.68400
H  37.22300 42.93700 24.68100
H  38.84000 43.12700 25.50200
H  38.67000 43.69700 23.84600
H  37.76900 46.34800 29.21800
H  35.72400 43.98100 32.33600
H  34.71600 43.89400 30.93900
H  34.61400 45.35200 31.98700
Mg 1.08000 42.91700 26.01000
C  3.25300 42.89800 28.86800
C  -1.47400 42.03100 28.17800
C  -0.72200 42.19100 23.38500
C  3.84600 43.46500 24.00200
N  0.93900 42.56300 28.23500
C  1.87400 42.73700 29.22200
C  1.21200 42.74300 30.59000
C  -0.14500 42.06800 30.30000
C  -0.26300 42.30400 28.78600
C  -0.18500 40.52500 30.74500
C  1.09600 44.13600 31.20400
C  1.32600 44.26600 32.70600
H  0.96000 43.12700 33.66000
N  -0.84000 42.35000 25.82800
C  -1.74800 42.03400 26.76200
C  -3.02400 41.84200 26.22000
C  -2.86700 41.91000 24.76800
C  -1.38500 42.05700 24.61900
C  -4.20200 41.62700 27.08100
C  -4.04800 41.84700 23.73500
O  -3.82200 41.93900 22.54600
C  -5.52500 41.77400 24.03800
N  1.49400 42.76600 24.03300
C  0.55100 42.61500 23.12800
C  1.17100 42.70900 21.75900
C  2.51100 43.57100 21.92200
C  2.67600 43.25600 23.38100
C  1.33900 41.34900 21.04600
C  2.50400 45.02500 21.62100
C  1.22000 45.81100 21.72500
N  3.16100 43.20500 26.28100
C  4.13400 43.40600 25.41200
C  5.42300 43.50700 26.05100
C  5.18200 43.26900 27.43600
C  3.71700 43.12300 27.52000
C  6.71000 43.62100 25.21600
C  5.73500 43.08800 28.73100
O  6.90200 42.97600 29.10400
C  4.49100 42.95600 29.72700
C  4.70800 41.77300 30.56200
O  4.72500 40.56700 30.22100
O  4.96000 42.20000 31.79100
C  5.04400 41.29700 32.93500
H  -2.25400 41.76800 28.89500
H  -1.39300 41.97200 22.55200
H  4.64400 43.83900 23.35800
H  1.84500 42.18100 31.27700
H  -0.98800 42.51300 30.82900
H  -0.45800 39.94700 29.86200
H  -1.01400 40.40200 31.44200
H  0.77800 40.13000 31.06800
H  0.11600 44.51000 30.90900
H  1.85100 44.68000 30.63700
H  0.91300 45.20800 33.06700
H  2.38900 44.43400 32.87900
H  -4.54600 42.64800 27.24500
H  -4.02100 41.28900 28.10100
H  -5.02300 40.99800 26.73500
H  -5.76400 42.67200 24.60800
H  -5.58000 40.82100 24.56300
H  -6.14100 41.94200 23.15500
H  0.54300 43.21100 21.02300
H  3.43100 43.12300 21.54700
H  2.32100 41.04600 20.68200
H  0.73400 41.44100 20.14400
H  0.95200 40.51700 21.63400
H  2.75500 45.14400 20.56700
H  3.30700 45.56100 22.12500
H  0.99300 46.01900 20.68000
H  1.36500 46.72500 22.30100
H  0.41900 45.20300 22.14600
H  6.56800 44.25000 24.33700
H  7.06000 42.62600 24.94500
H  7.42600 44.03300 25.92800
H  4.50400 43.82700 30.38200
H  5.68300 41.88000 33.59700
H  5.50500 40.35700 32.63200
H  4.12600 40.91800 33.38400

