158

Mg 41.70700 42.12700 26.00000
C  40.98700 44.36100 28.77100
C  42.71700 39.94100 28.38800
C  42.67300 40.22600 23.52300
C  40.90500 44.67400 23.84600
N  41.94300 42.19700 28.42400
C  41.49600 43.13200 29.27500
C  41.71000 42.68300 30.76300
C  42.06200 41.19000 30.57600
C  42.17100 41.06100 29.08100
C  43.25700 40.59500 31.44400
C  40.46900 43.15100 31.63700
C  40.13500 42.41100 32.94900
H  41.16800 42.67400 34.08300
N  42.47600 40.25100 25.94000
C  42.92100 39.58000 27.04800
C  43.52700 38.33300 26.62200
C  43.41100 38.35100 25.18900
C  42.83300 39.58200 24.77500
C  44.17500 37.23800 27.52800
C  43.82300 37.32700 24.12500
O  43.56800 37.52300 22.94300
C  44.51200 36.14300 24.56000
N  41.89100 42.50100 23.98900
C  42.07200 41.44400 23.10100
C  42.04600 41.88200 21.56200
C  41.14900 43.14100 21.81800
C  41.35500 43.48000 23.25900
C  43.38200 42.18400 20.84700
C  39.65300 43.03700 21.30300
C  38.85300 41.76700 21.50800
N  41.14200 44.11600 26.24500
C  40.81200 45.03100 25.22400
C  40.34900 46.30600 25.82400
C  40.42400 46.06400 27.20000
C  40.94400 44.73600 27.39300
C  39.98400 47.56000 25.08700
C  40.12600 46.69600 28.47800
O  39.60200 47.81300 28.70100
C  40.47200 45.56700 29.52400
C  41.35700 46.10600 30.57000
O  42.58600 46.24000 30.41800
O  40.64700 46.47700 31.64600
C  41.39300 46.68900 32.86900
H  42.93300 39.11200 29.06600
H  43.03900 39.68100 22.65000
H  40.58000 45.42600 23.12500
H  42.62400 43.22400 31.00600
H  41.13000 40.66600 30.78900
H  43.92700 40.01000 30.81500
H  42.83900 39.86400 32.13600
H  43.77400 41.43000 31.91700
H  39.56000 43.02500 31.04900
H  40.43900 44.19800 31.94100
H  40.00100 41.33000 32.91900
H  39.18000 42.87000 33.20500
H  45.16100 37.12500 27.07600
H  43.71600 36.26700 27.34100
H  44.10400 37.39000 28.60500
H  44.69000 35.53400 23.67400
H  43.88100 35.64800 25.29800
H  45.45100 36.47200 25.00700
H  41.47100 41.16500 20.97700
H  41.52900 44.06800 21.38800
H  43.73700 43.14300 21.22500
H  43.37700 42.12900 19.75900
H  44.14700 41.44700 21.09200
H  39.81400 43.13100 20.22900
H  39.20400 43.97400 21.63300
H  37.85500 42.10700 21.78500
H  39.37000 41.20500 22.28500
H  38.83700 41.28500 20.53000
H  39.31300 47.19300 24.31000
H  40.93900 47.92700 24.71200
H  39.64700 48.26100 25.85100
H  39.56600 45.29000 30.06400
H  41.14200 45.80800 33.45900
H  40.93000 47.50300 33.42700
H  42.45900 46.87500 32.73800
Mg -5.76600 25.66100 25.81100
C  -4.10600 26.71000 28.64300
C  -7.56500 23.54900 27.62400
C  -7.01200 24.51400 22.90500
C  -3.54200 27.74200 23.86400
N  -5.60400 24.96700 27.91100
C  -5.06600 25.69200 28.89600
C  -5.47800 25.27000 30.29000
C  -6.52100 24.17000 29.88800
C  -6.64200 24.28400 28.34100
C  -6.26200 22.72000 30.39000
C  -6.31500 26.47700 30.89100
C  -6.19400 26.60000 32.43400
H  -6.05500 25.46000 33.38400
N  -7.20100 24.23700 25.33200
C  -7.86600 23.47500 26.25200
C  -8.69100 22.53800 25.54900
C  -8.68500 22.88100 24.09500
C  -7.53800 23.89300 24.02000
C  -9.47700 21.50100 26.37200
C  -9.48100 22.38500 22.88300
O  -9.28900 22.80200 21.76000
C  -10.67200 21.44100 23.01300
N  -5.35300 26.09600 23.61900
C  -5.97100 25.42200 22.64900
C  -5.44800 25.76700 21.27300
C  -4.45300 26.90400 21.59400
C  -4.45600 26.91300 23.11300
C  -4.62100 24.54900 20.75700
C  -4.77200 28.35100 20.96000
C  -3.57200 28.96200 20.23000
N  -4.06700 26.83600 26.10900
C  -3.37300 27.76200 25.26900
C  -2.41800 28.57400 26.06300
C  -2.66200 28.11600 27.38300
C  -3.67000 27.15100 27.36700
C  -1.47900 29.57700 25.49600
C  -2.13500 28.22400 28.66600
O  -1.31800 28.97100 29.14400
C  -3.10400 27.29200 29.55000
C  -2.26500 26.26400 30.28300
O  -1.59400 25.38600 29.74500
O  -2.20100 26.74200 31.60300
C  -1.00300 26.20500 32.35800
H  -8.06700 22.85600 28.30200
H  -7.41300 24.08300 21.98500
H  -2.74700 28.35700 23.43800
H  -4.65900 25.06400 30.97900
H  -7.50600 24.49600 30.22300
H  -7.08600 22.47400 31.05900
H  -5.34300 22.63200 30.97000
H  -6.13000 22.10500 29.50000
H  -7.35300 26.49500 30.55800
H  -5.85500 27.36700 30.46000
H  -7.00700 27.24300 32.77300
H  -5.32100 27.24300 32.54700
H  -9.29800 20.49100 26.00400
H  -10.48000 21.92800 26.38100
H  -9.12900 21.46700 27.40400
H  -10.99900 21.21200 21.99900
H  -11.38800 21.99900 23.61500
H  -10.35000 20.53400 23.52500
H  -6.29800 26.09900 20.67700
H  -3.41200 26.60400 21.47400
H  -4.13100 24.08500 21.61400
H  -3.84700 24.86100 20.05600
H  -5.24100 23.85600 20.18800
H  -4.91700 28.95200 21.85700
H  -5.68100 28.29000 20.36200
H  -2.93100 28.16500 19.85400
H  -2.91400 29.49200 20.91800
H  -3.77700 29.67000 19.42600
H  -1.95000 30.55200 25.37400
H  -1.14300 29.32800 24.49000
H  -0.67900 29.75800 26.21400
H  -3.65600 28.01800 30.14800
H  -0.34500 27.06800 32.25800
H  -0.73100 25.25800 31.89200
H  -1.28100 26.03000 33.39800

