158

Mg 2.58900 -1.10100 43.89000
C  6.01300 -0.59200 43.18400
C  1.78700 1.57900 41.83200
C  -0.54900 -2.23100 43.70900
C  3.57300 -4.29100 45.05900
N  3.79600 0.27700 42.58700
C  5.19100 0.33400 42.57800
C  5.62900 1.59000 41.75700
C  4.27300 2.36500 41.51000
C  3.18300 1.36600 42.00000
C  4.11900 3.85100 42.05900
C  6.40800 1.27100 40.46300
C  5.92700 0.29700 39.40900
H  5.91100 0.80200 38.02100
N  0.80000 -0.29000 43.01800
C  0.68500 0.77700 42.19300
C  -0.65300 0.93500 41.81300
C  -1.39600 -0.04300 42.52100
C  -0.39900 -0.96700 43.11500
C  -1.22000 2.13000 41.02900
C  -2.88200 -0.08800 42.64400
O  -3.61100 0.72700 42.02800
C  -3.57800 -1.04200 43.57700
N  1.69900 -2.95800 44.34500
C  0.42300 -3.09100 44.21300
C  -0.01900 -4.51200 44.66700
C  1.24700 -5.17600 45.12400
C  2.23700 -4.06900 44.85800
C  -1.25800 -4.65600 45.57900
C  1.57400 -6.57300 44.53600
C  0.43600 -7.53400 44.11500
N  4.42500 -2.12700 44.36600
C  4.63500 -3.36600 44.90200
C  6.04000 -3.54500 45.16700
C  6.68100 -2.49500 44.45600
C  5.63100 -1.68000 43.98100
C  6.62300 -4.70600 45.91800
C  7.95700 -1.91400 44.06800
O  9.14000 -2.20900 44.23600
C  7.52100 -0.58000 43.21000
C  8.15700 0.58900 43.97400
O  7.74600 1.08000 44.96800
O  9.24000 0.94900 43.28300
C  9.79000 2.25700 43.55800
H  1.60100 2.51900 41.30700
H  -1.59000 -2.53600 43.57600
H  3.82000 -5.32800 45.29400
H  6.39200 2.13800 42.30900
H  4.02900 2.34700 40.44700
H  4.35000 4.64100 41.34600
H  4.90500 3.86500 42.81500
H  3.17100 3.85600 42.59700
H  7.36200 0.84900 40.77700
H  6.74500 2.21500 40.03400
H  4.93300 0.03000 39.76800
H  6.58800 -0.56800 39.45500
H  -1.64100 2.85100 41.72900
H  -1.90200 1.82300 40.23600
H  -0.46000 2.71500 40.51000
H  -3.62900 -2.01100 43.08100
H  -4.53300 -0.61800 43.89000
H  -2.94500 -0.96200 44.46100
H  -0.22300 -4.90600 43.67200
H  1.30100 -5.36200 46.19700
H  -1.64500 -3.63800 45.53600
H  -1.01500 -4.93600 46.60400
H  -1.99400 -5.34500 45.16300
H  2.29600 -7.08100 45.17600
H  2.07000 -6.43600 43.57500
H  -0.55300 -7.09600 44.24800
H  0.59400 -8.41900 44.73100
H  0.50600 -7.92000 43.09800
H  6.99700 -5.38100 45.14700
H  5.89800 -5.26400 46.51000
H  7.54500 -4.56300 46.48100
H  7.98300 -0.74700 42.23600
H  9.04500 3.02300 43.34100
H  10.52100 2.41800 42.76600
H  10.13900 2.28300 44.59000
Mg 9.58800 3.13900 27.39500
C  10.83700 1.51900 30.31200
C  7.69800 5.10500 29.35600
C  8.12900 4.20900 24.61300
C  11.02200 0.41200 25.56200
N  9.23600 3.19600 29.57700
C  9.94300 2.52700 30.60600
C  9.49900 3.09300 32.05900
C  8.25800 3.95500 31.71500
C  8.44700 4.16300 30.12400
C  6.89700 3.35600 32.18400
C  10.76800 3.83300 32.70500
C  11.20500 3.22300 34.06200
H  10.23500 2.84300 35.18100
N  8.23100 4.55300 27.06900
C  7.65500 5.36400 27.99400
C  6.96000 6.45200 27.33400
C  6.85200 6.10100 25.93700
C  7.72900 4.88100 25.80100
C  6.37400 7.70800 28.01700
C  6.10700 6.75300 24.81700
O  6.02300 6.37300 23.64600
C  5.42600 8.06400 25.07600
N  9.68200 2.44900 25.39400
C  8.99400 3.11800 24.42800
C  9.13500 2.42300 23.06300
C  10.24700 1.44600 23.31400
C  10.40700 1.42700 24.81500
C  7.78100 1.71500 22.62500
C  11.57200 1.90900 22.58500
C  11.88800 1.17200 21.22000
N  10.74900 1.41800 27.78600
C  11.23600 0.43200 26.96700
C  11.97000 -0.62100 27.70900
C  11.89300 -0.21200 29.03600
C  11.09400 1.00900 29.05900
C  12.69900 -1.88200 27.11000
C  12.28900 -0.49900 30.43000
O  12.97200 -1.39800 30.89500
C  11.55100 0.60800 31.31100
C  10.76500 -0.07600 32.40600
O  9.61900 -0.47300 32.33700
O  11.58800 -0.27400 33.51400
C  11.04000 -0.93300 34.69500
H  7.18900 5.77900 30.04800
H  7.86000 4.52800 23.60400
H  11.41400 -0.51200 25.13100
H  9.13400 2.23900 32.63000
H  8.37100 4.94200 32.16400
H  6.91300 2.27700 32.33300
H  6.06000 3.57500 31.52100
H  6.62400 3.90200 33.08800
H  10.55000 4.88500 32.88800
H  11.55900 3.88700 31.95600
H  11.93400 3.98600 34.33700
H  11.80300 2.35400 33.78700
H  5.28700 7.76800 28.07500
H  6.59400 8.57200 27.39100
H  6.86300 7.75500 28.99000
H  6.03100 8.90600 25.41200
H  4.65600 7.81900 25.80700
H  4.82900 8.35200 24.21100
H  9.39700 3.23100 22.38000
H  9.90200 0.45000 23.03800
H  7.22400 2.51500 22.13900
H  7.12700 1.46400 23.46000
H  7.93600 0.90400 21.91400
H  12.34400 1.53500 23.25700
H  11.67800 2.98000 22.41000
H  12.07700 1.98500 20.51900
H  11.09500 0.58700 20.75400
H  12.80600 0.59600 21.33700
H  12.07300 -2.31100 26.32700
H  12.81000 -2.66100 27.86400
H  13.68300 -1.58400 26.74800
H  12.35200 1.16900 31.79200
H  10.24100 -0.35000 35.15300
H  11.89600 -1.18300 35.32300
H  10.56100 -1.84100 34.32900

