158

Mg 35.62100 2.84100 30.32100
C  33.10600 3.64500 32.60700
C  37.83200 2.78600 32.91700
C  38.03600 1.84100 28.13200
C  33.29100 2.88800 27.81500
N  35.48700 3.08800 32.46700
C  34.34000 3.30000 33.22600
C  34.57100 3.22600 34.67700
C  36.09000 2.96900 34.81000
C  36.52700 3.02300 33.28500
C  36.80400 4.02900 35.75500
C  33.69200 2.08800 35.32600
C  33.21000 2.46100 36.80100
H  33.91500 3.46100 37.73700
N  37.69900 2.45700 30.47400
C  38.36300 2.47500 31.64800
C  39.72900 2.01400 31.35600
C  39.79800 1.69400 29.95900
C  38.52200 2.01800 29.43200
C  40.78800 1.69600 32.46900
C  40.97200 1.04500 29.15400
O  40.86900 0.88100 27.92600
C  42.19500 0.47000 29.96200
N  35.74300 2.56900 28.30500
C  36.74000 2.08000 27.65400
C  36.46700 1.72700 26.17000
C  34.96000 1.98100 26.06900
C  34.60200 2.48400 27.49000
C  37.27000 2.55700 25.06800
C  34.04400 0.77700 25.61900
C  33.06400 1.10800 24.37200
N  33.68700 3.33300 30.13700
C  32.82100 3.36200 29.05700
C  31.52600 3.91300 29.49200
C  31.58400 4.10200 30.85000
C  32.91500 3.58100 31.18400
C  30.34400 4.17300 28.72200
C  30.92400 4.55200 32.08100
O  29.85700 5.08400 32.39600
C  31.86800 4.18700 33.29600
C  32.06900 5.37900 34.12900
O  32.52900 6.43700 33.70800
O  31.58600 5.14200 35.43200
C  31.78500 6.20100 36.38600
H  38.53000 2.91100 33.74800
H  38.66200 1.44000 27.33300
H  32.58600 2.86800 26.98100
H  34.35100 4.19100 35.13300
H  36.34100 1.96500 35.15000
H  37.44800 4.56100 35.05500
H  37.37900 3.61800 36.58500
H  36.13000 4.82900 36.06100
H  34.36000 1.22700 35.32600
H  32.88400 1.77300 34.66500
H  33.07400 1.54800 37.38100
H  32.19300 2.81500 36.63500
H  40.37800 2.15900 33.36700
H  41.78200 2.10800 32.29300
H  40.89800 0.63000 32.66800
H  41.88200 -0.13800 30.81100
H  42.77700 1.34400 30.25400
H  42.72100 -0.13500 29.22300
H  36.58700 0.65100 26.04300
H  34.67300 2.81400 25.42700
H  36.66300 3.20700 24.43800
H  37.74000 1.79500 24.44700
H  37.99400 3.11400 25.66300
H  33.50600 0.52800 26.53400
H  34.66800 -0.07600 25.35400
H  33.25500 0.31200 23.65200
H  33.25600 2.06300 23.88200
H  32.02800 1.16300 24.70700
H  30.48900 4.71200 27.78600
H  29.83700 4.76100 29.48700
H  29.78300 3.24800 28.59100
H  31.32900 3.39400 33.81300
H  31.06900 6.91600 35.98100
H  32.76500 6.56800 36.69000
H  31.37900 5.74400 37.28900
Mg 48.66200 35.04500 26.29200
C  46.85400 33.42400 28.83900
C  48.81600 37.80000 28.34700
C  50.51700 36.47400 24.04800
C  48.23500 32.29200 24.29900
N  47.88000 35.59900 28.31400
C  47.37400 34.71300 29.24300
C  47.33800 35.30100 30.68900
C  47.63400 36.83300 30.42400
C  48.16600 36.71100 28.94700
C  46.50100 37.87400 30.71900
C  48.49400 34.77000 31.58400
C  47.95200 34.37400 32.96500
H  46.77800 35.20100 33.59800
N  49.46000 36.95600 26.13800
C  49.41400 37.96200 27.03300
C  50.09800 39.12400 26.47300
C  50.63600 38.68300 25.22400
C  50.20500 37.33200 25.05200
C  50.22100 40.41500 27.24300
C  51.56200 39.45900 24.24700
O  52.04900 39.06800 23.17200
C  52.15100 40.66600 24.74300
N  49.13900 34.55400 24.35300
C  50.04300 35.25600 23.64100
C  50.29600 34.55900 22.32500
C  49.63900 33.15100 22.48700
C  49.00400 33.32500 23.81300
C  49.72100 35.44800 21.11700
C  50.55600 31.90900 22.28800
C  50.10300 30.77000 21.36400
N  47.61800 33.18900 26.44900
C  47.53900 32.19200 25.51600
C  46.79600 31.08300 26.12100
C  46.49600 31.52000 27.41500
C  47.04700 32.78700 27.54900
C  46.34900 29.78900 25.34500
C  45.81200 31.13200 28.64600
O  45.23000 30.06300 28.98100
C  45.97200 32.41900 29.61300
C  46.55700 31.82900 30.90000
O  47.73300 31.52700 31.03700
O  45.60100 31.57400 31.89100
C  46.09600 30.88800 33.09700
H  48.90600 38.67500 28.99400
H  51.31900 36.71500 23.34700
H  48.31100 31.40400 23.66800
H  46.33700 35.12700 31.08300
H  48.50800 37.26700 30.91200
H  46.35300 38.27900 29.71800
H  46.93400 38.58200 31.42600
H  45.62700 37.40000 31.16500
H  49.32100 35.47300 31.68900
H  48.97800 33.98300 31.00500
H  48.74100 34.31400 33.71400
H  47.52500 33.37700 33.07700
H  51.26200 40.71400 27.36100
H  49.75400 40.36000 28.22700
H  49.71500 41.25400 26.76400
H  51.34800 41.33600 25.04800
H  52.68100 41.25500 23.99400
H  52.75800 40.37200 25.59900
H  51.38300 34.58100 22.40300
H  48.83900 33.08400 21.74900
H  49.16400 36.30600 21.49300
H  48.94900 35.03400 20.46800
H  50.55600 35.96700 20.64600
H  50.62000 31.38100 23.23900
H  51.57300 32.10600 21.94800
H  50.85500 30.15000 20.87600
H  49.53000 31.26800 20.58200
H  49.33900 30.18600 21.87800
H  46.37400 29.82300 24.25600
H  45.33400 29.51100 25.62600
H  46.99300 28.96700 25.65700
H  44.95700 32.74300 29.84200
H  45.73200 29.86200 33.06100
H  45.51200 31.29400 33.92300
H  47.17600 30.89000 33.24900

