158

Mg -1.43900 17.51600 26.68300
C  -1.70600 15.35800 29.41800
C  -2.11300 20.18100 28.88400
C  -1.34700 19.55600 24.00900
C  -1.56900 14.75800 24.56600
N  -1.85400 17.73400 28.93200
C  -1.75000 16.69400 29.81600
C  -1.91900 17.27000 31.30200
C  -2.07500 18.87200 31.05900
C  -2.10300 18.95700 29.54500
C  -3.28300 19.49200 31.90500
C  -0.74800 16.86900 32.34200
C  -0.44200 17.65000 33.64900
H  -0.22800 16.90700 34.99800
N  -1.78200 19.56400 26.44600
C  -2.07400 20.52800 27.45400
C  -1.98300 21.83700 26.84800
C  -1.69100 21.62900 25.45000
C  -1.54300 20.20000 25.26900
C  -2.07100 23.11300 27.73900
C  -1.50100 22.68200 24.28600
O  -1.02800 22.44100 23.16200
C  -1.79500 24.09700 24.56400
N  -1.55900 17.19800 24.59500
C  -1.24000 18.20700 23.70800
C  -0.97700 17.74300 22.26100
C  -0.95200 16.20700 22.47100
C  -1.37200 15.98600 23.94100
C  -2.04000 18.21800 21.20600
C  0.42200 15.55300 22.20600
C  1.63000 16.05200 22.96600
N  -1.51600 15.51800 26.92500
C  -1.69300 14.48600 25.94100
C  -1.87500 13.24300 26.62500
C  -1.89100 13.53300 27.96700
C  -1.72300 14.92200 28.10200
C  -1.96400 11.96300 25.90600
C  -1.97200 12.86400 29.28000
O  -2.06000 11.65000 29.52900
C  -1.81400 14.09300 30.26800
C  -0.62600 13.92100 31.09400
O  0.43000 14.36200 30.82700
O  -0.89300 13.19100 32.21100
C  0.31800 13.01800 33.11700
H  -2.09100 21.03300 29.56600
H  -1.03700 20.19000 23.17500
H  -1.30100 13.95600 23.87500
H  -2.83100 16.82800 31.70300
H  -1.18400 19.41400 31.37500
H  -2.98100 20.31500 32.55300
H  -3.66600 18.77000 32.62700
H  -4.06800 19.93700 31.29400
H  0.17600 16.77500 31.77100
H  -0.92600 15.88100 32.76600
H  -1.19600 18.41400 33.83600
H  0.44500 18.25800 33.47600
H  -2.47500 22.96900 28.74100
H  -2.77700 23.79900 27.26900
H  -1.04500 23.48100 27.75900
H  -2.58400 24.15500 25.31300
H  -2.09000 24.54400 23.61500
H  -0.97800 24.74000 24.89200
H  -0.02000 18.11300 21.89300
H  -1.67400 15.69900 21.83100
H  -2.80100 18.87500 21.62600
H  -2.75300 17.43100 20.96100
H  -1.62400 18.73600 20.34200
H  0.63600 15.79800 21.16500
H  0.39000 14.46500 22.26200
H  1.60100 16.89000 23.66300
H  2.38300 16.35700 22.23900
H  2.11100 15.15100 23.34700
H  -1.04800 11.42400 26.14700
H  -1.81600 12.08500 24.83300
H  -2.89600 11.45100 26.14700
H  -2.66500 14.18900 30.94200
H  0.02800 13.29200 34.13100
H  1.24300 13.58000 32.98200
H  0.65300 11.98100 33.08900
Mg 7.08200 53.72000 41.73600
C  6.20600 50.37400 41.31900
C  10.17100 53.00900 40.16600
C  7.83300 57.06300 41.36100
C  3.89900 54.45300 42.57500
N  7.95300 51.90200 40.72600
C  7.48900 50.61200 40.77500
C  8.52300 49.58000 40.31800
C  9.80800 50.48300 40.33800
C  9.30100 51.91800 40.35400
C  10.79200 50.15000 41.52000
C  8.13700 48.87300 38.92900
C  7.57000 49.76100 37.84500
H  7.10800 49.11800 36.55900
N  8.86300 54.91400 41.05100
C  9.92900 54.37600 40.37500
C  10.84800 55.45200 40.09200
C  10.25400 56.69300 40.42700
C  8.91600 56.23600 41.00900
C  12.17100 55.19800 39.36800
C  10.77400 58.09300 40.13100
O  11.81900 58.26400 39.53000
C  9.97700 59.34100 40.49900
N  6.11200 55.44800 41.94100
C  6.58200 56.67600 41.78000
C  5.47500 57.76500 42.21500
C  4.26100 56.91000 42.61900
C  4.75400 55.48400 42.35200
C  5.82900 58.92200 43.12300
C  2.95600 57.21500 41.96000
C  1.71500 57.50100 42.95600
N  5.39100 52.66900 41.94400
C  4.15700 53.03500 42.38000
C  3.28800 51.84600 42.51900
C  4.09800 50.79800 42.16700
C  5.37700 51.32100 41.78500
C  1.89200 51.87700 42.87300
C  4.18100 49.36700 41.95400
O  3.23300 48.59600 42.10400
C  5.61100 49.04900 41.54100
C  5.34000 48.37300 40.23100
O  4.86100 48.83400 39.25700
O  5.65700 47.00300 40.40200
C  5.19400 46.22800 39.21000
H  11.09300 52.68400 39.68000
H  7.99300 58.14200 41.42100
H  2.89800 54.62700 42.97400
H  8.49300 48.74700 41.02100
H  10.43400 50.44700 39.44600
H  10.40200 49.41100 42.21900
H  10.93200 51.02700 42.15300
H  11.70900 49.73300 41.10400
H  7.71100 47.89200 39.14200
H  9.08300 48.65100 38.43500
H  8.29700 50.49900 37.50400
H  6.75000 50.41000 38.15200
H  12.72800 56.10600 39.13900
H  12.08400 54.55000 38.49600
H  12.86300 54.70800 40.05300
H  8.94700 59.20900 40.16700
H  10.38700 60.26600 40.09500
H  10.15900 59.40900 41.57200
H  5.30800 58.28700 41.27200
H  4.03600 56.90700 43.68600
H  5.30500 58.97100 44.07700
H  5.55200 59.87100 42.66400
H  6.89000 58.89100 43.37000
H  2.73500 56.43000 41.23700
H  3.06700 58.12200 41.36400
H  2.11300 58.05800 43.80500
H  1.19400 56.57600 43.20200
H  1.11000 58.27300 42.48100
H  1.42800 52.85600 42.74900
H  1.82500 51.75000 43.95300
H  1.37700 51.13900 42.25800
H  6.06900 48.36900 42.26000
H  5.53200 45.19500 39.27900
H  5.54800 46.67700 38.28200
H  4.10800 46.25900 39.12100

