158

Mg 35.15200 2.96100 29.69000
C  32.48300 3.92300 31.88700
C  37.24400 3.37700 32.32200
C  37.56400 2.12600 27.67500
C  32.85100 3.13000 27.02400
N  34.85600 3.50100 31.90400
C  33.70900 3.79900 32.56300
C  33.87200 3.79600 34.15100
C  35.42400 4.09700 34.10800
C  35.87400 3.59900 32.72700
C  35.81900 5.49900 34.55900
C  33.39400 2.42600 34.78600
C  33.12800 2.50300 36.26800
H  33.96900 3.47100 37.06600
N  37.13200 2.68000 29.98600
C  37.87600 2.93900 31.13800
C  39.26500 2.57100 30.95700
C  39.34200 2.13700 29.59500
C  38.02000 2.33300 28.99200
C  40.21800 2.71800 32.05900
C  40.51800 1.55600 28.87500
O  40.44400 1.28200 27.65200
C  41.83700 1.28900 29.52900
N  35.21400 2.66000 27.59200
C  36.32700 2.24700 26.95700
C  36.24200 2.36000 25.42200
C  34.64900 2.58900 25.20100
C  34.20100 2.79100 26.67000
C  37.12500 3.56100 24.84600
C  34.06000 1.28100 24.59700
C  33.34100 1.40000 23.23300
N  33.08600 3.55600 29.40600
C  32.34400 3.46000 28.25900
C  30.94300 3.63900 28.71400
C  30.98300 3.87500 30.11400
C  32.31800 3.78400 30.46700
C  29.76400 3.68300 27.80900
C  30.15200 4.19300 31.34000
O  28.95700 4.41000 31.41500
C  31.07400 4.15400 32.53300
C  31.06400 5.33500 33.41500
O  31.50400 6.43300 33.23400
O  30.57800 4.86200 34.60200
C  30.60300 5.86900 35.66100
H  37.92800 3.51800 33.16200
H  38.41100 1.81600 27.05900
H  32.13900 2.98400 26.20800
H  33.26900 4.60700 34.55900
H  35.85300 3.37800 34.80600
H  36.46800 5.44500 35.43400
H  34.95100 6.05000 34.92000
H  36.31500 6.11200 33.80600
H  34.20600 1.71700 34.63100
H  32.59800 1.97500 34.19300
H  33.16600 1.57600 36.84100
H  32.13500 2.95200 36.25400
H  40.93100 1.89900 31.96400
H  39.67600 2.63300 33.00000
H  40.75000 3.66800 32.11800
H  41.57900 0.65200 30.37500
H  42.29400 2.24500 29.78200
H  42.45800 0.78100 28.79100
H  36.59800 1.40500 25.03600
H  34.58800 3.45500 24.54200
H  36.58800 4.35600 24.32900
H  37.92500 3.21700 24.19100
H  37.58200 4.05300 25.70500
H  33.29300 0.93100 25.28700
H  34.67500 0.38700 24.70000
H  34.08000 1.01900 22.52700
H  33.20400 2.46500 23.04600
H  32.47500 0.74300 23.14700
H  28.95600 4.25500 28.26500
H  29.40400 2.71900 27.44700
H  30.12800 4.26100 26.96100
H  30.79200 3.30700 33.15800
H  30.30800 5.58300 36.67000
H  30.01600 6.72700 35.33400
H  31.63900 6.20400 35.71400
Mg 1.11600 43.73300 25.65100
C  3.19700 43.38000 28.45200
C  -1.59300 43.06600 27.72000
C  -0.89800 43.36000 22.98700
C  3.97300 43.39500 23.56100
N  0.90100 43.28800 27.85100
C  1.85100 43.32900 28.83000
C  1.33800 43.11200 30.19300
C  -0.19100 42.74500 29.92500
C  -0.35000 43.01400 28.37700
C  -0.50600 41.31100 30.29600
C  1.49400 44.36300 31.21800
C  1.67300 43.94200 32.72900
H  1.21000 42.49700 33.11900
N  -0.98300 43.61100 25.41700
C  -1.89400 43.39000 26.39500
C  -3.19600 43.50400 25.79900
C  -2.97100 43.50800 24.40600
C  -1.57800 43.48700 24.22700
C  -4.52200 43.53800 26.60100
C  -4.03200 43.42600 23.33000
O  -3.77500 43.52700 22.15500
C  -5.46600 43.24300 23.68000
N  1.56200 43.50800 23.59600
C  0.50500 43.28600 22.74700
C  1.00500 42.88900 21.31100
C  2.48400 43.34500 21.42000
C  2.74200 43.39100 22.96200
C  0.75700 41.40200 20.88000
C  2.82000 44.73500 20.75500
C  4.00700 44.69700 19.75600
N  3.11100 43.46800 25.88900
C  4.13000 43.48100 24.95500
C  5.40800 43.39700 25.62600
C  5.03700 43.40800 26.96100
C  3.66300 43.43700 27.11500
C  6.78900 43.57600 25.11200
C  5.65300 43.48000 28.32600
O  6.80600 43.64600 28.67400
C  4.45300 43.42100 29.30200
C  4.63200 42.22600 30.11500
O  4.48700 41.08100 29.78300
O  5.21900 42.71500 31.29000
C  5.74500 41.68800 32.22200
H  -2.42900 42.97600 28.41600
H  -1.52600 43.36600 22.09400
H  4.74500 43.19800 22.81400
H  1.90500 42.29900 30.64600
H  -0.86900 43.41800 30.44900
H  0.37200 40.86300 30.76300
H  -0.75100 40.84800 29.34100
H  -1.37500 41.27800 30.95400
H  0.56000 44.91500 31.10700
H  2.28800 45.02800 30.88100
H  1.04400 44.50900 33.41600
H  2.66800 44.25300 33.04600
H  -4.78800 44.59200 26.68200
H  -4.20200 43.12800 27.55900
H  -5.36100 42.91900 26.28200
H  -6.00600 43.11800 22.74100
H  -5.77600 44.19700 24.10600
H  -5.62100 42.32200 24.24100
H  0.41000 43.44800 20.58900
H  3.25500 42.61600 21.17100
H  1.62700 40.99900 20.36200
H  -0.04500 41.38400 20.14300
H  0.51400 40.78400 21.74500
H  2.85200 45.46300 21.56600
H  1.90600 45.00100 20.22300
H  4.47500 45.68200 19.76300
H  3.75800 44.71200 18.69500
H  4.81900 44.02300 20.03000
H  7.27700 44.23600 25.83000
H  6.92100 44.12300 24.17800
H  7.39100 42.66700 25.12100
H  4.44300 44.28900 29.96000
H  6.80600 41.74500 32.46400
H  5.62100 40.65100 31.90900
H  5.26700 41.68500 33.20100

