158

Mg 35.27100 0.92000 29.19000
C  33.35600 1.99900 31.93300
C  38.04200 1.08900 31.38700
C  37.25300 0.76800 26.55200
C  32.44700 1.22100 27.17300
N  35.65300 1.50900 31.41300
C  34.65900 1.80300 32.26500
C  35.28300 1.79500 33.64100
C  36.83300 1.69400 33.48000
C  36.79600 1.24000 32.00800
C  37.58800 3.00000 33.76600
C  34.60200 0.67100 34.48200
C  33.98800 1.01200 35.85000
H  34.64300 2.17200 36.64500
N  37.41600 0.87400 28.96500
C  38.35600 0.92600 29.98900
C  39.71300 0.85300 29.43500
C  39.44100 0.77300 27.99000
C  38.00600 0.84900 27.73500
C  41.04800 0.88000 30.23400
C  40.51800 0.42700 26.96900
O  40.21200 0.07500 25.83900
C  41.96800 0.39300 27.32700
N  34.88300 0.63000 27.22500
C  35.85700 0.69300 26.23800
C  35.26700 0.52900 24.83600
C  33.75500 0.54000 25.07400
C  33.66200 0.76200 26.60500
C  35.78200 1.48600 23.71000
C  32.90300 -0.76300 24.63300
C  32.82000 -0.99100 23.12600
N  33.31300 1.48400 29.41400
C  32.25500 1.55800 28.50300
C  31.05700 1.88000 29.17900
C  31.40600 2.05100 30.53500
C  32.80100 1.85200 30.65100
C  29.72300 2.08800 28.52100
C  30.87000 2.43100 31.82400
O  29.74700 2.69400 32.14800
C  32.12200 2.36100 32.76700
C  32.25600 3.64600 33.51900
O  33.09000 4.53900 33.30300
O  31.33500 3.56700 34.58100
C  31.50900 4.67900 35.53200
H  38.92600 0.98200 32.02000
H  37.87700 0.76300 25.65600
H  31.67500 1.57500 26.48700
H  34.95400 2.71800 34.11700
H  37.24700 0.89800 34.10000
H  36.99200 3.87500 34.02500
H  38.22300 3.28700 32.92700
H  38.33400 2.87300 34.55000
H  35.25300 -0.19200 34.62600
H  33.78600 0.26600 33.88400
H  34.13200 0.16600 36.52200
H  32.90900 1.09200 35.72400
H  41.25100 -0.17100 30.43700
H  40.99300 1.41700 31.18100
H  41.82300 1.37300 29.64700
H  42.34800 1.32400 27.74800
H  42.44300 0.09500 26.39200
H  42.06000 -0.49300 27.95600
H  35.53300 -0.47200 24.49700
H  33.30400 1.35300 24.50400
H  36.11100 2.43600 24.13200
H  34.99500 1.67900 22.98100
H  36.60500 0.94100 23.24700
H  31.86200 -0.57600 24.89700
H  33.27300 -1.70100 25.04700
H  33.07700 -2.00700 22.82500
H  33.48000 -0.27500 22.63600
H  31.78200 -0.78600 22.86600
H  29.77200 1.34700 27.72300
H  29.51200 3.01900 27.99600
H  28.98300 1.66400 29.20000
H  31.81000 1.61500 33.49800
H  31.40100 4.32200 36.55600
H  30.82000 5.52000 35.44700
H  32.50900 5.11300 35.50900
Mg -0.99100 43.89600 26.85900
C  1.71100 43.73100 29.16400
C  -2.98900 43.04200 29.37500
C  -3.26500 43.45500 24.47100
C  1.46100 44.20500 24.39000
N  -0.65300 43.23800 29.02200
C  0.45600 43.53200 29.76700
C  0.14400 43.41200 31.28300
C  -1.33900 42.86400 31.28000
C  -1.69700 43.12400 29.81000
C  -1.57500 41.35600 31.65700
C  0.36600 44.80600 31.88000
C  0.69000 44.78100 33.44900
H  0.45100 43.52800 34.26400
N  -2.92000 43.32300 26.95800
C  -3.56500 42.92900 28.06300
C  -4.92600 42.52000 27.69600
C  -4.95300 42.54200 26.23700
C  -3.65200 43.07700 25.78300
C  -5.99900 42.16100 28.75500
C  -6.10300 42.14000 25.28800
O  -5.89300 42.24400 24.10800
C  -7.53300 41.56000 25.74600
N  -0.84400 43.98700 24.75600
C  -1.97800 43.78600 24.01600
C  -1.66900 43.82900 22.50000
C  -0.20000 44.33500 22.47500
C  0.16000 44.22300 23.97700
C  -1.81100 42.44900 21.86600
C  0.16800 45.74700 22.01200
C  1.57900 45.98000 21.34100
N  1.16800 43.97900 26.78300
C  1.98900 44.11400 25.64300
C  3.35300 44.36200 26.12400
C  3.28500 44.13800 27.49700
C  1.91200 43.98700 27.85000
C  4.46700 44.64500 25.32900
C  4.06100 44.04000 28.71300
O  5.28300 43.90400 28.92600
C  3.00600 43.97600 29.87000
C  3.45800 42.73000 30.57900
O  3.40000 41.65100 30.05100
O  4.05500 42.88700 31.80500
C  4.36300 41.77700 32.73700
H  -3.64800 42.81100 30.21400
H  -3.99400 43.26400 23.68000
H  2.21600 44.30800 23.60800
H  0.79000 42.66100 31.73600
H  -1.87900 43.55600 31.92600
H  -2.60800 41.30600 31.99900
H  -0.97100 41.02300 32.50100
H  -1.49000 40.70600 30.78600
H  -0.57500 45.34800 31.78900
H  1.09500 45.40600 31.33500
H  0.23800 45.62900 33.96500
H  1.76800 44.93500 33.40400
H  -5.52300 41.97300 29.71700
H  -6.44100 41.20500 28.47600
H  -6.71500 42.95600 28.96500
H  -7.45000 40.47800 25.65200
H  -8.32500 41.95700 25.11100
H  -7.96800 41.86700 26.69700
H  -2.30100 44.56600 22.00300
H  0.40900 43.64900 21.88700
H  -0.86200 42.05000 21.50800
H  -2.52500 42.53600 21.04700
H  -2.13000 41.71300 22.60400
H  0.13300 46.52400 22.77500
H  -0.58100 46.00400 21.26300
H  2.15100 45.05600 21.42100
H  2.17600 46.69000 21.91300
H  1.59600 46.30900 20.30200
H  4.21400 45.25300 24.46100
H  4.84200 43.73700 24.85700
H  5.25800 45.06900 25.94700
H  3.21200 44.91900 30.37600
H  4.61100 40.92500 32.10400
H  3.46000 41.69300 33.34100
H  5.28700 42.00200 33.27000

