158

Mg 8.62200 4.45000 27.58600
C  10.12000 2.72000 30.24700
C  6.70500 6.20600 29.77000
C  7.18200 5.94400 24.92200
C  10.22000 2.32800 25.43700
N  8.41000 4.42300 29.73600
C  9.11500 3.67200 30.67800
C  8.69000 3.89600 32.14900
C  7.51400 4.90200 31.89200
C  7.53300 5.25000 30.40300
C  6.12400 4.33000 32.33400
C  9.86100 4.43200 32.94700
C  9.61800 5.08300 34.38700
H  10.09400 4.38200 35.66100
N  7.17900 5.99300 27.35300
C  6.57200 6.64100 28.41400
C  5.68600 7.61300 27.88300
C  5.81600 7.57900 26.44700
C  6.73500 6.48600 26.15800
C  4.80800 8.54800 28.81500
C  5.03300 8.38200 25.43600
O  5.16500 8.09300 24.26300
C  4.10800 9.49900 25.82400
N  8.52000 4.07100 25.47500
C  7.94700 4.88200 24.58200
C  8.24200 4.47300 23.12800
C  9.33100 3.38700 23.35100
C  9.37000 3.21500 24.84200
C  6.90000 4.01700 22.41500
C  10.63000 3.51000 22.52500
C  11.15300 2.25700 21.79600
N  9.88100 2.88500 27.78300
C  10.43600 2.09600 26.77900
C  11.31500 1.10900 27.36700
C  11.23900 1.30400 28.74600
C  10.38200 2.41500 28.90200
C  12.04900 0.07100 26.65400
C  11.66600 0.89200 30.00100
O  12.38600 -0.04200 30.31500
C  10.90000 1.74300 31.11400
C  10.21900 0.90600 31.99500
O  9.21300 0.29400 31.66800
O  10.77300 0.94300 33.26300
C  10.11500 0.07400 34.34100
H  6.15800 6.83800 30.47300
H  6.78000 6.55500 24.11100
H  10.72400 1.58700 24.81300
H  8.41700 2.91600 32.54000
H  7.60800 5.86400 32.39400
H  5.58600 4.98500 33.01800
H  6.26100 3.36200 32.81500
H  5.69000 4.06900 31.36900
H  10.36100 5.22300 32.38900
H  10.69400 3.73300 33.01100
H  8.53400 5.18700 34.44800
H  9.98200 6.10900 34.33300
H  5.08800 9.59800 28.73700
H  4.97500 8.29300 29.86200
H  3.75100 8.47000 28.56000
H  3.91300 10.06700 24.91400
H  4.59100 10.13300 26.56700
H  3.18500 9.02900 26.16600
H  8.54100 5.36600 22.58000
H  8.86800 2.45200 23.03400
H  7.05400 3.09000 21.86100
H  6.58900 4.74700 21.66800
H  6.10500 3.96100 23.15800
H  11.38800 3.86800 23.22100
H  10.45000 4.12300 21.64100
H  10.49700 2.30500 20.92600
H  10.89700 1.39700 22.41500
H  12.17700 2.39900 21.45200
H  11.43100 -0.78900 26.39700
H  12.75100 -0.35000 27.37300
H  12.69400 0.49700 25.88600
H  11.62200 2.32500 31.68700
H  9.25700 -0.47500 33.95300
H  9.85300 0.78000 35.12900
H  10.79600 -0.69300 34.71000
Mg 24.39700 -5.08700 45.73500
C  26.92100 -2.92600 44.70200
C  22.24700 -3.57500 43.53700
C  22.18100 -7.65400 46.23800
C  26.85100 -6.97900 47.34100
N  24.63200 -3.65100 44.04900
C  25.76300 -2.86400 43.91700
C  25.50000 -1.85000 42.79300
C  23.99900 -1.72600 42.76200
C  23.54500 -3.03000 43.42900
C  23.55900 -0.47200 43.52300
C  26.04700 -2.32200 41.44200
C  26.21800 -1.30200 40.45600
H  25.50400 -1.50100 39.07200
N  22.41200 -5.50300 45.10800
C  21.73100 -4.72700 44.22200
C  20.39100 -5.21900 44.01800
C  20.38300 -6.49000 44.72100
C  21.65600 -6.60900 45.48800
C  19.34100 -4.45000 43.30200
C  19.24200 -7.39400 44.56200
O  18.21000 -7.13100 44.04100
C  19.30500 -8.76900 45.19700
N  24.54800 -7.09400 46.62400
C  23.48900 -7.90500 46.78800
C  23.85200 -9.25800 47.40700
C  25.32500 -9.07900 47.82800
C  25.60300 -7.61100 47.20700
C  22.87700 -9.72000 48.60300
C  26.27900 -10.14300 47.14800
C  27.51900 -10.49300 47.95700
N  26.39300 -4.87100 46.20200
C  27.26800 -5.67500 46.96700
C  28.48200 -4.95500 47.15000
C  28.41000 -3.91300 46.21600
C  27.12300 -3.88700 45.68200
C  29.51700 -5.53600 48.05300
C  29.11900 -2.74200 45.59500
O  30.24800 -2.32500 45.82400
C  28.17800 -2.12700 44.52600
C  27.90300 -0.68300 44.84700
O  27.46400 -0.22400 45.88500
O  28.34700 0.11700 43.84200
C  28.06800 1.53700 43.93600
H  21.67100 -2.83600 42.97600
H  21.47200 -8.45700 46.45000
H  27.62200 -7.57400 47.83500
H  26.03400 -0.93300 43.03900
H  23.68400 -1.60300 41.72600
H  22.81100 0.15700 43.04000
H  24.39300 0.20200 43.71900
H  23.04800 -0.75400 44.44300
H  25.36700 -3.06400 41.02400
H  26.96000 -2.85800 41.70200
H  27.26400 -1.32100 40.15300
H  26.08900 -0.28100 40.81800
H  18.84700 -5.06000 42.54600
H  19.89000 -3.76100 42.66000
H  18.64300 -3.85000 43.88700
H  19.27100 -8.66900 46.28200
H  20.25700 -9.22600 44.92700
H  18.59200 -9.51400 44.84500
H  23.70700 -10.03900 46.66100
H  25.53600 -8.94700 48.89000
H  21.98700 -9.09300 48.54200
H  23.41900 -9.66500 49.54700
H  22.75400 -10.80200 48.65600
H  26.59800 -9.76600 46.17600
H  25.80300 -11.10100 46.94000
H  28.17200 -11.10700 47.33700
H  27.17900 -11.17000 48.74100
H  27.95600 -9.70700 48.57300
H  30.32900 -4.85400 48.30700
H  29.98400 -6.41200 47.60200
H  29.10000 -5.76700 49.03300
H  28.70400 -2.18900 43.57400
H  28.94900 2.01000 44.37100
H  27.29500 1.79900 44.65700
H  27.70800 1.78800 42.93800

