158

Mg 34.89600 2.32000 29.59900
C  32.97500 3.51700 32.22500
C  37.60700 2.12100 31.81300
C  36.80700 1.21000 27.15000
C  32.22500 2.70900 27.44300
N  35.23400 2.71500 31.74300
C  34.24400 3.10300 32.60700
C  34.72500 2.91300 34.03800
C  36.25300 2.65700 33.90100
C  36.40900 2.44200 32.44500
C  37.13800 3.88800 34.51900
C  33.85700 1.78600 34.72000
C  33.44700 2.00500 36.20900
H  34.17400 3.13700 36.95800
N  36.93600 1.83500 29.52900
C  37.87800 1.89000 30.43600
C  39.22500 1.73700 29.92400
C  39.00300 1.17900 28.59200
C  37.51800 1.38900 28.39600
C  40.50000 1.77600 30.74000
C  39.97900 0.62300 27.54600
O  39.59800 0.02500 26.53900
C  41.40000 0.54200 27.91600
N  34.57200 1.99000 27.63800
C  35.51600 1.53300 26.84100
C  35.01100 1.29500 25.40400
C  33.52200 1.64200 25.53100
C  33.42200 2.21200 26.91900
C  35.72300 2.10800 24.32300
C  32.55400 0.51500 25.24100
C  32.53500 0.10100 23.71100
N  33.09900 3.12000 29.69100
C  32.00600 3.13600 28.76800
C  30.82300 3.64400 29.41900
C  31.17900 3.78200 30.80300
C  32.51300 3.52300 30.90800
C  29.43400 3.86300 28.82500
C  30.57500 4.13100 32.12200
O  29.43700 4.36600 32.42700
C  31.77900 3.88700 33.13600
C  31.87300 5.13400 33.99900
O  32.53900 6.14800 33.67300
O  31.09500 5.02000 35.13000
C  31.07400 6.17800 35.99300
H  38.45200 2.27500 32.48800
H  37.42500 1.03300 26.26800
H  31.34700 2.74000 26.79400
H  34.54100 3.90100 34.46100
H  36.54900 1.71900 34.37000
H  37.44700 4.58100 33.73600
H  37.98500 3.36500 34.96300
H  36.64900 4.37700 35.36100
H  34.45200 0.88100 34.84000
H  32.94700 1.45500 34.22100
H  33.61100 1.05600 36.72000
H  32.38000 2.15700 36.04400
H  41.29000 2.46200 30.43400
H  40.89800 0.77200 30.88500
H  40.13100 2.11700 31.70800
H  41.75400 -0.36200 28.41000
H  41.77300 1.36800 28.52200
H  41.99400 0.59600 27.00300
H  35.14100 0.22100 25.27400
H  33.23800 2.44100 24.84700
H  36.62800 1.56400 24.05400
H  35.87100 3.10000 24.75000
H  35.09100 2.34300 23.46600
H  31.52900 0.82600 25.44600
H  32.93000 -0.31300 25.84200
H  32.80200 -0.95500 23.68200
H  33.29600 0.61400 23.12300
H  31.60800 0.33900 23.18900
H  29.45300 4.22300 27.79600
H  28.87100 4.59200 29.40700
H  28.82000 2.96800 28.92700
H  31.50000 3.00300 33.70800
H  32.07800 6.51500 36.25100
H  30.44700 5.84900 36.82200
H  30.65300 7.04100 35.47800
Mg 17.18100 53.23900 26.92900
C  19.12600 51.65700 29.28400
C  15.04100 54.17800 29.45800
C  14.97900 54.32900 24.62700
C  19.11000 51.70600 24.39400
N  17.04500 52.76400 29.07100
C  17.93300 52.13300 29.86500
C  17.53800 52.28800 31.26900
C  16.02800 52.69900 31.18100
C  16.02200 53.30800 29.79100
C  15.04300 51.54300 31.27200
C  18.53700 53.35100 31.90100
C  18.91800 53.11700 33.30700
H  17.87100 52.44200 34.14700
N  15.36800 54.18900 26.98900
C  14.67400 54.59800 28.15000
C  13.50600 55.27000 27.81600
C  13.33600 55.21900 26.37400
C  14.62900 54.53000 25.88200
C  12.70800 55.94100 28.86100
C  12.19400 55.62300 25.52600
O  12.08800 55.37900 24.33800
C  11.14000 56.50300 26.16500
N  17.12500 53.02800 24.92400
C  16.08200 53.65500 24.14700
C  16.39600 53.53500 22.58200
C  17.86200 52.93900 22.59600
C  18.03900 52.49300 24.02000
C  15.44500 52.51600 21.86500
C  18.97800 53.88000 22.12300
C  19.98900 53.33500 21.12700
N  18.82900 51.88300 26.80800
C  19.54400 51.45400 25.71000
C  20.74900 50.71800 26.15800
C  20.66400 50.81700 27.57500
C  19.46700 51.59500 27.90200
C  21.76300 50.03000 25.26800
C  21.26800 50.42400 28.85100
O  22.17100 49.65200 29.11800
C  20.40700 51.07000 30.00400
C  20.07600 49.96900 30.92900
O  19.34300 49.05500 30.61700
O  20.60500 50.17700 32.16900
C  19.97000 49.34100 33.26500
H  14.36900 54.39500 30.29000
H  14.33800 54.75400 23.85200
H  19.81600 51.29300 23.67100
H  17.64500 51.33300 31.78400
H  15.80600 53.47100 31.91800
H  15.56100 50.58700 31.34600
H  14.40700 51.58000 30.38700
H  14.35500 51.57800 32.11700
H  18.09900 54.34700 31.84100
H  19.51400 53.35100 31.41700
H  19.02100 54.09100 33.78500
H  19.76900 52.43600 33.27900
H  12.24900 56.85700 28.48700
H  13.30200 56.23600 29.72600
H  11.83900 55.31700 29.07200
H  11.62100 57.46700 26.33000
H  10.78900 55.96600 27.04500
H  10.31400 56.61300 25.46200
H  16.40300 54.50600 22.08700
H  17.92800 51.99100 22.06100
H  16.00200 51.59100 21.71400
H  15.11900 52.96900 20.92900
H  14.51700 52.34800 22.41100
H  19.48700 54.24700 23.01400
H  18.66000 54.83600 21.70700
H  19.71000 53.61100 20.11000
H  20.01000 52.25000 21.22000
H  20.98800 53.70300 21.36200
H  22.38200 50.82500 24.85300
H  21.25300 49.55100 24.43200
H  22.45100 49.34100 25.75700
H  21.03700 51.85700 30.41800
H  20.48900 48.38400 33.20300
H  18.90700 49.31200 33.02700
H  20.09500 49.72900 34.27600

