158

Mg 6.89000 54.47500 41.18300
C  4.59200 51.83800 41.01100
C  9.15900 52.54600 39.82500
C  8.64600 57.26100 40.90000
C  4.02500 56.56200 41.94400
N  6.71100 52.49000 40.25100
C  5.75100 51.50500 40.35200
C  6.22700 50.19500 39.72200
C  7.75300 50.42000 39.58800
C  7.91000 51.93500 39.91200
C  8.61100 49.52500 40.52000
C  5.54700 49.92200 38.34000
C  5.23400 48.47600 38.03200
H  5.71900 47.80800 36.66300
N  8.74400 54.83600 40.53100
C  9.51900 53.89000 40.02000
C  10.81200 54.41400 39.85000
C  10.69200 55.84000 40.04500
C  9.30500 56.08100 40.51100
C  12.05700 53.70600 39.45600
C  11.77100 56.86700 39.72300
O  12.83700 56.46400 39.27000
C  11.50400 58.31900 39.70400
N  6.34000 56.64400 41.36900
C  7.35800 57.56500 41.26900
C  6.87600 59.04300 41.43000
C  5.33900 58.78900 41.49600
C  5.17400 57.21100 41.60200
C  7.53800 59.81500 42.67400
C  4.55400 59.27300 40.26300
C  3.48000 60.39200 40.36500
N  4.75600 54.25000 41.54000
C  3.80000 55.20800 41.86400
C  2.50200 54.53800 42.04800
C  2.82000 53.16500 41.84300
C  4.15700 53.03700 41.45900
C  1.21900 55.10900 42.53300
C  2.26000 51.80500 41.89100
O  1.13400 51.40000 42.19200
C  3.42400 50.90200 41.40500
C  2.84900 49.96100 40.32900
O  2.32600 50.19800 39.26400
O  2.89300 48.68700 40.93900
C  2.44100 47.53400 40.06100
H  9.93200 51.85500 39.48200
H  9.21100 58.19200 40.81800
H  3.21200 57.27800 42.07700
H  6.03700 49.42000 40.46400
H  8.06800 50.22900 38.56200
H  9.34900 48.98700 39.92500
H  7.96100 48.83000 41.05200
H  9.14000 50.17400 41.21800
H  6.18800 50.36500 37.57700
H  4.62300 50.49800 38.39300
H  4.15100 48.58700 37.97900
H  5.50900 47.84200 38.87500
H  12.26300 53.70600 38.38600
H  12.03400 52.68500 39.83900
H  12.89200 54.12700 40.01700
H  10.57900 58.53900 39.17100
H  12.30600 58.80100 39.14500
H  11.54400 58.62700 40.74900
H  7.14100 59.59500 40.52800
H  4.98700 59.23300 42.42700
H  6.79200 60.27400 43.32300
H  8.08700 60.60700 42.16600
H  8.24600 59.18000 43.20700
H  4.15000 58.41100 39.73200
H  5.29700 59.67000 39.57200
H  3.78300 61.25400 39.77100
H  3.30800 60.61800 41.41700
H  2.60200 59.93700 39.90500
H  0.35000 54.71800 42.00200
H  1.34900 56.18700 42.44300
H  1.08200 54.88800 43.59100
H  3.69800 50.28100 42.25800
H  3.26800 46.82900 39.97300
H  2.07700 47.87900 39.09300
H  1.56900 47.14000 40.58400
Mg 1.54000 41.83500 25.63000
C  2.57700 42.23400 29.02800
C  -1.56100 40.89400 26.88700
C  0.47800 41.63500 22.52700
C  4.75500 42.77500 24.57400
N  0.60000 41.76900 27.73900
C  1.21900 41.89000 28.94800
C  0.25000 41.74800 30.09600
C  -1.00900 40.99100 29.42000
C  -0.66400 41.17400 27.91400
C  -1.28700 39.47800 29.86500
C  0.00900 43.05300 30.77400
C  -0.74100 43.01600 32.13200
H  -1.47100 41.74600 32.60200
N  -0.33600 41.34100 24.80100
C  -1.48000 41.02500 25.49200
C  -2.40700 40.59200 24.50500
C  -1.93100 40.92100 23.24500
C  -0.58100 41.38200 23.48200
C  -3.82700 40.15500 24.84800
C  -2.54000 40.69400 21.83800
O  -2.03500 41.25900 20.85200
C  -3.81700 39.90500 21.67100
N  2.51200 42.06800 23.84000
C  1.85000 41.89700 22.68500
C  2.84100 42.05100 21.47800
C  4.19500 42.35800 22.19700
C  3.81300 42.51800 23.61300
C  2.71800 40.84900 20.50500
C  4.94500 43.56100 21.63600
C  5.02700 43.60500 20.13000
N  3.33000 42.39300 26.54600
C  4.56000 42.80800 25.98000
C  5.50500 43.06600 27.11200
C  4.82000 42.77000 28.27400
C  3.48800 42.42400 27.91300
C  6.94300 43.39100 26.99400
C  4.91900 42.65400 29.72300
O  5.87300 42.85100 30.48400
C  3.49000 42.23100 30.27700
C  3.57300 40.87600 30.91700
O  4.28200 39.95200 30.56300
O  2.65800 40.75000 31.95600
C  2.54100 39.41600 32.50600
H  -2.51000 40.48800 27.24200
H  0.17100 41.68700 21.48000
H  5.81500 42.93000 24.36200
H  0.58000 41.03300 30.85000
H  -1.87800 41.60300 29.66300
H  -1.31900 38.73100 29.07100
H  -2.25400 39.49300 30.36800
H  -0.57200 39.11400 30.60300
H  -0.57600 43.65000 30.07500
H  1.00700 43.48400 30.85100
H  -1.31200 43.94400 32.13100
H  0.14300 43.15400 32.75500
H  -4.58600 40.45000 24.12400
H  -4.21500 40.56800 25.77900
H  -3.79300 39.10000 25.11800
H  -3.81700 39.02900 22.32000
H  -3.84700 39.58200 20.63000
H  -4.71000 40.49100 21.88900
H  2.46000 42.84400 20.83400
H  4.86200 41.49700 22.22700
H  3.35500 40.03300 20.84500
H  2.89800 41.11500 19.46300
H  1.68700 40.49600 20.54700
H  5.94800 43.31800 21.98700
H  4.62800 44.51200 22.06500
H  4.71300 44.49900 19.59100
H  4.46900 42.79200 19.66500
H  6.06400 43.32600 19.94500
H  7.27600 43.30300 25.96000
H  7.55400 42.66700 27.53200
H  7.16200 44.33200 27.49800
H  3.07500 42.90700 31.02500
H  2.20600 38.64800 31.80900
H  1.83700 39.44300 33.33700
H  3.51000 39.15500 32.93300

