158

Mg 8.25000 2.88400 27.88100
C  9.66400 1.48400 30.73700
C  6.39000 4.94400 29.96300
C  6.71400 4.04900 25.18800
C  9.88400 0.40900 25.93700
N  7.93800 3.09600 30.18600
C  8.77100 2.52300 31.08000
C  8.49600 3.14200 32.49000
C  7.43600 4.24700 32.25100
C  7.23900 4.14500 30.70600
C  6.05900 4.21200 33.00800
C  9.71800 3.80000 33.16800
C  10.03600 3.29700 34.62600
H  10.56900 4.25100 35.67800
N  6.66300 4.20500 27.62400
C  6.08200 4.97900 28.61100
C  5.16000 5.81200 27.94800
C  5.16500 5.57600 26.54800
C  6.14800 4.56300 26.40200
C  4.39300 6.91400 28.68200
C  4.52600 6.39800 25.45300
O  4.78100 6.31600 24.27200
C  3.28300 7.26500 25.69300
N  8.22200 2.26600 25.85700
C  7.70800 3.08500 24.91700
C  8.15800 2.80500 23.51700
C  9.09100 1.58000 23.71100
C  8.99700 1.28800 25.25900
C  6.98500 2.67600 22.57100
C  10.51100 1.83300 23.23900
C  11.61300 2.32800 24.17100
N  9.41700 1.25100 28.22600
C  10.02200 0.34100 27.31800
C  10.71100 -0.64600 28.05700
C  10.63600 -0.24200 29.39700
C  9.93900 0.98000 29.42000
C  11.32800 -1.84000 27.47800
C  11.20500 -0.47800 30.74800
O  11.96500 -1.39800 31.10600
C  10.61700 0.73600 31.66000
C  9.97300 0.19500 32.90500
O  8.84800 -0.27600 32.93100
O  10.76600 0.27800 34.01500
C  10.21200 -0.40800 35.24700
H  5.90800 5.72700 30.55200
H  6.37700 4.54200 24.27400
H  10.35600 -0.22700 25.18500
H  7.95800 2.39100 33.07000
H  7.92300 5.22000 32.31600
H  5.17800 4.04400 32.38900
H  5.91900 5.17900 33.49100
H  6.08600 3.56300 33.88300
H  9.71400 4.88500 33.06400
H  10.58200 3.46600 32.59400
H  10.77600 2.50000 34.54200
H  9.08500 2.87800 34.95300
H  4.88500 7.84200 28.38900
H  4.41800 6.79600 29.76500
H  3.38300 6.77100 28.30000
H  2.67100 7.14600 24.79900
H  3.57100 8.31600 25.65900
H  2.60600 7.05400 26.52100
H  8.78100 3.61500 23.13700
H  8.71000 0.71000 23.17600
H  7.08600 3.40300 21.76500
H  5.95900 2.77500 22.92600
H  6.96000 1.71200 22.06200
H  10.41600 2.55700 22.43000
H  10.92900 0.87400 22.93100
H  11.27800 2.83800 25.07400
H  12.33100 3.01700 23.72700
H  12.24500 1.50900 24.51500
H  11.77900 -1.66300 26.50200
H  10.60600 -2.65700 27.45600
H  12.10700 -2.16100 28.17000
H  11.45600 1.41400 31.81900
H  11.02500 -0.82800 35.83700
H  9.52500 -1.23500 35.06700
H  9.68100 0.21500 35.96700
Mg 52.83100 24.43400 44.16000
C  50.19500 26.87400 43.32100
C  50.82000 22.14900 42.56600
C  55.46000 22.51100 43.68800
C  54.94700 27.28100 44.63600
N  50.83200 24.62400 42.82600
C  49.86900 25.62100 42.81900
C  48.45000 25.09700 42.36900
C  48.64100 23.56400 42.44500
C  50.20600 23.45200 42.61500
C  47.87500 22.81600 43.62600
C  47.78300 25.66400 41.02900
C  48.76900 26.04400 39.96900
H  48.40600 25.94500 38.45700
N  53.05200 22.58000 43.50000
C  52.14000 21.75900 42.86700
C  52.62500 20.41500 42.72100
C  54.01400 20.48800 43.01600
C  54.24100 21.92500 43.46300
C  51.87000 19.20200 42.13200
C  55.06300 19.37200 42.97000
O  54.66700 18.25800 42.51700
C  56.47300 19.47700 43.19300
N  54.96700 24.85100 44.11900
C  55.81400 23.82400 44.02800
C  57.26800 24.26600 44.34500
C  57.08100 25.81300 44.48500
C  55.60700 26.01000 44.46500
C  57.91900 23.37700 45.44400
C  57.82800 26.75600 43.58100
C  57.19200 27.32700 42.32100
N  52.57400 26.66200 44.21500
C  53.51200 27.60100 44.55700
C  52.81300 28.82000 44.79500
C  51.48800 28.54000 44.38700
C  51.44400 27.26900 43.90300
C  53.36700 30.07900 45.23300
C  50.19200 29.14700 44.29600
O  49.73800 30.25900 44.53300
C  49.31200 28.06600 43.59800
C  48.70100 28.71600 42.40500
O  49.44100 29.22100 41.53300
O  47.33900 28.90000 42.49300
C  46.76400 29.76600 41.42400
H  50.19900 21.28200 42.33100
H  56.29000 21.80900 43.58200
H  55.60900 28.11400 44.88400
H  47.65200 25.37300 43.05800
H  48.41600 22.99800 41.54100
H  47.30800 22.02300 43.13800
H  47.07900 23.40900 44.07600
H  48.44700 22.41000 44.46000
H  47.26900 26.60400 41.23000
H  47.03500 24.97100 40.64700
H  49.59300 25.34800 40.13000
H  48.99900 27.08100 40.21100
H  50.82200 19.41800 41.92100
H  51.92200 18.33600 42.79200
H  52.38500 19.04100 41.18500
H  56.82000 18.46300 42.99300
H  56.56600 19.75300 44.24300
H  56.97200 20.23200 42.58400
H  57.70300 24.03700 43.37200
H  57.41200 26.13400 45.47200
H  58.05900 23.94200 46.36600
H  58.91500 23.04300 45.15300
H  57.32600 22.49700 45.69100
H  58.71300 26.25300 43.19100
H  58.22900 27.56200 44.19600
H  57.14800 28.41600 42.32500
H  56.18400 26.91200 42.29600
H  57.69400 26.88300 41.46100
H  54.05300 30.37700 44.44000
H  53.88300 30.12500 46.19200
H  52.62800 30.88000 45.24000
H  48.61300 27.69200 44.34600
H  47.16200 29.44600 40.46100
H  47.17000 30.77700 41.45500
H  45.68400 29.62000 41.40200

