158

Mg 49.63100 45.79600 42.69800
C  46.31900 46.22500 41.80600
C  49.48100 42.68300 41.32200
C  53.04900 45.43900 43.11800
C  49.98400 49.13800 43.18600
N  48.09400 44.59700 41.69300
C  46.77900 44.94300 41.45200
C  45.99200 43.90800 40.74100
C  46.97200 42.72700 40.89900
C  48.26200 43.33900 41.26200
C  46.48800 41.59500 41.88000
C  45.63600 44.31800 39.25200
C  44.35100 43.72500 38.84700
H  43.90500 43.84800 37.36600
N  51.04200 44.26200 42.34700
C  50.75900 43.01700 41.85600
C  51.89900 42.15900 41.78800
C  52.98700 42.93400 42.14600
C  52.36900 44.30600 42.61400
C  51.78900 40.71300 41.33200
C  54.43400 42.49400 42.21600
O  54.79500 41.48800 41.65800
C  55.52400 43.17700 42.97900
N  51.27300 47.05900 43.19700
C  52.54600 46.70400 43.35800
C  53.43200 47.93100 43.57100
C  52.41800 49.05600 43.83000
C  51.09500 48.38900 43.47900
C  54.50500 47.80200 44.70300
C  52.79900 50.23000 42.87500
C  54.00900 51.13100 43.28900
N  48.41200 47.49500 42.48800
C  48.72900 48.72000 42.75900
C  47.53000 49.52000 42.65000
C  46.47500 48.56700 42.33600
C  47.15600 47.30100 42.23500
C  47.50700 51.01700 42.99300
C  45.04300 48.40300 42.11100
O  44.10400 49.20200 42.22300
C  44.89200 46.78600 41.74100
C  44.04300 46.12000 42.82400
O  44.15500 46.33600 43.96800
O  43.10700 45.37000 42.16100
C  42.28100 44.57000 43.06900
H  49.43000 41.66300 40.93600
H  54.10600 45.24500 43.31100
H  50.08700 50.21100 43.36000
H  45.12100 43.82900 41.39100
H  47.09900 42.20400 39.95100
H  47.12300 41.42900 42.75100
H  46.53500 40.66400 41.31700
H  45.43500 41.68900 42.14700
H  46.28700 43.76200 38.57700
H  45.62800 45.39500 39.08400
H  43.64500 44.29000 39.45700
H  44.40500 42.66300 39.08900
H  52.73300 40.25800 41.03100
H  50.96900 40.64500 40.61800
H  51.47200 40.17000 42.22300
H  55.35400 43.10500 44.05300
H  55.64100 44.18600 42.58300
H  56.45000 42.62900 42.80700
H  53.91700 47.91400 42.59500
H  52.45600 49.41900 44.85800
H  54.23400 48.48800 45.50500
H  55.49700 47.87300 44.25700
H  54.43700 46.81700 45.16300
H  51.96100 50.92600 42.84800
H  52.84400 49.81600 41.86700
H  53.69900 52.16500 43.44400
H  54.92300 50.95600 42.72200
H  54.29100 50.87300 44.30900
H  48.23200 51.65600 42.49000
H  47.73800 51.22500 44.03700
H  46.47100 51.34300 42.89800
H  44.36000 46.55600 40.81800
H  41.41500 44.12600 42.57700
H  41.89500 45.19900 43.87000
H  42.92600 43.81100 43.51200
Mg -0.76500 34.06600 26.86900
C  -2.58100 32.35700 29.30500
C  0.78500 35.80600 29.25400
C  0.60100 35.86800 24.35600
C  -2.55100 32.22400 24.35000
N  -1.04800 34.23600 29.09200
C  -1.72100 33.31600 29.88800
C  -1.41600 33.63200 31.41500
C  -0.48800 34.83800 31.34300
C  -0.18200 34.99000 29.83600
C  -1.16900 36.10200 31.96300
C  -0.68400 32.38300 32.03400
C  -1.52200 31.65500 33.09600
H  -0.94200 31.42300 34.51900
N  0.49100 35.55100 26.79700
C  1.12500 36.07800 27.87800
C  2.00100 37.12100 27.48200
C  1.88900 37.24000 26.05000
C  0.93400 36.19600 25.66600
C  2.91500 37.85600 28.45900
C  2.68400 38.16100 25.09900
O  2.72900 38.15500 23.82700
C  3.62600 39.14500 25.73400
N  -1.06100 34.18700 24.55900
C  -0.32400 35.03300 23.80800
C  -0.74200 34.84400 22.29800
C  -1.65900 33.58600 22.39900
C  -1.78900 33.28500 23.86700
C  -1.43800 36.03400 21.69200
C  -0.97300 32.38200 21.67300
C  -0.11200 31.29500 22.36500
N  -2.15900 32.56300 26.76000
C  -2.78000 31.92300 25.65700
C  -3.69500 30.96800 26.18000
C  -3.64300 31.09400 27.58900
C  -2.69100 32.06800 27.89500
C  -4.46000 29.95000 25.44600
C  -4.13600 30.52000 28.78400
O  -4.88500 29.56900 28.93700
C  -3.43700 31.30000 30.00800
C  -4.55100 31.81100 30.86000
O  -5.43300 32.58200 30.51100
O  -4.61500 31.12000 32.04200
C  -5.61700 31.42800 33.02200
H  1.40400 36.21900 30.05300
H  1.04400 36.50300 23.58600
H  -2.98600 31.50300 23.65500
H  -2.44400 33.71100 31.76700
H  0.40100 34.74000 31.96600
H  -2.02300 35.70700 32.51400
H  -1.51300 36.79300 31.19400
H  -0.54500 36.62900 32.68400
H  0.31700 32.59700 32.40900
H  -0.54100 31.63300 31.25600
H  -1.63800 30.67900 32.62300
H  -2.50800 32.11400 33.17200
H  3.93200 37.64400 28.12900
H  2.92900 37.56800 29.51000
H  2.65600 38.91200 28.37700
H  2.98100 39.59900 26.48600
H  3.92600 39.83900 24.94900
H  4.58000 38.74400 26.07600
H  0.15100 34.79900 21.67600
H  -2.67000 33.81100 22.05900
H  -1.24600 35.95600 20.62100
H  -1.10600 37.01500 22.03200
H  -2.51200 35.95700 21.85900
H  -0.33700 32.78700 20.88600
H  -1.77800 31.76100 21.28000
H  0.15500 31.45600 23.40900
H  0.89600 31.43100 21.97300
H  -0.51200 30.29000 22.23000
H  -3.81900 29.59700 24.63800
H  -5.39300 30.39800 25.10500
H  -4.76300 29.10300 26.06100
H  -2.87700 30.52900 30.53900
H  -5.08800 31.59000 33.96100
H  -6.25400 30.54700 33.10600
H  -6.26500 32.28300 32.82900

