158

Mg 25.75900 -6.81200 47.90300
C  27.72100 -4.20300 46.81900
C  23.63100 -6.11700 45.20100
C  24.04200 -9.53200 48.62800
C  28.39100 -7.77000 49.94200
N  25.77400 -5.40900 46.05300
C  26.67400 -4.38600 45.91800
C  26.34500 -3.49700 44.72800
C  25.00600 -4.12700 44.24700
C  24.72400 -5.26300 45.19100
C  23.80100 -3.23100 44.16400
C  27.39100 -3.50900 43.61700
C  27.80200 -2.04200 43.25000
H  27.96700 -1.74400 41.76500
N  24.01000 -7.65400 47.09900
C  23.25900 -7.18600 46.05700
C  22.09600 -8.06500 46.00400
C  22.14300 -9.08400 46.96800
C  23.36300 -8.75800 47.63500
C  21.02300 -7.81000 44.95500
C  21.00600 -10.15300 47.22000
O  19.92700 -10.18900 46.60000
C  21.20000 -11.00100 48.43200
N  26.22600 -8.48300 48.93500
C  25.28700 -9.41000 49.29700
C  25.81300 -10.37700 50.39800
C  27.18000 -9.80400 50.79800
C  27.29300 -8.61500 49.80700
C  24.76500 -10.42600 51.53300
C  28.35200 -10.86100 50.71700
C  29.39500 -10.65700 51.78100
N  27.63400 -6.14200 48.44800
C  28.58000 -6.64400 49.23000
C  29.66400 -5.76500 49.26600
C  29.29000 -4.73200 48.45100
C  28.09000 -5.05500 47.89200
C  30.98600 -6.01800 49.99100
C  29.76700 -3.49700 47.94500
O  30.75600 -2.89400 48.30300
C  28.70900 -3.13100 46.86100
C  28.11900 -1.86400 47.25100
O  27.40300 -1.63500 48.22400
O  28.28300 -0.98700 46.23500
C  27.52900 0.32900 46.38200
H  22.96400 -5.84000 44.38200
H  23.61600 -10.53100 48.73600
H  29.23100 -8.08300 50.56500
H  26.25800 -2.46500 45.06900
H  25.19200 -4.58100 43.27400
H  23.50100 -2.82800 43.19700
H  24.01300 -2.39900 44.83500
H  22.92700 -3.66000 44.65400
H  26.89400 -4.07400 42.82700
H  28.19500 -4.18200 43.91400
H  28.66000 -1.74400 43.85200
H  27.01500 -1.34900 43.54400
H  20.04500 -8.06700 45.36000
H  21.20500 -8.48800 44.12100
H  21.06600 -6.83500 44.47000
H  21.90900 -11.82700 48.38700
H  20.22400 -11.46800 48.56100
H  21.38600 -10.38500 49.31100
H  25.98100 -11.40500 50.07500
H  27.03400 -9.41200 51.80400
H  25.18700 -10.83500 52.45000
H  24.05300 -11.15000 51.13600
H  24.24900 -9.47500 51.66800
H  28.92800 -10.83600 49.79200
H  28.05800 -11.90800 50.64900
H  29.19700 -11.35700 52.59300
H  29.42100 -9.71500 52.32800
H  30.42100 -10.80200 51.44100
H  31.48100 -5.04800 49.94200
H  31.43000 -6.83700 49.42600
H  30.67100 -6.18700 51.02100
H  29.31400 -3.03800 45.95900
H  26.46800 0.17200 46.18800
H  28.02700 0.96300 45.64800
H  27.62500 0.92800 47.28800
Mg 42.14500 41.34100 27.46700
C  41.06500 43.70500 29.90600
C  43.12300 39.21300 29.89300
C  43.26300 39.37400 25.10600
C  41.50200 43.93700 25.06100
N  41.77600 41.35100 29.63300
C  41.47300 42.42500 30.41800
C  41.55100 42.00800 31.92200
C  42.27700 40.62900 31.89400
C  42.40500 40.38000 30.33600
C  43.61400 40.51200 32.67800
C  40.17200 42.01300 32.70900
C  40.16400 42.84600 34.07000
H  38.89000 42.85400 34.95900
N  42.84000 39.41800 27.48200
C  43.15900 38.67200 28.62500
C  43.67300 37.40300 28.28100
C  43.82200 37.55700 26.88000
C  43.26500 38.78800 26.38300
C  44.05600 36.34800 29.29500
C  44.41800 36.45300 25.93800
O  44.54300 36.53800 24.73000
C  44.93700 35.23600 26.65100
N  42.28200 41.62800 25.43600
C  42.72700 40.59900 24.64100
C  42.79100 40.99200 23.18500
C  42.19800 42.38300 23.12300
C  42.02800 42.68600 24.62100
C  44.25000 40.90800 22.64800
C  40.79400 42.45700 22.39900
C  39.53400 41.89700 23.09900
N  41.41800 43.41900 27.39300
C  41.15500 44.26800 26.37400
C  40.66100 45.49200 26.88800
C  40.58300 45.30000 28.26500
C  41.02900 43.99800 28.53500
C  40.23200 46.64700 26.07400
C  40.27200 45.98100 29.54700
O  39.83100 47.11100 29.77300
C  40.59400 44.98600 30.66600
C  41.75300 45.45000 31.51000
O  42.95700 45.44200 31.18000
O  41.28000 45.99500 32.69000
C  42.22300 46.72500 33.52400
H  43.49900 38.64800 30.74900
H  43.58100 38.64700 24.35600
H  41.08600 44.63000 24.32600
H  42.18000 42.68500 32.50000
H  41.62400 39.84800 32.28400
H  44.47700 40.29100 32.05000
H  43.54300 39.81600 33.51400
H  43.89500 41.43300 33.18800
H  39.89500 40.99400 32.97700
H  39.34200 42.36700 32.09700
H  40.43800 43.84600 33.73500
H  40.94200 42.44200 34.71700
H  45.13200 36.17300 29.30400
H  43.44100 35.45300 29.19800
H  43.77300 36.62300 30.31100
H  45.88300 35.60700 27.04500
H  45.10100 34.56700 25.80600
H  44.20800 34.82300 27.34800
H  42.22000 40.30200 22.56400
H  42.97200 43.05400 22.75100
H  44.98700 40.84100 23.44900
H  44.50300 41.81600 22.10200
H  44.38300 40.10800 21.92000
H  40.89600 41.93600 21.44700
H  40.53200 43.50000 22.22200
H  39.10300 41.11300 22.47700
H  38.72500 42.62800 23.11200
H  39.83000 41.50700 24.07300
H  39.72900 47.37600 26.71000
H  39.56600 46.38300 25.25300
H  41.12000 47.16000 25.70400
H  39.69800 44.80200 31.25800
H  41.82800 47.74000 33.58300
H  43.27900 46.80800 33.26400
H  42.23400 46.26600 34.51200

