158

Mg 16.90900 -1.88100 28.05100
C  16.18000 0.35300 30.54700
C  19.00600 -3.66300 30.13800
C  18.37000 -3.56100 25.46200
C  15.29700 0.30800 25.81800
N  17.64700 -1.62400 30.03300
C  17.08200 -0.71400 30.93900
C  17.58700 -1.06300 32.32300
C  18.69100 -2.18700 32.09800
C  18.35600 -2.56800 30.64600
C  20.17000 -1.69100 32.17600
C  16.40900 -1.44900 33.22800
C  16.47500 -0.99900 34.69400
H  17.64800 -0.11100 35.21900
N  18.31800 -3.61900 27.84600
C  19.04400 -4.15300 28.80800
C  19.80100 -5.25900 28.31000
C  19.56200 -5.27200 26.89700
C  18.68100 -4.16200 26.69000
C  20.52900 -6.28900 29.21900
C  20.17300 -6.13000 25.78100
O  19.85100 -6.00300 24.60900
C  21.20500 -7.22700 26.15600
N  16.72900 -1.75200 25.99700
C  17.60800 -2.42600 25.17600
C  17.42100 -1.97100 23.73000
C  16.21700 -0.96300 23.76300
C  15.98400 -0.83600 25.25500
C  18.71200 -1.37800 23.17800
C  14.96900 -1.47900 22.99900
C  13.96100 -0.45400 22.56800
N  15.80200 -0.13300 28.14800
C  15.20100 0.59000 27.16000
C  14.44700 1.65500 27.77700
C  14.75800 1.60500 29.12800
C  15.70700 0.55500 29.23800
C  13.45100 2.58300 27.08400
C  14.50400 2.22100 30.41300
O  13.88800 3.22000 30.74700
C  15.57300 1.47400 31.38900
C  16.56800 2.41000 32.16500
O  17.83500 2.30200 32.09900
O  15.87900 3.28300 33.04000
C  16.79000 3.76900 34.12400
H  19.63600 -4.22600 30.83000
H  18.84200 -3.95800 24.56100
H  14.78800 0.93800 25.08500
H  18.01900 -0.17000 32.77400
H  18.54000 -2.99800 32.81000
H  20.46000 -1.69500 33.22600
H  20.28400 -0.64500 31.89100
H  20.87500 -2.26300 31.57400
H  16.39000 -2.53900 33.24700
H  15.45300 -1.16900 32.78600
H  16.55200 -1.90700 35.29100
H  15.46500 -0.67500 34.94100
H  21.60900 -6.14200 29.22800
H  20.28100 -7.31700 28.95500
H  20.22500 -6.17300 30.26000
H  21.27100 -7.85700 25.26900
H  20.80200 -7.88500 26.92600
H  22.17300 -6.83600 26.46800
H  17.19800 -2.92600 23.25500
H  16.59200 -0.08000 23.24400
H  19.35400 -1.16800 24.03400
H  18.56000 -0.38400 22.75900
H  19.17400 -2.13400 22.54400
H  14.42700 -2.15400 23.66200
H  15.33000 -2.05900 22.15000
H  14.34100 0.52900 22.84600
H  12.98900 -0.67500 23.01000
H  13.90900 -0.43900 21.47900
H  13.31500 2.41100 26.01600
H  13.86900 3.58800 27.15500
H  12.54200 2.61400 27.68400
H  15.01000 1.11800 32.25100
H  16.38400 4.74100 34.40400
H  17.86000 3.82600 33.92500
H  16.66200 3.15100 35.01300
Mg -9.67400 17.37800 42.43300
C  -6.20400 17.28200 42.54800
C  -9.49500 20.73000 41.96800
C  -13.11200 17.41800 42.14100
C  -9.81700 13.96300 42.94600
N  -7.98500 18.84200 42.28900
C  -6.70200 18.57300 42.36000
C  -5.82400 19.81300 42.32300
C  -6.89500 20.92600 42.39900
C  -8.24800 20.13300 42.27500
C  -6.70700 21.86700 43.61800
C  -4.92800 20.01600 41.07800
C  -5.47300 19.81000 39.70900
H  -4.97400 18.76200 38.76900
N  -11.11000 18.86400 41.96500
C  -10.78000 20.15500 41.71300
C  -12.01100 20.86700 41.40200
C  -13.17000 19.97000 41.62900
C  -12.48800 18.64600 41.88500
C  -12.08600 22.39100 41.13700
C  -14.58400 20.32500 41.60000
O  -14.91600 21.45500 41.17500
C  -15.71400 19.38700 42.00500
N  -11.31900 15.79200 42.27800
C  -12.61400 16.13400 42.36300
C  -13.50400 14.84500 42.71900
C  -12.34100 13.85200 43.19400
C  -11.10400 14.58800 42.73400
C  -14.58100 15.11400 43.74600
C  -12.39900 12.42200 42.42000
C  -12.31400 11.18400 43.34400
N  -8.30500 15.89500 42.68900
C  -8.50100 14.51900 42.74600
C  -7.22200 13.90600 42.84500
C  -6.27100 14.92700 42.79600
C  -6.99000 16.11600 42.70000
C  -6.89800 12.48600 42.94500
C  -4.85100 15.24400 42.83900
O  -3.86600 14.54500 42.86900
C  -4.75500 16.73400 42.77500
C  -4.17100 17.27700 43.95300
O  -3.16500 17.95400 44.01700
O  -4.85300 16.82500 45.07700
C  -4.29200 17.29300 46.37800
H  -9.48700 21.82000 41.90300
H  -14.20000 17.33200 42.11300
H  -9.89200 12.93300 43.30200
H  -5.09200 19.88300 43.12800
H  -6.92600 21.58400 41.53000
H  -6.06700 22.69400 43.31200
H  -6.03400 21.41000 44.34400
H  -7.61600 22.21800 44.10600
H  -4.09400 19.35600 41.31900
H  -4.45400 20.99800 41.07700
H  -5.23000 20.79900 39.31900
H  -6.56200 19.83800 39.72200
H  -12.53000 22.81600 42.03700
H  -12.67500 22.61400 40.24700
H  -11.09300 22.73800 40.85300
H  -15.91600 18.61800 41.26000
H  -16.60500 20.00100 42.13800
H  -15.54400 18.92700 42.97900
H  -13.94100 14.35400 41.84900
H  -12.39800 13.69800 44.27200
H  -14.59200 16.12300 44.15800
H  -14.56600 14.51800 44.65800
H  -15.54100 15.07600 43.22900
H  -11.57600 12.52200 41.71300
H  -13.32000 12.41500 41.83600
H  -11.47100 10.58500 43.00100
H  -13.16700 10.50800 43.28900
H  -12.03300 11.41000 44.37300
H  -7.70300 11.76900 43.10600
H  -6.21400 12.30300 43.77400
H  -6.34600 12.19100 42.05300
H  -4.14000 16.93700 41.89800
H  -3.20200 17.29200 46.35000
H  -4.46100 16.52900 47.13600
H  -4.58900 18.27600 46.74200

