158

Mg 47.10300 34.57000 27.74300
C  45.37000 32.91900 30.15400
C  47.59800 37.24000 29.93100
C  48.32800 36.45200 25.24400
C  46.41700 32.06400 25.50000
N  46.59100 35.02400 29.81000
C  45.86700 34.11500 30.61500
C  46.02700 34.57100 32.14300
C  46.23500 36.11300 31.90000
C  46.82500 36.17300 30.44400
C  44.91800 36.97200 32.04800
C  47.17200 33.81900 32.82200
C  47.02500 33.68200 34.35500
H  46.02800 34.54300 35.13900
N  47.91100 36.57600 27.59100
C  48.05600 37.45700 28.63400
C  48.66600 38.65900 28.06900
C  48.81100 38.42700 26.70600
C  48.30700 37.17200 26.45800
C  49.02400 39.78000 28.97900
C  49.40300 39.31500 25.67900
O  49.28200 39.17300 24.47700
C  49.94800 40.59300 26.17700
N  47.22600 34.35300 25.63800
C  47.86400 35.20300 24.86800
C  48.15200 34.68700 23.46100
C  47.72800 33.19600 23.64300
C  47.06800 33.15600 25.02900
C  47.43500 35.46600 22.38500
C  48.79100 32.13900 23.68800
C  48.67300 30.90500 22.72800
N  46.03100 32.82200 27.73100
C  45.84100 31.84300 26.75500
C  45.24800 30.69400 27.32400
C  44.91700 31.15600 28.64900
C  45.45400 32.38900 28.89100
C  45.04700 29.35600 26.72500
C  44.33800 30.70800 29.84700
O  43.73900 29.67600 30.17500
C  44.44200 31.89400 30.83000
C  44.77900 31.40100 32.21500
O  45.68400 30.57200 32.47700
O  43.94600 31.85000 33.09900
C  44.15600 31.46500 34.46700
H  47.65800 38.02100 30.69200
H  48.67500 36.93000 24.32600
H  46.33500 31.23200 24.79800
H  45.09100 34.53000 32.70000
H  47.00200 36.45300 32.59600
H  43.94300 36.49300 31.97100
H  44.88300 37.72800 31.26300
H  45.00100 37.58900 32.94300
H  48.11000 34.32500 32.59600
H  47.24900 32.82400 32.38500
H  48.00400 34.01500 34.69900
H  46.90600 32.63200 34.62500
H  50.05800 40.12200 28.91900
H  48.68900 39.68800 30.01200
H  48.42300 40.67600 28.82700
H  49.21200 41.11400 26.78800
H  50.02200 41.19700 25.27300
H  50.93300 40.57400 26.64500
H  49.23300 34.68900 23.32100
H  47.05200 32.91600 22.83400
H  46.83500 36.23700 22.86900
H  46.71400 34.89200 21.80200
H  48.11600 35.71000 21.57000
H  48.99600 31.64300 24.63700
H  49.69000 32.65900 23.35600
H  47.74000 30.87500 22.16500
H  48.70800 29.92400 23.20200
H  49.49000 31.02100 22.01700
H  45.67800 29.08200 25.87900
H  44.01800 29.26000 26.38000
H  45.23400 28.73400 27.60100
H  43.47000 32.38800 30.83400
H  44.14600 30.41700 34.76800
H  43.41000 31.96800 35.08200
H  45.15400 31.76800 34.78500
Mg 5.94100 55.92800 41.64000
C  5.91300 52.33200 41.61500
C  9.08500 55.82100 40.40600
C  5.90300 59.24700 41.70400
C  2.78200 55.85700 43.09000
N  7.21000 54.25400 40.92700
C  7.03200 52.86800 40.84600
C  8.13900 52.10600 40.12000
C  9.24000 53.19800 40.14400
C  8.49000 54.52800 40.52200
C  10.40300 52.88000 41.11600
C  7.55000 51.68500 38.70500
C  8.03000 50.39700 38.00100
H  7.15700 49.90600 36.87600
N  7.27300 57.35400 40.99700
C  8.55800 57.07100 40.64400
C  9.29000 58.36200 40.54800
C  8.31800 59.40300 40.61300
C  7.07100 58.67000 41.19400
C  10.77300 58.52800 40.35000
C  8.45800 60.91700 40.32800
O  9.56100 61.33300 39.95200
C  7.32300 61.93400 40.37800
N  4.40900 57.36600 41.94900
C  4.69000 58.66600 42.03300
C  3.39000 59.47300 42.33600
C  2.45800 58.31000 42.91200
C  3.26400 57.07800 42.66100
C  3.64600 60.65300 43.28700
C  1.02300 58.21900 42.21900
C  -0.15100 58.13700 43.18200
N  4.45100 54.44700 42.08100
C  3.31000 54.56500 42.84400
C  2.88400 53.28900 43.24400
C  3.83100 52.35500 42.76200
C  4.82700 53.09300 42.07600
C  1.66500 52.96900 44.08900
C  4.24600 50.92100 42.72300
O  3.68800 49.96400 43.27200
C  5.61400 50.90700 42.00900
C  5.46700 49.87500 40.97000
O  4.64700 49.91100 40.06700
O  6.35400 48.86600 41.20100
C  6.18900 47.77900 40.22800
H  10.14700 55.81500 40.14900
H  6.04500 60.32700 41.78300
H  1.80800 55.89500 43.58200
H  8.47300 51.30600 40.78100
H  9.69700 53.26700 39.15800
H  10.43800 51.80300 41.27800
H  10.23800 53.50100 41.99600
H  11.35300 53.20700 40.69100
H  7.77000 52.55300 38.08300
H  6.46600 51.60100 38.62900
H  8.22000 49.65200 38.77300
H  8.97800 50.63300 37.51800
H  11.15300 59.30300 41.01500
H  10.94400 59.02600 39.39500
H  11.42100 57.68200 40.57800
H  7.25600 62.26600 41.41400
H  6.35500 61.48400 40.15700
H  7.50200 62.76500 39.69500
H  2.98900 59.91900 41.42600
H  2.48200 58.49900 43.98500
H  2.74700 60.80500 43.88400
H  3.83600 61.51800 42.65100
H  4.53300 60.58400 43.91500
H  1.07300 57.36100 41.54800
H  0.79800 59.10000 41.61800
H  -0.83100 58.98400 43.08700
H  0.15700 58.09100 44.22700
H  -0.65800 57.20200 42.94500
H  0.88700 52.60400 43.41900
H  1.10800 53.75900 44.59400
H  1.89000 52.11400 44.72700
H  6.28400 50.46100 42.74400
H  6.94400 47.98600 39.47000
H  5.25400 47.74600 39.67000
H  6.40700 46.76300 40.55600

