158

Mg 34.96100 2.79000 29.54300
C  32.96300 3.78700 32.21100
C  37.69800 2.73900 31.70400
C  37.03400 2.34400 26.81200
C  32.27400 3.53600 27.45000
N  35.30500 3.42700 31.69200
C  34.35800 3.67800 32.55900
C  34.90400 3.57200 34.00600
C  36.48800 3.47300 33.78900
C  36.49600 3.20600 32.33300
C  37.37000 4.69800 34.11500
C  34.43600 2.35400 34.74700
C  34.19300 2.43500 36.29200
H  34.80700 3.55000 37.19500
N  36.99500 2.46600 29.29100
C  37.96000 2.43300 30.33200
C  39.14200 1.98400 29.70100
C  39.00800 1.97100 28.29200
C  37.59800 2.33500 28.09100
C  40.43400 1.74400 30.63700
C  40.04800 1.72100 27.11800
O  39.81600 1.61000 25.93200
C  41.47200 1.43800 27.55300
N  34.70300 2.89100 27.44700
C  35.70500 2.65500 26.48600
C  35.17200 2.58100 25.04100
C  33.57500 2.68800 25.28000
C  33.46800 3.03500 26.78100
C  35.70100 3.65400 24.05000
C  32.79200 1.26500 25.07800
C  31.44200 1.23200 24.39000
N  33.04700 3.52100 29.73600
C  32.10200 3.77900 28.85000
C  30.84000 4.05900 29.50100
C  31.13500 4.08300 30.84400
C  32.48600 3.78200 30.95600
C  29.58300 4.25900 28.82500
C  30.59100 4.33700 32.15500
O  29.51500 4.70600 32.44500
C  31.80600 4.14700 33.12400
C  32.02300 5.43900 33.80800
O  32.15900 6.53800 33.26700
O  31.82900 5.26800 35.17300
C  31.73400 6.43600 36.02500
H  38.60900 2.81700 32.30100
H  37.66700 2.11200 25.95300
H  31.41800 3.63100 26.77800
H  34.56600 4.45200 34.55400
H  36.97800 2.63800 34.29000
H  37.70500 4.53900 35.13900
H  36.66700 5.52900 34.17700
H  38.25900 4.91400 33.52200
H  35.17000 1.55500 34.63700
H  33.49800 2.08100 34.26300
H  34.52400 1.53600 36.81100
H  33.11900 2.49500 36.46800
H  41.25900 2.17700 30.07100
H  40.61100 0.66900 30.65400
H  40.51600 2.23700 31.60600
H  41.56600 0.52900 28.14700
H  41.78900 2.22400 28.24000
H  42.09200 1.52300 26.66100
H  35.33000 1.54400 24.74500
H  33.02400 3.46400 24.74800
H  36.54900 4.28100 24.32700
H  34.90200 4.34600 23.78300
H  36.05800 3.18600 23.13300
H  32.55800 0.92100 26.08600
H  33.51600 0.57200 24.64900
H  30.63800 0.95100 25.07100
H  31.44900 0.53800 23.54900
H  31.12000 2.21100 24.03300
H  29.18000 3.25200 28.72100
H  29.57600 4.75900 27.85700
H  28.91200 4.89100 29.40800
H  31.55700 3.28500 33.74300
H  31.65500 7.46400 35.67300
H  32.57300 6.51400 36.71700
H  30.90500 6.37500 36.73100
Mg -11.53600 38.41800 41.16300
C  -9.72300 35.35700 40.46300
C  -8.86000 40.13000 39.87200
C  -13.48300 41.17900 41.11200
C  -14.30700 36.41000 41.69500
N  -9.58000 37.77500 40.12300
C  -9.03100 36.44800 40.03700
C  -7.63900 36.47800 39.56300
C  -7.25000 38.01500 39.38900
C  -8.63600 38.70800 39.82600
C  -5.93400 38.45400 40.13400
C  -7.41900 35.77600 38.24000
C  -6.12800 34.87400 38.12500
H  -5.07700 35.42700 37.14500
N  -11.13200 40.38600 40.80100
C  -10.00100 40.93800 40.23700
C  -10.06100 42.38800 40.26800
C  -11.40000 42.71300 40.61300
C  -12.07500 41.37700 40.84500
C  -8.98800 43.31400 39.79600
C  -12.04200 44.07000 40.76300
O  -11.44900 45.08800 40.24200
C  -13.33500 44.25000 41.43800
N  -13.67500 38.73300 41.29200
C  -14.16700 39.95800 41.35200
C  -15.70500 39.92000 41.55800
C  -15.90500 38.44200 42.03400
C  -14.54400 37.78600 41.67800
C  -16.23200 41.04800 42.59800
C  -17.21300 37.83800 41.53700
C  -17.11500 37.19100 40.13300
N  -12.01000 36.35900 41.18300
C  -13.11600 35.66000 41.46600
C  -12.84200 34.19700 41.55200
C  -11.50600 34.05600 41.26600
C  -11.03500 35.38400 40.95500
C  -13.75000 33.20900 42.19800
C  -10.45100 33.04600 41.15500
O  -10.38900 31.83300 41.26600
C  -9.27900 33.92200 40.56000
C  -8.08500 33.58800 41.31700
O  -7.44400 32.57500 41.06700
O  -7.73100 34.62400 42.16800
C  -6.40800 34.60400 42.75300
H  -8.03300 40.78500 39.59100
H  -14.28000 41.91400 40.98400
H  -15.17200 35.81500 41.99300
H  -7.02700 36.16000 40.40700
H  -7.27100 38.33500 38.34700
H  -5.69200 37.89700 41.04000
H  -6.02600 39.50600 40.40100
H  -4.99900 38.45500 39.57400
H  -7.56700 36.38600 37.34900
H  -8.18300 35.00000 38.19900
H  -6.47500 33.87700 37.85500
H  -5.75900 34.75500 39.14400
H  -8.11100 42.84900 39.34600
H  -8.61900 43.99500 40.56300
H  -9.43300 43.96500 39.04300
H  -13.51500 43.59700 42.29200
H  -14.07600 44.20500 40.64000
H  -13.22500 45.26300 41.82600
H  -16.23300 39.98000 40.60600
H  -15.79800 38.49900 43.11700
H  -17.04700 40.66300 43.21000
H  -16.76000 41.79800 42.00800
H  -15.42200 41.50800 43.16300
H  -17.93700 38.65300 41.52700
H  -17.52700 37.17100 42.33900
H  -16.54600 37.70800 39.36000
H  -18.12200 37.23900 39.71700
H  -16.72500 36.17500 40.18900
H  -13.35000 32.20100 42.29800
H  -14.73800 33.34100 41.75600
H  -13.83000 33.59500 43.21500
H  -9.06100 33.59500 39.54300
H  -5.69800 34.95200 42.00300
H  -6.05400 33.65300 43.15200
H  -6.35300 35.28700 43.60000

