158

Mg 42.79000 41.61500 26.02300
C  42.10600 43.77700 28.67500
C  44.36000 39.62800 28.33700
C  43.81000 39.68100 23.51100
C  41.53100 43.95700 23.86700
N  43.02400 41.65800 28.25700
C  42.57600 42.52600 29.12700
C  42.89300 42.22400 30.57900
C  44.03100 41.14200 30.42400
C  43.83300 40.75300 28.90200
C  45.40500 41.55400 30.86000
C  41.58700 41.66600 31.23200
C  41.06800 42.46800 32.42700
H  41.78400 42.40300 33.66300
N  43.80000 39.82600 25.90600
C  44.33200 39.15500 26.95500
C  44.91000 37.95200 26.47700
C  44.82400 37.94800 25.05900
C  44.18100 39.20400 24.77300
C  45.48400 36.93700 27.39700
C  45.25400 36.98800 24.02600
O  45.31500 37.27200 22.80700
C  45.46200 35.55600 24.36900
N  42.71400 41.79500 24.02400
C  43.12200 40.85800 23.16300
C  42.81300 41.31900 21.75800
C  41.92100 42.61300 21.86700
C  42.02400 42.78900 23.34900
C  44.01600 41.45100 20.79400
C  40.41700 42.45200 21.32500
C  39.43600 41.53000 22.14000
N  42.01700 43.47200 26.17900
C  41.59900 44.34900 25.18900
C  41.33600 45.62100 25.77000
C  41.40300 45.38200 27.15800
C  41.83000 44.09800 27.34300
C  41.08800 46.96400 25.11000
C  41.18300 45.98200 28.43300
O  40.71500 47.07900 28.67500
C  41.56000 44.97100 29.51900
C  42.46000 45.63800 30.50800
O  43.62700 45.95700 30.31200
O  41.60300 46.03200 31.48700
C  42.24800 46.89100 32.49300
H  44.81200 39.06700 29.15800
H  43.87400 39.07000 22.60800
H  41.08200 44.58600 23.09500
H  43.13000 43.04900 31.25000
H  43.77800 40.23600 30.97500
H  45.44000 42.60400 31.15100
H  45.88600 41.61300 29.88400
H  45.81200 40.76200 31.48700
H  41.73200 40.59400 31.36100
H  40.88300 41.82100 30.41500
H  40.13100 42.03300 32.77700
H  40.97600 43.50600 32.10900
H  45.46400 37.08900 28.47600
H  46.50400 36.67600 27.11600
H  44.83900 36.05800 27.38900
H  45.17300 34.86000 23.58100
H  44.82400 35.39100 25.23700
H  46.47000 35.36300 24.73700
H  42.12100 40.61400 21.29700
H  42.38600 43.47100 21.38300
H  44.95000 41.12600 21.25100
H  44.19200 42.50500 20.58100
H  43.88600 41.06600 19.78300
H  40.35800 42.04400 20.31600
H  40.04600 43.47600 21.37300
H  39.79200 41.07700 23.06600
H  39.19800 40.64600 21.54900
H  38.49900 42.07900 22.22900
H  42.04500 47.18000 24.63400
H  40.96600 47.73900 25.86600
H  40.18200 46.83800 24.51800
H  40.68300 44.53700 29.99900
H  41.54700 47.65600 32.82700
H  43.24700 47.22700 32.21500
H  42.53500 46.25400 33.33000
Mg 1.14900 43.59000 25.86000
C  3.44700 43.52200 28.54600
C  -1.17300 42.47000 28.07200
C  -0.73900 43.01100 23.22300
C  3.90500 44.24900 23.75200
N  1.21400 43.03500 28.11500
C  2.17700 43.25800 28.96900
C  1.64500 43.09100 30.43900
C  0.24600 42.61100 30.28000
C  0.03900 42.77800 28.72000
C  0.06900 41.11000 30.87100
C  1.84700 44.39000 31.17400
C  2.22800 44.44300 32.64500
H  1.60700 43.29200 33.42900
N  -0.77000 42.99100 25.67000
C  -1.56000 42.58900 26.74000
C  -2.86300 42.20700 26.19300
C  -2.71900 42.27800 24.76000
C  -1.41100 42.75200 24.47800
C  -3.96900 41.73300 27.10500
C  -3.66000 41.81300 23.65700
O  -3.45600 41.80200 22.42700
C  -5.04100 41.19800 24.05600
N  1.51200 43.71600 23.91600
C  0.50900 43.48600 22.97800
C  1.09000 43.58000 21.53900
C  2.39900 44.36400 21.74700
C  2.66700 43.96200 23.22100
C  1.28100 42.21100 20.79200
C  2.18200 45.88800 21.65800
C  3.06200 46.55000 20.58900
N  3.24900 43.93000 26.10200
C  4.27400 44.13000 25.11200
C  5.50900 44.23800 25.73800
C  5.22800 43.99400 27.11600
C  3.86100 43.82300 27.23800
C  6.84600 44.35600 25.16100
C  5.86000 43.88800 28.42200
O  7.02600 43.93100 28.77100
C  4.69500 43.61400 29.44600
C  4.93500 42.32200 30.21000
O  5.05500 41.27600 29.63900
O  5.14200 42.44500 31.54300
C  5.16800 41.22200 32.37300
H  -2.02300 42.35900 28.74700
H  -1.27000 42.73900 22.30800
H  4.69600 44.53400 23.05400
H  2.25100 42.45600 31.08500
H  -0.38200 43.29500 30.85100
H  -0.56200 41.14600 31.75900
H  0.97900 40.56000 31.11000
H  -0.43200 40.51300 30.10800
H  0.89900 44.92800 31.16200
H  2.62900 44.95200 30.66400
H  1.95000 45.44900 32.96100
H  3.30600 44.47600 32.80000
H  -5.00900 41.67300 26.78300
H  -4.07800 42.47100 27.90000
H  -3.68100 40.75500 27.48900
H  -4.88300 40.17500 24.39800
H  -5.60000 41.16800 23.12000
H  -5.46900 41.90500 24.76600
H  0.40300 44.09400 20.86800
H  3.19900 43.98600 21.11100
H  1.35700 41.39900 21.51600
H  2.24300 42.26400 20.28300
H  0.54300 42.02000 20.01300
H  2.31800 46.29700 22.65900
H  1.15200 46.12800 21.39400
H  2.48400 47.22500 19.95700
H  3.57300 45.81900 19.96300
H  3.84900 47.06800 21.13600
H  6.76400 44.06200 24.11500
H  7.49400 43.66600 25.70100
H  7.11600 45.40500 25.28400
H  4.62100 44.46100 30.12800
H  5.80400 40.50900 31.84700
H  4.28200 40.68000 32.70200
H  5.65600 41.52000 33.30100

