158

Mg 35.01500 48.47500 25.09800
C  35.16600 46.70700 28.10500
C  33.55000 51.05700 26.82100
C  34.66400 50.07700 22.19600
C  36.27700 45.54700 23.45400
N  34.52800 48.88900 27.20500
C  34.70500 48.00700 28.25600
C  34.37000 48.65400 29.58700
C  33.62300 49.93200 29.15100
C  33.91400 49.98700 27.62500
C  32.12700 49.94900 29.50900
C  35.71900 48.97500 30.32500
C  35.73200 48.49500 31.80700
H  34.49100 48.54600 32.68100
N  34.23900 50.26600 24.58400
C  33.69400 51.23500 25.41900
C  33.38900 52.38800 24.72900
C  33.94000 52.21300 23.44500
C  34.39100 50.79800 23.33600
C  32.70100 53.57600 25.40300
C  34.06700 53.21800 22.27600
O  34.68400 52.98500 21.24500
C  33.38000 54.57600 22.46400
N  35.44100 47.90600 23.16900
C  35.07200 48.72000 22.11500
C  35.40300 48.00900 20.78000
C  36.26100 46.78400 21.15500
C  35.81100 46.62800 22.68000
C  34.09900 47.45800 20.02300
C  37.81600 46.99400 20.92900
C  38.55100 45.87500 20.14500
N  35.58000 46.54000 25.63000
C  36.04100 45.46900 24.91600
C  36.18200 44.30700 25.75900
C  35.91200 44.76800 27.03100
C  35.43900 46.10300 26.87200
C  36.73800 42.97200 25.31600
C  35.81100 44.38900 28.41900
O  35.97300 43.30700 28.95800
C  35.35300 45.60900 29.26100
C  34.10900 45.22900 29.92600
O  32.96200 45.36300 29.53800
O  34.45600 44.74100 31.14200
C  33.30900 44.42600 32.01700
H  33.07400 51.76400 27.50400
H  34.60100 50.57700 21.22700
H  36.63900 44.74000 22.81400
H  33.79600 47.93800 30.17500
H  34.11300 50.76900 29.64800
H  31.79800 48.91800 29.64000
H  31.59200 50.40700 28.67700
H  32.05200 50.58800 30.38900
H  35.74400 50.06500 30.33100
H  36.56800 48.58900 29.76200
H  36.24000 49.25300 32.40400
H  36.31400 47.58400 31.94900
H  31.80400 53.76600 24.81300
H  33.28200 54.48300 25.57100
H  32.33300 53.31500 26.39500
H  32.30500 54.44100 22.57900
H  33.47600 55.16200 21.55000
H  33.88800 55.13900 23.24700
H  35.94100 48.67400 20.10400
H  35.90700 45.86700 20.68400
H  34.11200 47.76200 18.97600
H  33.26000 47.84300 20.60300
H  33.88800 46.38900 19.99400
H  38.35800 47.22400 21.84600
H  37.89500 47.92600 20.36800
H  37.86400 45.10400 19.79500
H  39.14500 45.30100 20.85600
H  39.23600 46.23600 19.37700
H  37.65500 43.11700 24.74500
H  36.00000 42.61300 24.59900
H  36.84100 42.30100 26.16900
H  36.12200 46.07700 29.87500
H  33.58400 44.17400 33.04100
H  32.60500 43.74200 31.54400
H  32.69900 45.32300 32.12700
Mg 26.47800 49.79800 25.95800
C  24.20900 50.93200 28.47100
C  28.60700 48.78100 28.45100
C  28.64900 48.78800 23.65600
C  24.28600 50.96000 23.62800
N  26.46600 50.01800 28.13100
C  25.41700 50.38000 29.02600
C  25.85300 50.26400 30.50900
C  27.23100 49.49600 30.43100
C  27.46500 49.51300 28.93100
C  28.31800 50.12500 31.30100
C  24.72600 49.75400 31.42800
C  25.07800 48.84300 32.63600
H  25.76200 49.62800 33.84100
N  28.40800 48.93900 26.00400
C  29.03400 48.48400 27.12800
C  30.18400 47.71100 26.67700
C  30.25300 47.79300 25.30500
C  29.11400 48.58300 24.93600
C  31.14000 46.98100 27.67300
C  31.24900 47.23200 24.35900
O  31.27400 47.33100 23.16600
C  32.39800 46.45200 24.98900
N  26.50300 50.03400 23.97000
C  27.44400 49.37900 23.20500
C  27.02500 49.26700 21.69200
C  25.49300 49.61500 21.85200
C  25.43300 50.24900 23.20500
C  27.73000 50.34900 20.82100
C  24.56400 48.27000 21.72200
C  23.93200 48.12400 20.28400
N  24.69200 50.88900 26.02900
C  23.93000 51.29000 24.93900
C  22.70800 51.81200 25.41400
C  22.72500 51.73000 26.77800
C  23.96400 51.16000 27.11400
C  21.59400 52.32400 24.59300
C  22.07800 51.91800 28.01800
O  21.04500 52.43500 28.21600
C  23.03600 51.43300 29.17500
C  23.31300 52.56600 30.12400
O  24.28400 53.35100 30.08300
O  22.41500 52.57700 31.14000
C  22.77000 53.42900 32.34000
H  29.30100 48.31500 29.15300
H  29.31900 48.57500 22.82000
H  23.40200 51.23500 23.04900
H  26.13200 51.28600 30.76700
H  27.10500 48.44300 30.68300
H  29.22100 50.23100 30.69900
H  28.63700 49.36000 32.00900
H  28.26800 51.15500 31.65400
H  24.04000 49.20000 30.78800
H  24.17400 50.62300 31.78400
H  25.70300 48.01000 32.31400
H  24.14000 48.36400 32.91600
H  32.19000 47.23900 27.53500
H  30.95000 45.93500 27.43300
H  30.87300 47.07400 28.72600
H  33.12000 46.13800 24.23500
H  31.86400 45.63800 25.48000
H  33.05900 47.03700 25.62900
H  27.27400 48.25400 21.37700
H  25.11000 50.34400 21.13800
H  27.15400 51.11500 20.30100
H  28.18600 49.86600 19.95700
H  28.47900 50.86000 21.42600
H  23.81000 48.28100 22.50900
H  25.24500 47.43000 21.86000
H  24.11100 47.09000 19.99100
H  24.44400 48.69000 19.50600
H  22.87100 48.36100 20.20900
H  21.04200 51.45100 24.24500
H  22.08800 52.78000 23.73500
H  20.95300 53.03400 25.11500
H  22.65900 50.60700 29.77700
H  22.89000 54.49100 32.12700
H  23.77000 53.11000 32.63200
H  22.18800 53.20100 33.23300

