158

Mg 15.61100 52.09300 25.55600
C  17.36900 51.01000 28.49000
C  13.04700 53.06200 27.73700
C  13.88400 53.19700 22.91700
C  18.24100 50.93500 23.60600
N  15.19400 51.93900 27.87100
C  16.16400 51.67900 28.83500
C  15.71400 52.09300 30.24000
C  14.31400 52.66800 29.98200
C  14.11400 52.58600 28.43900
C  13.13800 51.84700 30.62300
C  16.73500 53.04200 30.88600
C  17.05500 52.80300 32.37400
H  15.98500 52.03000 33.36100
N  13.74400 53.03700 25.37200
C  12.84000 53.28700 26.39000
C  11.69900 53.83200 25.71300
C  11.94700 53.92500 24.32200
C  13.25900 53.41700 24.15700
C  10.34800 54.05000 26.42100
C  11.06500 54.43600 23.22900
O  11.31800 54.41100 21.99800
C  9.74600 55.19100 23.59200
N  15.93200 51.95400 23.53400
C  15.17900 52.67000 22.66600
C  15.71600 52.48500 21.21300
C  17.14400 51.89500 21.49600
C  17.11900 51.55300 22.98500
C  14.74000 51.55800 20.36800
C  18.29100 52.88100 21.10600
C  18.94000 52.64300 19.79200
N  17.36300 51.06900 25.90800
C  18.36800 50.71400 24.99100
C  19.52500 50.10700 25.66600
C  19.17500 50.20600 27.03300
C  17.87500 50.69200 27.13900
C  20.75000 49.62200 24.98800
C  19.58200 49.96900 28.39200
O  20.56900 49.41200 28.85400
C  18.47900 50.54000 29.39000
C  18.03300 49.40800 30.30400
O  17.28800 48.48800 30.02900
O  18.63700 49.63300 31.54700
C  18.36200 48.58500 32.50500
H  12.30700 53.34800 28.48700
H  13.44100 53.51700 21.97200
H  18.99300 50.60700 22.88500
H  15.61700 51.25800 30.93400
H  14.23700 53.72200 30.25000
H  13.59600 51.42700 31.51900
H  12.82300 50.99500 30.02200
H  12.29600 52.52800 30.74600
H  16.27400 54.02900 30.91700
H  17.61400 53.02500 30.24100
H  17.37500 53.63900 32.99600
H  17.84400 52.05000 32.38600
H  10.19500 53.70400 27.44400
H  9.54600 53.46400 25.97300
H  9.98500 55.07400 26.33400
H  9.26600 55.50700 22.66600
H  10.07700 56.04200 24.18700
H  9.22500 54.42700 24.16900
H  15.74600 53.47200 20.75200
H  17.14100 51.04800 20.80900
H  15.12600 50.70800 19.80500
H  14.12400 52.12800 19.67200
H  14.00700 51.23100 21.10500
H  19.02600 52.97600 21.90500
H  17.89100 53.88500 20.96100
H  18.24300 52.71300 18.95700
H  19.41600 51.66400 19.84500
H  19.66600 53.44900 19.68800
H  20.87900 50.26200 24.11500
H  20.69600 48.57200 24.70200
H  21.56900 49.74200 25.69800
H  19.02200 51.28600 29.97100
H  17.28500 48.43800 32.59000
H  18.79200 48.94600 33.43900
H  18.87000 47.65200 32.25900
Mg 0.17100 42.34900 25.76300
C  2.58100 42.40000 28.32300
C  -2.02800 41.25300 28.13300
C  -2.10200 42.29800 23.48400
C  2.71500 43.15800 23.44800
N  0.31700 41.77600 27.97900
C  1.35200 41.99500 28.88100
C  0.87300 42.06300 30.31200
C  -0.51400 41.42200 30.24300
C  -0.77400 41.49000 28.70100
C  -0.71000 39.96200 30.68500
C  0.92900 43.50800 30.96100
C  1.88400 43.57700 32.19600
H  1.82600 42.48500 33.27600
N  -1.78000 41.83500 25.80100
C  -2.48700 41.35400 26.81400
C  -3.82300 41.00300 26.42100
C  -3.91500 41.52400 25.10300
C  -2.58000 41.99300 24.74600
C  -4.76900 40.43500 27.39800
C  -5.18400 41.58400 24.23200
O  -5.07400 42.04500 23.06500
C  -6.57400 41.13200 24.67400
N  0.26400 42.82700 23.73700
C  -0.84100 42.68400 22.97300
C  -0.50300 43.04700 21.50500
C  1.03500 43.44700 21.58600
C  1.42400 43.13400 22.97700
C  -0.91300 41.98200 20.52800
C  1.37000 44.92300 21.18600
C  1.01900 46.12900 22.14000
N  2.15600 42.59400 25.75900
C  3.06600 42.89900 24.78500
C  4.37700 43.04900 25.38800
C  4.22700 42.78200 26.74000
C  2.87200 42.57500 26.94400
C  5.59700 43.40000 24.56700
C  4.96300 42.66600 27.96300
O  6.19100 42.81800 28.20200
C  3.93900 42.51800 29.08000
C  4.33500 41.30000 29.87300
O  4.28400 40.13100 29.46600
O  4.83600 41.69300 31.10800
C  5.33200 40.61300 31.96600
H  -2.77800 40.89800 28.84200
H  -2.83300 42.10600 22.69500
H  3.46400 43.42200 22.69900
H  1.55100 41.36800 30.80800
H  -1.34000 41.98100 30.68400
H  0.12300 39.75100 31.35500
H  -0.94200 39.20700 29.93200
H  -1.57500 39.91400 31.34700
H  -0.06700 43.94100 31.05800
H  1.34200 44.17600 30.20600
H  1.72500 44.55700 32.64800
H  2.85400 43.59200 31.70000
H  -4.41700 39.61100 28.01800
H  -5.70500 40.08300 26.96500
H  -4.92900 41.26000 28.09200
H  -6.65200 40.07100 24.91100
H  -7.33100 41.49200 23.97700
H  -6.72400 41.59900 25.64700
H  -1.17000 43.90100 21.39300
H  1.63100 42.89100 20.86100
H  -1.35700 41.07800 20.94500
H  0.01200 41.64300 20.06300
H  -1.66400 42.36800 19.83900
H  0.94200 45.04600 20.19100
H  2.45200 45.02500 21.09400
H  1.71100 46.39900 22.93800
H  0.02400 46.02000 22.57200
H  0.84000 46.99000 21.49700
H  6.55300 43.34100 25.08700
H  5.45700 44.43900 24.26900
H  5.56600 42.85400 23.62400
H  3.88800 43.42200 29.68600
H  6.20100 40.15600 31.49400
H  4.63800 39.79300 32.15500
H  5.51700 41.13400 32.90600

