158

Mg 46.59700 24.73200 28.02900
C  47.39900 27.16500 30.51100
C  45.85400 22.53300 30.44500
C  46.32900 22.32700 25.50800
C  47.68700 26.84400 25.61800
N  46.67600 24.80700 30.24900
C  46.82600 25.99900 31.01600
C  46.54800 25.73400 32.53700
C  45.94900 24.30800 32.39700
C  46.16100 23.80100 30.98200
C  46.47800 23.16600 33.29700
C  45.52500 26.71100 33.19500
C  45.81000 27.08300 34.63800
H  44.69300 27.04200 35.62400
N  46.09000 22.75100 28.06100
C  45.78400 21.98700 29.12400
C  45.53200 20.63900 28.72900
C  45.84600 20.50600 27.34000
C  46.14600 21.88900 26.89700
C  45.05000 19.55700 29.68900
C  45.92900 19.27500 26.44900
O  46.23500 19.21500 25.26800
C  45.77700 17.92800 27.13800
N  46.95500 24.56500 25.81400
C  46.57600 23.57200 24.98700
C  46.79700 23.92600 23.48000
C  46.98000 25.46200 23.63300
C  47.27100 25.62200 25.11200
C  47.95300 23.19700 22.86500
C  45.83500 26.31400 23.00700
C  44.33700 25.95900 23.42200
N  47.39500 26.57200 27.97000
C  47.76100 27.39300 26.93000
C  48.29100 28.63900 27.31900
C  48.14400 28.59300 28.73400
C  47.54900 27.32200 29.11400
C  48.77900 29.69000 26.45400
C  48.45700 29.27900 29.93800
O  48.93100 30.41000 30.10700
C  47.80400 28.50400 31.09200
C  48.85600 28.34900 32.16600
O  49.87100 27.64300 32.08200
O  48.44600 29.07700 33.29800
C  49.29600 28.86900 34.47600
H  45.36800 21.83100 31.12500
H  46.17100 21.50500 24.80800
H  47.82400 27.66700 24.91300
H  47.51800 25.67400 33.03000
H  44.86500 24.25200 32.49200
H  46.66400 23.51600 34.31300
H  47.21800 22.50700 32.84300
H  45.62700 22.50400 33.45300
H  44.48200 26.43500 33.04400
H  45.60100 27.67100 32.68300
H  46.29300 28.05000 34.49600
H  46.53500 26.43200 35.12700
H  44.25700 18.87000 29.39600
H  44.67400 20.07300 30.57200
H  45.92200 19.00100 30.03500
H  46.54900 17.92000 27.90700
H  46.15300 17.19700 26.42100
H  44.73400 17.84000 27.44400
H  45.91200 23.62000 22.92200
H  47.91400 25.78000 23.16900
H  48.09500 23.66900 21.89300
H  47.71000 22.14600 22.70900
H  48.77000 23.38000 23.56400
H  45.83600 26.22400 21.92100
H  46.03200 27.35100 23.27800
H  43.68400 25.74100 22.57700
H  43.93100 26.78500 24.00500
H  44.29100 25.09200 24.08200
H  48.14800 30.55300 26.67000
H  48.81100 29.60100 25.36800
H  49.81900 29.85000 26.74000
H  46.96300 29.04700 31.52500
H  48.99200 27.98500 35.03800
H  49.23000 29.74600 35.12100
H  50.37000 28.75200 34.33200
Mg 41.30200 41.26300 26.40300
C  40.37500 43.33200 28.99400
C  42.32100 38.89100 28.81200
C  42.53400 39.39000 23.89400
C  40.77000 43.82900 24.10000
N  41.58400 41.25400 28.64600
C  40.89400 42.09800 29.45500
C  40.83400 41.62200 30.92400
C  41.68700 40.33400 30.80500
C  41.93500 40.10000 29.29000
C  43.05400 40.36600 31.57500
C  39.39800 41.54500 31.56700
C  39.06100 42.59100 32.59300
H  38.39200 42.12400 33.97000
N  42.30600 39.39700 26.32800
C  42.56400 38.57200 27.46400
C  43.07800 37.38700 26.95600
C  43.10100 37.39300 25.44900
C  42.70500 38.77700 25.14700
C  43.60500 36.21000 27.90000
C  43.42900 36.29900 24.49000
O  43.56400 36.49000 23.28600
C  43.50600 34.83500 25.06600
N  41.64600 41.55800 24.36600
C  42.13000 40.64300 23.54200
C  42.21900 41.16200 22.04600
C  41.23100 42.38800 22.06800
C  41.19500 42.62800 23.59700
C  43.63600 41.36600 21.49300
C  39.79000 42.18800 21.45100
C  39.14200 40.89100 21.83900
N  40.60600 43.18900 26.43600
C  40.44800 44.15800 25.44000
C  40.06700 45.36700 26.02900
C  39.91800 45.12200 27.44100
C  40.25500 43.73900 27.61700
C  39.98800 46.69200 25.30500
C  39.58600 45.64900 28.71400
O  39.28300 46.80000 28.98900
C  39.79900 44.50900 29.77600
C  40.75200 45.03700 30.65400
O  41.98600 45.10900 30.49100
O  40.14400 45.66600 31.70200
C  41.07100 46.21800 32.68600
H  42.38100 38.14700 29.60900
H  42.76000 38.76700 23.02600
H  40.70700 44.58400 23.31400
H  41.34900 42.36000 31.53800
H  41.18200 39.55100 31.37000
H  42.97300 39.56300 32.30700
H  43.21000 41.31800 32.08300
H  43.89700 40.13500 30.92400
H  39.29800 40.56100 32.02700
H  38.71600 41.51300 30.71700
H  38.36900 43.29300 32.12800
H  39.93500 43.17800 32.87700
H  43.36300 36.35600 28.95200
H  44.68500 36.24600 27.75100
H  43.27000 35.19200 27.70600
H  42.61300 34.66000 25.66600
H  44.37500 34.70800 25.71000
H  43.60500 34.10500 24.26200
H  41.81600 40.41300 21.36400
H  41.78400 43.24700 21.68800
H  44.38900 41.35300 22.28100
H  43.73400 42.30900 20.95600
H  43.87700 40.52000 20.85000
H  39.89200 42.29400 20.37100
H  39.24700 43.05700 21.82100
H  38.88800 40.37200 20.91400
H  38.19500 41.11300 22.33100
H  39.79500 40.26100 22.44200
H  40.08800 47.47700 26.05500
H  38.97300 46.85700 24.94500
H  40.78500 46.80800 24.57100
H  38.84400 44.21900 30.21300
H  41.64800 47.05900 32.30300
H  41.64900 45.42400 33.15900
H  40.49500 46.58700 33.53400

