158

Mg 48.24800 35.16000 28.24200
C  46.49100 33.53000 30.74000
C  48.80500 37.67600 30.40900
C  49.49000 37.07000 25.70600
C  47.33600 32.81100 25.92500
N  47.75700 35.49000 30.35800
C  47.05500 34.70700 31.24900
C  47.14800 35.24000 32.63900
C  47.55400 36.69800 32.51500
C  48.08500 36.70300 31.03100
C  46.48000 37.73400 32.67600
C  48.25400 34.45500 33.41400
C  48.06100 34.26200 34.93900
H  47.04800 35.12400 35.75100
N  49.16400 37.04200 28.10900
C  49.36600 37.84800 29.17300
C  50.08900 39.01700 28.82600
C  50.02300 39.01300 27.39900
C  49.53100 37.70100 26.99000
C  50.54300 40.01300 29.75600
C  50.42300 40.12200 26.41900
O  50.53900 39.94700 25.19400
C  50.93900 41.47300 26.83600
N  48.37200 34.97200 26.07000
C  48.98900 35.85600 25.24800
C  49.12200 35.31500 23.81400
C  48.40900 33.95600 23.86700
C  48.00700 33.88600 25.35900
C  48.38700 36.29000 22.86700
C  49.28000 32.81800 23.41500
C  48.72000 31.75100 22.52400
N  47.22300 33.46600 28.30500
C  46.86800 32.60300 27.24100
C  46.15500 31.48400 27.84900
C  45.92800 31.80400 29.20200
C  46.52700 33.05400 29.41700
C  45.82600 30.18600 27.08200
C  45.26400 31.39000 30.40000
O  44.64500 30.38300 30.56700
C  45.46200 32.60700 31.41100
C  45.83000 32.08400 32.70200
O  46.90000 31.46500 32.87400
O  44.89200 32.31600 33.61900
C  45.16100 31.90200 34.99800
H  48.96500 38.48600 31.12300
H  49.88500 37.69000 24.89900
H  47.12600 32.02100 25.20100
H  46.23500 35.05400 33.20300
H  48.43000 36.98100 33.09900
H  46.83600 38.66000 33.12800
H  45.84600 37.38300 33.48900
H  45.99400 37.86600 31.70900
H  49.21800 34.96300 33.41000
H  48.36200 33.44000 33.03100
H  49.04800 34.27000 35.40100
H  47.83500 33.19700 34.98900
H  50.74000 39.62500 30.75600
H  49.68500 40.67300 29.88400
H  51.33600 40.63400 29.33900
H  50.42600 41.72300 27.76500
H  50.80400 42.21800 26.05200
H  51.97400 41.51300 27.17500
H  50.20600 35.42900 23.79200
H  47.43800 34.04500 23.38200
H  47.34800 36.51900 23.10500
H  48.46400 35.90200 21.85100
H  48.91800 37.24200 22.87400
H  49.64300 32.43800 24.37000
H  50.24000 33.22100 23.09100
H  49.40300 31.78300 21.67500
H  47.67300 31.92500 22.27400
H  48.73600 30.70800 22.84000
H  45.88400 30.49000 26.03600
H  44.83600 29.84400 27.38500
H  46.60600 29.49300 27.39800
H  44.46600 33.05100 31.43500
H  44.21500 31.61600 35.45700
H  45.54800 32.71800 35.60800
H  45.76200 30.99500 34.92500
Mg -11.63200 38.07700 42.34900
C  -9.35300 35.48700 41.37500
C  -9.54200 40.28400 40.60000
C  -13.92100 40.40400 42.57000
C  -13.90200 35.58300 43.14700
N  -9.75200 37.83500 41.15900
C  -8.96600 36.71700 40.91000
C  -7.70900 37.04700 40.11100
C  -7.66100 38.60900 40.20700
C  -9.07200 38.93800 40.67100
C  -6.56200 39.19000 41.10300
C  -7.67900 36.39200 38.68000
C  -6.50400 35.49300 38.36300
H  -5.51000 36.00100 37.24900
N  -11.74800 40.10100 41.71500
C  -10.79000 40.85800 41.04000
C  -11.14500 42.24800 41.00800
C  -12.43000 42.26300 41.53200
C  -12.76000 40.91800 41.99600
C  -10.34400 43.31700 40.32200
C  -13.30500 43.55000 41.62900
O  -12.85200 44.56500 41.34400
C  -14.79500 43.46300 41.93600
N  -13.66300 37.91800 42.63500
C  -14.33300 39.08400 42.92000
C  -15.72100 38.73800 43.47300
C  -15.83300 37.20100 43.61400
C  -14.41600 36.85300 43.01800
C  -16.15700 39.57200 44.70400
C  -16.94300 36.61800 42.76100
C  -17.50500 35.27800 43.17100
N  -11.55500 35.98300 42.50600
C  -12.51500 35.09900 42.89000
C  -12.03900 33.69300 42.82100
C  -10.71900 33.84300 42.35900
C  -10.51700 35.23700 42.04700
C  -12.80200 32.50000 43.20400
C  -9.54500 33.16000 42.00300
O  -9.28100 31.94200 42.00300
C  -8.56100 34.21500 41.45800
C  -7.39300 34.17200 42.30300
O  -7.31900 34.63900 43.38900
O  -6.42100 33.47600 41.65500
C  -5.35500 33.19800 42.61800
H  -8.73100 40.91700 40.23200
H  -14.56000 41.23800 42.86700
H  -14.59300 34.82200 43.51500
H  -6.86600 36.67500 40.69400
H  -7.47000 39.07100 39.23800
H  -6.02600 38.38200 41.60100
H  -7.06600 39.90000 41.75800
H  -5.80100 39.83400 40.66200
H  -7.76100 37.25200 38.01500
H  -8.69600 36.01100 38.58700
H  -6.87800 34.53800 37.99300
H  -5.97800 35.30200 39.29800
H  -9.29300 43.02700 40.30700
H  -10.50000 44.22700 40.90300
H  -10.81900 43.45100 39.35100
H  -15.10500 42.60800 41.33500
H  -15.31800 44.37500 41.64600
H  -14.93900 43.27900 43.00000
H  -16.38100 39.13000 42.69900
H  -15.84100 36.89400 44.65900
H  -16.55500 38.99300 45.53700
H  -16.84100 40.37800 44.43900
H  -15.24900 40.07100 45.04400
H  -16.66200 36.44700 41.72100
H  -17.78400 37.31000 42.80500
H  -18.58800 35.38500 43.24200
H  -17.25600 35.01300 44.19900
H  -17.24000 34.55800 42.39800
H  -12.64800 31.74400 42.43300
H  -13.84300 32.62800 43.50000
H  -12.18600 32.10600 44.01200
H  -8.26400 33.84700 40.47500
H  -4.83400 34.11800 42.88400
H  -4.62000 32.49800 42.22100
H  -5.79200 32.79100 43.53000

