158

Mg 47.81300 35.49600 27.83500
C  46.06100 33.82800 30.22800
C  48.04500 38.16700 29.91700
C  48.92500 37.19700 25.17800
C  46.98200 32.83600 25.50900
N  47.10700 35.93600 29.85300
C  46.59500 35.01100 30.66900
C  46.66700 35.61800 32.14300
C  46.87000 37.11200 31.93200
C  47.36800 37.12600 30.51500
C  45.53800 37.77400 32.24200
C  47.74400 34.86500 33.07100
C  48.63200 35.56800 34.02300
H  47.92700 36.40300 35.12300
N  48.48500 37.32800 27.61100
C  48.53700 38.31300 28.60300
C  49.18500 39.43800 28.08600
C  49.50300 39.28700 26.71000
C  48.96600 37.86800 26.43200
C  49.41300 40.60800 28.96800
C  50.11300 40.20600 25.62400
O  50.47200 39.84800 24.53400
C  50.39800 41.56700 26.11500
N  47.96000 35.07500 25.62700
C  48.43500 35.95000 24.73800
C  48.21900 35.50600 23.28700
C  47.76400 34.08900 23.45700
C  47.68200 33.90700 24.97600
C  47.26600 36.57200 22.58200
C  48.67400 33.00000 22.75200
C  48.02400 31.97800 21.84600
N  46.83900 33.62400 27.86600
C  46.61800 32.62500 26.89500
C  45.87100 31.52300 27.47400
C  45.56200 31.99200 28.76400
C  46.25800 33.23700 28.98400
C  45.50700 30.21000 26.89500
C  44.87500 31.60600 29.94400
O  44.24600 30.61000 30.21700
C  45.10500 32.87500 30.87100
C  45.46500 32.41900 32.22700
O  46.37100 31.63300 32.50000
O  44.58400 32.88400 33.15500
C  44.75300 32.42800 34.53900
H  48.21900 38.96800 30.63800
H  49.28300 37.65100 24.25200
H  46.59200 31.97600 24.96000
H  45.69400 35.35500 32.55800
H  47.61200 37.58900 32.57200
H  45.65500 38.85600 32.19400
H  45.29400 37.67300 33.30000
H  44.77400 37.45100 31.53500
H  48.45000 34.25900 32.50200
H  47.15700 34.16000 33.66100
H  49.25100 36.21300 33.40000
H  49.30500 34.83900 34.47500
H  50.36700 41.11900 28.83700
H  49.45100 40.27000 30.00300
H  48.62600 41.35600 28.86900
H  51.30200 41.55900 26.72500
H  49.57200 41.89900 26.74400
H  50.50500 42.32100 25.33400
H  49.20700 35.35000 22.85200
H  46.69900 33.92500 23.29000
H  47.26300 37.44800 23.23100
H  46.27600 36.12800 22.47500
H  47.61300 36.66800 21.55300
H  49.19800 32.33100 23.43500
H  49.48000 33.44100 22.16600
H  48.01500 32.41600 20.84700
H  46.96400 31.87700 22.07600
H  48.49800 31.00000 21.92300
H  45.91200 30.13500 25.88600
H  44.44400 29.98400 26.80500
H  46.09100 29.49000 27.46900
H  44.16600 33.38900 31.07300
H  43.73400 32.36100 34.91900
H  45.34800 33.17000 35.07300
H  45.24500 31.45800 34.60400
Mg 16.77700 52.67400 26.73600
C  18.65000 51.22800 29.32200
C  14.28500 53.37100 28.98100
C  15.06800 53.92600 24.15000
C  19.11200 51.26000 24.50600
N  16.48000 52.23400 28.88900
C  17.50100 51.85400 29.78200
C  17.05100 52.07500 31.24300
C  15.46900 52.26500 31.01700
C  15.35600 52.69300 29.53900
C  14.65000 51.05000 31.44800
C  17.94500 53.13000 31.96600
C  18.10000 53.22200 33.50400
H  17.27500 52.17100 34.41800
N  14.91400 53.59700 26.57900
C  14.03000 53.81300 27.65100
C  12.86800 54.54900 27.08800
C  13.10100 54.69000 25.67500
C  14.37600 54.05600 25.40300
C  11.69200 55.05600 27.94200
C  12.13900 55.32800 24.66700
O  12.39500 55.31400 23.42900
C  10.80300 55.78600 25.10500
N  17.02600 52.51700 24.64700
C  16.27500 53.30000 23.83900
C  16.80800 53.31300 22.35000
C  18.20700 52.55800 22.54700
C  18.12100 52.04800 23.99400
C  15.84000 52.61800 21.37600
C  19.46600 53.56900 22.37200
C  20.17400 53.50200 21.02200
N  18.46400 51.38700 26.80000
C  19.30500 50.93100 25.87200
C  20.34400 50.14300 26.42100
C  20.20900 50.34100 27.80800
C  19.01600 51.05700 28.00900
C  21.39400 49.42900 25.66900
C  20.82600 50.16100 29.13400
O  21.95300 49.79300 29.41100
C  19.74700 50.64700 30.14400
C  19.36900 49.54000 31.07900
O  18.60400 48.58900 30.82700
O  19.96100 49.83200 32.35200
C  19.98800 48.61300 33.23100
H  13.49300 53.58500 29.70200
H  14.56900 54.46700 23.34300
H  19.84800 50.91500 23.77700
H  17.15900 51.16900 31.84000
H  15.05200 53.11000 31.56600
H  15.21300 50.51200 32.21100
H  14.38500 50.31300 30.69100
H  13.71200 51.24800 31.96700
H  17.47000 54.04700 31.62000
H  18.91700 53.19600 31.47600
H  17.78400 54.20300 33.85900
H  19.14600 53.25400 33.80700
H  10.70100 54.68100 27.68600
H  11.70600 56.13900 28.06500
H  11.81700 54.76500 28.98500
H  10.20300 54.97100 25.51200
H  10.22700 55.93200 24.19100
H  10.85200 56.62700 25.79700
H  16.89600 54.37300 22.11100
H  18.37100 51.76100 21.82200
H  15.50400 53.37400 20.66700
H  14.98700 52.13400 21.85300
H  16.18900 51.76300 20.79600
H  20.23900 53.44500 23.13000
H  19.09300 54.58900 22.46500
H  19.82700 52.64500 20.44600
H  21.21500 53.35800 21.31100
H  20.05000 54.42800 20.46000
H  22.21900 49.29700 26.36800
H  21.75800 50.03300 24.83800
H  21.10800 48.51300 25.15100
H  20.15100 51.44500 30.76800
H  18.96300 48.57300 33.60000
H  20.74100 48.70500 34.01300
H  20.22700 47.69900 32.68600

