158

Mg 25.07400 -7.46100 47.82400
C  26.79500 -4.95500 46.10900
C  22.49800 -7.18300 45.63800
C  23.70500 -10.10000 49.40800
C  28.14500 -8.15500 49.49900
N  24.75600 -6.04900 46.13000
C  25.60100 -5.17700 45.47900
C  24.93000 -4.45600 44.33200
C  23.59700 -5.29100 44.16800
C  23.51500 -6.18800 45.47200
C  22.30100 -4.43600 43.75200
C  25.89100 -4.21400 43.11400
C  26.12600 -2.72800 42.79800
H  25.54400 -2.39500 41.48100
N  23.29900 -8.47100 47.57500
C  22.39000 -8.21000 46.62200
C  21.30100 -9.12100 46.81100
C  21.59800 -9.91200 47.90900
C  22.88600 -9.47600 48.41600
C  20.05400 -9.17500 45.87600
C  20.69500 -10.93300 48.40700
O  19.59900 -11.10800 47.87200
C  21.00000 -11.61000 49.75400
N  25.79300 -8.89600 49.35100
C  25.01000 -9.84700 49.81800
C  25.79000 -10.87600 50.74500
C  27.27000 -10.36800 50.53200
C  27.03500 -9.06400 49.76900
C  25.47500 -10.60500 52.22500
C  28.21400 -11.29900 49.66500
C  29.64100 -11.48500 50.17100
N  27.05200 -6.73300 47.82000
C  28.13400 -7.05000 48.62700
C  29.26800 -6.13900 48.30500
C  28.77700 -5.26600 47.34300
C  27.43400 -5.68800 47.03800
C  30.55800 -6.12700 48.96500
C  29.10900 -4.07900 46.64400
O  30.12900 -3.35800 46.58400
C  27.86700 -3.86300 45.75300
C  27.46600 -2.49900 46.32200
O  26.66100 -2.45200 47.23700
O  28.08600 -1.49200 45.76600
C  27.55300 -0.11500 46.02900
H  21.75300 -7.11000 44.84200
H  23.40500 -10.97900 49.98100
H  29.07800 -8.25400 50.05700
H  24.56900 -3.50000 44.71000
H  23.85300 -5.93800 43.32900
H  21.47200 -4.96200 44.22400
H  22.26900 -4.36300 42.66500
H  22.38500 -3.46000 44.22800
H  25.46700 -4.70500 42.23800
H  26.86700 -4.68700 43.22300
H  27.17800 -2.47300 42.91900
H  25.65200 -2.04300 43.50200
H  19.29700 -8.82700 46.57900
H  19.87400 -10.20100 45.55500
H  20.07900 -8.41900 45.09200
H  21.68500 -12.43200 49.54800
H  20.06500 -12.02900 50.12800
H  21.36800 -10.89800 50.49300
H  25.50800 -11.89000 50.46300
H  27.73100 -10.14300 51.49400
H  26.12300 -9.84400 52.66000
H  25.47600 -11.55200 52.76400
H  24.50900 -10.13400 52.41100
H  28.30100 -10.86100 48.67100
H  27.73500 -12.27200 49.55000
H  29.95700 -12.49900 50.41600
H  29.77900 -11.05500 51.16300
H  30.38200 -11.10000 49.47000
H  30.45500 -5.96500 50.03800
H  31.28600 -5.48100 48.47500
H  31.01000 -7.08700 48.71800
H  28.15500 -3.62700 44.72900
H  26.47800 -0.15000 46.20700
H  27.67300 0.35100 45.05100
H  28.01600 0.40800 46.86500
Mg 46.88500 16.29000 29.25200
C  44.69900 15.77400 31.97600
C  49.01700 17.90800 31.39000
C  48.75200 17.04100 26.63700
C  44.42800 15.07000 27.22400
N  46.73900 16.86700 31.39100
C  45.87200 16.44900 32.33900
C  46.31600 16.73400 33.73800
C  47.53100 17.68900 33.47200
C  47.76200 17.55600 31.95900
C  47.47500 19.12100 34.03700
C  46.55300 15.43500 34.60000
C  46.23700 15.50300 36.15000
H  45.93200 16.82500 36.87200
N  48.67200 17.22000 29.08200
C  49.47200 17.71400 30.05400
C  50.79100 18.03700 29.54400
C  50.80600 17.79600 28.21800
C  49.36400 17.35400 27.88000
C  51.92000 18.64500 30.52800
C  51.89700 17.94900 27.14600
O  51.81300 17.68700 25.97000
C  53.23000 18.21200 27.65500
N  46.53300 16.17100 27.26000
C  47.44900 16.57000 26.37900
C  46.95300 16.50100 24.91400
C  45.61200 15.77800 25.02700
C  45.52500 15.58400 26.59100
C  46.83400 17.75400 24.02800
C  45.29900 14.57300 24.05300
C  45.63600 13.04500 24.52800
N  44.91700 15.48200 29.54700
C  44.05700 15.00200 28.59400
C  42.91600 14.48600 29.22500
C  43.16800 14.73400 30.59800
C  44.30300 15.38400 30.72200
C  41.72800 13.88100 28.57400
C  42.60300 14.53300 31.96300
O  41.60900 14.02800 32.39800
C  43.48000 15.36400 32.84900
C  42.76400 16.49800 33.38700
O  42.81400 17.68900 32.94100
O  42.10900 16.12300 34.50900
C  41.67100 17.21700 35.32700
H  49.74100 18.33300 32.08800
H  49.36800 17.19300 25.74900
H  43.68000 14.66200 26.54100
H  45.59400 17.44500 34.14000
H  48.46600 17.29000 33.86600
H  46.42800 19.42400 34.04600
H  48.05700 19.73000 33.34500
H  47.94600 19.21200 35.01600
H  47.62800 15.26600 34.54300
H  46.02600 14.61300 34.11500
H  46.96400 14.91800 36.71400
H  45.34000 14.88900 36.22900
H  51.64200 18.56800 31.58000
H  52.18100 19.64000 30.16700
H  52.79600 18.01000 30.40300
H  53.94800 18.36900 26.85100
H  53.60300 17.43800 28.32600
H  53.25800 19.09900 28.28800
H  47.51700 15.71600 24.41000
H  44.75000 16.40700 24.80700
H  47.37500 18.57400 24.50100
H  45.79800 18.07900 23.93200
H  47.24400 17.71400 23.01900
H  46.04000 14.72100 23.26800
H  44.25200 14.67500 23.76600
H  44.73900 12.44000 24.40100
H  45.94100 12.79300 25.54400
H  46.45600 12.63000 23.94100
H  41.43800 12.84200 28.73000
H  41.79700 14.08600 27.50500
H  40.86100 14.38900 28.99700
H  43.74200 14.65200 33.63100
H  40.70300 17.54900 34.95200
H  42.42800 17.98900 35.46500
H  41.44400 16.83200 36.32100

