158

Mg 36.05500 2.48700 30.28600
C  33.41300 3.44900 32.34800
C  38.22500 2.48100 32.99900
C  38.56400 1.34900 28.26900
C  33.80200 2.31800 27.59200
N  35.82900 2.88000 32.39700
C  34.62500 3.21300 33.01400
C  34.86300 3.31300 34.53800
C  36.40300 3.40300 34.63800
C  36.90200 2.88000 33.21300
C  36.74400 4.89100 34.74100
C  34.19500 2.03000 35.20400
C  33.69100 2.05100 36.65100
H  34.34100 3.07500 37.66200
N  38.11300 2.00800 30.54400
C  38.78800 2.08500 31.73700
C  40.14700 1.72900 31.55700
C  40.24800 1.40300 30.19900
C  38.96700 1.57600 29.59300
C  41.12400 1.57300 32.70900
C  41.45300 0.91200 29.44000
O  41.43000 0.64300 28.23400
C  42.77900 0.76400 30.13100
N  36.21600 2.12500 28.15800
C  37.27900 1.51200 27.63800
C  37.02000 1.07100 26.17400
C  35.48100 1.09900 26.09200
C  35.16400 1.92200 27.35700
C  37.68000 2.03700 25.10800
C  34.78100 -0.25400 26.17800
C  33.95000 -0.57900 24.89700
N  34.10700 3.05700 29.89300
C  33.32000 2.92300 28.80200
C  31.90600 3.23300 29.17300
C  31.94700 3.47700 30.57500
C  33.29200 3.37600 30.91400
C  30.70800 3.13300 28.30100
C  31.15000 3.88700 31.71900
O  29.99200 4.23900 31.85200
C  32.11400 3.80000 32.91400
C  31.98100 5.14300 33.58600
O  32.38900 6.16300 33.21500
O  31.55100 4.91900 34.84600
C  31.79500 6.01500 35.79800
H  38.83100 2.61400 33.89800
H  39.23700 0.87000 27.55500
H  32.99400 2.04300 26.91100
H  34.35800 4.18600 34.95300
H  36.69800 2.88400 35.55100
H  37.54500 5.16100 34.05200
H  36.97800 5.17100 35.76800
H  35.89300 5.54100 34.53600
H  34.88200 1.20600 35.01500
H  33.36800 1.70800 34.57000
H  33.58100 1.06300 37.09600
H  32.69000 2.41800 36.42200
H  40.61700 1.36100 33.65100
H  41.53100 2.55900 32.93100
H  42.02400 0.98100 32.54900
H  43.08700 1.63500 30.70800
H  43.53000 0.59600 29.36000
H  42.81000 -0.18600 30.66500
H  37.38400 0.05400 26.03300
H  35.11800 1.71400 25.26800
H  37.08500 2.09800 24.19700
H  38.64500 1.67300 24.75600
H  37.61500 3.06100 25.47700
H  33.95900 -0.19700 26.89300
H  35.47400 -1.04000 26.47700
H  33.82000 -1.64400 24.70600
H  34.52800 -0.17600 24.06500
H  33.03300 -0.00000 24.77700
H  30.68900 2.18600 27.76200
H  30.81300 3.93200 27.56700
H  29.76700 3.17700 28.85000
H  31.68000 2.93500 33.41500
H  30.94000 6.68700 35.86200
H  32.70400 6.56000 35.54500
H  31.94500 5.55900 36.77700
Mg 41.99500 40.69500 26.28200
C  41.31900 43.07700 28.68900
C  43.01800 38.49900 28.64500
C  42.74000 38.57700 23.63000
C  40.83200 43.06400 23.83200
N  42.29400 40.82200 28.36700
C  41.75200 41.89100 29.18300
C  41.86100 41.54300 30.62300
C  42.48300 40.07000 30.65900
C  42.62900 39.75500 29.13000
C  43.83000 39.95800 31.42900
C  40.50200 41.71500 31.42800
C  40.51200 42.59600 32.79100
H  40.01500 41.97500 34.07300
N  42.81400 38.81000 26.15800
C  43.16200 38.03200 27.26300
C  43.58300 36.68900 26.75600
C  43.63100 36.70700 25.29900
C  42.99200 38.05400 25.00200
C  44.08500 35.61700 27.75100
C  44.13100 35.72400 24.30900
O  44.13100 36.02500 23.10900
C  44.67900 34.40300 24.75200
N  41.85000 40.84400 24.08100
C  42.25900 39.82400 23.25600
C  42.00300 40.14600 21.83300
C  41.21400 41.48400 21.86500
C  41.27400 41.82700 23.36100
C  43.17300 40.32200 20.85000
C  39.71000 41.32500 21.37500
C  38.85300 40.34500 22.13800
N  41.24600 42.70900 26.25300
C  40.87600 43.49900 25.20400
C  40.40300 44.72800 25.75100
C  40.61600 44.65500 27.12000
C  41.13900 43.37200 27.37700
C  39.93100 45.83400 24.90600
C  40.44900 45.39000 28.31300
O  40.09000 46.54600 28.56400
C  40.92300 44.32400 29.38900
C  42.07900 44.85900 30.20300
O  43.29800 44.67300 29.96500
O  41.66200 45.64300 31.34600
C  42.74800 46.21500 32.14400
H  43.27900 37.75400 29.40000
H  42.93200 37.88100 22.81100
H  40.56900 43.65900 22.95500
H  42.63900 42.22200 30.97200
H  41.85700 39.34400 31.17700
H  44.64100 39.68400 30.75400
H  43.80100 39.27500 32.27700
H  44.14300 40.90500 31.86900
H  40.23400 40.71300 31.76400
H  39.70100 41.88700 30.71000
H  39.75900 43.34800 32.55500
H  41.51500 43.01000 32.89200
H  43.91800 35.95000 28.77600
H  45.16300 35.53000 27.61500
H  43.65900 34.62400 27.60800
H  43.77300 33.80800 24.87200
H  45.27600 34.44000 25.66300
H  45.16300 33.98900 23.86800
H  41.40100 39.31400 21.46900
H  41.64800 42.32600 21.32500
H  43.76300 39.43200 20.62900
H  43.80500 41.17100 21.11100
H  42.68000 40.60800 19.92100
H  39.70700 40.99400 20.33600
H  39.25700 42.30800 21.50800
H  38.36600 39.64300 21.46200
H  38.07400 40.85700 22.70400
H  39.46100 39.78100 22.84500
H  40.09500 45.55200 23.86600
H  40.58700 46.69900 25.01600
H  38.89100 46.12000 25.06100
H  40.11300 44.15200 30.09700
H  42.85100 45.47600 32.93900
H  42.58900 47.17500 32.63500
H  43.72700 46.30300 31.67500

