158

Mg 24.91300 1.46700 29.62300
C  27.22500 1.09500 32.29100
C  22.49800 2.00500 32.01300
C  22.80200 1.72600 27.08700
C  27.47900 0.45600 27.41500
N  24.83100 1.57800 31.85600
C  25.91400 1.46800 32.72600
C  25.50000 1.66300 34.25500
C  23.96800 1.73200 34.10300
C  23.69700 1.73900 32.62600
C  23.13200 0.63400 34.88000
C  26.17700 2.94700 34.82100
C  26.86300 2.82000 36.19000
H  26.60400 3.89600 37.29700
N  22.91300 1.80400 29.55700
C  22.03900 1.93100 30.67100
C  20.71800 2.04500 30.08200
C  20.81700 1.93200 28.62800
C  22.23500 1.79900 28.38300
C  19.48800 2.34800 30.95500
C  19.68300 2.08900 27.54800
O  19.86300 1.88500 26.35900
C  18.33500 2.31800 28.09300
N  25.03000 1.01300 27.53300
C  24.06000 1.30600 26.68300
C  24.58200 1.24800 25.18600
C  26.12100 0.97600 25.31600
C  26.22800 0.79100 26.84500
C  23.75700 0.13200 24.38000
C  26.91900 2.19000 24.91900
C  28.38900 1.98300 24.65000
N  26.87500 0.88700 29.72400
C  27.75500 0.47300 28.77900
C  29.04900 0.22300 29.37600
C  28.85800 0.42200 30.77000
C  27.53100 0.84300 30.94600
C  30.30600 -0.21700 28.60000
C  29.57300 0.47000 32.07400
O  30.73400 0.27600 32.36800
C  28.52000 1.00000 33.12700
C  28.52400 0.31300 34.39500
O  27.87400 -0.73100 34.61600
O  29.29100 0.88500 35.31100
C  29.25200 0.19400 36.66600
H  21.63700 2.11600 32.67600
H  22.14000 1.78000 26.22000
H  28.34800 0.16100 26.82400
H  25.81900 0.78400 34.81400
H  23.51200 2.67700 34.39700
H  22.34000 0.19200 34.27600
H  22.60800 1.04900 35.74100
H  23.84800 -0.15800 35.09600
H  25.57500 3.85200 34.89900
H  26.98100 3.09300 34.10000
H  27.94800 2.81100 36.08700
H  26.58700 1.83100 36.55400
H  19.90100 2.54200 31.94500
H  18.87400 1.45200 30.86600
H  18.99300 3.27200 30.65700
H  18.40600 3.27000 28.61800
H  18.16900 1.44400 28.72300
H  17.59200 2.34000 27.29500
H  24.39700 2.23100 24.75400
H  26.52700 0.05200 24.90600
H  23.41200 0.52800 23.42500
H  22.82900 -0.19700 24.84600
H  24.35400 -0.75100 24.15400
H  26.95700 2.99800 25.65000
H  26.44100 2.51800 23.99600
H  28.90900 2.48100 25.46900
H  28.73900 2.48000 23.74500
H  28.53500 0.90800 24.55000
H  31.17600 -0.41700 29.22600
H  30.53500 0.43300 27.75600
H  30.09100 -1.19200 28.16200
H  28.88400 2.00000 33.36500
H  30.20300 -0.26700 36.93400
H  28.48500 -0.54500 36.89900
H  29.00400 0.83800 37.51000
Mg 43.00000 41.81700 26.51400
C  42.07300 44.21000 28.84200
C  44.16000 39.91800 28.95700
C  43.95700 39.66900 24.14300
C  42.95400 44.43700 24.13300
N  42.87100 41.99200 28.66300
C  42.46200 43.05800 29.43600
C  42.51500 42.67500 30.91600
C  43.47700 41.43900 30.85500
C  43.49700 41.10200 29.40500
C  44.91700 41.71300 31.47500
C  41.12000 42.35700 31.48300
C  40.59600 43.02200 32.76300
H  41.51400 43.03300 33.94500
N  43.85900 40.05100 26.56500
C  44.27800 39.38600 27.64800
C  44.66100 38.03000 27.36800
C  44.58400 37.93700 25.90300
C  44.07000 39.27200 25.47100
C  45.09700 36.94500 28.36200
C  44.80100 36.70500 24.96700
O  44.83700 36.68900 23.76300
C  44.88400 35.39100 25.61400
N  43.37900 42.02000 24.42700
C  43.80900 41.00700 23.68700
C  43.82700 41.40100 22.16700
C  43.35000 42.93200 22.21900
C  43.17800 43.16700 23.71200
C  45.22800 41.29500 21.52000
C  41.96100 43.21400 21.51500
C  40.67300 42.86700 22.32500
N  42.44100 43.90500 26.38600
C  42.49900 44.85300 25.40900
C  41.91200 46.11900 25.81200
C  41.69600 45.88300 27.19600
C  42.10300 44.55500 27.47200
C  41.66900 47.32000 25.02200
C  41.26200 46.50300 28.46100
O  40.93400 47.65800 28.63100
C  41.51600 45.37400 29.58800
C  42.29100 45.92500 30.68900
O  43.51700 46.08700 30.67100
O  41.50700 46.10300 31.77200
C  42.22900 46.39500 32.98400
H  44.60400 39.35500 29.78100
H  44.09800 38.96100 23.32400
H  42.90400 45.17400 23.32900
H  42.84100 43.41700 31.64400
H  43.14600 40.56600 31.41800
H  45.10700 40.92700 32.20600
H  44.92000 42.65500 32.02300
H  45.66300 41.58600 30.69000
H  41.06800 41.28700 31.68700
H  40.40700 42.54700 30.68100
H  39.65200 42.57000 33.06900
H  40.33400 44.05300 32.52500
H  46.17200 36.90000 28.18700
H  44.66600 35.95200 28.23300
H  44.87000 37.23200 29.38900
H  44.76800 34.66300 24.81100
H  43.97600 35.26400 26.20400
H  45.75500 35.37700 26.27000
H  43.12700 40.75100 21.64300
H  44.08500 43.60100 21.77000
H  46.03500 40.91100 22.14500
H  45.58700 42.25800 21.15800
H  45.17900 40.71100 20.60100
H  41.88700 42.57900 20.63200
H  41.98900 44.27100 21.25100
H  40.46100 41.80400 22.21200
H  39.90200 43.45700 21.82900
H  40.69700 42.97900 23.40900
H  42.02900 48.22800 25.50700
H  40.59500 47.35500 24.84000
H  42.15600 47.19500 24.05500
H  40.56400 45.06500 30.02100
H  42.92700 45.58300 33.18800
H  41.69000 46.40600 33.93100
H  42.65200 47.39900 32.96300

