158

Mg 31.30100 58.75900 40.27700
C  28.79500 56.80500 38.92400
C  33.67500 56.62400 38.86000
C  33.78400 60.99500 41.16700
C  28.93500 61.31000 40.71600
N  31.21100 57.04500 39.04000
C  30.10300 56.42500 38.60400
C  30.36300 55.08600 37.74300
C  31.84600 54.89200 38.19700
C  32.31000 56.26400 38.68200
C  31.93700 53.91500 39.43100
C  30.12900 55.33100 36.19900
C  29.11700 54.39100 35.53400
H  28.06700 55.02200 34.56500
N  33.43500 58.79600 40.09400
C  34.20100 57.74700 39.50800
C  35.60200 58.14100 39.70300
C  35.65300 59.31400 40.45500
C  34.26500 59.75000 40.63900
C  36.76000 57.28600 39.15600
C  36.96100 60.03300 40.89800
O  38.03500 59.50700 40.58900
C  37.02800 61.26200 41.57200
N  31.32900 60.86300 40.86700
C  32.45800 61.52300 41.25600
C  32.18200 62.94900 41.79300
C  30.60500 63.14600 41.52200
C  30.23900 61.71000 40.92100
C  32.64100 63.22200 43.24400
C  30.25800 64.25100 40.48400
C  29.09700 65.21000 40.80600
N  29.21300 59.01000 40.15900
C  28.39500 60.11200 40.32400
C  27.00300 59.78200 40.00300
C  27.12900 58.43000 39.50800
C  28.48300 58.07400 39.53400
C  25.76100 60.70600 40.25100
C  26.34000 57.30600 38.97500
O  25.14900 57.18000 38.71100
C  27.44500 56.22600 38.48500
C  26.99300 54.98400 39.16000
O  27.44000 54.50500 40.15500
O  26.02500 54.38500 38.41000
C  25.40200 53.25600 39.06300
H  34.34500 55.81300 38.56600
H  34.61000 61.64600 41.46200
H  28.20400 62.11200 40.83500
H  29.65900 54.35200 38.13400
H  32.38800 54.43000 37.37200
H  30.96500 53.42800 39.50800
H  32.10200 54.52600 40.31800
H  32.70400 53.15500 39.27800
H  31.07200 55.22000 35.66300
H  29.80900 56.37200 36.15600
H  28.56800 53.84700 36.30200
H  29.65200 53.66700 34.91900
H  37.27600 57.84000 38.37200
H  36.42500 56.34700 38.71600
H  37.45900 57.16500 39.98300
H  38.07900 61.44900 41.79000
H  36.49300 61.33400 42.51900
H  36.65200 62.12000 41.01400
H  32.76500 63.68500 41.24000
H  30.08300 63.36400 42.45400
H  33.43800 63.96500 43.28300
H  33.14000 62.28700 43.50000
H  31.80500 63.51400 43.87900
H  30.07600 63.74300 39.53700
H  31.11500 64.91500 40.37400
H  29.39700 66.24900 40.67200
H  28.69200 65.09300 41.81200
H  28.24700 65.00200 40.15600
H  25.11900 60.33100 41.04900
H  25.12600 60.89700 39.38600
H  26.11500 61.64700 40.67100
H  27.39300 56.10000 37.40400
H  24.62000 53.64700 39.71500
H  26.10300 52.60600 39.58600
H  24.81400 52.62800 38.39400
Mg -3.74100 26.18800 25.69600
C  -2.37300 27.40900 28.60200
C  -5.86300 24.19400 27.41200
C  -4.26600 24.48800 22.81500
C  -1.28200 28.04700 23.85400
N  -4.07300 25.81800 27.76700
C  -3.44400 26.54100 28.81600
C  -3.97500 26.05800 30.20100
C  -5.04000 24.87600 29.72500
C  -4.96600 24.99600 28.18900
C  -4.71700 23.41600 30.25000
C  -4.63300 27.26000 31.00900
C  -5.68500 26.91200 32.13700
H  -5.33200 25.74500 33.06000
N  -5.00200 24.59200 25.21300
C  -5.86500 23.94400 26.01100
C  -6.76300 23.07200 25.22900
C  -6.17000 23.08200 23.88900
C  -5.15600 24.13100 23.94800
C  -7.82400 22.31500 25.87300
C  -6.43400 22.20400 22.70100
O  -5.78300 22.21600 21.63600
C  -7.58000 21.22500 22.70600
N  -2.85800 26.25200 23.59900
C  -3.20600 25.39300 22.66500
C  -2.49300 25.53000 21.26000
C  -1.57000 26.68600 21.65700
C  -1.96400 27.12400 23.08900
C  -1.84700 24.19000 20.73900
C  -1.51200 27.86100 20.62700
C  -0.13700 28.47200 20.58300
N  -2.33100 27.63600 26.05400
C  -1.41600 28.33400 25.24400
C  -0.71300 29.32000 26.08600
C  -0.96600 28.84000 27.38200
C  -1.95700 27.89200 27.30100
C  0.21800 30.25700 25.61700
C  -0.56600 29.01900 28.77100
O  0.32100 29.72300 29.22400
C  -1.46200 28.12400 29.64100
C  -0.62400 27.33300 30.55000
O  0.17900 26.46700 30.27200
O  -0.83700 27.73200 31.79400
C  -0.27400 26.89800 32.79800
H  -6.52200 23.55300 28.00100
H  -4.52600 24.00000 21.87200
H  -0.52100 28.47300 23.19700
H  -3.20300 25.57100 30.79700
H  -6.07400 25.08700 29.99500
H  -3.65900 23.29700 30.48200
H  -4.91800 22.70500 29.44900
H  -5.27800 23.06800 31.11700
H  -4.81400 28.01300 30.24300
H  -3.78600 27.57700 31.61800
H  -6.61700 26.69500 31.61500
H  -5.91200 27.76900 32.77200
H  -8.62100 22.15000 25.14800
H  -8.20000 22.78000 26.78400
H  -7.41500 21.33300 26.11200
H  -7.46500 20.76700 23.68800
H  -7.47200 20.45600 21.94200
H  -8.58500 21.59100 22.49400
H  -3.28900 25.78200 20.55900
H  -0.57200 26.26600 21.78800
H  -2.48500 23.67500 20.02200
H  -1.47000 23.62000 21.58800
H  -0.96500 24.57100 20.22300
H  -2.13400 28.69400 20.95700
H  -1.80000 27.70000 19.58800
H  -0.09100 28.85800 19.56400
H  0.58600 27.68000 20.77900
H  -0.10000 29.32300 21.26300
H  -0.15600 30.62400 24.66100
H  1.28100 30.02100 25.66300
H  0.20500 31.15900 26.22900
H  -2.13800 28.71500 30.25900
H  0.73100 27.29600 32.94000
H  -0.29400 25.83100 32.57700
H  -0.91300 27.08900 33.66000

