158

Mg -12.70900 39.44800 42.31700
C  -11.35400 36.37200 41.33800
C  -10.05700 41.08000 40.53200
C  -14.41600 42.37400 42.31000
C  -15.63700 37.83100 43.36800
N  -11.08500 38.78100 40.87600
C  -10.61700 37.44400 40.77600
C  -9.34200 37.35700 40.02100
C  -8.80500 38.80700 40.03500
C  -10.05100 39.64000 40.48200
C  -7.45400 38.92200 40.88100
C  -9.33400 36.73500 38.59500
C  -8.11200 35.92400 38.20400
H  -7.21700 36.53100 37.11200
N  -12.29600 41.43200 41.61300
C  -11.10700 41.89800 41.00000
C  -11.17100 43.31300 40.82400
C  -12.53300 43.66500 41.06600
C  -13.16900 42.47900 41.69700
C  -10.05000 44.07300 40.30000
C  -13.21300 45.02600 40.80400
O  -12.65800 45.91500 40.29000
C  -14.66400 45.20600 41.06700
N  -14.68600 40.03400 42.94300
C  -15.12200 41.29700 42.88900
C  -16.61700 41.41600 43.35200
C  -16.89700 39.98200 43.85900
C  -15.70600 39.21300 43.29300
C  -16.95700 42.49000 44.34500
C  -18.28500 39.47100 43.29700
C  -19.14100 38.50800 44.19200
N  -13.34800 37.51700 42.57000
C  -14.56300 37.03200 42.95000
C  -14.44200 35.56400 42.90100
C  -13.17400 35.30200 42.28200
C  -12.59100 36.50600 42.03600
C  -15.45300 34.61200 43.38400
C  -12.30200 34.28100 41.84800
O  -12.36400 33.06700 41.90100
C  -11.06300 34.91900 41.21700
C  -9.83600 34.53700 42.03300
O  -9.60500 34.90700 43.15800
O  -9.05000 33.70300 41.30900
C  -7.70800 33.43100 41.78600
H  -9.12600 41.57400 40.24800
H  -15.02400 43.27000 42.44700
H  -16.45300 37.36300 43.92200
H  -8.72000 36.61100 40.51600
H  -8.53900 39.22600 39.06500
H  -6.91100 37.98400 40.76400
H  -7.70400 39.08200 41.93000
H  -6.86100 39.77400 40.55000
H  -9.36400 37.54100 37.86200
H  -10.23900 36.16600 38.38300
H  -8.54400 34.95500 37.95100
H  -7.50400 35.69900 39.08000
H  -10.18000 44.34700 39.25300
H  -9.10900 43.56600 40.51700
H  -10.05100 45.06300 40.75600
H  -15.14700 44.30300 40.69400
H  -15.07500 46.06500 40.53700
H  -14.84600 45.39600 42.12500
H  -17.27000 41.61500 42.50200
H  -16.85700 39.88400 44.94400
H  -17.55000 43.20400 43.77400
H  -16.04900 42.99800 44.67200
H  -17.45500 42.03900 45.20400
H  -18.27800 38.95600 42.33600
H  -18.92300 40.33200 43.09500
H  -20.14400 38.60800 43.77700
H  -19.12000 38.83900 45.23000
H  -18.84900 37.45700 44.18400
H  -16.42000 35.01400 43.08200
H  -15.34800 34.65300 44.46800
H  -15.25500 33.60200 43.02700
H  -11.01400 34.52100 40.20300
H  -7.47100 32.37700 41.64600
H  -7.54300 33.59100 42.85200
H  -7.04500 34.08200 41.21600
Mg -6.43900 26.04700 25.68700
C  -4.80700 27.33000 28.44600
C  -8.00600 23.80600 27.84300
C  -7.19100 24.08800 23.00300
C  -4.54900 28.18800 23.55600
N  -6.24400 25.48100 27.87100
C  -5.58700 26.28800 28.76600
C  -6.12800 25.91800 30.21500
C  -6.91800 24.64200 29.94700
C  -7.11500 24.64400 28.47900
C  -6.41000 23.30900 30.59000
C  -6.99100 27.00100 30.95900
C  -7.08300 27.07800 32.52900
H  -6.34400 26.07300 33.43200
N  -7.62700 24.30900 25.35400
C  -8.23100 23.61100 26.38600
C  -9.01600 22.57800 25.84900
C  -8.73400 22.56200 24.42800
C  -7.81000 23.68300 24.16500
C  -9.89900 21.72700 26.70300
C  -9.16300 21.53500 23.35700
O  -8.66900 21.54600 22.22200
C  -10.20300 20.57400 23.68500
N  -5.83500 26.03800 23.62100
C  -6.32500 25.15200 22.72600
C  -6.07900 25.64200 21.27800
C  -5.33000 27.03200 21.40300
C  -5.25000 27.13300 22.96500
C  -5.30800 24.64800 20.41500
C  -6.06100 28.31600 20.70000
C  -7.00200 29.16100 21.59000
N  -5.05400 27.57900 25.94800
C  -4.38600 28.37600 24.97800
C  -3.48200 29.22700 25.68100
C  -3.58200 28.87300 27.03300
C  -4.54300 27.83600 27.12900
C  -2.61700 30.30800 25.14300
C  -3.09400 29.13200 28.41700
O  -2.33300 30.05600 28.82500
C  -3.92700 28.18500 29.35700
C  -2.92700 27.46500 30.24800
O  -2.44900 26.37800 29.99000
O  -2.85900 28.16900 31.34500
C  -2.49300 27.35000 32.51400
H  -8.48800 23.08500 28.50800
H  -7.54000 23.59400 22.09400
H  -4.05500 28.89100 22.88100
H  -5.29800 25.68700 30.88200
H  -7.87400 24.65100 30.47100
H  -6.34400 22.59900 29.76600
H  -7.10500 23.02900 31.38200
H  -5.43300 23.53000 31.02000
H  -8.04000 26.87300 30.69400
H  -6.83400 27.96700 30.47800
H  -8.12200 26.87500 32.79200
H  -6.94100 28.08300 32.92800
H  -9.58200 20.68600 26.63600
H  -10.93000 21.92300 26.40800
H  -10.04200 21.98700 27.75100
H  -10.55000 19.90800 22.89600
H  -11.10600 21.05100 24.06700
H  -9.73800 19.81000 24.30900
H  -7.09100 25.82100 20.91300
H  -4.34000 26.94400 20.95500
H  -5.79000 24.68500 19.43800
H  -5.46500 23.67300 20.87600
H  -4.22800 24.78500 20.47000
H  -6.69000 27.94000 19.89200
H  -5.32000 28.97500 20.24800
H  -6.58900 30.16600 21.67500
H  -7.28700 28.69100 22.53100
H  -7.93400 29.24200 21.03100
H  -1.64400 30.45000 25.61400
H  -3.18200 31.23500 25.23900
H  -2.53700 30.25600 24.05700
H  -4.59000 28.87300 29.88100
H  -2.79400 27.86600 33.42600
H  -1.40300 27.36700 32.53800
H  -3.00700 26.38800 32.50500

