158

Mg 48.58800 15.58700 28.79800
C  46.66500 15.34800 31.63600
C  50.96300 17.47800 30.55500
C  50.40100 15.87700 26.00100
C  46.06300 14.03700 27.03700
N  48.75600 16.28600 30.92900
C  47.84400 16.08900 31.90300
C  48.47900 16.37400 33.22600
C  49.64500 17.36800 32.87100
C  49.86400 17.00800 31.40100
C  49.49100 18.94800 33.05200
C  48.91400 15.13000 34.05500
C  48.52800 15.14600 35.57500
H  48.33100 16.52700 36.23200
N  50.37300 16.63200 28.31400
C  51.23500 17.22400 29.20000
C  52.35100 17.77500 28.51100
C  52.29200 17.19000 27.19900
C  50.95800 16.53700 27.14900
C  53.43200 18.65700 29.10900
C  53.31300 17.24400 26.06300
O  53.23600 16.46000 25.10700
C  54.49100 18.12300 26.13600
N  48.26500 15.05000 26.74200
C  49.19500 15.22800 25.81000
C  48.71900 14.68600 24.43400
C  47.32200 14.08100 24.77800
C  47.18200 14.34500 26.30600
C  48.70700 15.87100 23.41700
C  47.24100 12.56200 24.26500
C  45.86200 11.92000 23.92100
N  46.78700 14.86500 29.20200
C  45.85700 14.25300 28.37800
C  44.70800 13.92000 29.14600
C  45.05900 14.20100 30.45200
C  46.22700 14.90200 30.43800
C  43.48300 13.19200 28.67000
C  44.54100 14.17900 31.74800
O  43.36800 13.93900 32.10000
C  45.58400 14.85400 32.64200
C  44.87200 15.94100 33.30100
O  44.46500 17.00400 32.82500
O  44.59500 15.58500 34.56000
C  43.88800 16.54000 35.41600
H  51.71700 18.08100 31.06500
H  50.92000 15.91700 25.04100
H  45.39300 13.46000 26.39700
H  47.69000 16.82600 33.82700
H  50.58400 17.13900 33.37600
H  48.45100 19.26700 33.11900
H  49.99900 19.58500 32.32900
H  50.04700 19.24700 33.94100
H  50.00400 15.11600 34.04700
H  48.64200 14.16300 33.63300
H  49.35300 14.67800 36.11100
H  47.64300 14.56400 35.83100
H  52.93100 19.21000 29.90300
H  53.66500 19.43400 28.38000
H  54.29500 18.09000 29.45800
H  54.05900 19.09900 26.35700
H  54.92700 18.31100 25.15400
H  55.23100 17.84100 26.88500
H  49.51700 13.95900 24.28500
H  46.57600 14.67000 24.24500
H  48.67800 16.86300 23.86900
H  47.87700 15.78800 22.71500
H  49.69300 15.77600 22.96400
H  47.55200 11.99200 25.14000
H  47.96800 12.41800 23.46600
H  45.61900 11.16700 24.67100
H  45.99600 11.43200 22.95600
H  45.03800 12.61600 23.76100
H  42.81300 12.98300 29.50400
H  43.86300 12.25900 28.25400
H  42.95400 13.68100 27.85200
H  46.02300 14.15200 33.35100
H  42.93400 16.66500 34.90400
H  44.38400 17.49300 35.60000
H  43.66300 15.99400 36.33200
Mg 16.71200 51.86700 26.38400
C  18.45700 50.39100 29.14500
C  14.18100 52.74800 28.57400
C  15.08700 53.07000 23.78200
C  19.16600 50.48500 24.30300
N  16.33700 51.44400 28.61300
C  17.28100 51.01500 29.49200
C  16.91400 51.37400 30.90500
C  15.41100 51.78100 30.73700
C  15.24200 52.03800 29.21900
C  14.42300 50.67700 31.22300
C  17.87300 52.43400 31.50800
C  18.18300 52.25800 33.05800
H  17.08000 51.69600 33.88800
N  14.83200 52.73400 26.15700
C  13.96600 53.06700 27.15500
C  12.87600 53.84100 26.61000
C  13.10100 53.95400 25.26600
C  14.35200 53.22300 24.92700
C  11.76800 54.33600 27.47600
C  12.25700 54.61400 24.15800
O  12.71000 54.79900 23.04100
C  10.85500 55.21200 24.57100
N  16.99000 51.67400 24.27500
C  16.22800 52.35200 23.40600
C  16.85700 52.35700 21.93500
C  18.19600 51.58900 22.16700
C  18.09900 51.18600 23.61700
C  16.13400 51.50800 20.84800
C  19.47900 52.28300 21.81600
C  20.61800 51.46200 21.19700
N  18.43000 50.70000 26.56500
C  19.38600 50.21600 25.65600
C  20.41000 49.42400 26.25100
C  20.09000 49.56000 27.66300
C  18.88100 50.26800 27.75900
C  21.54300 48.73500 25.51600
C  20.53300 49.20600 28.98100
O  21.50800 48.54900 29.32200
C  19.60000 49.86100 30.01900
C  19.21000 48.81500 30.98700
O  18.51400 47.84400 30.80400
O  19.69300 49.20200 32.22000
C  19.32600 48.43700 33.38900
H  13.39900 53.20500 29.18400
H  14.62300 53.46100 22.87400
H  20.05800 50.15300 23.76700
H  17.08600 50.48900 31.51800
H  15.29500 52.75300 31.21600
H  13.47200 51.07700 31.57300
H  14.89500 50.08600 32.00800
H  14.24200 50.02800 30.36600
H  17.35300 53.39100 31.47400
H  18.73400 52.51900 30.84500
H  18.33700 53.25700 33.46700
H  19.16800 51.79400 33.10200
H  10.91200 53.70400 27.23900
H  11.53900 55.34000 27.11800
H  12.00300 54.31500 28.54000
H  10.20300 55.34400 23.70800
H  10.94300 56.11900 25.17000
H  10.26100 54.48200 25.12000
H  16.97700 53.39900 21.63600
H  18.27600 50.62800 21.65900
H  15.63200 50.59800 21.17700
H  16.80700 51.28400 20.02100
H  15.36400 52.08100 20.33200
H  19.81300 52.70100 22.76500
H  19.35100 53.14400 21.15900
H  20.32500 50.50200 20.77100
H  21.30200 51.29100 22.02800
H  21.13400 52.10600 20.48600
H  21.41300 47.66400 25.35900
H  22.41000 49.04100 26.10100
H  21.65700 49.09700 24.49400
H  20.07600 50.68000 30.55700
H  18.23700 48.42700 33.33800
H  19.63400 48.87900 34.33600
H  19.57200 47.38000 33.28400

