158

Mg 9.22100 3.75900 28.00400
C  10.68000 2.21300 30.76100
C  7.25500 5.54700 29.98800
C  7.85000 5.02800 25.14900
C  11.08900 1.39500 25.93500
N  8.99100 3.73000 30.16600
C  9.78800 3.23900 31.11500
C  9.34600 3.72700 32.50000
C  8.04100 4.59200 32.20800
C  8.05800 4.65100 30.65500
C  6.67000 4.07000 32.74900
C  10.49600 4.37800 33.33400
C  10.19000 5.43400 34.39900
H  10.82600 5.23000 35.77800
N  7.98300 5.21200 27.64900
C  7.15600 5.88500 28.58000
C  6.30200 6.84700 27.96300
C  6.58200 6.79600 26.56300
C  7.53700 5.57900 26.39900
C  5.52900 7.87700 28.72800
C  6.10600 7.80400 25.52300
O  6.51700 7.71500 24.36400
C  5.15300 8.86200 25.94500
N  9.54200 3.25500 25.86500
C  8.81400 3.93300 24.92000
C  9.11100 3.42700 23.50000
C  9.96700 2.11600 23.84300
C  10.32800 2.34700 25.27400
C  7.95800 3.01000 22.51700
C  11.15000 1.98400 22.79200
C  12.40000 2.89900 22.98900
N  10.42000 2.01200 28.21400
C  11.16000 1.27800 27.34200
C  11.96300 0.31900 28.06400
C  11.85300 0.67700 29.44200
C  10.90900 1.68900 29.46400
C  12.79700 -0.83900 27.57600
C  12.27400 0.34600 30.77500
O  13.00500 -0.52400 31.15300
C  11.58100 1.38100 31.69700
C  10.77100 0.69400 32.61500
O  9.72400 0.12400 32.31700
O  11.34000 0.72300 33.87000
C  10.61300 -0.18400 34.87800
H  6.58600 6.19300 30.56000
H  7.30000 5.40100 24.28300
H  11.78300 0.85300 25.28900
H  9.10900 2.78500 32.99600
H  8.09800 5.61600 32.58000
H  6.36000 4.72600 33.56300
H  6.70200 3.09900 33.24300
H  5.95800 3.96100 31.93100
H  11.08700 4.92800 32.60200
H  11.06200 3.54200 33.74600
H  9.13200 5.64600 34.54900
H  10.54900 6.43700 34.16600
H  5.95900 8.87500 28.81100
H  5.47000 7.70800 29.80300
H  4.49800 7.91900 28.37800
H  4.30400 8.28400 26.31000
H  4.83900 9.40700 25.05400
H  5.54500 9.59400 26.65100
H  9.73500 4.16700 22.99700
H  9.40900 1.18000 23.87900
H  8.10800 2.00900 22.11300
H  7.78100 3.82500 21.81500
H  7.04200 3.00500 23.10800
H  10.71800 2.01000 21.79200
H  11.57200 0.98500 22.90600
H  13.03600 2.23500 23.57300
H  12.08000 3.79200 23.52600
H  12.68100 3.15300 21.96600
H  13.76900 -0.62200 27.13200
H  12.17300 -1.35100 26.84400
H  12.93600 -1.44300 28.47300
H  12.41900 1.94800 32.10300
H  9.86200 -0.83800 34.43500
H  10.23900 0.43100 35.69600
H  11.35200 -0.86100 35.30800
Mg 47.29700 24.72800 28.42100
C  47.95400 27.09900 31.10200
C  46.35400 22.46800 30.96500
C  46.72000 22.45300 26.10300
C  48.52700 26.94900 26.20700
N  47.15400 24.84200 30.77800
C  47.40400 25.92400 31.60400
C  47.14800 25.55200 33.06200
C  46.87900 23.93100 33.00900
C  46.77000 23.68900 31.49000
C  48.02100 23.06600 33.54400
C  46.07800 26.34500 33.78200
C  45.72200 25.92400 35.23400
H  45.46500 26.90100 36.40700
N  46.56100 22.71900 28.53400
C  46.24500 22.02000 29.65300
C  45.84100 20.71200 29.24500
C  46.08700 20.61500 27.87600
C  46.44400 21.94800 27.44000
C  45.46600 19.58600 30.24400
C  45.86300 19.48000 26.92000
O  46.08900 19.67500 25.75200
C  45.31900 18.13300 27.37400
N  47.50600 24.74200 26.40300
C  47.17200 23.74800 25.63300
C  47.47600 24.07500 24.14100
C  47.85900 25.58400 24.26100
C  48.03200 25.79500 25.70800
C  48.59600 23.15500 23.47900
C  46.79000 26.44400 23.49500
C  47.29700 27.24300 22.22200
N  48.16600 26.55900 28.57200
C  48.63600 27.37000 27.52200
C  49.16300 28.61800 28.03900
C  48.91800 28.55200 29.46400
C  48.30900 27.29200 29.71700
C  49.79200 29.68600 27.17300
C  49.04400 29.25900 30.72500
O  49.52600 30.34500 31.05100
C  48.33500 28.39300 31.84800
C  49.24600 28.31000 32.95300
O  50.39400 27.94800 32.95400
O  48.66100 28.70300 34.03600
C  49.21000 28.21900 35.31900
H  46.09800 21.69300 31.69000
H  46.54300 21.69600 25.33600
H  48.78000 27.61600 25.38100
H  48.07000 25.85700 33.55500
H  45.91400 23.73800 33.47900
H  48.70500 23.66400 34.14500
H  48.60000 22.62700 32.73100
H  47.58500 22.25200 34.12300
H  45.16000 26.28600 33.19700
H  46.47600 27.36000 33.77500
H  46.51300 25.22200 35.49700
H  44.81300 25.34100 35.08800
H  46.30000 18.97600 30.58900
H  44.83000 18.84800 29.75600
H  44.82800 19.93100 31.05900
H  45.87200 17.78000 28.24500
H  45.51100 17.46600 26.53300
H  44.28900 18.28900 27.69300
H  46.54900 23.86500 23.60700
H  48.84500 25.72000 23.81800
H  49.57000 23.64500 23.47700
H  48.37000 23.06500 22.41600
H  48.60700 22.10500 23.77200
H  46.39900 27.16500 24.21300
H  46.02300 25.79300 23.07700
H  46.84700 26.63800 21.43600
H  48.38000 27.12700 22.22700
H  46.97700 28.27900 22.33800
H  50.60000 29.96000 27.85200
H  49.10900 30.50300 26.93800
H  50.24400 29.22900 26.29300
H  47.44500 28.95100 32.13700
H  49.43900 29.08100 35.94500
H  50.10600 27.60900 35.20300
H  48.40600 27.61300 35.73600

