158

Mg -0.26300 7.68300 26.00700
C  0.64100 9.43800 28.92800
C  -0.56500 4.72400 27.70900
C  -0.48200 6.07900 23.06600
C  0.47100 10.73500 24.14000
N  0.11700 7.15900 28.00400
C  0.30300 8.07300 29.03700
C  0.05800 7.40800 30.42600
C  -0.16500 5.87500 30.06400
C  -0.29500 5.89400 28.49200
C  0.85600 4.83100 30.65700
C  -1.07300 8.16400 31.29300
C  -0.74600 8.42300 32.76000
H  0.40700 7.69800 33.53400
N  -0.56500 5.69500 25.47200
C  -0.65400 4.61700 26.30500
C  -0.97000 3.42800 25.59700
C  -0.96100 3.81500 24.23900
C  -0.62800 5.25700 24.19300
C  -1.20900 2.07200 26.28200
C  -1.24900 2.93200 23.01500
O  -1.29800 3.33800 21.82600
C  -1.61100 1.43600 23.10100
N  0.01000 8.33400 23.91100
C  -0.25000 7.45400 22.90900
C  -0.12400 8.14900 21.53300
C  0.10600 9.63800 21.93000
C  0.17400 9.58500 23.46300
C  0.97000 7.48700 20.64500
C  -1.00600 10.62600 21.33900
C  -2.17500 10.98900 22.24000
N  0.24200 9.68500 26.41800
C  0.56000 10.79300 25.54200
C  0.77800 11.93500 26.36500
C  0.78200 11.52400 27.78500
C  0.56700 10.09000 27.73400
C  1.00200 13.35300 25.89800
C  1.04500 11.92200 29.12300
O  1.25700 13.02300 29.59200
C  0.95000 10.58600 29.93800
C  2.22500 10.36000 30.52400
O  3.16000 9.84100 29.93900
O  2.23200 10.87600 31.80700
C  3.52500 10.84300 32.51300
H  -0.87000 3.86600 28.31100
H  -0.63100 5.52000 22.14000
H  0.70200 11.62300 23.54900
H  1.00500 7.54200 30.95000
H  -1.16300 5.66000 30.44500
H  1.28400 4.21500 29.86500
H  0.38600 4.14300 31.36000
H  1.60000 5.28400 31.31200
H  -1.93500 7.49900 31.23000
H  -1.52300 9.04500 30.83500
H  -1.62400 8.15700 33.35000
H  -0.49100 9.47500 32.89000
H  -1.86500 2.07300 27.15200
H  -0.28700 1.58100 26.59500
H  -1.70200 1.35900 25.62200
H  -2.47100 1.22600 23.73800
H  -0.69000 0.98400 23.46900
H  -1.72200 0.99900 22.10900
H  -1.03600 8.04300 20.94500
H  1.08100 10.03200 21.64400
H  1.80400 8.18300 20.55500
H  0.55600 7.58500 19.64100
H  1.24300 6.47200 20.93500
H  -1.24900 10.21300 20.36000
H  -0.45600 11.52700 21.06400
H  -3.10500 10.93200 21.67400
H  -2.13400 12.03700 22.53700
H  -2.31400 10.36100 23.11900
H  0.08100 13.93300 25.83200
H  1.29400 13.43800 24.85100
H  1.65200 13.81100 26.64300
H  0.16200 10.72800 30.67800
H  3.70400 11.82700 32.94700
H  4.32800 10.51800 31.85200
H  3.39900 10.08900 33.29000
Mg 8.06700 2.34700 27.66200
C  9.61400 0.83400 30.35900
C  5.97500 3.93100 29.62500
C  6.11200 3.19400 24.85500
C  9.63100 -0.12000 25.59400
N  7.78700 2.27900 29.79500
C  8.65200 1.70300 30.72400
C  8.26700 2.17000 32.18900
C  6.94200 3.01300 31.96100
C  6.85200 3.08500 30.36400
C  5.54100 2.57900 32.57400
C  9.37000 3.00300 33.01000
C  9.93800 2.38400 34.30700
H  10.14700 3.34100 35.51400
N  6.46800 3.59600 27.29900
C  5.80000 4.21200 28.25600
C  4.89300 5.23700 27.73700
C  4.88000 5.03600 26.32800
C  5.86700 3.91100 26.13200
C  4.02800 6.21800 28.57800
C  4.04500 5.68000 25.27300
O  4.31400 5.53300 24.06600
C  3.00500 6.63600 25.67800
N  7.97100 1.75500 25.51600
C  6.96900 2.13300 24.66800
C  6.90800 1.20700 23.39600
C  8.28400 0.40300 23.52800
C  8.63600 0.66500 24.98500
C  5.66200 0.41000 23.18300
C  9.44100 0.76800 22.54300
C  10.43000 -0.29700 22.11200
N  9.33900 0.72000 27.85100
C  9.92100 -0.08800 26.92700
C  10.96700 -0.95700 27.55500
C  10.88500 -0.52300 28.89200
C  9.88500 0.44300 29.03300
C  11.84300 -1.99600 26.86100
C  11.39300 -0.76100 30.23500
O  12.30000 -1.52900 30.64300
C  10.63400 0.10800 31.20700
C  10.12200 -0.76500 32.32300
O  9.07800 -1.41700 32.20800
O  11.01200 -0.75000 33.33400
C  10.45400 -1.33100 34.57800
H  5.46300 4.57900 30.34000
H  5.47800 3.45200 24.00500
H  10.28300 -0.74800 24.98200
H  8.00200 1.23600 32.68400
H  7.03100 4.06600 32.23000
H  5.02100 3.35500 33.13600
H  5.82300 1.71900 33.18100
H  4.86900 2.26600 31.77500
H  9.10400 4.03800 33.22500
H  10.18000 3.20400 32.30900
H  10.89300 1.95500 34.00600
H  9.23200 1.63700 34.67200
H  4.39300 6.36600 29.59400
H  3.04100 5.75700 28.58500
H  4.11600 7.14100 28.00400
H  2.43300 6.14200 26.46400
H  2.38400 6.89800 24.82100
H  3.36700 7.53000 26.18600
H  7.04300 1.92600 22.58700
H  8.06600 -0.66100 23.42600
H  5.02700 0.38800 24.06900
H  5.78900 -0.63700 22.90700
H  5.08600 0.94000 22.42400
H  9.95900 1.64100 22.93900
H  8.94000 1.10300 21.63500
H  10.36300 -1.26800 22.60400
H  11.42800 0.12200 22.23700
H  10.24100 -0.54600 21.06800
H  12.89000 -1.71700 26.74200
H  11.47100 -2.18300 25.85300
H  11.74900 -2.91700 27.43600
H  11.40400 0.80400 31.54100
H  11.24800 -1.15000 35.30200
H  10.23300 -2.39900 34.56100
H  9.58700 -0.75600 34.90300

