158

Mg -2.45900 17.45400 25.75400
C  -2.75500 15.24300 28.59900
C  -3.18900 19.99600 27.85200
C  -2.00600 19.45500 23.09400
C  -1.87400 14.65000 23.76900
N  -2.94700 17.56500 27.97300
C  -2.89500 16.60700 28.97500
C  -3.20800 17.16100 30.36600
C  -3.88000 18.55600 29.88400
C  -3.27200 18.76100 28.50400
C  -5.46000 18.50700 29.81900
C  -1.96700 17.38400 31.22200
C  -2.28400 18.07500 32.53200
H  -1.86000 17.26700 33.77100
N  -2.45500 19.43600 25.58100
C  -2.72300 20.35800 26.57900
C  -2.66600 21.71700 25.96900
C  -2.38400 21.52300 24.57000
C  -2.26300 20.07900 24.38300
C  -2.95700 23.00100 26.82100
C  -2.39300 22.60400 23.49900
O  -2.50300 22.38000 22.29000
C  -2.44700 24.07900 23.88600
N  -2.08800 17.01900 23.67400
C  -1.96200 18.07800 22.77100
C  -1.59000 17.52600 21.33700
C  -1.51100 15.98200 21.63300
C  -1.86100 15.80300 23.11800
C  -2.71900 17.89600 20.34000
C  0.00400 15.56000 21.28200
C  1.21200 16.07300 22.14900
N  -2.48700 15.34200 26.06700
C  -2.15700 14.32000 25.14300
C  -2.20800 13.11900 25.78000
C  -2.28900 13.41000 27.23200
C  -2.51700 14.76200 27.33600
C  -2.11200 11.78400 25.17100
C  -2.35300 12.84200 28.51100
O  -2.12200 11.70600 28.83300
C  -2.72800 13.99400 29.50700
C  -1.58900 13.99900 30.44100
O  -0.42400 14.38400 30.24900
O  -1.95400 13.31800 31.54100
C  -0.85200 12.63800 32.32800
H  -3.40500 20.83400 28.51800
H  -1.88400 20.11900 22.23500
H  -1.61500 13.74100 23.22200
H  -3.98500 16.57200 30.85400
H  -3.50300 19.46100 30.36100
H  -5.87400 19.25300 30.49700
H  -5.78600 17.48900 30.03600
H  -5.78500 18.66100 28.79000
H  -1.42000 18.04500 30.54900
H  -1.39700 16.46200 31.33000
H  -3.35400 18.27400 32.59700
H  -1.81700 19.05900 32.47000
H  -3.18700 22.84500 27.87500
H  -3.83100 23.52500 26.43300
H  -2.11100 23.66100 26.63000
H  -2.51000 24.60400 22.93200
H  -1.61300 24.40700 24.50600
H  -3.42800 24.25400 24.32700
H  -0.64400 18.03400 21.14900
H  -2.10800 15.27200 21.06100
H  -3.50900 18.36200 20.92900
H  -3.25800 17.08900 19.84300
H  -2.25700 18.47400 19.54100
H  0.16600 15.98800 20.29300
H  -0.01100 14.50300 21.01900
H  1.77000 16.82700 21.59500
H  1.79100 15.17900 22.38400
H  0.90200 16.64500 23.02300
H  -1.44200 11.65900 24.32100
H  -3.14100 11.43800 25.07000
H  -1.61300 11.13200 25.88800
H  -3.57900 13.58000 30.04900
H  -0.08700 13.33700 32.66700
H  -0.37200 11.94700 31.63500
H  -1.26700 12.02800 33.13000
Mg 25.85000 0.36600 29.58100
C  27.68600 0.14500 32.61400
C  22.94400 0.99300 31.52500
C  23.96300 0.16300 26.86500
C  28.65500 -0.58300 27.90900
N  25.35100 0.45200 31.81900
C  26.32300 0.45300 32.79600
C  25.66600 0.81300 34.15600
C  24.09600 0.87900 33.88400
C  24.09700 0.75800 32.31900
C  23.18200 -0.28800 34.45800
C  26.23200 2.08400 34.86100
C  26.93600 1.82100 36.22400
H  26.55000 2.73400 37.40200
N  23.78300 0.53300 29.26900
C  22.77900 0.87200 30.12200
C  21.54600 1.10300 29.42200
C  21.74500 0.86600 28.04600
C  23.20900 0.41400 28.02500
C  20.26200 1.56300 30.19300
C  20.94200 0.92500 26.87100
O  21.37100 0.87000 25.71600
C  19.43500 1.17100 26.98300
N  26.19900 -0.40600 27.68900
C  25.28400 -0.21500 26.65900
C  25.97600 -0.30700 25.23100
C  27.45800 -0.67600 25.60800
C  27.48300 -0.56700 27.13900
C  25.25800 -1.42200 24.34100
C  28.52200 0.35000 25.05400
C  28.47700 1.76000 25.63200
N  27.80500 -0.05400 30.16400
C  28.77900 -0.50300 29.29700
C  29.98600 -0.82400 30.09500
C  29.54300 -0.48600 31.42400
C  28.24600 -0.08800 31.37800
C  31.23400 -1.40700 29.63600
C  29.97600 -0.45300 32.79800
O  31.09200 -0.68100 33.29500
C  28.74100 -0.04300 33.61400
C  28.49400 -1.10000 34.63400
O  27.87100 -2.16800 34.43600
O  29.12900 -0.73800 35.81500
C  28.89000 -1.69500 36.85900
H  22.05500 1.16000 32.13600
H  23.52100 0.26400 25.87200
H  29.63300 -0.68000 27.43200
H  25.75600 -0.09200 34.75700
H  23.61700 1.85100 34.00400
H  23.05500 -1.09600 33.73700
H  22.26900 0.10100 34.90700
H  23.73400 -0.76900 35.26600
H  25.39000 2.76900 34.95900
H  27.00600 2.57300 34.26800
H  27.98700 1.89900 35.94800
H  26.61600 0.84800 36.59900
H  19.88000 0.62100 30.58800
H  19.53800 2.16500 29.64400
H  20.61000 2.23900 30.97400
H  19.06000 0.47600 27.73500
H  18.98100 0.92100 26.02500
H  19.20100 2.17200 27.34400
H  25.99300 0.70000 24.81500
H  27.79100 -1.65800 25.27100
H  25.74100 -2.37700 24.13300
H  25.17500 -0.99100 23.34300
H  24.26900 -1.65700 24.73400
H  28.36700 0.47100 23.98200
H  29.49300 -0.11200 25.23300
H  29.33900 2.04200 26.23500
H  27.59500 1.95500 26.24300
H  28.44700 2.50200 24.83500
H  31.93600 -0.57400 29.59800
H  31.11800 -1.86400 28.65300
H  31.51200 -2.11800 30.41500
H  28.86600 0.87200 34.19400
H  28.12100 -1.34700 37.55000
H  29.88800 -1.70300 37.29600
H  28.63000 -2.71500 36.57300

