158

Mg 16.47100 -2.60400 28.36900
C  15.58100 -0.77500 31.31000
C  18.76800 -4.32900 30.32800
C  17.96500 -3.67300 25.55300
C  14.52900 -0.46400 26.51500
N  17.21500 -2.38400 30.55000
C  16.56400 -1.74600 31.56300
C  17.21700 -2.12000 32.94700
C  18.29800 -3.17200 32.55900
C  18.06400 -3.35400 31.01400
C  19.77500 -2.62300 33.02900
C  16.06200 -2.68500 33.89200
C  15.84100 -1.92100 35.28800
H  17.05100 -1.18600 35.90400
N  17.97800 -3.95900 27.99900
C  18.72900 -4.61900 28.93700
C  19.60200 -5.52500 28.23000
C  19.41900 -5.37000 26.82100
C  18.45100 -4.30300 26.70500
C  20.53900 -6.55400 28.95600
C  20.12000 -5.98900 25.66300
O  19.69400 -5.89600 24.51300
C  21.19900 -6.96300 25.83800
N  16.16400 -2.20700 26.27800
C  16.99800 -2.69500 25.38100
C  16.81200 -2.00100 23.99000
C  15.58900 -1.14100 24.20200
C  15.37200 -1.27200 25.75600
C  18.09000 -1.30800 23.55900
C  14.35100 -1.41600 23.28300
C  14.11700 -0.36800 22.25000
N  15.21100 -1.08000 28.82700
C  14.43200 -0.30400 27.91200
C  13.67600 0.64600 28.61900
C  14.09800 0.48200 29.95100
C  14.99900 -0.55000 30.04700
C  12.63300 1.51400 28.11900
C  13.90200 0.97600 31.33600
O  13.25900 1.91800 31.70300
C  14.90600 0.15900 32.30100
C  15.79600 1.12100 33.00100
O  17.01100 1.25700 32.85000
O  15.05800 1.92000 33.81400
C  15.76600 2.97800 34.49100
H  19.44900 -4.82700 31.02100
H  18.59200 -3.73500 24.66100
H  14.03000 0.19900 25.80500
H  17.60400 -1.28600 33.53200
H  18.06000 -4.07900 33.11400
H  19.84100 -1.74700 33.67400
H  20.25900 -2.36900 32.08500
H  20.28700 -3.47100 33.48400
H  16.15900 -3.73700 34.16000
H  15.10300 -2.60300 33.38100
H  15.59400 -2.72900 35.97700
H  15.07100 -1.15200 35.35300
H  21.54100 -6.24800 28.65700
H  20.34700 -7.54700 28.54800
H  20.46100 -6.56600 30.04300
H  20.85900 -7.80400 26.44200
H  22.05700 -6.50400 26.32900
H  21.46500 -7.30000 24.83600
H  16.46700 -2.68900 23.21800
H  15.98200 -0.13000 24.09800
H  18.15300 -1.06600 22.49800
H  18.94500 -1.90800 23.87100
H  18.21800 -0.36600 24.09300
H  13.44700 -1.54500 23.87800
H  14.37400 -2.29800 22.64400
H  14.06100 -0.71900 21.22000
H  14.87100 0.41900 22.23600
H  13.18300 0.17200 22.40000
H  12.39300 1.32700 27.07300
H  12.94300 2.55100 28.24900
H  11.78700 1.32500 28.78000
H  14.36300 -0.50600 32.97400
H  16.00600 3.80800 33.82700
H  16.64600 2.58200 34.99800
H  15.12500 3.33100 35.29800
Mg 44.29800 4.88900 47.36400
C  41.88600 7.41800 46.90200
C  41.67800 2.59200 47.06600
C  46.64600 2.45500 47.14500
C  46.83000 7.40500 46.68500
N  42.01900 5.00800 47.03100
C  41.27600 6.12100 46.79600
C  39.77300 5.71000 46.46800
C  39.77700 4.19300 46.78300
C  41.22900 3.92000 47.03100
C  38.89300 3.80900 47.94900
C  39.46200 6.14500 45.07000
C  38.23100 6.95700 44.84900
H  38.15700 8.04800 43.75500
N  44.17500 2.81400 47.19800
C  42.99500 2.05500 47.16300
C  43.44800 0.67100 47.18200
C  44.84700 0.66400 47.36200
C  45.29900 2.02700 47.20900
C  42.47400 -0.48800 47.15700
C  45.58100 -0.63300 47.40600
O  44.99900 -1.73000 47.56700
C  47.02700 -0.66500 47.37300
N  46.42800 4.94100 46.84100
C  47.13500 3.77000 47.01900
C  48.65100 4.08600 46.83700
C  48.78200 5.65900 46.74600
C  47.27400 6.03700 46.73000
C  49.55500 3.50900 47.97000
C  49.68600 6.04900 45.50900
C  49.05200 6.14800 44.19600
N  44.46600 7.03700 47.16300
C  45.51500 7.88700 46.93700
C  45.01600 9.19900 46.89300
C  43.59900 9.09700 46.96000
C  43.31800 7.71400 46.97100
C  45.82900 10.45400 46.74600
C  42.33000 9.87200 46.89100
O  42.10300 11.08000 46.92000
C  41.11700 8.77900 46.70300
C  40.14200 9.00300 47.82500
O  40.29000 8.59500 48.96500
O  39.05500 9.72300 47.38200
C  38.05700 10.11700 48.42000
H  40.85200 1.88700 46.94700
H  47.46900 1.73700 47.18200
H  47.63400 8.03700 46.30200
H  39.16800 6.27600 47.17700
H  39.41800 3.52000 46.00400
H  38.39700 4.72400 48.27600
H  39.61000 3.45800 48.69100
H  38.24700 3.01200 47.58200
H  39.20300 5.21300 44.56700
H  40.26700 6.71200 44.60200
H  37.99300 7.50300 45.76200
H  37.38400 6.27500 44.77200
H  42.78300 -1.34300 46.55500
H  41.59700 -0.11400 46.62700
H  42.32200 -0.89800 48.15600
H  47.51000 -0.17300 46.52900
H  47.43200 -1.67100 47.48900
H  47.30900 -0.15100 48.29200
H  49.00500 3.72900 45.87000
H  49.28400 5.99200 47.65500
H  50.34700 4.19400 48.27200
H  49.91800 2.55600 47.58500
H  48.92300 3.43900 48.85500
H  50.62200 5.49300 45.44200
H  49.89000 7.08600 45.77500
H  49.77900 5.70400 43.51600
H  49.02600 7.18700 43.86800
H  48.16800 5.51000 44.18400
H  45.73200 10.63200 45.67400
H  46.79600 10.30100 47.22500
H  45.39300 11.27200 47.31800
H  40.60400 8.92600 45.75300
H  38.06000 9.65800 49.40900
H  37.06700 10.00500 47.97900
H  37.96200 11.19400 48.56000

