158

Mg 24.30600 -4.58600 45.51800
C  26.43500 -2.45100 43.64900
C  21.56900 -3.68200 43.35500
C  22.76300 -7.43400 46.24500
C  27.21800 -5.67900 47.24100
N  24.06800 -3.19300 43.75800
C  25.06200 -2.40800 43.23500
C  24.47700 -1.55100 42.07600
C  22.97800 -1.79300 42.22100
C  22.87100 -2.98400 43.14300
C  22.15700 -0.49700 42.75800
C  25.14800 -2.15300 40.73900
C  25.84600 -1.26400 39.72500
H  25.38900 -1.35900 38.25500
N  22.32100 -5.41800 44.94200
C  21.34900 -4.88800 44.11200
C  20.20200 -5.77600 44.15400
C  20.56800 -6.90900 44.88800
C  21.98700 -6.62400 45.40400
C  18.90400 -5.46700 43.49700
C  19.59700 -8.07500 45.13700
O  18.45700 -8.08500 44.64500
C  20.02800 -9.19300 45.94000
N  24.81900 -6.23400 46.65100
C  23.98500 -7.22300 46.87000
C  24.64000 -8.33300 47.76000
C  25.95300 -7.68900 48.25500
C  26.05300 -6.45800 47.37300
C  23.71300 -8.95200 48.83000
C  27.28000 -8.66600 48.07700
C  28.29600 -8.63200 49.18400
N  26.42400 -4.13800 45.59200
C  27.42400 -4.70100 46.32800
C  28.69900 -4.00200 45.98400
C  28.33000 -3.20300 44.87400
C  26.94100 -3.26200 44.71600
C  30.04000 -4.32100 46.53200
C  28.87000 -2.25800 43.93100
O  29.97300 -1.89900 43.83300
C  27.60500 -1.70800 43.09400
C  27.58500 -0.13600 43.32200
O  27.48600 0.41000 44.39900
O  27.67700 0.58800 42.11800
C  27.52300 2.03200 42.10300
H  20.73500 -3.29800 42.76200
H  22.31500 -8.40000 46.48700
H  28.11700 -5.88000 47.82700
H  24.80300 -0.51100 42.10700
H  22.48900 -2.10400 41.29800
H  22.65600 0.41700 42.43900
H  22.22400 -0.50200 43.84600
H  21.13000 -0.50200 42.39300
H  24.43700 -2.81000 40.23900
H  25.86900 -2.93100 40.99200
H  26.87700 -1.61600 39.70200
H  25.95000 -0.20300 39.95000
H  18.46600 -6.24600 42.87300
H  19.07000 -4.51700 42.98900
H  18.18800 -5.27500 44.29700
H  20.80100 -9.70500 45.36700
H  19.20100 -9.89700 46.04000
H  20.44400 -8.77000 46.85400
H  24.91600 -9.18500 47.13900
H  25.91700 -7.34900 49.29000
H  22.67600 -8.61600 48.85700
H  24.18600 -8.79900 49.80000
H  23.60600 -10.03500 48.76900
H  27.67700 -8.31400 47.12500
H  27.01200 -9.70100 47.86600
H  28.36400 -9.64200 49.58800
H  28.06300 -7.99300 50.03600
H  29.15200 -8.47600 48.52700
H  29.90700 -5.40200 46.47400
H  30.26100 -4.15300 47.58600
H  30.86100 -3.85200 45.99000
H  27.79500 -1.83600 42.02900
H  27.46700 2.28000 43.16300
H  26.63400 2.27900 41.52200
H  28.35000 2.59300 41.66900
Mg 6.19700 53.62600 40.97100
C  5.27200 50.26400 40.37500
C  9.36800 52.92100 39.87500
C  6.90800 56.88700 41.07400
C  2.83700 54.33700 41.84100
N  7.17400 51.70300 40.02100
C  6.67200 50.39000 40.02400
C  7.79700 49.43600 39.76600
C  9.11000 50.39400 39.99700
C  8.52200 51.76600 39.85300
C  9.79100 50.22600 41.33000
C  7.88300 48.68000 38.43600
C  8.00200 49.58200 37.18800
H  6.93700 49.32500 36.06800
N  7.93800 54.76000 40.66000
C  9.11900 54.26400 40.14000
C  10.08900 55.36000 40.16000
C  9.41600 56.59800 40.46800
C  8.00000 56.11700 40.76300
C  11.56800 55.25400 40.05700
C  9.99600 57.98300 40.52700
O  11.10400 58.19500 40.05400
C  9.27400 59.26400 40.97200
N  4.98300 55.40000 41.27800
C  5.56900 56.66100 41.27400
C  4.44500 57.75100 41.31100
C  3.20500 56.93600 41.94300
C  3.64600 55.44800 41.62200
C  4.75000 59.08500 42.00600
C  1.86900 57.38800 41.19100
C  1.49500 56.95700 39.82200
N  4.31500 52.57900 41.04300
C  3.13600 52.95800 41.57100
C  2.22700 51.74300 41.59900
C  3.06700 50.71500 41.13500
C  4.29500 51.24300 40.79500
C  0.75300 51.78000 41.78400
C  3.06200 49.32700 40.81900
O  2.21400 48.44400 40.94900
C  4.50000 48.97500 40.43900
C  4.32900 48.29000 39.10800
O  3.66800 48.68800 38.16800
O  4.90300 47.06800 39.19200
C  4.71100 46.24400 38.03400
H  10.36600 52.65700 39.51800
H  7.08300 57.95400 41.22800
H  1.85200 54.48600 42.28800
H  7.94000 48.79900 40.63900
H  9.84400 50.17400 39.22200
H  9.47000 49.31100 41.82900
H  9.72400 51.13000 41.93500
H  10.82400 50.17400 40.98700
H  7.05700 47.97200 38.36200
H  8.74700 48.01800 38.38800
H  8.99400 49.53200 36.74000
H  7.82200 50.60700 37.51300
H  12.13300 55.91700 40.71200
H  11.95500 55.23500 39.03800
H  11.80700 54.21000 40.26300
H  10.06800 59.97700 41.19100
H  8.75000 59.03000 41.89900
H  8.72900 59.45400 40.04800
H  4.22100 57.92000 40.25800
H  3.13000 57.09000 43.02000
H  5.05600 59.93800 41.40000
H  5.57900 58.96000 42.70200
H  3.86900 59.44100 42.54000
H  1.65700 58.44500 41.35300
H  1.00500 56.93900 41.68100
H  1.30900 57.85400 39.23000
H  0.67400 56.27300 39.60900
H  2.32400 56.37500 39.42000
H  0.39600 52.38900 40.95300
H  0.55700 52.28200 42.73100
H  0.39000 50.75700 41.69400
H  4.86900 48.39600 41.28500
H  5.23500 46.61500 37.15300
H  3.64200 46.14000 37.84500
H  5.04400 45.23300 38.26500

