158

Mg 44.90700 4.77200 47.22600
C  42.82800 7.50200 47.21100
C  42.04700 2.75400 46.73100
C  46.88300 2.05500 46.55400
C  47.56300 6.84000 47.02700
N  42.62700 5.07600 47.04200
C  42.10200 6.29800 47.06200
C  40.59600 6.23300 46.78600
C  40.30400 4.69500 46.58500
C  41.76500 4.10600 46.72600
C  39.28800 3.83100 47.41800
C  39.97300 7.10000 45.62700
C  40.74300 7.04200 44.28300
H  39.98600 6.45500 43.09200
N  44.47900 2.69300 46.79800
C  43.26000 2.09800 46.71700
C  43.46100 0.70700 46.49100
C  44.85700 0.47200 46.57200
C  45.50300 1.76800 46.62000
C  42.42000 -0.36500 46.21300
C  45.42900 -0.89900 46.58400
O  44.79600 -1.95000 46.69500
C  46.84000 -1.10300 46.66500
N  46.94300 4.46700 46.80000
C  47.58100 3.28300 46.60000
C  49.10400 3.45800 46.47500
C  49.23400 4.95200 46.82800
C  47.81700 5.48000 46.82300
C  49.83700 2.50300 47.43600
C  50.25600 5.70500 45.94300
C  49.85200 5.89900 44.57200
N  45.21800 6.73700 47.22700
C  46.34800 7.49500 47.14900
C  46.05500 8.87900 47.15500
C  44.70200 8.90900 47.30200
C  44.23500 7.62000 47.27300
C  47.06200 10.01600 47.00000
C  43.56600 9.79500 47.47500
O  43.55900 11.02600 47.44100
C  42.29900 8.91100 47.36000
C  41.36500 8.97600 48.52400
O  41.45800 8.39100 49.58300
O  40.27700 9.73200 48.14400
C  39.33700 10.05900 49.20300
H  41.14200 2.14400 46.70500
H  47.54300 1.19900 46.39500
H  48.42300 7.50600 47.12600
H  40.19000 6.55100 47.74600
H  40.18800 4.48100 45.52300
H  38.47500 4.44300 47.80700
H  39.80900 3.44400 48.29400
H  38.86500 2.99400 46.86300
H  39.95000 8.12700 45.99300
H  38.90600 6.91200 45.50500
H  41.64300 6.43900 44.39900
H  41.06200 8.07400 44.13900
H  42.68500 -0.87100 45.28400
H  41.43600 0.10100 46.25700
H  42.46200 -1.03700 47.07000
H  47.23800 -0.47700 47.46400
H  47.32100 -0.72500 45.76300
H  47.10600 -2.13400 46.89800
H  49.44800 3.30700 45.45200
H  49.57700 5.19200 47.83500
H  50.76500 2.95800 47.78400
H  49.86900 1.44700 47.16800
H  49.23400 2.32100 48.32500
H  51.18700 5.16300 46.11200
H  50.25100 6.71200 46.35900
H  50.66400 5.66100 43.88500
H  49.40200 6.86500 44.34600
H  49.06000 5.20800 44.28400
H  48.05500 9.82400 47.40800
H  46.69300 10.86700 47.57200
H  47.16900 10.15500 45.92400
H  41.77700 9.20500 46.45000
H  38.59600 9.26400 49.12600
H  39.02800 11.07600 48.96100
H  39.80000 9.94700 50.18300
Mg 16.66700 52.12100 26.39700
C  18.39400 50.64300 28.88300
C  14.26400 52.96700 28.69000
C  14.90500 53.39800 23.89200
C  19.07800 51.09900 24.09400
N  16.30700 51.62400 28.64600
C  17.29900 51.33500 29.43200
C  16.92500 51.34900 30.88600
C  15.37900 51.85400 30.82900
C  15.27800 52.18600 29.36300
C  14.27500 50.73800 31.33600
C  17.77100 52.22700 31.87900
C  17.86900 51.68200 33.27200
H  16.92100 52.33400 34.25400
N  14.96700 53.13000 26.38600
C  14.02600 53.29400 27.38600
C  12.83700 54.00300 26.85900
C  13.04900 54.28300 25.49300
C  14.33500 53.61600 25.19300
C  11.61000 54.28100 27.80700
C  12.21500 54.95600 24.41800
O  12.59700 55.18200 23.32200
C  10.90000 55.50400 24.81300
N  16.81700 51.94600 24.27900
C  15.96700 52.70100 23.53800
C  16.53100 52.78800 22.00500
C  17.97100 52.47900 22.25300
C  17.99300 51.88100 23.64700
C  15.68800 51.94000 21.03600
C  18.80400 53.79400 22.33600
C  19.83300 54.02100 21.22500
N  18.33900 50.97900 26.42100
C  19.25100 50.63000 25.42500
C  20.30200 49.92600 26.00700
C  19.99900 49.88300 27.34900
C  18.81000 50.59900 27.54700
C  21.56600 49.46800 25.31100
C  20.56800 49.46600 28.60300
O  21.62900 48.86100 28.85900
C  19.53400 50.01100 29.68000
C  19.25800 48.88300 30.61800
O  18.51100 47.93700 30.33700
O  19.78900 49.09100 31.80500
C  19.49900 48.26200 33.00000
H  13.54000 53.29800 29.43700
H  14.27600 53.84400 23.11900
H  19.87600 51.05800 23.35000
H  16.84500 50.31200 31.21300
H  15.30100 52.73700 31.46400
H  14.29300 50.32100 32.34300
H  14.51100 49.87800 30.70900
H  13.30700 51.09600 30.98700
H  17.24300 53.18000 31.90700
H  18.73500 52.44000 31.41800
H  18.91600 51.77000 33.56300
H  17.69200 50.60700 33.27000
H  11.34400 55.33500 27.73800
H  11.80200 54.05200 28.85600
H  10.67400 53.76000 27.60500
H  10.06100 54.80900 24.77500
H  10.58100 56.25400 24.08900
H  10.77000 55.93600 25.80600
H  16.45900 53.79900 21.60300
H  18.41600 51.89200 21.44900
H  14.95500 52.50100 20.45700
H  15.14500 51.17500 21.59300
H  16.34600 51.41000 20.34800
H  19.34900 53.80800 23.28000
H  18.19100 54.69500 22.33900
H  19.74200 55.00900 20.77300
H  19.74700 53.24500 20.46500
H  20.80500 54.00500 21.71700
H  21.63300 49.95600 24.33900
H  21.76200 48.40100 25.42300
H  22.42500 49.84000 25.86900
H  20.02100 50.79100 30.26500
H  19.90400 47.27500 32.77600
H  18.42900 48.11400 33.14600
H  20.12600 48.50600 33.85800

