158

Mg 46.26100 3.67400 48.22400
C  44.57500 6.62900 47.18000
C  43.37900 1.92000 47.62800
C  48.09200 0.94600 48.35300
C  49.22300 5.74100 48.31000
N  44.26400 4.23600 47.44100
C  43.78900 5.51500 47.05000
C  42.31200 5.47100 46.64700
C  41.95700 3.98800 46.99500
C  43.26500 3.32900 47.39500
C  40.73400 3.85700 47.94800
C  41.94900 5.99500 45.22500
C  40.59800 6.86500 45.21500
H  39.66100 6.77900 44.07800
N  45.79600 1.64700 48.05400
C  44.60200 1.14000 47.78800
C  44.67200 -0.27100 47.70100
C  46.05800 -0.64500 47.84000
C  46.76000 0.66800 48.13500
C  43.40400 -1.11800 47.27000
C  46.57900 -2.03000 47.54400
O  45.88300 -2.93100 47.12100
C  48.02300 -2.29200 47.88200
N  48.42200 3.47500 48.33300
C  48.83900 2.20000 48.38200
C  50.37800 2.19900 48.68600
C  50.78900 3.70800 48.44500
C  49.39900 4.37200 48.38700
C  50.67800 1.64500 50.10900
C  51.40500 4.05400 47.01300
C  52.92200 4.08600 46.96300
N  46.79200 5.73900 48.01800
C  48.04400 6.44700 48.03600
C  47.78300 7.90000 47.87600
C  46.43700 7.91800 47.47200
C  45.91900 6.64500 47.56800
C  48.88300 8.86500 47.75200
C  45.42300 8.86200 46.98400
O  45.52100 10.03800 46.71100
C  44.22900 8.02400 46.85000
C  43.16600 8.52800 47.73700
O  43.07600 8.35800 48.97500
O  42.20100 9.22000 47.02700
C  41.21500 10.02200 47.74000
H  42.45300 1.41800 47.34200
H  48.74600 0.07800 48.45300
H  50.08600 6.40300 48.40500
H  41.88300 6.01800 47.48700
H  41.73700 3.36000 46.13200
H  40.24800 4.83000 48.02100
H  40.99600 3.43400 48.91800
H  40.07800 3.18700 47.39200
H  41.65900 5.23200 44.50300
H  42.77800 6.53000 44.76300
H  40.89400 7.90900 45.31300
H  40.05900 6.64900 46.13800
H  43.82100 -1.90100 46.63600
H  42.66200 -0.59700 46.66400
H  42.94900 -1.63600 48.11300
H  48.66600 -1.66100 47.26800
H  48.27400 -3.34300 47.73600
H  48.20900 -2.10000 48.93900
H  50.90300 1.58200 47.95700
H  51.25000 4.24200 49.27500
H  49.79000 1.32900 50.65500
H  51.35100 2.28900 50.67600
H  51.34000 0.79400 49.94600
H  51.05200 4.97800 46.55600
H  51.10700 3.25000 46.33800
H  53.13200 3.49000 46.07500
H  53.32300 3.52800 47.81000
H  53.24900 5.12500 46.98800
H  49.47100 8.62800 46.86600
H  49.57300 8.61600 48.55900
H  48.49600 9.88000 47.84400
H  43.76100 8.15200 45.87400
H  40.43200 9.38200 48.14800
H  40.95000 10.69400 46.92400
H  41.72900 10.54600 48.54500
Mg 10.05400 48.53400 25.81000
C  8.14700 49.03700 28.65500
C  12.72400 50.01600 27.44200
C  11.86900 47.98600 23.09800
C  7.16000 47.87300 23.98100
N  10.44300 49.25200 27.91100
C  9.50000 49.34000 28.91300
C  10.05900 49.93300 30.15500
C  11.34400 50.71100 29.55800
C  11.50600 50.02300 28.17800
C  11.44800 52.26100 29.51200
C  10.26100 48.89000 31.27900
C  9.51900 49.19900 32.57600
H  9.33300 48.09500 33.58000
N  12.05700 48.83400 25.38600
C  12.97800 49.43200 26.19800
C  14.23200 49.15800 25.58800
C  14.05600 48.51000 24.28600
C  12.62200 48.39900 24.18100
C  15.49500 49.40700 26.29500
C  15.10800 48.04600 23.31800
O  14.85500 47.53200 22.29100
C  16.56200 48.17500 23.62100
N  9.50600 48.10200 23.78300
C  10.46600 47.83300 22.88600
C  9.89600 47.23400 21.55300
C  8.35500 47.17500 21.83900
C  8.29900 47.75700 23.24800
C  10.33800 48.07500 20.25200
C  7.80400 45.76100 21.67100
C  7.94300 44.80600 22.88500
N  8.11500 48.33600 26.18200
C  7.02200 48.13900 25.33200
C  5.81300 48.29800 26.06100
C  6.20900 48.64800 27.36100
C  7.64400 48.64400 27.36900
C  4.44900 48.35200 25.54200
C  5.70700 48.87600 28.78300
O  4.53400 48.85000 29.18800
C  6.97000 49.06800 29.68100
C  7.01900 47.96000 30.54900
O  7.72100 46.93400 30.44100
O  6.18900 48.05700 31.62000
C  6.07100 46.94900 32.60500
H  13.49500 50.54900 28.00300
H  12.56000 47.82400 22.26800
H  6.24500 47.68300 23.41600
H  9.45400 50.74200 30.56400
H  12.18900 50.30300 30.11200
H  10.47900 52.72600 29.69100
H  11.68500 52.77100 28.57900
H  12.15700 52.71200 30.20700
H  11.32000 48.92200 31.53500
H  9.99700 47.93200 30.83100
H  8.48800 49.49900 32.38900
H  10.00300 50.02900 33.09100
H  15.36000 49.38900 27.37700
H  15.97600 50.35700 26.06300
H  16.29000 48.67000 26.17800
H  16.88100 49.20100 23.80700
H  17.09500 47.84700 22.72800
H  16.65500 47.51900 24.48600
H  10.28500 46.22100 21.44500
H  7.76800 47.84300 21.20900
H  10.98800 48.79300 20.75100
H  9.46500 48.61900 19.89100
H  10.85500 47.57800 19.43000
H  8.36100 45.28000 20.86800
H  6.73800 45.74700 21.44200
H  8.64100 45.18300 23.63300
H  8.23600 43.82600 22.50800
H  6.96200 44.83700 23.35900
H  4.03100 47.36000 25.37200
H  4.35300 48.93200 24.62500
H  3.82200 48.77500 26.32800
H  6.94900 49.99800 30.24800
H  5.04500 46.59000 32.52500
H  6.25000 47.33900 33.60600
H  6.70100 46.10000 32.34000

