158

Mg -1.45900 17.52600 27.39200
C  -1.90100 15.23900 29.97300
C  -2.27200 20.02900 29.65800
C  -1.61600 19.68400 24.81000
C  -1.59100 14.89800 25.04000
N  -2.00400 17.66500 29.58500
C  -1.99800 16.61000 30.49000
C  -2.35600 17.07500 31.96500
C  -2.43600 18.63200 31.83400
C  -2.22800 18.82400 30.23500
C  -3.69700 19.32900 32.43000
C  -1.39600 16.60500 33.08900
C  -1.65100 17.17900 34.51300
H  -0.37300 17.04000 35.35200
N  -1.67700 19.52100 27.32400
C  -1.97400 20.42700 28.30100
C  -2.16000 21.71800 27.73800
C  -1.82700 21.59200 26.37800
C  -1.70400 20.18700 26.09200
C  -2.53900 23.00200 28.45900
C  -1.60600 22.67400 25.34200
O  -1.19000 22.59500 24.19900
C  -1.94900 24.10300 25.68100
N  -1.52800 17.30400 25.24800
C  -1.43500 18.43000 24.40100
C  -1.42000 17.98500 22.91500
C  -1.07800 16.45700 23.06400
C  -1.38100 16.15800 24.52800
C  -2.76500 18.28400 22.15300
C  0.28000 16.02500 22.53700
C  1.43200 16.56800 23.30200
N  -1.56400 15.48100 27.46300
C  -1.68900 14.59000 26.41500
C  -1.74900 13.25400 26.94600
C  -1.91400 13.43500 28.35100
C  -1.76200 14.83300 28.62000
C  -1.79100 11.95200 26.16400
C  -2.09800 12.72700 29.56600
O  -2.20100 11.56800 29.82600
C  -2.14100 13.89900 30.70200
C  -1.15300 13.51500 31.77400
O  -0.06900 14.07100 31.95300
O  -1.72300 12.61800 32.64400
C  -1.25500 12.67000 34.03700
H  -2.35400 20.81500 30.41200
H  -1.64200 20.45300 24.03500
H  -1.58700 14.13400 24.26000
H  -3.39100 16.76100 32.09800
H  -1.51800 18.99700 32.29500
H  -4.15900 18.61900 33.11600
H  -4.43400 19.70700 31.72200
H  -3.33400 20.23900 32.90800
H  -0.37200 16.68700 32.72500
H  -1.60300 15.55000 33.26800
H  -2.55400 16.69700 34.88400
H  -1.81100 18.25700 34.51400
H  -2.58600 22.84100 29.53600
H  -3.56200 23.18500 28.13100
H  -1.91800 23.89000 28.34000
H  -1.92000 24.86400 24.90100
H  -1.22800 24.52200 26.38300
H  -2.96400 24.02900 26.07200
H  -0.60100 18.39700 22.32600
H  -1.77000 15.76100 22.59000
H  -3.55900 18.55600 22.84900
H  -2.93200 17.38800 21.55600
H  -2.58100 19.09500 21.44900
H  0.37900 16.44800 21.53800
H  0.43900 14.94700 22.51100
H  1.09700 16.94100 24.27000
H  1.78900 17.46900 22.80400
H  2.27500 15.88100 23.38300
H  -1.75900 12.04200 25.07800
H  -2.64600 11.35000 26.46900
H  -0.93300 11.37500 26.51100
H  -3.09500 13.91600 31.23000
H  -1.58800 13.59800 34.50200
H  -0.17700 12.54200 34.12700
H  -1.74200 11.85700 34.57600
Mg 29.38200 58.16100 40.79900
C  26.58500 56.51900 39.52300
C  31.38500 55.74800 39.24800
C  32.15200 60.22100 41.06600
C  27.25700 60.84800 41.59400
N  29.03100 56.46800 39.56200
C  27.80200 55.98700 39.10200
C  27.87400 54.77500 38.27000
C  29.39400 54.36500 38.44700
C  29.95900 55.59900 39.16200
C  29.57200 53.02600 39.14000
C  27.50000 55.00600 36.73700
C  26.34000 54.27700 36.07400
H  25.68400 55.08000 34.99600
N  31.53500 57.92900 40.39400
C  32.10300 56.81700 39.74900
C  33.49300 57.05000 39.54200
C  33.78300 58.27600 40.08500
C  32.49300 58.93200 40.50700
C  34.44800 56.03000 38.87800
C  35.19800 58.78600 40.21500
O  36.16400 58.07900 39.89600
C  35.53000 60.06800 40.87300
N  29.67700 60.23700 41.33300
C  30.91000 60.78600 41.37300
C  30.85400 62.30400 41.70800
C  29.33100 62.50500 42.00700
C  28.69800 61.13200 41.63700
C  31.82000 62.78800 42.77800
C  28.79600 63.73300 41.16500
C  28.86500 65.06200 41.84700
N  27.39500 58.54800 40.82900
C  26.62600 59.67600 41.24100
C  25.23500 59.31200 41.26700
C  25.19200 58.12400 40.54600
C  26.47700 57.69400 40.31000
C  24.14900 60.25800 41.73500
C  24.27700 57.23400 39.99300
O  23.08300 57.28100 39.93700
C  25.17500 56.08000 39.36400
C  24.77200 54.83200 40.15700
O  25.00500 54.61200 41.32600
O  23.86000 54.15100 39.42700
C  22.94900 53.31600 40.28500
H  31.89300 54.86400 38.85500
H  33.05000 60.84400 41.07400
H  26.56000 61.68300 41.69000
H  27.22100 54.00900 38.68800
H  29.95600 54.22000 37.52400
H  30.46100 53.03200 39.77100
H  29.68800 52.25200 38.38100
H  28.65900 52.70800 39.64300
H  28.43300 54.65000 36.30000
H  27.39600 56.08000 36.58000
H  25.57100 53.88700 36.74100
H  26.66700 53.31600 35.67800
H  35.04600 56.51300 38.10500
H  33.88000 55.26600 38.34600
H  35.02100 55.53200 39.66000
H  35.27300 60.93200 40.26000
H  36.60200 60.15800 41.04700
H  34.82900 60.15500 41.70300
H  31.12900 62.82800 40.79300
H  29.10300 62.78700 43.03400
H  32.60300 63.39800 42.32800
H  32.24800 61.98500 43.37900
H  31.26900 63.49100 43.40200
H  27.81800 63.50300 40.74200
H  29.36900 63.77600 40.23900
H  29.22400 65.73400 41.06800
H  29.48600 65.10300 42.74200
H  27.93700 65.44000 42.27500
H  23.12600 59.93400 41.54800
H  24.34300 61.19900 41.22100
H  24.22500 60.48000 42.80000
H  24.90500 55.96200 38.31500
H  22.34200 53.90300 40.97400
H  23.47300 52.65300 40.97300
H  22.34400 52.72200 39.60100

