158

Mg 6.43400 54.35700 41.44700
C  5.91600 50.85300 41.26900
C  9.55200 53.80200 40.11400
C  6.86700 57.65200 41.56200
C  3.01100 54.85500 42.14600
N  7.56500 52.44000 40.61800
C  7.16800 51.16300 40.64800
C  8.26900 50.29400 40.23200
C  9.47100 51.28800 40.03600
C  8.81700 52.61900 40.27200
C  10.84900 51.03800 40.85400
C  8.04900 49.41800 38.95200
C  7.14100 49.87900 37.84400
H  7.73400 50.09100 36.44100
N  7.97400 55.58600 40.86200
C  9.17200 55.14700 40.38900
C  9.98800 56.27000 40.30000
C  9.32200 57.43600 40.75700
C  7.98400 56.94600 41.08800
C  11.42100 56.10100 39.98800
C  9.98600 58.88800 40.82500
O  11.12600 59.12800 40.54300
C  9.27400 60.02700 41.49300
N  5.04900 56.07100 41.71000
C  5.55800 57.32700 41.76300
C  4.47100 58.27900 42.18400
C  3.16600 57.39200 42.25400
C  3.71700 56.00800 42.05700
C  4.76600 59.09800 43.52400
C  1.96500 57.75200 41.35500
C  0.85700 58.47900 42.06100
N  4.83100 53.16500 41.63100
C  3.49400 53.51700 41.90900
C  2.77200 52.26900 42.14000
C  3.76900 51.26500 42.00500
C  4.94200 51.80100 41.54500
C  1.31400 52.12400 42.26200
C  3.91000 49.83600 42.10800
O  3.09600 49.03200 42.51700
C  5.35200 49.49700 41.61300
C  5.20500 48.46900 40.57100
O  4.46400 48.59100 39.57800
O  5.92400 47.35500 40.77000
C  5.62700 46.21000 39.77700
H  10.55700 53.64900 39.71500
H  7.07500 58.70900 41.73800
H  1.97100 54.86500 42.47900
H  8.44500 49.65100 41.09400
H  9.74100 51.35500 38.98200
H  10.77100 50.43600 41.75900
H  11.16200 51.96200 41.34000
H  11.60200 50.61100 40.19100
H  7.78500 48.37500 39.12700
H  9.08800 49.38600 38.62400
H  6.76200 50.85700 38.14000
H  6.29400 49.21400 37.67200
H  12.15800 56.81200 40.36000
H  11.59200 55.98200 38.91800
H  11.67800 55.12300 40.39600
H  8.45300 60.29500 40.82700
H  10.07100 60.75300 41.65700
H  8.95500 59.68300 42.47700
H  4.37100 59.04200 41.41200
H  2.83800 57.45800 43.29100
H  4.72800 60.17700 43.37300
H  5.75400 58.76400 43.84100
H  3.97400 58.83300 44.22500
H  1.54600 56.84300 40.92400
H  2.41400 58.38700 40.59100
H  0.07600 57.74300 42.25500
H  0.43500 59.27400 41.44700
H  1.21500 58.99300 42.95300
H  0.89400 51.78400 41.31500
H  0.71900 52.96500 42.61700
H  1.09500 51.36000 43.00800
H  5.90000 49.09300 42.46500
H  6.14800 45.30500 40.09100
H  5.90500 46.40700 38.74100
H  4.58700 45.89300 39.86000
Mg -2.25200 34.73100 26.66700
C  -3.83100 32.94200 29.06100
C  -1.22800 36.92700 29.09800
C  -1.20200 36.81100 24.26600
C  -4.15300 33.07300 24.20000
N  -2.65300 34.96900 28.81400
C  -3.10800 33.97500 29.64200
C  -2.88700 34.27200 31.11900
C  -2.08400 35.62500 31.10500
C  -2.01000 35.91100 29.60900
C  -2.69400 36.77500 31.92300
C  -2.31900 33.04100 31.97500
C  -2.96200 32.67400 33.38100
H  -2.08800 32.75900 34.61600
N  -1.07100 36.46200 26.71700
C  -0.72600 37.13500 27.81800
C  0.10100 38.19800 27.39000
C  0.16600 38.15500 26.00000
C  -0.77500 37.14600 25.58000
C  0.76900 39.16700 28.34100
C  0.92600 39.04100 25.00900
O  0.82800 38.84600 23.79000
C  1.79700 40.14500 25.39000
N  -2.84700 35.01200 24.57100
C  -2.12100 35.89300 23.75700
C  -2.73200 35.91100 22.34400
C  -3.38500 34.45800 22.29400
C  -3.38500 34.03600 23.76000
C  -3.79000 36.97200 22.11900
C  -2.68400 33.45400 21.39800
C  -1.34200 32.79300 21.85300
N  -3.74900 33.32900 26.57800
C  -4.37000 32.69600 25.53900
C  -5.32800 31.70900 25.99500
C  -5.11300 31.69700 27.43500
C  -4.16300 32.71400 27.68200
C  -6.10200 30.73200 25.05400
C  -5.52300 31.14700 28.66200
O  -6.23600 30.24900 29.02900
C  -4.67600 31.91500 29.77600
C  -5.76600 32.56800 30.63100
O  -6.66300 33.37200 30.32400
O  -5.66600 32.02600 31.88000
C  -6.64600 32.49900 32.90000
H  -0.91000 37.67900 29.82300
H  -0.91300 37.46100 23.43700
H  -4.66600 32.46100 23.45500
H  -3.81800 34.56200 31.60500
H  -1.10000 35.35000 31.48500
H  -3.23500 36.41600 32.79900
H  -3.36000 37.37900 31.30700
H  -1.88000 37.44300 32.20300
H  -1.25100 33.11200 32.18100
H  -2.37800 32.13200 31.37600
H  -3.22700 31.61700 33.35700
H  -3.83700 33.31700 33.48000
H  1.83800 38.96400 28.28200
H  0.62200 38.86700 29.37800
H  0.53400 40.22200 28.19900
H  2.52300 39.62600 26.01600
H  1.09900 40.67800 26.03500
H  2.27600 40.76500 24.63100
H  -1.94300 36.11600 21.62000
H  -4.42200 34.47100 21.95700
H  -3.62700 37.80900 22.79900
H  -4.79000 36.54200 22.16600
H  -3.58100 37.39800 21.13800
H  -2.47300 33.89100 20.42200
H  -3.36400 32.61700 21.24300
H  -0.54300 33.11100 21.18400
H  -1.42200 31.71800 21.69300
H  -1.03900 32.93100 22.89100
H  -5.37300 30.03400 24.64200
H  -6.57800 31.23200 24.21100
H  -6.91200 30.21600 25.57000
H  -4.13300 31.16200 30.34700
H  -7.57000 32.83700 32.43000
H  -6.11400 33.17300 33.57200
H  -6.89900 31.70300 33.60000

