158

Mg 23.90000 -6.64600 46.06800
C  26.27900 -4.29300 44.85500
C  21.56500 -5.05100 44.11600
C  21.98900 -9.25100 46.62700
C  26.53400 -8.12100 47.81500
N  23.99600 -4.87000 44.58800
C  25.06800 -4.14700 44.24800
C  24.70100 -3.29700 42.99900
C  23.13800 -3.31100 43.03700
C  22.86300 -4.45300 43.99600
C  22.48400 -1.98700 43.49700
C  25.31800 -3.91000 41.69000
C  25.87600 -3.00600 40.58900
H  25.25100 -3.04800 39.19500
N  21.97100 -7.11500 45.43000
C  21.12500 -6.31700 44.68300
C  19.79100 -6.87300 44.67400
C  19.89100 -8.07100 45.45900
C  21.31100 -8.18100 45.87700
C  18.60600 -6.31700 44.12300
C  18.74600 -8.99900 45.68600
O  17.69800 -8.85300 45.08700
C  18.88300 -10.27800 46.58100
N  24.21300 -8.38000 47.14900
C  23.23800 -9.33600 47.30400
C  23.67700 -10.50700 48.12200
C  25.13800 -10.11900 48.57200
C  25.30300 -8.71800 47.89400
C  22.64400 -10.95200 49.27800
C  26.32600 -11.07400 48.17800
C  27.33800 -11.47600 49.26100
N  26.00900 -6.34600 46.34000
C  26.96400 -6.96100 47.10700
C  28.27300 -6.29500 46.99400
C  28.06700 -5.27800 46.02600
C  26.65000 -5.31700 45.75400
C  29.48200 -6.76900 47.65000
C  28.71700 -4.20400 45.33500
O  29.86400 -3.74300 45.28200
C  27.50400 -3.41700 44.60900
C  27.35600 -2.05500 45.22100
O  26.69600 -1.16400 44.78600
O  28.00900 -1.98500 46.40900
C  27.96200 -0.66600 47.01600
H  20.83100 -4.48300 43.54100
H  21.33500 -10.10900 46.79200
H  27.30600 -8.72600 48.29500
H  25.13600 -2.29800 43.02300
H  22.65000 -3.55800 42.09400
H  22.15500 -2.01900 44.53600
H  21.57400 -1.96300 42.89800
H  23.12200 -1.13100 43.27900
H  24.52300 -4.50100 41.23600
H  26.14800 -4.56000 41.96700
H  26.94900 -3.18700 40.52600
H  25.77300 -1.96500 40.89700
H  18.48100 -6.88200 43.19900
H  18.67600 -5.23000 44.08800
H  17.83600 -6.58900 44.84600
H  19.26600 -9.97200 47.55400
H  19.59300 -10.87200 46.00500
H  17.98600 -10.87500 46.74200
H  23.73000 -11.33500 47.41500
H  25.15800 -10.06700 49.66100
H  21.77700 -10.29500 49.35700
H  23.02100 -11.10700 50.28900
H  22.15900 -11.87200 48.95200
H  26.83800 -10.70400 47.29000
H  25.86900 -12.03800 47.95800
H  27.63100 -12.51400 49.10400
H  26.86900 -11.42100 50.24300
H  28.19600 -10.80600 49.20900
H  30.29800 -6.73700 46.92800
H  29.22100 -7.79300 47.91600
H  29.78400 -6.24500 48.55700
H  27.77500 -3.14000 43.59000
H  26.96800 -0.27000 47.22100
H  28.56400 -0.06000 46.33900
H  28.46900 -0.82100 47.96800
Mg 0.17700 43.47400 25.51700
C  2.37400 43.05500 28.22600
C  -2.51400 42.91100 27.70300
C  -2.01600 43.36100 22.98800
C  2.81900 43.92900 23.40300
N  0.03500 43.09300 27.64400
C  0.98500 43.10000 28.56900
C  0.43700 42.97700 30.00700
C  -0.99500 42.54900 29.76700
C  -1.19100 42.94000 28.30900
C  -1.31800 41.02800 30.01300
C  0.44600 44.29500 30.87500
C  -0.14100 44.22800 32.32000
H  -0.14500 42.74900 32.93300
N  -1.98300 43.07800 25.35700
C  -2.88400 42.87600 26.37900
C  -4.25500 42.78600 25.86300
C  -4.12900 42.87000 24.44600
C  -2.69300 43.09600 24.18400
C  -5.43200 42.47900 26.72100
C  -5.22100 42.75600 23.43800
O  -5.00400 43.00600 22.26600
C  -6.63500 42.41600 23.86000
N  0.37500 43.54500 23.50300
C  -0.70000 43.52200 22.66400
C  -0.12500 43.55600 21.26400
C  1.31300 43.97500 21.38200
C  1.53800 43.73500 22.83900
C  -0.36400 42.12100 20.64800
C  1.63100 45.42000 20.93900
C  1.01800 46.58800 21.71700
N  2.21300 43.44800 25.72900
C  3.20400 43.70200 24.78200
C  4.55700 43.46200 25.40300
C  4.21800 43.29400 26.76300
C  2.79300 43.36100 26.90200
C  5.89900 43.31400 24.79200
C  4.76400 42.99300 28.02800
O  5.94100 42.71300 28.37700
C  3.66100 43.04300 29.05200
C  3.65600 41.86900 29.89300
O  3.59600 40.71200 29.51900
O  3.93300 42.34500 31.15700
C  4.23700 41.27400 32.09900
H  -3.26700 42.74900 28.47700
H  -2.61800 43.23400 22.08600
H  3.64900 44.13200 22.72300
H  0.97000 42.20200 30.55800
H  -1.71600 43.20300 30.25800
H  -1.53600 40.50500 29.08200
H  -2.14700 40.89700 30.70800
H  -0.38300 40.59700 30.37200
H  -0.03100 45.10700 30.32600
H  1.44400 44.72300 30.96200
H  -1.09800 44.74400 32.39700
H  0.42500 44.85500 33.00900
H  -5.92400 43.35000 27.15400
H  -4.97200 41.90700 27.52600
H  -6.03600 41.67100 26.30700
H  -7.04400 43.01900 24.67100
H  -6.60600 41.38200 24.20500
H  -7.30000 42.52200 23.00300
H  -0.73500 44.27100 20.71300
H  1.99800 43.28000 20.89700
H  0.57500 41.57200 20.57700
H  -0.82000 42.24100 19.66500
H  -0.97800 41.59100 21.37600
H  1.27500 45.39700 19.90900
H  2.71400 45.53300 20.98800
H  1.83200 47.30900 21.78300
H  0.50900 46.39700 22.66200
H  0.35300 47.12800 21.04400
H  5.80800 42.81100 23.82900
H  6.56600 42.81800 25.49700
H  6.28200 44.31800 24.61000
H  3.70100 44.00300 29.56600
H  4.64200 41.73000 33.00200
H  4.94600 40.61200 31.60300
H  3.31000 40.74200 32.31500

