158

Mg 26.93600 50.64800 26.76100
C  24.94300 51.72600 29.36900
C  29.40700 49.73300 29.18100
C  29.06500 49.83000 24.23700
C  24.67000 51.86800 24.46100
N  27.17600 50.83600 28.98000
C  26.16600 51.21800 29.82200
C  26.56600 50.88300 31.30200
C  28.06600 50.31800 31.24700
C  28.23800 50.31000 29.69000
C  29.11200 51.21600 31.92000
C  25.64200 49.84800 31.78800
C  25.04400 50.10500 33.15700
H  25.87300 50.57900 34.40900
N  28.93900 49.84700 26.69100
C  29.72700 49.54900 27.76100
C  31.04300 48.95700 27.29600
C  31.05100 49.18500 25.84800
C  29.65500 49.64300 25.51800
C  32.10900 48.36000 28.24300
C  32.13700 48.88600 24.87500
O  32.08700 49.21900 23.73000
C  33.35800 48.21600 25.40500
N  26.86400 50.63200 24.67300
C  27.81400 50.25800 23.84000
C  27.43100 50.41000 22.32500
C  26.04400 51.02900 22.44300
C  25.86300 51.23700 23.95800
C  28.46200 51.22100 21.48100
C  24.90700 50.16900 21.76000
C  24.08900 49.11900 22.64400
N  25.15800 51.52500 26.86200
C  24.33600 51.98000 25.81900
C  23.19000 52.56900 26.38200
C  23.32200 52.42600 27.79600
C  24.59100 51.82000 28.03900
C  21.93600 53.14100 25.64300
C  22.73600 52.76500 29.08300
O  21.69900 53.37700 29.30000
C  23.71300 52.22800 30.11500
C  24.03000 53.36700 31.11800
O  24.91400 54.20000 30.92400
O  23.25300 53.18200 32.20900
C  23.41900 54.18200 33.23900
H  30.03200 49.21200 29.90900
H  29.70300 49.45600 23.43400
H  23.96300 52.23100 23.71200
H  26.46200 51.81300 31.86100
H  28.17700 49.30200 31.62800
H  28.62600 52.12300 32.28000
H  29.67100 51.55900 31.05000
H  29.76400 50.84200 32.71100
H  26.05600 48.86500 32.01400
H  24.85800 49.71200 31.04200
H  24.57200 49.18000 33.48500
H  24.24900 50.82400 32.95600
H  32.18700 47.27600 28.16200
H  31.90100 48.55500 29.29600
H  33.14500 48.68900 28.16100
H  33.06900 47.36600 26.02200
H  33.97300 48.96700 25.90000
H  33.90400 47.98000 24.49200
H  27.36600 49.37300 21.99500
H  25.99400 52.01800 21.98700
H  28.75100 50.65800 20.59400
H  29.26800 51.69700 22.04100
H  27.97400 52.04800 20.96500
H  25.29700 49.57400 20.93500
H  24.26100 50.94500 21.34900
H  23.03800 49.40900 22.64300
H  24.42900 49.03900 23.67700
H  24.25200 48.14200 22.19100
H  21.69500 52.57700 24.74200
H  22.20500 54.16100 25.36900
H  21.16200 53.03200 26.40300
H  23.20300 51.43200 30.65700
H  23.72700 53.70500 34.17000
H  22.43300 54.58900 33.46000
H  24.23700 54.88700 33.08800
Mg -12.23100 37.49900 41.96200
C  -9.87300 34.86500 41.39700
C  -10.01900 39.62600 40.46100
C  -14.59000 39.78600 42.10700
C  -14.42500 34.98500 43.09200
N  -10.30800 37.21100 40.87400
C  -9.49100 36.15200 40.81800
C  -8.20400 36.44100 40.07400
C  -8.11400 38.00700 40.16000
C  -9.56900 38.29500 40.47300
C  -7.09800 38.60100 41.13900
C  -8.38500 35.94900 38.60100
C  -7.08000 35.25500 38.09100
H  -6.21200 36.02200 37.10700
N  -12.27100 39.45300 41.43700
C  -11.28900 40.17200 40.89600
C  -11.66400 41.52300 40.79000
C  -12.99900 41.63100 41.21400
C  -13.35700 40.24900 41.63600
C  -10.84800 42.69700 40.29800
C  -13.89300 42.91300 41.21700
O  -13.55700 44.00000 40.76100
C  -15.22900 42.83500 41.84000
N  -14.29000 37.37400 42.38500
C  -15.02300 38.49600 42.46000
C  -16.50300 38.11300 42.84500
C  -16.34100 36.58400 43.28300
C  -14.96600 36.28500 42.76800
C  -17.08900 39.02000 43.92700
C  -17.43800 35.59400 42.62100
C  -18.12700 34.69700 43.58700
N  -12.30000 35.29600 42.17000
C  -13.27100 34.45300 42.69000
C  -12.72700 33.16000 42.84100
C  -11.41700 33.19600 42.34100
C  -11.16900 34.58200 42.00400
C  -13.56900 31.92400 43.34600
C  -10.17800 32.47000 41.94800
O  -9.80900 31.31500 42.03500
C  -9.09900 33.55700 41.46800
C  -8.16100 33.63100 42.62900
O  -8.52600 34.01800 43.74700
O  -6.93600 33.18600 42.26400
C  -6.04500 32.96100 43.41700
H  -9.22700 40.26400 40.06500
H  -15.46900 40.43300 42.11800
H  -15.08100 34.27400 43.60000
H  -7.36000 35.99800 40.60300
H  -7.83600 38.44500 39.20200
H  -7.58700 39.50900 41.49300
H  -6.23100 38.88800 40.54500
H  -6.92800 37.86300 41.92300
H  -8.58400 36.82800 37.98800
H  -9.25000 35.28700 38.66200
H  -7.38300 34.35300 37.55900
H  -6.43600 34.95800 38.91900
H  -11.47300 43.19700 39.55800
H  -9.87700 42.34800 39.94700
H  -10.60900 43.48300 41.01500
H  -15.85700 42.37600 41.07700
H  -15.44600 43.90100 41.91100
H  -15.25000 42.33200 42.80700
H  -17.14700 38.16300 41.96700
H  -16.23700 36.48000 44.36300
H  -17.71900 39.78600 43.47400
H  -16.28100 39.46000 44.51300
H  -17.72000 38.38600 44.54900
H  -16.92500 34.94300 41.91300
H  -18.06600 36.22200 41.99000
H  -17.85600 33.66800 43.35000
H  -19.17700 34.98600 43.53300
H  -17.87900 35.01800 44.59800
H  -14.38000 31.63000 42.68000
H  -13.86700 31.95400 44.39400
H  -12.96600 31.01600 43.31700
H  -8.52900 33.38900 40.55400
H  -6.61200 32.36200 44.13100
H  -5.69500 33.94500 43.72700
H  -5.11300 32.44900 43.17900

