158

Mg 6.79600 55.08400 42.56500
C  6.20000 51.49900 42.00600
C  9.50100 54.73800 40.61300
C  6.79400 58.38800 42.45200
C  3.33100 55.08400 43.70700
N  7.70100 53.20700 41.51000
C  7.25100 51.97400 41.30600
C  8.23200 51.20800 40.45500
C  9.49100 52.11800 40.37700
C  8.89000 53.45500 40.86100
C  10.66200 51.61200 41.18100
C  7.59400 50.89100 39.08600
C  8.05500 49.57300 38.39400
H  7.09600 49.13300 37.27400
N  8.13600 56.39500 41.91200
C  9.15500 56.08200 41.08100
C  9.83000 57.27000 40.75900
C  9.16300 58.34400 41.33200
C  7.97600 57.74000 41.95900
C  11.10300 57.27300 39.93400
C  9.56100 59.83400 41.29800
O  10.48500 60.25900 40.63400
C  8.87400 60.82900 42.26300
N  5.26200 56.51500 42.93800
C  5.57600 57.85400 42.95900
C  4.30000 58.69800 43.17600
C  3.24100 57.67000 43.51200
C  3.96800 56.32100 43.47300
C  4.53100 59.84300 44.24500
C  1.97400 57.64600 42.60000
C  0.65800 57.57600 43.33500
N  5.15900 53.65700 42.99700
C  3.91400 53.79700 43.54800
C  3.44500 52.55800 43.92000
C  4.27800 51.61500 43.33400
C  5.29300 52.32000 42.72600
C  2.15500 52.26000 44.67600
C  4.45800 50.20700 43.11200
O  3.82000 49.26900 43.49600
C  5.74000 50.08200 42.21000
C  5.37900 49.30600 40.99800
O  4.86200 49.66500 40.00300
O  5.77800 48.04900 41.24300
C  5.68200 47.06000 40.23500
H  10.32800 54.75200 39.90000
H  6.76700 59.47700 42.38000
H  2.27800 55.11500 43.99400
H  8.51300 50.23200 40.85200
H  9.90300 52.25200 39.37600
H  11.55800 51.55400 40.56300
H  10.48400 50.72100 41.78300
H  10.95300 52.37900 41.89800
H  7.95000 51.72700 38.48400
H  6.51200 51.01900 39.09900
H  8.15600 48.73100 39.07800
H  9.04400 49.71700 37.96100
H  10.72800 57.36500 38.91500
H  11.68500 56.35700 40.02900
H  11.69700 58.15000 40.19300
H  8.58300 60.39800 43.22000
H  7.96100 61.10800 41.73800
H  9.44700 61.70300 42.57300
H  4.00200 59.10900 42.21200
H  3.02000 57.91500 44.55100
H  5.41600 59.66600 44.85600
H  3.68400 60.01400 44.90900
H  4.51700 60.77000 43.67100
H  2.05800 56.79000 41.93100
H  1.94800 58.62900 42.12900
H  0.10400 58.45500 43.00400
H  0.61800 57.56800 44.42400
H  0.11100 56.67900 43.04400
H  2.12400 51.46200 45.41700
H  1.53700 51.90000 43.85300
H  1.61500 53.12900 45.05200
H  6.39600 49.47100 42.83000
H  6.61000 47.03800 39.66600
H  4.92800 47.29200 39.48200
H  5.50700 46.05100 40.60900
Mg -6.40000 24.72400 26.71300
C  -4.65600 26.33700 29.38900
C  -7.82000 22.68500 29.23200
C  -7.96100 23.14400 24.23700
C  -4.59600 26.59000 24.43600
N  -6.20600 24.46700 29.12300
C  -5.49100 25.34100 29.91100
C  -5.80400 25.09200 31.39300
C  -6.52100 23.69500 31.29200
C  -7.01600 23.65300 29.82700
C  -5.85600 22.36000 31.81000
C  -6.73500 26.23500 32.03400
C  -6.27600 26.77500 33.33000
H  -5.84700 25.81100 34.40800
N  -7.68600 23.10600 26.75000
C  -8.17500 22.46700 27.88000
C  -9.28600 21.55900 27.47500
C  -9.34400 21.66000 26.03700
C  -8.30700 22.63400 25.61000
C  -10.12800 20.63400 28.40800
C  -10.09000 20.84400 25.01000
O  -10.06200 21.06300 23.78900
C  -10.87400 19.66200 25.52400
N  -6.38100 24.85100 24.56400
C  -7.20200 24.18700 23.79000
C  -6.75100 24.45000 22.27600
C  -5.70500 25.54200 22.42100
C  -5.55200 25.67800 23.91200
C  -6.35600 23.21000 21.49600
C  -6.07300 26.92100 21.85100
C  -5.55900 27.20900 20.44300
N  -4.93700 26.13000 26.79200
C  -4.29700 26.86100 25.79700
C  -3.38100 27.84500 26.41500
C  -3.55300 27.69500 27.74200
C  -4.47000 26.65800 27.98200
C  -2.48900 28.81800 25.72600
C  -3.05500 28.25300 29.00100
O  -2.19400 29.06500 29.22500
C  -3.84200 27.38900 30.09600
C  -2.82000 26.85600 31.06900
O  -1.94900 26.02700 30.78800
O  -3.10800 27.16500 32.35700
C  -2.16800 26.50900 33.34100
H  -8.29800 22.22600 30.10000
H  -8.39500 22.60400 23.39300
H  -4.22200 27.15600 23.58000
H  -4.81100 24.86400 31.78000
H  -7.35500 23.88400 31.96700
H  -5.16500 22.47100 32.64600
H  -5.22800 22.00400 30.99300
H  -6.47600 21.49800 32.05500
H  -7.76600 25.89200 32.12800
H  -6.82900 27.11600 31.40000
H  -7.14900 27.32100 33.68600
H  -5.44700 27.46200 33.16400
H  -11.17600 20.65700 28.11100
H  -10.30100 21.09300 29.38200
H  -9.82400 19.58900 28.46800
H  -10.27900 19.11000 26.25200
H  -11.18100 19.02500 24.69500
H  -11.71300 20.15300 26.01600
H  -7.68100 24.81700 21.84300
H  -4.78800 25.18300 21.95300
H  -7.00200 23.02700 20.63700
H  -6.12000 22.28400 22.02200
H  -5.39100 23.43600 21.04100
H  -5.74800 27.76500 22.46100
H  -7.16100 26.89400 21.79700
H  -6.35000 27.29000 19.69700
H  -4.84900 26.45900 20.09300
H  -5.12400 28.20900 20.44100
H  -1.54600 28.78600 26.27200
H  -2.87300 29.82700 25.87400
H  -2.33000 28.56900 24.67700
H  -4.51400 28.06300 30.62600
H  -2.44900 25.45600 33.31600
H  -2.28600 26.84600 34.37100
H  -1.16000 26.70700 32.97500

