158

Mg 25.82000 -6.70000 47.54500
C  26.85500 -3.53400 46.33700
C  22.75000 -6.08400 46.15100
C  25.09300 -9.75000 48.52000
C  29.24100 -7.43100 48.29000
N  24.95400 -5.04600 46.24300
C  25.50100 -3.84500 45.98800
C  24.53100 -2.91400 45.19100
C  23.13300 -3.66500 45.44200
C  23.62300 -5.05400 45.93700
C  22.31900 -3.07300 46.61300
C  24.89500 -2.76800 43.65100
C  24.83000 -1.31700 43.05400
H  25.93900 -0.92400 42.11300
N  24.13300 -7.79900 47.33500
C  23.00000 -7.34200 46.70700
C  22.07500 -8.47400 46.78100
C  22.69800 -9.52100 47.47400
C  24.02200 -9.11100 47.71700
C  20.75600 -8.45100 46.07700
C  22.06400 -10.94100 47.77800
O  20.91100 -11.10800 47.62800
C  22.77800 -12.13700 48.38400
N  27.00000 -8.35200 48.22100
C  26.40700 -9.39100 48.78800
C  27.36800 -10.20400 49.59000
C  28.75000 -9.78800 49.15500
C  28.34600 -8.45800 48.54500
C  27.05200 -10.25600 51.13100
C  29.47100 -10.80400 48.22200
C  30.95400 -11.22500 48.48800
N  27.72300 -5.74000 47.29600
C  28.96500 -6.17100 47.70600
C  29.90800 -5.13800 47.43300
C  29.16800 -4.01900 46.87300
C  27.83100 -4.46900 46.84300
C  31.36300 -5.15800 47.93900
C  29.15400 -2.69500 46.41800
O  30.06300 -1.89300 46.24100
C  27.66100 -2.38600 45.91800
C  27.32500 -1.11200 46.63200
O  27.23600 -0.99000 47.85800
O  26.95800 -0.09200 45.79100
C  26.61100 1.17000 46.47200
H  21.73500 -5.83300 45.83700
H  24.87900 -10.80700 48.69600
H  30.27000 -7.60800 48.61100
H  24.51800 -1.93000 45.65900
H  22.48800 -3.70900 44.56400
H  22.42200 -3.63500 47.54100
H  21.28800 -3.19000 46.27900
H  22.43600 -2.01100 46.82800
H  24.18300 -3.36500 43.08100
H  25.86200 -3.25700 43.52800
H  24.65300 -0.54400 43.80200
H  23.92400 -1.32600 42.44900
H  20.67100 -7.70100 45.29100
H  20.06600 -8.04800 46.81800
H  20.45500 -9.43300 45.71100
H  23.56600 -12.40500 47.68000
H  22.13900 -13.01300 48.49400
H  23.19700 -11.93200 49.36900
H  27.23100 -11.23300 49.25600
H  29.40400 -9.61100 50.00900
H  26.50200 -9.37800 51.46900
H  27.94500 -10.36200 51.74800
H  26.27600 -11.01700 51.20900
H  29.35700 -10.57500 47.16300
H  28.94900 -11.75100 48.35600
H  30.94800 -12.09400 49.14600
H  31.30800 -10.34200 49.02200
H  31.45700 -11.43800 47.54500
H  32.06100 -4.77400 47.19600
H  31.67300 -6.17800 48.16700
H  31.56900 -4.54500 48.81700
H  27.64700 -2.30400 44.83100
H  25.58300 1.12300 46.83100
H  26.55100 1.93200 45.69400
H  27.31900 1.37400 47.27500
Mg 25.72800 0.96400 28.58600
C  27.86700 1.03300 31.47200
C  23.10400 1.58200 30.82000
C  23.61300 0.30400 26.13800
C  28.50100 0.00900 26.78600
N  25.53600 1.19900 30.87300
C  26.57000 1.38300 31.79700
C  25.98100 1.60300 33.17600
C  24.42100 1.69800 32.96200
C  24.33300 1.47600 31.45400
C  23.65100 0.59600 33.71500
C  26.63800 2.95000 33.78500
C  25.82700 3.50500 35.05800
H  26.50300 3.93600 36.36300
N  23.60600 1.13600 28.47700
C  22.76200 1.37000 29.50200
C  21.42500 1.47700 28.92300
C  21.52300 1.13500 27.51900
C  22.91800 0.74400 27.32400
C  20.16600 1.91500 29.74900
C  20.49900 1.03200 26.47300
O  20.65300 0.54200 25.37400
C  19.24200 1.52800 26.79100
N  25.98500 0.21200 26.84700
C  24.97300 0.11800 25.90500
C  25.49300 -0.10700 24.44100
C  26.96800 0.15400 24.67700
C  27.15500 0.07000 26.16500
C  25.16000 -1.48100 23.80300
C  27.34800 1.59500 24.20700
C  27.72100 1.75000 22.70500
N  27.75400 0.44100 29.07100
C  28.68800 0.07200 28.18600
C  29.90400 -0.34200 28.87200
C  29.60300 0.14000 30.14700
C  28.26900 0.54100 30.24900
C  31.21100 -0.89300 28.32500
C  30.21300 0.33900 31.42300
O  31.35700 0.09800 31.78800
C  29.11600 0.94300 32.37700
C  29.04600 0.14700 33.61100
O  28.61600 -0.98800 33.76800
O  29.42000 0.96200 34.63700
C  29.54100 0.33200 35.99000
H  22.21500 1.77000 31.42600
H  22.98400 0.16900 25.25500
H  29.34100 -0.13900 26.10500
H  26.36200 0.79200 33.79700
H  24.22500 2.72400 33.27300
H  24.31300 -0.25100 33.89500
H  22.85700 0.32200 33.02100
H  23.18900 0.90900 34.65200
H  26.58900 3.69100 32.98800
H  27.67600 2.82600 34.09300
H  25.07400 2.76000 35.31600
H  25.34700 4.44000 34.76700
H  19.80700 2.91100 29.48800
H  20.31100 1.80500 30.82300
H  19.36400 1.20900 29.53500
H  18.71900 0.85200 27.46700
H  18.64800 1.57000 25.87800
H  19.32900 2.53400 27.20300
H  25.03700 0.61100 23.75800
H  27.65600 -0.54700 24.20600
H  26.10600 -2.01900 23.73000
H  24.61000 -1.43400 22.86300
H  24.58100 -2.00400 24.56400
H  28.23000 1.93700 24.74900
H  26.60800 2.32100 24.54300
H  27.21200 2.64800 22.35300
H  27.42500 0.91500 22.07000
H  28.80700 1.80800 22.63000
H  31.10500 -1.19800 27.28400
H  31.48000 -1.82200 28.82700
H  32.02300 -0.18000 28.47400
H  29.34200 1.97300 32.65400
H  28.54700 0.29500 36.43400
H  30.17800 1.04400 36.51500
H  29.95800 -0.66700 35.86800

