158

Mg 47.60200 15.20500 28.10000
C  45.53200 15.07800 30.94900
C  49.52300 17.45100 29.94900
C  49.54200 15.51400 25.45300
C  45.12100 13.60700 26.40700
N  47.48900 16.19000 30.20500
C  46.57900 15.94500 31.18000
C  46.89700 16.61900 32.51400
C  48.13500 17.51700 32.07900
C  48.44100 17.05300 30.66400
C  47.89600 19.02600 32.10000
C  47.06900 15.72700 33.86100
C  47.34300 16.56700 35.10000
H  48.61300 16.19900 36.01700
N  49.42400 16.16700 27.80700
C  50.03600 17.07700 28.63300
C  51.30000 17.52800 28.03500
C  51.35800 16.90900 26.79200
C  50.08900 16.14000 26.62700
C  52.25300 18.61800 28.60500
C  52.45400 17.06700 25.76000
O  52.41700 16.51700 24.64800
C  53.59800 18.00800 26.13000
N  47.26000 14.79800 26.15300
C  48.29800 14.82800 25.23000
C  47.81800 14.23100 23.91100
C  46.35000 13.68400 24.22100
C  46.24900 14.07500 25.72600
C  47.84200 15.21800 22.69400
C  46.18400 12.15000 23.85600
C  46.81300 11.13700 24.81200
N  45.59700 14.43500 28.55700
C  44.71400 13.79100 27.71400
C  43.55700 13.39200 28.49700
C  43.83100 14.02500 29.71600
C  45.14800 14.45500 29.75000
C  42.25300 12.70500 28.07800
C  43.28400 14.18300 31.04700
O  42.14200 13.85600 31.41900
C  44.40100 14.81700 31.93600
C  43.83700 16.05500 32.42300
O  43.66200 17.07400 31.78500
O  43.47200 15.90300 33.74800
C  42.98000 17.07000 34.45100
H  50.20800 18.10600 30.49200
H  50.03400 15.54500 24.47800
H  44.43100 13.03300 25.78500
H  46.14500 17.37000 32.75200
H  49.07100 17.34100 32.60900
H  48.38500 19.44400 32.98100
H  46.82600 19.23000 32.14000
H  48.27700 19.54400 31.22000
H  47.92300 15.11000 33.58300
H  46.18500 15.10300 33.99500
H  46.52700 16.60500 35.82200
H  47.53400 17.59200 34.78400
H  52.30900 19.58300 28.10100
H  53.23000 18.17300 28.79100
H  51.89900 18.88800 29.60000
H  53.20200 19.02200 26.20000
H  54.20900 17.95900 25.22900
H  54.32700 17.67300 26.86600
H  48.50500 13.41000 23.70800
H  45.64000 14.22800 23.59900
H  48.15600 16.18300 23.09100
H  46.86600 15.32200 22.22100
H  48.67400 14.99500 22.02600
H  46.51500 12.04100 22.82300
H  45.12900 11.87700 23.89000
H  47.11200 10.27200 24.22000
H  46.03200 10.77800 25.48200
H  47.69800 11.51800 25.32100
H  42.00100 12.92000 27.03900
H  41.37800 13.06100 28.62000
H  42.31600 11.63000 28.24100
H  44.63100 14.01100 32.63300
H  41.93800 16.84300 34.67500
H  43.02900 17.95400 33.81500
H  43.50500 17.19900 35.39700
Mg 37.13200 49.42300 25.28600
C  36.94800 47.62000 28.11200
C  36.03600 52.27500 26.90800
C  36.77700 51.05400 22.31500
C  37.89300 46.53600 23.46900
N  36.56100 49.88600 27.23700
C  36.65400 48.97800 28.32500
C  36.21100 49.54800 29.65600
C  35.71900 51.02700 29.21900
C  36.19500 51.14800 27.73000
C  34.24900 51.30300 29.48600
C  37.29400 49.53200 30.79100
C  36.84600 49.38900 32.26800
H  35.33400 49.44000 32.77400
N  36.62800 51.47500 24.73200
C  36.29200 52.47600 25.49500
C  36.13300 53.70900 24.69600
C  36.13400 53.30300 23.35500
C  36.57800 51.94000 23.41900
C  35.99200 55.06300 25.25900
C  35.89600 54.12100 22.12100
O  35.83200 53.59100 20.99700
C  35.57200 55.62400 22.21100
N  37.19200 48.86100 23.23200
C  37.14900 49.69600 22.25700
C  37.41900 49.01000 20.86300
C  37.93000 47.64200 21.23500
C  37.72000 47.70100 22.73500
C  36.14100 49.02300 19.94400
C  39.42300 47.35900 20.87500
C  39.68700 46.04000 20.08400
N  37.54200 47.45600 25.68600
C  37.70000 46.37000 24.85000
C  37.82400 45.20300 25.63100
C  37.50800 45.61800 26.94500
C  37.35500 47.00700 26.91300
C  38.20300 43.81600 25.14900
C  37.26700 45.17600 28.31500
O  37.18900 44.09100 28.77600
C  36.90000 46.45200 29.09000
C  35.53500 46.27500 29.70100
O  34.46200 46.31100 29.07000
O  35.63400 45.96100 31.02300
C  34.35400 45.43700 31.54000
H  35.59900 53.11000 27.45900
H  36.94900 51.54200 21.35300
H  38.15400 45.57400 23.02300
H  35.29700 48.99900 29.88300
H  36.23000 51.87300 29.67800
H  33.88300 50.64400 30.27400
H  33.66300 51.13400 28.58200
H  34.08800 52.34300 29.76900
H  37.86100 50.45500 30.66900
H  38.01200 48.78500 30.45400
H  37.33000 50.19900 32.81400
H  37.27800 48.44300 32.59500
H  36.84200 55.73200 25.12900
H  35.86700 55.15300 26.33800
H  35.11300 55.52200 24.80500
H  34.58200 55.68100 22.66300
H  35.58600 56.15900 21.26100
H  36.42800 56.05200 22.73200
H  38.19900 49.47400 20.25900
H  37.27200 46.84200 20.89600
H  36.09400 49.81900 19.20200
H  35.23000 49.21100 20.51300
H  36.00000 48.04800 19.47700
H  39.97700 47.25500 21.80800
H  39.79800 48.16100 20.23800
H  40.07100 46.29300 19.09600
H  38.69900 45.59900 19.94800
H  40.41000 45.51400 20.70700
H  37.36500 43.27100 24.71500
H  38.53000 43.28000 26.04000
H  39.06800 43.84900 24.48600
H  37.62200 46.66800 29.87700
H  34.12800 44.39900 31.29500
H  33.43700 46.00200 31.37300
H  34.33300 45.42800 32.62900

