158

Mg 0.51600 7.55000 26.26900
C  1.58200 9.40800 29.00000
C  0.85300 4.69000 28.25400
C  0.07200 5.71200 23.54000
C  0.21300 10.44600 24.47600
N  1.00700 7.06700 28.32200
C  1.30400 8.07100 29.29000
C  1.24200 7.42300 30.67100
C  1.39800 5.85400 30.41100
C  1.04100 5.84400 28.87800
C  2.72500 5.14600 30.70100
C  0.01900 7.91700 31.49900
C  0.39200 8.29200 33.00900
H  1.12700 7.26800 33.79100
N  0.32100 5.45000 25.94600
C  0.49800 4.43100 26.90000
C  0.42500 3.16400 26.16200
C  0.12300 3.40500 24.82700
C  0.14000 4.92500 24.70800
C  0.66400 1.84100 26.87100
C  -0.14400 2.45100 23.74600
O  -0.20300 2.80500 22.59200
C  -0.27400 0.95900 23.98200
N  0.42100 8.00500 24.25600
C  0.09300 7.10600 23.32400
C  -0.41700 7.78200 22.01800
C  -0.58400 9.25800 22.45400
C  0.03800 9.26300 23.82600
C  0.58800 7.59100 20.90900
C  -2.05100 9.85800 22.41800
C  -2.89200 9.60000 21.16600
N  0.93200 9.56000 26.62300
C  0.74300 10.62000 25.79300
C  1.12600 11.82100 26.41600
C  1.52700 11.40300 27.71400
C  1.42900 10.02700 27.71400
C  1.18400 13.22800 25.81000
C  2.13000 11.71900 29.03100
O  2.42700 12.79300 29.54500
C  2.03800 10.44700 29.88400
C  3.34300 10.20100 30.56200
O  4.23800 9.40200 30.29000
O  3.34900 10.93100 31.73200
C  4.38700 10.73000 32.72400
H  0.99500 3.77000 28.82500
H  0.09900 5.25200 22.54900
H  0.05100 11.30400 23.82000
H  2.15800 7.65100 31.21700
H  0.56900 5.30800 30.86200
H  2.66000 4.56000 31.61700
H  3.48500 5.89800 30.91600
H  3.15400 4.55200 29.89400
H  -0.62400 7.03700 31.52500
H  -0.59500 8.64600 30.97200
H  -0.60000 8.56400 33.37100
H  0.95000 9.22400 33.09600
H  1.34800 1.22500 26.28700
H  -0.22200 1.24900 27.09700
H  1.30700 2.00300 27.73700
H  -0.38900 0.41900 23.04300
H  -1.20400 0.70800 24.49200
H  0.69800 0.60400 24.32700
H  -1.36800 7.28100 21.83500
H  -0.00300 9.92400 21.81700
H  1.60200 7.52000 21.30400
H  0.57500 8.49100 20.29400
H  0.24700 6.74700 20.31000
H  -1.95700 10.91300 22.67500
H  -2.61300 9.46700 23.26600
H  -2.50600 8.92500 20.40200
H  -2.97200 10.58500 20.70600
H  -3.88800 9.31000 21.49800
H  1.63900 13.89500 26.54200
H  0.16600 13.49600 25.52700
H  1.74100 13.17100 24.87500
H  1.27700 10.68400 30.62800
H  4.22900 9.98500 33.50400
H  4.50300 11.67100 33.26100
H  5.34100 10.39500 32.31600
Mg 29.24200 58.87700 41.10300
C  26.08300 57.45600 40.46800
C  30.80600 56.20100 39.67500
C  32.04900 60.62600 41.39000
C  27.44700 61.95800 41.79800
N  28.48500 57.11100 40.04300
C  27.16300 56.66700 40.01900
C  27.10000 55.36700 39.26400
C  28.59200 54.94000 39.18100
C  29.38500 56.15400 39.64800
C  28.94300 53.73000 40.04200
C  26.40700 55.66100 37.85400
C  25.08900 55.02300 37.42300
H  25.03000 54.40500 36.05900
N  31.19200 58.43600 40.63300
C  31.67400 57.26100 40.11800
C  33.17100 57.41000 40.06100
C  33.52900 58.73300 40.56300
C  32.22800 59.31000 40.94700
C  34.09900 56.42500 39.39900
C  35.00600 59.23500 40.71000
O  35.84900 58.42200 40.53600
C  35.36400 60.61900 41.06900
N  29.64100 61.01000 41.27500
C  30.88000 61.38900 41.57900
C  30.89500 62.90100 41.94400
C  29.42000 63.34500 41.78900
C  28.75100 62.03200 41.56600
C  31.57300 63.30600 43.28000
C  29.24200 64.49500 40.75800
C  28.42500 65.64400 41.35800
N  27.21900 59.57000 41.23800
C  26.67400 60.82400 41.54600
C  25.23000 60.73600 41.64700
C  24.93700 59.44200 41.27200
C  26.21200 58.77100 41.01200
C  24.30800 61.78900 41.80500
C  23.85800 58.52700 41.03600
O  22.63000 58.69600 41.13900
C  24.58300 57.16300 40.46800
C  24.25000 56.09600 41.48600
O  24.62800 56.15400 42.62300
O  23.69900 54.96700 40.89600
C  23.68100 53.75700 41.74300
H  31.26600 55.23700 39.44700
H  32.98700 61.08900 41.70400
H  26.93600 62.89300 42.03500
H  26.46000 54.63100 39.75000
H  28.87300 54.60200 38.18400
H  29.96100 53.58100 40.40300
H  28.61900 52.73400 39.74000
H  28.26400 53.69100 40.89400
H  27.10200 55.42600 37.04800
H  26.21000 56.73200 37.82400
H  24.39700 55.86400 37.37000
H  24.79800 54.29600 38.18000
H  33.58400 55.46400 39.38900
H  34.96500 56.23800 40.03400
H  34.40000 56.71900 38.39400
H  35.01600 61.32800 40.31800
H  36.43900 60.78400 41.14200
H  35.02700 60.82100 42.08500
H  31.53500 63.33400 41.17500
H  28.96000 63.62300 42.73800
H  31.91700 62.39400 43.76900
H  30.84100 63.76000 43.94800
H  32.45800 63.89800 43.04500
H  28.75900 64.05600 39.88500
H  30.16500 64.94200 40.39100
H  28.99800 66.54000 41.12100
H  28.21300 65.67300 42.42600
H  27.48500 65.61700 40.80700
H  24.39600 62.49800 40.98200
H  24.51500 62.26000 42.76600
H  23.26900 61.46200 41.81800
H  24.12700 56.85200 39.52800
H  22.62700 53.55000 41.93100
H  24.30400 53.77800 42.63700
H  24.17300 53.00700 41.12500

