158

Mg 47.90400 35.70400 28.40600
C  46.18600 33.63400 30.56400
C  47.86800 38.16000 30.83700
C  49.22300 37.76100 26.17400
C  47.79600 33.14100 25.90500
N  47.36600 35.76800 30.49700
C  46.70600 34.77000 31.18600
C  46.79500 34.98600 32.64900
C  46.70700 36.59800 32.64000
C  47.39400 36.87900 31.27300
C  45.21000 37.10800 32.64400
C  48.11800 34.44400 33.24900
C  47.97400 33.87800 34.66600
H  47.25800 34.85700 35.64800
N  48.54300 37.73200 28.50300
C  48.37600 38.53400 29.55600
C  48.99000 39.79900 29.22400
C  49.39400 39.78500 27.87400
C  49.15400 38.37200 27.46300
C  49.07500 40.91800 30.25100
C  49.99500 40.88200 27.00600
O  50.17400 40.71500 25.79800
C  50.26600 42.20700 27.62800
N  48.14000 35.56600 26.20800
C  48.87500 36.60800 25.64200
C  49.51900 36.14400 24.32100
C  49.11700 34.61800 24.21700
C  48.24400 34.41100 25.47000
C  49.23500 36.98600 23.03700
C  50.36800 33.77300 24.21000
C  50.69600 33.00300 22.85100
N  47.16700 33.80600 28.20400
C  47.16000 32.88200 27.16000
C  46.53200 31.62500 27.65400
C  45.96900 31.96500 28.92600
C  46.47900 33.26300 29.23700
C  46.38100 30.47400 26.84300
C  45.17500 31.45300 29.95500
O  44.69800 30.33100 30.14100
C  45.20500 32.56200 31.08000
C  45.54700 32.01500 32.40100
O  46.48500 31.28100 32.66600
O  44.57500 32.49200 33.30400
C  44.57100 32.15900 34.71500
H  47.69300 38.86800 31.65000
H  49.71500 38.39800 25.43600
H  47.91200 32.30500 25.21200
H  45.94300 34.61000 33.21600
H  47.23300 37.14200 33.42400
H  44.50100 36.28100 32.61300
H  45.18300 37.76000 31.77100
H  44.90300 37.72000 33.49200
H  48.93900 35.16100 33.27100
H  48.55100 33.66300 32.62300
H  48.96400 33.95500 35.11700
H  47.64200 32.84400 34.57400
H  50.10900 41.26400 30.26100
H  48.71600 40.60700 31.23200
H  48.51100 41.81500 29.99600
H  50.85100 42.76000 26.89400
H  50.89300 42.24600 28.51800
H  49.37000 42.79300 27.83700
H  50.59600 36.24700 24.45700
H  48.49000 34.57400 23.32600
H  48.65900 37.87400 23.29900
H  48.82200 36.53600 22.13400
H  50.18700 37.37100 22.67200
H  50.24400 33.05700 25.02300
H  51.25100 34.37000 24.44000
H  50.61500 31.92400 22.98500
H  51.71100 33.19800 22.50500
H  50.05700 33.17000 21.98300
H  46.81900 30.54800 25.84800
H  45.31800 30.29300 26.68200
H  46.61200 29.54400 27.36300
H  44.20700 32.99900 31.13300
H  43.58400 31.73900 34.90800
H  44.46900 33.05500 35.32700
H  45.45300 31.54000 34.88300
Mg 16.83000 51.80100 25.79500
C  18.64400 50.11100 28.30200
C  14.77500 53.10700 28.17700
C  14.73600 52.78100 23.23700
C  18.76100 50.15500 23.44500
N  16.67700 51.57500 27.98400
C  17.53400 50.84800 28.79600
C  16.98300 50.78800 30.22200
C  15.74100 51.79500 30.23400
C  15.69000 52.19400 28.72700
C  14.44100 51.17100 30.82800
C  18.01700 51.31200 31.32100
C  17.74300 50.76300 32.72100
H  16.94400 51.60300 33.66500
N  15.12500 52.98200 25.73300
C  14.46100 53.51700 26.82900
C  13.32300 54.22300 26.39200
C  13.30000 54.20300 24.95500
C  14.41100 53.27000 24.55200
C  12.23800 54.71600 27.34800
C  12.54700 55.01200 23.92000
O  12.86600 54.98600 22.75200
C  11.40300 55.83100 24.44800
N  16.74600 51.56400 23.61100
C  15.80600 52.08900 22.84700
C  16.05300 51.63900 21.34200
C  17.51500 51.05300 21.37400
C  17.71400 50.90000 22.88600
C  15.04500 50.60300 20.77700
C  18.66500 51.80600 20.67300
C  19.90400 52.33300 21.36000
N  18.36200 50.41100 25.84500
C  19.05600 49.86700 24.78200
C  20.15900 49.03700 25.26300
C  20.04000 49.09000 26.63300
C  18.94300 49.96000 26.94000
C  21.17500 48.29800 24.39600
C  20.62500 48.65400 27.90300
O  21.62300 47.99000 28.12200
C  19.76300 49.30600 29.06500
C  19.36300 48.23300 30.06700
O  18.64100 47.33000 29.85400
O  19.97200 48.48200 31.28600
C  19.54500 47.56200 32.36000
H  14.17400 53.46400 29.01600
H  13.98400 52.87100 22.45000
H  19.51000 49.86000 22.70700
H  16.81300 49.72300 30.38500
H  15.90800 52.69100 30.83100
H  14.73400 50.32600 31.45200
H  13.74500 50.90000 30.03400
H  14.04200 51.87000 31.56300
H  18.10800 52.39700 31.36900
H  19.02500 50.89900 31.27300
H  18.70300 50.67400 33.23000
H  17.19300 49.82500 32.65900
H  11.39200 54.02800 27.36200
H  12.01200 55.77100 27.19500
H  12.56700 54.73400 28.38600
H  10.59600 56.11300 23.77200
H  11.67000 56.71300 25.03100
H  10.91700 55.26600 25.24400
H  16.02800 52.49200 20.66400
H  17.61200 50.03500 20.99800
H  14.08000 50.54000 21.28000
H  15.41900 49.59200 20.61800
H  14.85900 50.85200 19.73200
H  18.26200 52.65800 20.12600
H  19.12300 51.12500 19.95600
H  19.91400 52.24700 22.44600
H  20.00300 53.36700 21.03100
H  20.80100 51.81200 21.02500
H  20.68900 47.95800 23.48200
H  21.54200 47.40400 24.90100
H  22.06700 48.88300 24.16900
H  20.29500 50.10000 29.59100
H  18.73200 47.98100 32.95200
H  20.35900 47.51100 33.08300
H  19.33500 46.56500 31.97100

