158

Mg 8.16000 2.54500 27.11400
C  9.74300 1.51600 30.05900
C  6.11500 4.52200 29.15400
C  6.98900 3.86100 24.33000
C  9.97400 0.14700 25.27500
N  7.84800 2.86300 29.40800
C  8.81700 2.46700 30.39600
C  8.45800 3.09100 31.77200
C  7.14800 3.94600 31.46000
C  6.94000 3.73100 29.93300
C  5.90800 3.45100 32.18800
C  9.65500 3.87500 32.40700
C  9.28500 4.45500 33.78100
H  10.26400 4.31300 34.88300
N  6.70600 3.96100 26.71000
C  5.98500 4.66400 27.68800
C  5.15000 5.68400 26.99700
C  5.48000 5.52500 25.57300
C  6.39200 4.40700 25.47900
C  4.32700 6.68500 27.63200
C  5.02100 6.39600 24.40900
O  5.24200 6.16500 23.21300
C  4.38000 7.71100 24.63200
N  8.32700 1.93700 25.07900
C  7.82900 2.75200 24.17500
C  8.18700 2.23300 22.76300
C  9.33300 1.15000 23.01600
C  9.14400 0.98200 24.50700
C  6.96200 1.50600 22.07100
C  10.69500 1.73300 22.62000
C  11.81200 0.73800 22.13100
N  9.52000 1.02400 27.56000
C  10.15600 0.14200 26.70500
C  11.22600 -0.53400 27.43100
C  10.98300 -0.11300 28.78500
C  10.00800 0.93100 28.76500
C  12.37900 -1.37800 26.87000
C  11.58700 -0.07000 30.06600
O  12.52300 -0.74000 30.48200
C  10.84300 0.93700 30.94700
C  10.34500 0.13800 32.10700
O  9.37900 -0.53800 32.17500
O  11.20800 0.35800 33.22400
C  10.84000 -0.01500 34.57300
H  5.70100 5.40300 29.65000
H  6.77900 4.37500 23.39000
H  10.72600 -0.36900 24.67400
H  8.31300 2.29700 32.50400
H  7.27600 5.00400 31.68700
H  5.31900 4.23400 32.66600
H  6.21100 2.83100 33.03200
H  5.14200 3.03800 31.53200
H  10.03900 4.66200 31.75800
H  10.43500 3.14500 32.62200
H  8.25000 4.27200 34.06800
H  9.40400 5.53200 33.66800
H  3.35900 6.58900 27.14000
H  4.76600 7.66400 27.44300
H  4.36500 6.54100 28.71200
H  5.07000 8.34800 25.18500
H  3.38200 7.63600 25.06500
H  4.20400 8.18200 23.66500
H  8.52000 3.01300 22.07700
H  9.18500 0.18300 22.53600
H  6.02800 1.88500 22.48500
H  6.96400 0.42500 22.21100
H  6.99700 1.77500 21.01600
H  11.10500 2.13800 23.54500
H  10.56700 2.60400 21.97800
H  12.15900 0.78300 21.09800
H  11.38200 -0.26300 22.17900
H  12.67000 0.83700 22.79700
H  13.10800 -0.77300 26.33200
H  11.99400 -1.90900 26.00000
H  12.78500 -2.15300 27.52200
H  11.56200 1.71500 31.20500
H  10.71900 0.95600 35.05200
H  11.64900 -0.52900 35.09200
H  9.87700 -0.51100 34.69100
Mg 47.91400 25.63600 27.98000
C  48.82200 27.51600 30.64200
C  47.39700 22.93700 30.20900
C  47.56000 23.43200 25.31000
C  49.18100 27.90000 25.76600
N  48.05000 25.29400 30.17200
C  48.27500 26.32600 31.06200
C  48.01000 25.90500 32.52500
C  47.60900 24.40000 32.44000
C  47.70700 24.15300 30.89000
C  48.43700 23.45000 33.36400
C  47.14700 26.94200 33.29500
C  46.27700 26.40100 34.48600
H  46.11600 27.32200 35.73400
N  47.43400 23.50900 27.80400
C  47.24700 22.64500 28.81600
C  47.03900 21.32500 28.24500
C  46.97100 21.40900 26.90100
C  47.36200 22.80300 26.61100
C  46.80200 20.17000 29.10400
C  46.58900 20.40400 25.86100
O  46.84100 20.58500 24.68400
C  45.94700 19.12500 26.34500
N  48.47900 25.59400 25.86700
C  48.02400 24.66500 24.92100
C  47.99200 25.10800 23.51400
C  48.56900 26.52800 23.64100
C  48.77900 26.69500 25.23000
C  48.67400 24.22500 22.48700
C  47.77400 27.65400 22.96900
C  47.39200 27.47900 21.45100
N  48.82100 27.33200 28.13200
C  49.22700 28.27800 27.13500
C  49.70800 29.43000 27.76600
C  49.54000 29.23800 29.08100
C  49.04800 27.90600 29.32800
C  50.24800 30.66700 27.03200
C  49.70600 29.86900 30.36700
O  50.20800 30.92800 30.71900
C  49.16500 28.78800 31.44800
C  50.24900 28.46800 32.46200
O  50.97800 27.47700 32.61600
O  50.15200 29.47900 33.42300
C  50.99900 29.39300 34.57300
H  47.19400 22.15600 30.94400
H  47.31100 22.81700 24.44200
H  49.46000 28.64000 25.01300
H  48.94500 26.09100 33.05400
H  46.56800 24.22400 32.71200
H  47.81900 22.97200 34.12500
H  49.17000 24.06200 33.89000
H  48.97500 22.64000 32.87100
H  46.53200 27.50100 32.59000
H  47.90000 27.55800 33.78700
H  46.83000 25.55600 34.89600
H  45.27700 26.30300 34.06300
H  46.84100 20.46700 30.15200
H  47.50300 19.36000 28.89800
H  45.81600 19.75200 28.90200
H  45.02400 19.29900 26.89900
H  46.65300 18.56900 26.96200
H  45.62300 18.60200 25.44600
H  46.91800 25.03700 23.34300
H  49.55800 26.66200 23.20400
H  48.84700 23.25200 22.94700
H  49.59400 24.70600 22.15400
H  48.04600 24.05900 21.61200
H  48.36500 28.56500 23.05600
H  46.89100 27.68800 23.60700
H  46.38100 27.08500 21.34100
H  48.11900 26.83200 20.95900
H  47.27100 28.43000 20.93200
H  49.96300 30.58200 25.98300
H  51.31100 30.79300 27.23600
H  49.69400 31.49200 27.47900
H  48.41900 29.36100 31.99800
H  50.50400 28.69700 35.25000
H  51.17700 30.37500 35.01200
H  51.84100 28.82600 34.17600

