158

Mg 15.71200 -1.50200 28.16500
C  14.55800 0.49100 30.86300
C  17.89600 -3.10600 30.38300
C  16.66300 -3.43200 25.68800
C  13.88500 0.51000 26.00000
N  16.24200 -1.21900 30.33700
C  15.52300 -0.45200 31.23500
C  16.08600 -0.67700 32.70500
C  17.15300 -1.82900 32.50800
C  17.13200 -2.05100 30.93800
C  18.57500 -1.52800 33.04400
C  14.93900 -1.11600 33.72000
C  15.09500 -0.73500 35.18700
H  16.35300 -0.07400 35.76600
N  17.17500 -2.99100 28.01100
C  17.85000 -3.57600 29.07700
C  18.73300 -4.59600 28.48300
C  18.24900 -4.89800 27.15200
C  17.32700 -3.75000 26.89400
C  19.69100 -5.32500 29.36700
C  18.51800 -5.96400 26.12700
O  17.71800 -6.13100 25.19800
C  19.41900 -7.09700 26.54400
N  15.37300 -1.49300 26.14700
C  15.83900 -2.42400 25.33500
C  15.43200 -2.15200 23.85000
C  14.49500 -0.88500 23.96900
C  14.57000 -0.63000 25.50200
C  16.58200 -1.95300 22.81500
C  13.06700 -1.02200 23.38100
C  11.90500 -1.65900 24.15400
N  14.37000 0.09300 28.37500
C  13.74600 0.81500 27.32700
C  12.95900 1.81000 27.97200
C  13.28400 1.79700 29.37000
C  14.11600 0.74300 29.52500
C  12.19600 2.85900 27.22200
C  13.05600 2.44700 30.62900
O  12.37700 3.42700 30.83400
C  13.70500 1.47700 31.70200
C  14.49000 2.38800 32.56400
O  15.58200 2.91500 32.35400
O  13.77800 2.68800 33.66200
C  14.38900 3.59000 34.65500
H  18.59000 -3.52600 31.11400
H  16.85800 -4.00800 24.78100
H  13.29800 1.10300 25.29600
H  16.54500 0.29700 32.87200
H  16.94800 -2.74900 33.05500
H  18.41300 -0.60500 33.60200
H  19.27900 -1.25800 32.25700
H  18.82500 -2.43000 33.60200
H  15.03600 -2.19900 33.65000
H  14.00400 -0.80700 33.25400
H  14.87800 -1.65700 35.72700
H  14.30500 -0.02100 35.42100
H  20.65900 -5.56000 28.92600
H  19.25800 -6.24200 29.76900
H  19.92600 -4.71500 30.23900
H  19.35600 -7.95900 25.88000
H  19.12900 -7.46900 27.52700
H  20.45300 -6.76600 26.45600
H  14.80000 -2.93900 23.43700
H  15.04600 -0.05900 23.51900
H  17.47500 -1.93000 23.44000
H  16.46100 -1.19600 22.04000
H  16.62400 -2.88700 22.25400
H  13.05900 -1.60400 22.45900
H  12.61900 -0.07100 23.09300
H  12.14000 -2.20600 25.06700
H  11.39500 -2.37300 23.50800
H  11.32100 -0.84100 24.57600
H  12.67700 3.14700 26.28700
H  12.02700 3.65700 27.94500
H  11.19600 2.46700 27.03500
H  12.96000 0.96300 32.31000
H  14.36500 4.61600 34.28700
H  15.45400 3.39100 34.77000
H  13.78100 3.64100 35.55800
Mg 47.48200 16.44800 28.61100
C  45.43300 16.67500 31.34900
C  50.05400 17.85500 30.53100
C  49.31800 17.07300 25.76500
C  44.90900 15.27200 26.66600
N  47.64500 17.25300 30.66400
C  46.72100 17.04400 31.64100
C  47.31000 17.27100 33.02300
C  48.76900 17.83300 32.76100
C  48.82300 17.71400 31.18300
C  48.81400 19.32900 33.23900
C  47.21600 16.05900 33.99000
C  47.08700 16.48100 35.46400
H  47.15800 17.97800 35.95400
N  49.44300 17.33000 28.18100
C  50.34500 17.72800 29.14200
C  51.58000 18.22100 28.46800
C  51.32500 18.17600 27.05800
C  49.94100 17.55200 26.95200
C  52.72200 18.83900 29.31200
C  52.10800 18.66900 25.87100
O  51.71300 18.54400 24.74900
C  53.45400 19.20500 26.05300
N  47.28600 15.86000 26.53000
C  48.13900 16.22000 25.53200
C  47.60800 15.78700 24.14300
C  46.19800 15.18300 24.45600
C  46.09300 15.46700 25.95300
C  47.40600 16.92000 23.12800
C  45.88000 13.79300 23.95000
C  45.26900 13.67600 22.59600
N  45.58600 16.12700 28.83700
C  44.60000 15.57800 28.01000
C  43.29300 15.43700 28.71500
C  43.59400 15.85600 30.07100
C  44.94300 16.30900 30.05300
C  42.01200 14.88000 28.09400
C  43.12400 15.96700 31.45000
O  42.01700 15.71600 31.97000
C  44.30300 16.46300 32.35200
C  43.98100 17.67100 33.02700
O  43.97500 18.83500 32.70400
O  43.57700 17.30100 34.29100
C  42.77800 18.26300 35.10900
H  50.83100 18.26000 31.18200
H  49.75100 17.20400 24.77100
H  44.14300 14.82500 26.03000
H  46.70100 18.08700 33.41300
H  49.52100 17.25900 33.30200
H  48.42000 19.37200 34.25400
H  48.21400 19.85400 32.49500
H  49.87300 19.58700 33.28400
H  48.13500 15.47800 33.90600
H  46.37400 15.42000 33.72400
H  47.74100 15.82500 36.03900
H  46.07000 16.17200 35.70600
H  52.63700 18.59800 30.37200
H  52.55000 19.91100 29.21100
H  53.69900 18.55000 28.92400
H  54.01000 18.42100 26.56700
H  53.41100 20.14800 26.59800
H  54.11100 19.38000 25.20000
H  48.33100 15.08100 23.73600
H  45.39800 15.80300 24.05100
H  46.38300 17.24400 22.93400
H  47.67300 16.38700 22.21600
H  48.03300 17.80800 23.20200
H  45.28200 13.32400 24.73100
H  46.78700 13.19400 23.86600
H  45.36100 14.60100 22.02800
H  44.18300 13.73900 22.66300
H  45.65100 12.82800 22.02800
H  41.91900 15.35900 27.11900
H  41.19300 15.28500 28.68900
H  41.95300 13.79900 27.96600
H  44.40300 15.66200 33.08400
H  43.45100 19.05800 35.43300
H  42.50200 17.71800 36.01200
H  41.94100 18.73200 34.59200

