158

Mg -2.43500 17.17100 26.50500
C  -2.96000 14.98500 29.31500
C  -3.03500 19.83000 28.63800
C  -2.26100 19.05700 23.81600
C  -2.39200 14.29800 24.36100
N  -2.84600 17.38200 28.74800
C  -2.99500 16.34600 29.69200
C  -3.26000 17.00200 31.06400
C  -3.06500 18.51900 30.92200
C  -3.00700 18.64000 29.35700
C  -3.99000 19.48900 31.56700
C  -2.50700 16.27400 32.31300
C  -2.35000 17.15600 33.57900
H  -1.80100 16.51000 34.82000
N  -2.61700 19.12600 26.24100
C  -2.90000 20.10800 27.19100
C  -2.80400 21.46000 26.59900
C  -2.41600 21.24200 25.22500
C  -2.42600 19.77100 25.01100
C  -3.00700 22.73200 27.35300
C  -2.10000 22.20600 24.13900
O  -1.99600 21.96400 22.94500
C  -1.88800 23.71200 24.42000
N  -2.43000 16.72400 24.35900
C  -2.24300 17.69500 23.46900
C  -2.30300 17.12800 22.00900
C  -2.11200 15.60600 22.23000
C  -2.35100 15.52800 23.76900
C  -3.44700 17.63900 21.11200
C  -0.67200 14.98500 21.86200
C  0.58500 15.58300 22.52000
N  -2.43200 15.09500 26.77500
C  -2.58900 14.04700 25.79000
C  -2.81400 12.78600 26.46400
C  -2.85300 13.18600 27.81900
C  -2.64600 14.54600 27.97100
C  -2.98000 11.37100 25.98600
C  -3.11700 12.59500 29.19200
O  -3.44000 11.48300 29.59000
C  -3.08200 13.77000 30.15400
C  -1.95500 13.49100 31.08300
O  -0.75000 13.76200 30.91000
O  -2.45200 12.83300 32.19200
C  -1.48800 12.50400 33.27900
H  -3.04700 20.67100 29.33500
H  -2.23700 19.74000 22.96400
H  -2.46200 13.32300 23.87300
H  -4.31500 16.86600 31.30100
H  -2.04600 18.77300 31.21400
H  -4.51100 20.18600 30.91000
H  -3.47000 20.12200 32.28500
H  -4.74300 18.89000 32.07900
H  -1.54400 15.90700 31.95700
H  -3.15000 15.44700 32.61400
H  -3.30900 17.62500 33.80100
H  -1.51800 17.81800 33.33900
H  -3.25600 22.49100 28.38700
H  -3.81300 23.30700 26.89600
H  -2.12400 23.37100 27.34000
H  -1.10700 23.94300 25.14500
H  -2.84600 24.03600 24.82600
H  -1.64800 24.28800 23.52700
H  -1.42300 17.51000 21.49100
H  -2.97600 15.10800 21.79000
H  -4.11200 16.83900 20.78800
H  -2.98500 18.14000 20.26200
H  -4.14700 18.21100 21.72100
H  -0.53600 15.11800 20.78800
H  -0.72800 13.91500 22.05700
H  0.22800 16.27700 23.28200
H  1.24300 16.09200 21.81600
H  1.16900 14.77900 22.96800
H  -4.00100 11.00500 26.09600
H  -2.30200 10.67500 26.47900
H  -2.73100 11.26200 24.93000
H  -3.98300 13.83700 30.76400
H  -0.96900 11.56500 33.08600
H  -2.07700 12.38000 34.18800
H  -0.80200 13.33400 33.44400
Mg 26.88300 49.71800 26.10200
C  24.68700 50.88900 28.83000
C  28.91800 48.61600 28.49900
C  28.84200 49.11400 23.63100
C  24.66700 51.52900 23.98600
N  26.84800 49.92500 28.33200
C  25.84500 50.28300 29.22500
C  26.14600 49.81700 30.65600
C  27.65300 49.47700 30.58100
C  27.85700 49.29100 29.04400
C  28.65700 50.53200 31.18800
C  25.15100 48.70600 31.11600
C  24.22200 49.17400 32.20300
H  24.16800 48.41300 33.54100
N  28.67100 48.91800 26.07600
C  29.29700 48.41700 27.16500
C  30.46700 47.77100 26.67200
C  30.50100 47.94000 25.29000
C  29.30800 48.68800 24.92200
C  31.40200 47.05900 27.55800
C  31.47100 47.41300 24.23600
O  31.34200 47.61400 23.01400
C  32.65300 46.53700 24.57900
N  26.84000 50.36300 24.19300
C  27.75800 49.91100 23.27800
C  27.40000 50.18900 21.81600
C  25.99400 50.69100 21.91500
C  25.77300 50.90900 23.46600
C  28.43700 51.15200 21.18600
C  24.92600 49.71300 21.36700
C  23.95400 50.36300 20.50200
N  25.17400 51.14900 26.29700
C  24.41200 51.72900 25.33400
C  23.30500 52.30100 25.92300
C  23.40500 52.09300 27.28000
C  24.55700 51.31300 27.45900
C  22.20800 53.05800 25.30400
C  22.63100 52.29400 28.56000
O  21.63700 52.94200 28.76600
C  23.46700 51.49300 29.53800
C  23.86100 52.41100 30.67300
O  24.95000 52.94700 30.81300
O  22.80400 52.37300 31.56800
C  22.99000 53.01700 32.87000
H  29.46700 48.07500 29.27200
H  29.53500 48.86800 22.82300
H  23.96300 51.98100 23.28500
H  26.05600 50.69700 31.29300
H  27.85800 48.50000 31.02100
H  29.41200 50.00000 31.76800
H  28.08800 51.25500 31.77200
H  29.12000 51.11400 30.39200
H  25.70000 47.81800 31.42800
H  24.60900 48.39300 30.22300
H  23.23700 49.02400 31.76200
H  24.28200 50.22200 32.49700
H  32.37400 47.51500 27.36600
H  31.40200 46.01000 27.26400
H  31.21000 47.17100 28.62500
H  33.13000 46.11800 23.69300
H  32.26800 45.72500 25.19600
H  33.38900 47.09300 25.16000
H  27.51700 49.27700 21.23000
H  25.86600 51.71400 21.56100
H  29.31400 51.16500 21.83300
H  27.98500 52.11700 20.95800
H  28.85600 50.68600 20.29400
H  24.37600 49.17800 22.14000
H  25.24900 48.81900 20.83300
H  24.07400 50.02500 19.47300
H  23.95600 51.43400 20.30100
H  22.94500 50.12200 20.83500
H  22.67500 53.95500 24.89800
H  21.48700 53.37800 26.05600
H  21.67300 52.43400 24.58900
H  22.89800 50.63100 29.88600
H  22.04600 52.82600 33.37900
H  23.03000 54.10600 32.90300
H  23.78200 52.53200 33.44100

