158

Mg 47.26400 25.01400 27.63100
C  48.12000 27.26200 30.13700
C  46.55600 22.72400 30.06500
C  46.24300 23.02500 25.21700
C  48.57000 27.28800 25.25200
N  47.46900 25.00900 29.84800
C  47.61500 26.09500 30.62400
C  47.41500 25.70700 32.10200
C  47.29600 24.17200 32.05700
C  47.12600 23.88800 30.52600
C  48.35300 23.30300 32.72400
C  46.22100 26.43900 32.73300
C  45.60900 25.93400 34.12100
H  45.38400 26.97800 35.20300
N  46.55400 23.01600 27.64800
C  46.30200 22.25200 28.74400
C  45.76000 21.00100 28.27400
C  45.56100 21.16900 26.85900
C  46.19800 22.43500 26.49400
C  45.35200 19.84300 29.20600
C  44.79900 20.22900 25.94200
O  44.58400 20.51700 24.76000
C  44.18900 18.97600 26.37700
N  47.49400 25.08000 25.55100
C  46.88700 24.16700 24.80300
C  46.91100 24.56800 23.33200
C  47.67900 25.94400 23.28600
C  47.97600 26.11300 24.77800
C  47.47700 23.44800 22.41600
C  46.81700 27.06900 22.76300
C  47.54400 28.12600 21.96200
N  48.23700 26.85200 27.63300
C  48.73100 27.64900 26.60300
C  49.36400 28.86800 27.22800
C  49.11200 28.71600 28.57000
C  48.50100 27.47500 28.82700
C  50.10300 29.96800 26.54500
C  49.18000 29.42700 29.87000
O  49.61900 30.53000 30.13900
C  48.41800 28.53900 30.93800
C  49.24300 28.37300 32.21400
O  50.31300 27.87000 32.40000
O  48.54000 29.05900 33.19500
C  49.10300 29.26400 34.49400
H  46.33500 21.95500 30.80700
H  45.84500 22.45600 24.37400
H  48.88800 27.87900 24.39000
H  48.31200 26.03100 32.63000
H  46.34900 23.91200 32.52900
H  49.07000 23.96500 33.21000
H  48.73100 22.59300 31.98800
H  47.83700 22.72500 33.49000
H  45.49000 26.47100 31.92400
H  46.37200 27.50400 32.90600
H  46.25600 25.20000 34.60200
H  44.60000 25.53400 34.01600
H  44.32100 19.52900 29.04300
H  45.32200 20.06200 30.27300
H  46.06200 19.05600 28.95300
H  43.97800 18.25800 25.58400
H  43.24700 19.00000 26.92400
H  44.93400 18.48300 27.00200
H  45.85000 24.64100 23.09300
H  48.57500 25.84000 22.67500
H  48.29000 22.97400 22.96600
H  47.95300 24.02800 21.62500
H  46.72300 22.72100 22.11300
H  46.35800 27.50900 23.64900
H  46.06800 26.64400 22.09500
H  48.54600 27.81100 21.66900
H  47.68200 28.97100 22.63700
H  47.10600 28.38600 20.99800
H  49.55100 30.29200 25.66200
H  51.10400 29.71500 26.19700
H  50.06100 30.83200 27.20900
H  47.53500 29.04900 31.32300
H  49.17000 30.32800 34.72000
H  50.13500 28.91600 34.47300
H  48.65000 28.79000 35.36500
Mg -11.62400 38.10700 41.39200
C  -9.36400 35.45700 40.32800
C  -9.50600 40.29800 39.64600
C  -13.78300 40.59500 41.74600
C  -13.81300 35.70700 42.45300
N  -9.63500 37.86700 40.06500
C  -8.97300 36.74100 39.81100
C  -7.58600 37.03800 39.08500
C  -7.55400 38.57800 38.98900
C  -8.98700 38.95700 39.54700
C  -6.42600 39.25900 39.75100
C  -7.49300 36.25700 37.70900
C  -5.96700 35.89600 37.36500
H  -5.58500 35.90500 35.85200
N  -11.63500 40.16800 40.85500
C  -10.69000 40.90000 40.19400
C  -11.08000 42.23100 40.04500
C  -12.37100 42.35900 40.67100
C  -12.67900 41.01700 41.12400
C  -10.34200 43.38900 39.38400
C  -13.26800 43.66500 40.60100
O  -12.78600 44.75300 40.19000
C  -14.71700 43.62600 41.05100
N  -13.61000 38.02300 41.75600
C  -14.20800 39.28600 42.09300
C  -15.53700 39.02300 42.91400
C  -15.60200 37.43000 42.86500
C  -14.26400 37.03200 42.36100
C  -15.77300 39.68800 44.27100
C  -16.78400 36.89300 42.00600
C  -18.16500 37.18100 42.37800
N  -11.64300 35.97500 41.43000
C  -12.56600 35.21800 41.96300
C  -12.00000 33.86100 42.15500
C  -10.78000 33.90100 41.51100
C  -10.60800 35.21100 41.07000
C  -12.58500 32.87100 42.98300
C  -9.53100 33.21800 41.21900
O  -9.13900 32.09800 41.42700
C  -8.65100 34.14600 40.31500
C  -7.23700 34.17100 40.72900
O  -6.41000 33.49900 40.08900
O  -7.01200 35.18000 41.67300
C  -5.64900 35.24700 42.21800
H  -8.82300 40.97100 39.12400
H  -14.52200 41.27800 42.16900
H  -14.40600 34.93000 42.94200
H  -6.76300 36.69700 39.71400
H  -7.56400 38.93600 37.96000
H  -5.79400 38.54900 40.28500
H  -6.84100 39.86700 40.55500
H  -5.83000 39.92000 39.12200
H  -7.75500 36.98100 36.93800
H  -8.15400 35.39200 37.66600
H  -5.66900 34.87600 37.60800
H  -5.24000 36.40000 38.00200
H  -10.96300 43.73400 38.55800
H  -9.46000 42.97700 38.89300
H  -10.00800 44.25900 39.95000
H  -14.95500 43.34700 42.07700
H  -15.35800 43.02100 40.41000
H  -15.29400 44.53600 40.89100
H  -16.27300 39.49600 42.26400
H  -15.79000 37.10000 43.88700
H  -16.43800 39.07100 44.87600
H  -16.24300 40.66300 44.14100
H  -14.73800 39.82100 44.58700
H  -16.72800 35.81400 41.86200
H  -16.66800 37.44400 41.07200
H  -18.77100 36.27600 42.41000
H  -18.54700 37.70100 41.50000
H  -18.22300 37.75700 43.30100
H  -12.00500 31.94900 42.94100
H  -13.57200 32.63200 42.58700
H  -12.63900 33.17700 44.02700
H  -8.62600 33.73700 39.30500
H  -5.81000 35.55700 43.25100
H  -5.17800 36.07900 41.69600
H  -5.05700 34.33200 42.19500

