158

Mg 8.93800 3.63100 27.99900
C  10.06100 1.92100 30.86800
C  7.12000 5.86400 30.00800
C  7.47100 5.03400 25.27000
C  10.13100 1.06900 25.97900
N  8.58800 3.72900 30.11400
C  9.24600 3.02900 31.12400
C  9.08400 3.75800 32.42900
C  8.07900 4.89800 32.22400
C  7.87900 4.82400 30.67100
C  6.69400 4.80000 33.05000
C  10.40800 4.13600 33.18800
C  10.69400 3.54200 34.59000
H  11.37900 4.42400 35.67200
N  7.62500 5.34300 27.68300
C  7.00800 6.11100 28.60400
C  6.29600 7.19100 27.97600
C  6.27800 6.86400 26.62200
C  7.19600 5.74000 26.43500
C  5.58200 8.28200 28.72500
C  5.39800 7.45800 25.52100
O  5.38500 6.99000 24.42300
C  4.44600 8.68600 25.78100
N  8.92400 3.13900 25.93100
C  8.30500 3.94100 24.97600
C  8.29300 3.28600 23.60200
C  9.22500 2.04100 23.73100
C  9.40300 2.05700 25.29600
C  6.81600 2.89000 23.21800
C  10.53400 2.12200 22.97800
C  10.63300 1.17000 21.78700
N  9.94700 1.87500 28.31300
C  10.38100 0.94800 27.43500
C  11.02900 -0.09600 28.09900
C  10.93000 0.19400 29.44000
C  10.21600 1.41300 29.54300
C  11.67700 -1.26500 27.39000
C  11.36700 -0.15000 30.84500
O  12.00300 -1.06500 31.24900
C  10.73900 0.96800 31.78500
C  9.85700 0.28500 32.78500
O  8.79100 -0.22500 32.56000
O  10.38800 0.31500 34.06400
C  9.63200 -0.41400 35.07300
H  6.55100 6.44300 30.73800
H  7.13100 5.47400 24.33100
H  10.53000 0.24300 25.38800
H  8.66200 3.02100 33.11200
H  8.56200 5.84900 32.45000
H  6.44800 5.81400 33.36500
H  6.92400 4.23800 33.95500
H  5.87900 4.37700 32.46300
H  10.33800 5.21300 33.33800
H  11.26800 3.92300 32.55400
H  11.47400 2.78300 34.53900
H  9.77300 3.09400 34.96500
H  4.50000 8.21100 28.60600
H  5.92800 9.22300 28.29900
H  5.87100 8.35300 29.77300
H  3.78500 8.88400 24.93700
H  5.02500 9.58100 26.01000
H  3.80600 8.61900 26.66000
H  8.36000 4.04000 22.81800
H  8.72500 1.09500 23.52300
H  6.12900 3.26400 23.97800
H  6.68800 1.81000 23.15300
H  6.61500 3.40100 22.27700
H  11.32800 1.73600 23.61800
H  10.67300 3.09700 22.51300
H  11.03500 1.60300 20.87100
H  9.68700 0.72300 21.48000
H  11.27000 0.30800 21.98700
H  11.11500 -1.67600 26.55100
H  11.92600 -2.10900 28.03200
H  12.58300 -0.82100 26.97600
H  11.58500 1.42000 32.30200
H  10.13900 -1.34500 35.32400
H  8.61000 -0.64800 34.77500
H  9.49300 0.21600 35.95200
Mg 41.04400 41.14500 27.39600
C  40.56500 43.59800 29.79000
C  41.85900 38.89500 29.90800
C  42.08300 39.02500 25.09200
C  40.05800 43.33700 24.94600
N  41.27800 41.32500 29.60000
C  40.91700 42.37800 30.42300
C  40.85700 41.90800 31.91500
C  41.39400 40.40600 31.87500
C  41.52600 40.18100 30.35500
C  42.70200 40.19100 32.71700
C  39.56000 42.21100 32.57400
C  39.21300 41.55100 33.89000
H  38.64100 42.42400 34.98100
N  41.91300 39.23800 27.54200
C  42.05300 38.38900 28.64800
C  42.50700 37.11400 28.22800
C  42.84000 37.22400 26.82200
C  42.31700 38.59000 26.45400
C  42.70300 36.02000 29.25100
C  43.40500 36.17100 25.88300
O  43.61400 36.45900 24.65000
C  43.62600 34.82900 26.39500
N  41.19600 41.25200 25.30400
C  41.52400 40.22000 24.61000
C  41.37900 40.35600 23.08900
C  40.48500 41.62500 23.06900
C  40.54300 42.13400 24.51300
C  42.59200 40.46000 22.08800
C  39.04300 41.50900 22.54000
C  38.19200 40.53400 23.37300
N  40.59400 43.14600 27.36000
C  40.17000 43.92300 26.24300
C  39.88700 45.29200 26.73000
C  40.07500 45.10300 28.08000
C  40.49700 43.83900 28.42600
C  39.55500 46.47600 25.89300
C  40.04900 45.90100 29.35800
O  39.77400 47.09900 29.57400
C  40.20300 44.85100 30.47100
C  41.37200 45.25000 31.21300
O  42.51700 45.13000 30.81100
O  41.08400 45.49300 32.54600
C  42.28400 45.83500 33.34100
H  41.83000 38.19900 30.74900
H  42.35900 38.28800 24.33500
H  39.53400 44.03100 24.28700
H  41.60000 42.59000 32.32900
H  40.71100 39.63400 32.22600
H  42.50600 40.08000 33.78300
H  43.49100 40.90000 32.46300
H  43.19200 39.24100 32.50400
H  38.69400 41.91000 31.98400
H  39.68800 43.28900 32.67300
H  40.10100 41.04400 34.26800
H  38.52900 40.71000 33.77700
H  43.75200 35.73100 29.31200
H  42.29300 35.19000 28.67600
H  42.20100 36.14500 30.21100
H  44.08000 34.27700 25.57200
H  42.74100 34.33600 26.79800
H  44.38800 34.92800 27.16800
H  40.80300 39.46800 22.83100
H  40.88400 42.37600 22.38700
H  43.45900 40.76400 22.67600
H  42.28600 41.04200 21.21800
H  42.78700 39.49300 21.62500
H  39.05200 40.99600 21.57800
H  38.65100 42.52100 22.43900
H  37.62100 39.80200 22.80300
H  37.49300 41.19400 23.88500
H  38.77800 39.97800 24.10500
H  40.46200 46.65700 25.31500
H  39.28700 47.32900 26.51600
H  38.76000 46.26200 25.17900
H  39.31600 44.79900 31.10200
H  43.09500 45.13000 33.16200
H  41.95200 45.67900 34.36800
H  42.67700 46.84700 33.25200

