158

Mg 48.46100 45.37100 42.29900
C  45.14300 45.73900 41.01700
C  48.37900 42.06200 41.29200
C  51.79800 45.48300 42.25200
C  48.39300 48.81500 43.04400
N  46.82900 44.05400 41.42300
C  45.61100 44.44400 40.97400
C  44.94800 43.30500 40.28100
C  45.87500 42.04000 40.70600
C  47.11300 42.71600 41.12600
C  45.34500 41.05600 41.75500
C  44.79300 43.50500 38.73100
C  43.67300 42.69800 38.01200
H  44.11000 41.45900 37.21700
N  49.91900 43.95800 41.88700
C  49.67900 42.69000 41.56000
C  50.93700 41.92500 41.45300
C  51.97900 42.90200 41.74900
C  51.27800 44.15600 42.02300
C  51.09900 40.47700 41.21300
C  53.42700 42.55900 41.87500
O  53.84700 41.41800 41.72600
C  54.42800 43.64900 42.16100
N  49.92500 46.96300 42.52700
C  51.26200 46.71100 42.47300
C  52.06800 47.96700 42.71900
C  50.96700 49.01400 43.20000
C  49.68300 48.22800 42.87800
C  53.26200 47.79400 43.79800
C  51.27400 50.45900 42.71800
C  51.23400 51.50500 43.76600
N  47.04000 46.96300 42.18000
C  47.18300 48.25500 42.51700
C  45.92000 48.91700 42.27500
C  45.05200 47.97100 41.67000
C  45.79300 46.82000 41.65900
C  45.51800 50.31300 42.55700
C  43.81200 47.73400 41.06200
O  42.91600 48.52100 40.77400
C  43.83000 46.28800 40.42000
C  42.48600 45.63300 40.84500
O  41.61500 45.23100 40.11400
O  42.55400 45.35900 42.13000
C  41.30600 44.95900 42.75500
H  48.33600 41.07700 40.82300
H  52.88800 45.52000 42.20900
H  48.39400 49.85800 43.36800
H  43.99300 43.22800 40.80200
H  45.94300 41.46100 39.78500
H  44.49000 41.55700 42.20900
H  46.08300 40.93100 42.54700
H  45.04100 40.09800 41.33200
H  45.72600 43.16900 38.27900
H  44.77600 44.57400 38.52000
H  43.08100 43.31900 37.33900
H  43.02500 42.30100 38.79300
H  51.65100 40.31500 40.28700
H  50.11800 40.00300 41.24700
H  51.67200 39.93200 41.96200
H  54.49100 44.44600 41.42000
H  55.43600 43.29200 42.36900
H  54.07700 44.00600 43.13000
H  52.44900 48.29800 41.75200
H  51.00200 49.01900 44.28900
H  53.40900 46.75200 44.08000
H  53.06300 48.34100 44.72000
H  54.10500 48.14700 43.20400
H  50.67900 50.71300 41.84100
H  52.21500 50.58400 42.18200
H  51.69900 51.16300 44.69100
H  50.22000 51.86300 43.94400
H  51.84900 52.37500 43.53700
H  46.27000 51.02900 42.22300
H  45.50000 50.32900 43.64700
H  44.50600 50.62600 42.30200
H  43.74300 46.35500 39.33600
H  40.41400 45.02900 42.13200
H  41.22400 45.40700 43.74600
H  41.53200 43.90300 42.90600
Mg 36.82000 48.12900 24.58300
C  37.02000 46.14800 27.47600
C  35.69300 50.80500 26.48000
C  36.45400 49.86300 21.82600
C  37.80900 45.30600 22.67400
N  36.40400 48.39300 26.66800
C  36.65400 47.52600 27.69600
C  36.34000 48.13300 29.09600
C  35.85600 49.57500 28.70500
C  36.02000 49.63100 27.18800
C  34.41700 49.76900 29.16200
C  37.48700 48.13700 30.11600
C  37.09500 47.65900 31.53900
H  35.63700 47.73500 32.04400
N  36.23200 50.09600 24.19800
C  35.70500 51.04300 25.11400
C  35.36100 52.27200 24.43400
C  35.50600 52.01700 23.00200
C  36.11200 50.61000 22.92800
C  34.88900 53.51400 25.08800
C  35.28600 53.01300 21.92500
O  35.54600 52.75500 20.77900
C  34.92800 54.42100 22.14400
N  36.84100 47.56400 22.46900
C  36.83600 48.54100 21.50400
C  37.09200 47.95600 20.07100
C  37.68200 46.51900 20.48300
C  37.46800 46.44500 21.98100
C  35.90800 48.01300 19.10800
C  39.07000 46.22500 19.97400
C  40.14400 46.94700 20.75500
N  37.36300 46.19200 24.99100
C  37.75800 45.14200 24.07900
C  38.07000 43.96100 24.90300
C  37.75400 44.28400 26.25000
C  37.33500 45.67500 26.20000
C  38.48600 42.59800 24.33300
C  37.60900 43.83100 27.62500
O  37.71600 42.67200 28.05400
C  37.14800 45.05300 28.51200
C  35.77900 44.63800 29.10500
O  34.70800 44.62300 28.51600
O  35.96000 44.17200 30.40900
C  34.92200 43.33100 30.91500
H  35.23600 51.56400 27.11800
H  36.38200 50.55000 20.98000
H  38.10700 44.41500 22.11600
H  35.54900 47.50000 29.49800
H  36.57500 50.34500 28.98400
H  34.05300 49.34500 30.09800
H  33.88900 49.41700 28.27600
H  34.26300 50.84700 29.11800
H  37.96700 49.11300 30.18600
H  38.28500 47.47000 29.79100
H  37.72000 48.14700 32.28700
H  37.45000 46.63200 31.61600
H  35.63700 54.30600 25.14500
H  34.60800 53.26500 26.11200
H  33.96600 53.95700 24.71500
H  33.90500 54.53200 22.50400
H  35.04200 54.94400 21.19500
H  35.60700 54.80200 22.90700
H  37.96800 48.50300 19.72100
H  36.98400 45.77400 20.10000
H  34.99400 48.19000 19.67600
H  35.93400 47.07000 18.56300
H  36.04200 48.83900 18.41000
H  39.13200 46.48600 18.91800
H  39.22200 45.14900 20.06700
H  40.96300 47.26100 20.10700
H  40.64900 46.30000 21.47300
H  39.82700 47.82400 21.31800
H  38.57400 42.58700 23.24700
H  37.73500 41.87000 24.63800
H  39.36700 42.30800 24.90700
H  37.89100 45.27500 29.27800
H  34.58000 42.65300 30.13400
H  34.22500 43.96500 31.46300
H  35.44300 42.76500 31.68700

