158

Mg 8.46100 4.50500 27.99800
C  9.77000 2.89300 30.74000
C  6.61500 6.45200 30.12700
C  7.05100 5.90700 25.27400
C  10.15600 2.24500 25.92200
N  8.12600 4.55300 30.25000
C  8.87500 3.91500 31.18400
C  8.58900 4.41500 32.61900
C  7.41400 5.51400 32.34100
C  7.37200 5.51900 30.77400
C  6.09400 5.15400 33.08300
C  9.88000 5.07000 33.25800
C  9.54200 5.77000 34.55700
H  10.37400 5.24700 35.81400
N  6.98700 5.94700 27.79100
C  6.40900 6.67300 28.79200
C  5.41800 7.61100 28.20200
C  5.65900 7.56700 26.76500
C  6.61000 6.46200 26.53900
C  4.53800 8.55500 29.06000
C  4.90900 8.27600 25.67300
O  5.12300 8.13900 24.47700
C  3.68600 9.10100 25.98800
N  8.43900 3.99200 25.89400
C  7.85100 4.80900 24.97200
C  8.20700 4.37500 23.52700
C  9.33900 3.35400 23.71700
C  9.31400 3.09500 25.26500
C  7.02000 3.98400 22.64000
C  10.69600 3.82100 23.23400
C  11.66200 2.61400 22.85900
N  9.71100 2.92300 28.24000
C  10.31600 2.06100 27.33800
C  11.08600 1.05400 27.97700
C  10.96700 1.35200 29.40300
C  10.12900 2.55300 29.43300
C  11.85900 -0.01100 27.27100
C  11.33900 0.99500 30.62300
O  12.17800 0.14100 30.96600
C  10.64000 1.95200 31.57300
C  9.88000 1.15800 32.60300
O  8.92300 0.42000 32.41000
O  10.45900 1.48900 33.82800
C  9.82600 0.98800 35.04000
H  6.19500 7.18300 30.82200
H  6.68000 6.37100 24.35700
H  10.74800 1.67600 25.20300
H  8.34300 3.55500 33.24200
H  7.73300 6.53500 32.54800
H  5.34400 4.92800 32.32400
H  5.85400 6.10300 33.56100
H  6.20800 4.31100 33.76500
H  10.37500 5.74600 32.56200
H  10.51100 4.19800 33.43100
H  8.48900 5.67200 34.81900
H  9.58300 6.85800 34.51900
H  4.79000 8.68700 30.11200
H  3.52000 8.17600 28.97000
H  4.60500 9.51000 28.53900
H  2.90200 8.55200 26.51000
H  3.27100 9.57500 25.09900
H  3.94600 9.94200 26.63100
H  8.58900 5.31000 23.11700
H  9.00200 2.41300 23.28200
H  6.17400 4.12800 23.31200
H  7.10700 2.89800 22.68400
H  6.95900 4.27900 21.59300
H  11.26900 4.41000 23.95000
H  10.63500 4.51000 22.39200
H  11.72900 2.74300 21.77900
H  11.27500 1.62400 23.09900
H  12.65900 2.80500 23.25600
H  12.78700 0.45800 26.94600
H  11.26600 -0.38300 26.43500
H  12.11900 -0.79600 27.98100
H  11.40600 2.49600 32.12500
H  10.63400 0.82300 35.75300
H  9.15800 0.12700 34.99400
H  9.21800 1.80800 35.42400
Mg -5.71300 25.61900 26.16300
C  -4.78800 27.20800 29.22400
C  -7.67800 23.61900 27.96600
C  -6.44700 24.11000 23.37600
C  -3.35400 27.64000 24.55300
N  -6.11200 25.45200 28.29900
C  -5.69100 26.17800 29.37600
C  -6.37400 25.73900 30.65900
C  -7.05600 24.34300 30.32600
C  -6.92600 24.40700 28.71900
C  -6.41600 23.12300 30.93600
C  -7.35800 26.68700 31.34700
C  -7.09800 26.97800 32.84200
H  -6.49000 25.92200 33.74900
N  -6.90700 24.05300 25.71300
C  -7.76300 23.43200 26.58400
C  -8.74400 22.56100 25.87900
C  -8.28100 22.68700 24.53900
C  -7.17400 23.63200 24.48200
C  -10.06400 21.96500 26.42500
C  -8.81500 21.99800 23.31700
O  -8.36700 22.23800 22.16900
C  -10.06500 21.13400 23.40300
N  -4.92400 25.79400 24.30200
C  -5.42600 25.08800 23.26700
C  -4.68200 25.30600 21.96900
C  -3.58200 26.43700 22.30000
C  -3.92100 26.63000 23.83600
C  -4.12000 24.03600 21.37600
C  -3.79600 27.69700 21.34800
C  -3.13300 27.46900 19.96900
N  -4.32900 27.14000 26.64600
C  -3.44400 27.94100 25.88900
C  -2.92700 28.97500 26.73900
C  -3.39200 28.77300 28.08300
C  -4.23600 27.61900 28.02000
C  -1.98000 30.12400 26.30100
C  -3.29000 29.14200 29.51500
O  -2.54800 29.99300 30.02400
C  -4.25800 28.25500 30.26300
C  -3.41200 27.65800 31.37400
O  -2.48300 26.87000 31.19200
O  -3.85100 28.10900 32.60000
C  -2.91700 27.75700 33.68400
H  -8.33500 22.92800 28.49800
H  -6.63400 23.74400 22.36400
H  -2.67100 28.38900 24.14700
H  -5.55800 25.69100 31.38000
H  -8.10000 24.22000 30.61300
H  -6.28700 22.46800 30.07400
H  -7.13100 22.80100 31.69300
H  -5.42700 23.26100 31.37300
H  -8.36700 26.28900 31.23700
H  -7.27900 27.56500 30.70600
H  -8.04200 27.27800 33.29800
H  -6.43700 27.83300 32.98300
H  -10.96900 22.35400 25.95800
H  -10.31900 22.21400 27.45500
H  -9.99700 20.87800 26.44800
H  -9.82400 20.43700 24.20600
H  -10.21600 20.64500 22.44100
H  -11.02600 21.52500 23.73500
H  -5.43400 25.84200 21.39000
H  -2.61600 25.93400 22.25000
H  -3.07400 24.26000 21.16400
H  -4.61600 23.74400 20.45000
H  -4.19500 23.19100 22.05900
H  -3.44300 28.57600 21.88600
H  -4.86000 27.89200 21.21500
H  -3.36500 28.38800 19.43000
H  -3.69600 26.64000 19.54200
H  -2.04900 27.37500 19.89800
H  -2.12600 30.32100 25.23900
H  -1.00000 29.65000 26.34900
H  -2.02700 30.99700 26.95200
H  -5.06000 28.91600 30.59400
H  -2.39900 26.80000 33.62000
H  -3.45300 27.91500 34.62000
H  -2.12500 28.50500 33.66000

