158

Mg -2.04400 17.49100 26.73800
C  -2.15500 15.53600 29.75200
C  -2.48400 20.32400 28.82400
C  -2.10000 19.56800 23.93100
C  -2.02900 14.73500 24.85000
N  -2.50300 17.81300 29.09300
C  -2.37100 16.88400 30.06400
C  -2.66300 17.53000 31.46600
C  -2.96600 19.01100 31.04000
C  -2.55400 19.10600 29.55300
C  -4.45800 19.41500 31.30700
C  -1.49000 17.42200 32.44000
C  -1.82900 17.03100 33.84100
H  -0.68700 16.80800 34.84300
N  -2.05000 19.60600 26.40500
C  -2.24700 20.56500 27.39300
C  -2.18900 21.87200 26.76900
C  -1.98200 21.71100 25.40900
C  -2.11500 20.23400 25.17200
C  -2.46700 23.16900 27.47300
C  -1.85900 22.77200 24.24000
O  -1.68000 22.55800 23.06600
C  -1.78900 24.24000 24.60100
N  -2.21300 17.23900 24.73600
C  -2.21800 18.17300 23.73300
C  -2.50700 17.54400 22.35000
C  -2.23600 16.00100 22.60900
C  -2.12000 15.99700 24.18100
C  -3.92800 17.89500 21.80400
C  -0.96100 15.44100 21.90800
C  0.37100 15.96600 22.43900
N  -2.11100 15.55600 27.12300
C  -2.02800 14.45800 26.22200
C  -2.06000 13.19200 26.95100
C  -2.05400 13.57600 28.30400
C  -2.07200 14.99400 28.37800
C  -2.02800 11.85900 26.36100
C  -2.05700 13.00500 29.64700
O  -1.98500 11.83800 29.99400
C  -2.21400 14.25700 30.66700
C  -1.01500 13.99300 31.58100
O  0.19500 14.13800 31.33000
O  -1.45400 13.50000 32.72600
C  -0.50700 13.41700 33.91100
H  -2.54500 21.19300 29.48200
H  -2.11900 20.13500 22.99700
H  -1.94800 13.88000 24.17600
H  -3.47200 16.92500 31.87400
H  -2.32200 19.72000 31.56200
H  -4.61000 20.30200 31.92200
H  -5.09400 18.58600 31.61800
H  -5.01600 19.78600 30.44700
H  -1.29200 18.47500 32.64100
H  -0.61800 16.92800 32.01000
H  -2.49700 16.18800 34.02500
H  -2.37000 17.90200 34.21100
H  -2.54100 23.02800 28.55100
H  -3.37300 23.68600 27.15300
H  -1.69300 23.93100 27.38000
H  -0.93800 24.47000 25.24200
H  -2.76500 24.39500 25.06100
H  -1.83600 24.73500 23.63100
H  -1.82000 18.06600 21.68300
H  -3.08800 15.32400 22.54300
H  -3.89400 18.55600 20.93800
H  -4.67200 18.26800 22.50700
H  -4.29000 16.90500 21.52600
H  -1.14700 15.45600 20.83400
H  -0.92500 14.37100 22.11200
H  0.30800 16.76300 23.17900
H  0.88600 16.37900 21.57200
H  0.96700 15.25500 23.01000
H  -2.06800 11.03700 27.07600
H  -1.09600 11.82400 25.79700
H  -2.85300 11.79600 25.65000
H  -3.07800 14.15100 31.32300
H  -1.14400 13.30000 34.78800
H  0.04800 14.34000 34.07600
H  0.23900 12.62700 33.81700
Mg 45.00000 3.44200 47.03300
C  42.74800 5.98100 46.47100
C  42.51500 1.08600 46.99500
C  47.33500 0.85800 47.41000
C  47.61400 5.55900 46.25100
N  42.89400 3.58700 46.53800
C  42.09600 4.73400 46.51200
C  40.62300 4.38600 46.28300
C  40.66000 2.87900 46.64300
C  42.13500 2.42800 46.65300
C  39.85400 2.54000 47.91600
C  40.17300 4.67400 44.83700
C  38.76200 5.33200 44.65300
H  38.03300 4.97800 43.41600
N  44.91300 1.33100 47.23000
C  43.80200 0.56100 47.28100
C  44.07100 -0.78100 47.70300
C  45.44900 -0.85000 47.96600
C  45.98000 0.51500 47.55400
C  42.99500 -1.83600 47.96800
C  46.25300 -2.09300 48.49400
O  45.64300 -3.18400 48.63300
C  47.77600 -2.03300 48.94400
N  47.15200 3.17200 46.56100
C  47.86200 2.08300 46.94400
C  49.35200 2.30000 46.87800
C  49.47200 3.78200 46.46200
C  48.00700 4.22600 46.45700
C  50.12800 1.90800 48.17900
C  50.29800 3.99400 45.10500
C  51.71400 4.54900 45.29800
N  45.19600 5.38500 46.52800
C  46.33300 6.17700 46.25500
C  45.93600 7.59000 46.19700
C  44.55800 7.53700 46.35400
C  44.18300 6.18500 46.42000
C  46.76000 8.81000 45.98900
C  43.34800 8.37000 46.40400
O  43.19200 9.59500 46.53700
C  42.11400 7.38900 46.52800
C  41.34500 7.62500 47.82100
O  41.80700 7.77900 48.95600
O  40.04700 7.69400 47.41000
C  39.07000 8.09100 48.41000
H  41.73100 0.32600 46.99100
H  48.15700 0.16300 47.59400
H  48.39400 6.28300 46.00700
H  39.99900 4.98400 46.94800
H  40.15100 2.41000 45.80100
H  39.07600 3.22300 48.25700
H  40.58100 2.53900 48.72800
H  39.36600 1.56800 47.84800
H  40.24600 3.80100 44.18900
H  40.97000 5.28600 44.41400
H  38.87100 6.41600 44.68600
H  38.11500 4.99000 45.46200
H  43.14300 -2.15000 49.00100
H  42.99500 -2.57100 47.16300
H  42.06000 -1.27600 47.95400
H  48.36300 -2.15900 48.03500
H  47.92900 -2.88500 49.60600
H  47.87200 -1.14900 49.57500
H  49.74800 1.66300 46.08700
H  49.86100 4.46700 47.21500
H  50.84800 2.67500 48.46300
H  50.67000 0.96800 48.07700
H  49.41000 1.70300 48.97200
H  49.82900 4.72000 44.44100
H  50.30900 3.07000 44.52700
H  52.39600 4.06600 44.59800
H  52.05000 4.35300 46.31600
H  51.79100 5.62600 45.15000
H  47.80500 8.50000 45.98500
H  46.42200 9.60500 46.65400
H  46.58100 9.11700 44.95800
H  41.44200 7.45600 45.67200
H  39.19800 7.59700 49.37400
H  38.01800 7.98300 48.14600
H  39.14800 9.16300 48.59300

