158

Mg 7.50800 3.23200 28.08700
C  8.93800 1.75000 30.92600
C  5.59600 5.19400 30.29000
C  5.71500 4.22600 25.46500
C  9.20800 0.86400 26.05400
N  7.17000 3.34500 30.40200
C  8.05500 2.82000 31.27900
C  7.84600 3.49400 32.64700
C  6.40900 4.20400 32.57900
C  6.41400 4.25400 30.97500
C  5.27900 3.25300 33.09300
C  9.00500 4.39400 33.06000
C  10.02200 4.02300 34.17900
H  10.12600 4.95200 35.41700
N  5.95800 4.60400 27.86400
C  5.38700 5.33000 28.87600
C  4.41700 6.18700 28.25400
C  4.52400 6.09500 26.84200
C  5.44700 4.94700 26.68700
C  3.52400 7.04200 29.14100
C  3.85300 6.86400 25.75000
O  4.14700 6.57500 24.64200
C  2.88000 7.91500 26.03600
N  7.39700 2.57800 26.13700
C  6.65800 3.25000 25.18300
C  6.97500 2.73100 23.76400
C  8.10100 1.71000 23.97100
C  8.30200 1.76800 25.44700
C  5.68200 2.19500 23.09300
C  9.45200 2.06600 23.26200
C  10.51100 2.90900 24.01300
N  8.86300 1.57300 28.35300
C  9.44400 0.71400 27.44000
C  10.23700 -0.24500 28.19100
C  10.20000 0.13700 29.55000
C  9.24700 1.22100 29.62400
C  10.92700 -1.46400 27.71600
C  10.66100 -0.10700 30.88500
O  11.46400 -0.93500 31.40600
C  10.01100 1.06000 31.74000
C  9.36900 0.53100 32.95200
O  8.18600 0.15000 32.95800
O  10.29600 0.50900 34.02300
C  9.81100 0.05700 35.41600
H  5.04600 5.82600 30.99000
H  5.07400 4.44400 24.60900
H  9.70100 0.11200 25.43400
H  7.76700 2.69900 33.38800
H  6.30700 5.17600 33.06200
H  5.03700 3.59900 34.09800
H  5.63000 2.22600 33.19400
H  4.41600 3.28200 32.42800
H  8.62400 5.38200 33.31500
H  9.71100 4.54600 32.24400
H  10.99500 3.96000 33.69200
H  9.84300 2.99800 34.50500
H  2.58200 6.49200 29.15300
H  3.56600 8.06900 28.77900
H  3.86700 7.14900 30.17000
H  1.94800 7.42500 26.31800
H  2.61800 8.45500 25.12600
H  3.09100 8.65700 26.80500
H  7.37600 3.55600 23.17500
H  7.83200 0.70300 23.65100
H  4.87700 2.32700 23.81600
H  5.74300 1.11700 22.93900
H  5.52100 2.88100 22.26200
H  9.13400 2.59800 22.36600
H  9.96300 1.14100 22.99400
H  11.21200 2.18800 24.43200
H  9.95400 3.50600 24.73600
H  11.04300 3.65600 23.42300
H  10.83200 -1.58900 26.63700
H  10.68400 -2.38100 28.25300
H  12.00600 -1.36500 27.83200
H  10.72500 1.79700 32.10900
H  9.03300 -0.65500 35.14100
H  9.53900 0.87600 36.08200
H  10.66900 -0.41600 35.89400
Mg 27.36900 50.20300 26.65400
C  25.43100 51.01500 29.34000
C  29.76800 48.99900 28.83600
C  29.64700 50.02100 24.10400
C  25.00900 51.44000 24.52300
N  27.60800 50.19000 28.88900
C  26.56900 50.45100 29.76300
C  27.03400 49.99700 31.17100
C  28.57000 49.55700 30.97400
C  28.66400 49.53900 29.45300
C  29.57900 50.46900 31.78900
C  26.17000 48.87900 31.77800
C  25.39600 49.21200 33.00000
H  26.14100 49.75800 34.18400
N  29.40900 49.47800 26.49600
C  30.20400 49.01200 27.49900
C  31.38100 48.44500 26.97500
C  31.46400 48.87000 25.65300
C  30.15500 49.58700 25.38100
C  32.30700 47.61300 27.84100
C  32.63100 48.85300 24.57700
O  32.57600 49.36100 23.47000
C  33.89800 48.17400 24.89400
N  27.36800 50.59800 24.56900
C  28.41000 50.38500 23.69700
C  27.98200 50.73900 22.27300
C  26.45100 51.22500 22.43800
C  26.24700 51.07300 23.92800
C  28.95900 51.87400 21.61300
C  25.47400 50.37400 21.52400
C  24.20900 51.13600 21.00100
N  25.62600 51.12700 26.85900
C  24.74900 51.55600 25.86900
C  23.56500 52.08000 26.50200
C  23.77300 51.83000 27.88200
C  25.05300 51.32100 28.05200
C  22.36500 52.76100 25.91900
C  23.10800 51.87400 29.21600
O  22.01400 52.32900 29.53500
C  24.15800 51.34800 30.23700
C  24.36700 52.20100 31.39100
O  25.26600 52.96900 31.59800
O  23.32700 51.86100 32.26000
C  23.39500 52.45200 33.53600
H  30.44800 48.58400 29.58300
H  30.44500 49.98800 23.36000
H  24.19000 51.75400 23.87200
H  26.92900 50.91400 31.75000
H  28.83300 48.54800 31.29400
H  30.61900 50.20100 31.60400
H  29.45100 50.51600 32.87000
H  29.41900 51.51900 31.54600
H  26.84700 48.03300 31.89400
H  25.48200 48.50700 31.01900
H  24.86600 48.28000 33.19400
H  24.65100 49.97000 32.75800
H  33.14100 48.28100 28.05600
H  32.65100 46.79000 27.21600
H  31.95500 47.32900 28.83300
H  34.64800 48.33700 24.11900
H  33.57400 47.13300 24.88600
H  34.18200 48.45000 25.90900
H  27.96900 49.80600 21.71100
H  26.34500 52.29700 22.26800
H  29.84400 52.02600 22.23100
H  28.32800 52.73700 21.39900
H  29.35700 51.57800 20.64200
H  25.08300 49.56400 22.14100
H  26.05600 50.05200 20.66100
H  24.05700 52.12400 21.43700
H  23.29100 50.60900 21.25700
H  24.25200 51.33300 19.92900
H  21.59200 52.07600 25.57000
H  22.68800 53.28800 25.02100
H  21.98800 53.44500 26.67900
H  23.76400 50.40000 30.60400
H  22.49000 52.03800 33.97900
H  23.45900 53.54100 33.54200
H  24.24000 52.02800 34.07900

