158

Mg -1.63200 17.33600 26.51900
C  -1.72300 14.88300 28.98000
C  -2.29400 19.72400 28.86100
C  -1.72500 19.72200 24.00800
C  -1.55400 14.84300 23.98000
N  -1.90100 17.25000 28.65600
C  -1.80100 16.16700 29.52400
C  -1.91200 16.55700 31.00700
C  -2.26700 18.07900 30.89600
C  -2.16900 18.36000 29.41300
C  -3.74600 18.37900 31.34100
C  -0.47400 16.30300 31.66400
C  -0.19500 17.15200 32.88200
H  0.24900 16.36400 34.16600
N  -1.97500 19.43700 26.49700
C  -2.17800 20.24500 27.56600
C  -2.24200 21.64900 27.22100
C  -2.15200 21.62800 25.77300
C  -1.96000 20.22000 25.35800
C  -2.50000 22.78000 28.19100
C  -2.21400 22.72900 24.83500
O  -2.22300 22.61200 23.59600
C  -2.35300 24.15900 25.30300
N  -1.69700 17.32300 24.28400
C  -1.58400 18.44800 23.50600
C  -1.62700 18.12800 21.99100
C  -1.54800 16.49600 22.06500
C  -1.56500 16.20300 23.47900
C  -2.90100 18.56500 21.24100
C  -0.33400 15.80700 21.31200
C  -0.76400 14.96000 20.07700
N  -1.71600 15.33500 26.44000
C  -1.57800 14.44200 25.33600
C  -1.62400 13.09100 25.87300
C  -1.62200 13.22000 27.26400
C  -1.70100 14.57400 27.52900
C  -1.71000 11.83700 25.07600
C  -1.53700 12.47600 28.52900
O  -1.26200 11.27600 28.62500
C  -1.46500 13.55300 29.67700
C  -0.10400 13.35900 30.16100
O  0.87100 14.07600 29.87700
O  -0.09800 12.45600 31.19800
C  1.17900 12.49400 31.97400
H  -2.39500 20.45600 29.66500
H  -1.56300 20.41300 23.17800
H  -1.43700 14.02000 23.27200
H  -2.68200 15.95600 31.49100
H  -1.60700 18.72300 31.47700
H  -4.25300 18.95000 30.56300
H  -3.72200 19.05900 32.19300
H  -4.30500 17.49500 31.64600
H  0.32300 16.29500 30.92100
H  -0.59800 15.27200 31.99500
H  -1.02200 17.75200 33.26100
H  0.65000 17.82600 32.74200
H  -1.65000 23.44100 28.36100
H  -2.71700 22.54700 29.23400
H  -3.33900 23.30200 27.73400
H  -1.68200 24.43600 26.11600
H  -3.36700 24.30100 25.67800
H  -2.31500 24.83100 24.44500
H  -0.75400 18.63800 21.58400
H  -2.47500 16.03500 21.72200
H  -2.66900 19.52400 20.77800
H  -3.79600 18.76900 21.82900
H  -3.23600 17.85300 20.48700
H  0.26200 15.13700 21.93100
H  0.28900 16.60700 20.91100
H  -0.16600 15.24200 19.20900
H  -1.81300 15.10100 19.81600
H  -0.62800 13.95100 20.46400
H  -1.54600 11.93000 24.00200
H  -2.69100 11.44100 25.33800
H  -0.85900 11.24200 25.40800
H  -2.32400 13.19200 30.24200
H  1.02200 12.84100 32.99600
H  1.94400 13.14700 31.55400
H  1.58400 11.48700 32.07900
Mg -11.84900 39.08200 42.15900
C  -9.66200 36.39900 41.54300
C  -9.53100 41.24900 40.90600
C  -14.14600 41.59500 42.43000
C  -14.37800 36.79100 43.12100
N  -9.84700 38.72200 41.07000
C  -9.13000 37.59000 41.04300
C  -7.91600 37.80500 40.17700
C  -7.85000 39.42500 40.23600
C  -9.19100 39.85100 40.78000
C  -6.63900 40.15000 40.92700
C  -7.96800 37.14700 38.72500
C  -6.99000 35.93600 38.54400
H  -6.04600 36.00300 37.41500
N  -11.83200 41.16400 41.81000
C  -10.80800 41.83000 41.23900
C  -11.18500 43.25800 41.19000
C  -12.48800 43.48900 41.71500
C  -12.89600 42.00700 41.91200
C  -10.10000 44.20500 40.56300
C  -13.13000 44.77500 41.96900
O  -12.52200 45.80400 41.69600
C  -14.39900 44.86500 42.71500
N  -13.96700 39.14200 42.79200
C  -14.62800 40.34000 42.77900
C  -16.16000 40.11200 43.10400
C  -16.25500 38.60900 43.19000
C  -14.77900 38.05700 42.99400
C  -16.69100 40.86700 44.41700
C  -17.35600 38.05700 42.15400
C  -17.03400 37.92200 40.64100
N  -12.07600 36.99200 42.21600
C  -13.10900 36.23000 42.71800
C  -12.72300 34.83500 42.76600
C  -11.38500 34.84500 42.29800
C  -11.01700 36.19500 42.02100
C  -13.65900 33.69700 43.16000
C  -10.28200 33.99000 41.88300
O  -10.17700 32.82800 42.05400
C  -9.16100 35.01700 41.34500
C  -7.90700 34.57400 41.98500
O  -7.48500 34.97600 43.06200
O  -7.25100 33.65200 41.17900
C  -5.89200 33.19000 41.62100
H  -8.81300 41.98900 40.54600
H  -14.92100 42.36100 42.36900
H  -15.25200 36.19600 43.39300
H  -6.99800 37.54100 40.70300
H  -7.81900 39.72000 39.18700
H  -6.98300 40.92400 41.61300
H  -6.01000 40.54400 40.12900
H  -6.12300 39.51800 41.64900
H  -7.71700 37.83100 37.91400
H  -8.95200 36.73700 38.50000
H  -7.66900 35.10400 38.35700
H  -6.59700 35.65600 39.52200
H  -9.16000 44.14500 41.11200
H  -10.48700 45.19900 40.33800
H  -9.99400 43.81300 39.55100
H  -15.15800 44.48300 42.03200
H  -14.58900 45.93400 42.81100
H  -14.17600 44.37800 43.66500
H  -16.76700 40.55300 42.31300
H  -16.49900 38.35500 44.22200
H  -17.69700 41.20600 44.17000
H  -16.00900 41.63200 44.78700
H  -16.85100 40.19900 45.26400
H  -18.09700 38.85600 42.13100
H  -17.83200 37.18100 42.59500
H  -17.33300 38.85500 40.16300
H  -17.63000 37.13700 40.17500
H  -15.95300 37.80500 40.56700
H  -14.52800 33.86400 42.52500
H  -13.93200 33.70600 44.21500
H  -13.23800 32.72400 42.90800
H  -9.08000 34.72400 40.29800
H  -5.36700 33.94700 42.20300
H  -5.34200 32.90700 40.72300
H  -5.74700 32.28400 42.20900

