158

Mg 25.22300 0.38000 29.42700
C  27.10200 -0.33000 32.44500
C  22.41300 0.56100 31.32600
C  23.39200 0.38000 26.64000
C  28.12200 -0.40200 27.59100
N  24.87800 0.16500 31.66100
C  25.78100 0.00100 32.66700
C  25.11800 0.26800 34.04300
C  23.58000 0.39300 33.74300
C  23.60600 0.39100 32.15700
C  22.63600 -0.77000 34.35000
C  25.73800 1.46700 34.75800
C  26.54700 1.04200 36.01400
H  26.29700 1.89100 37.27100
N  23.15500 0.54200 29.08000
C  22.16100 0.61900 29.94900
C  20.88800 0.69200 29.27400
C  21.15100 0.62300 27.88200
C  22.67200 0.56200 27.82800
C  19.54300 0.66500 29.98500
C  20.21000 0.77000 26.77900
O  20.46600 0.64500 25.60500
C  18.79700 1.14400 27.12100
N  25.67000 -0.00400 27.45200
C  24.79000 0.16100 26.45200
C  25.45100 0.04200 25.04400
C  26.92600 0.05000 25.42800
C  26.87700 -0.10000 26.94800
C  24.89800 -1.24000 24.33700
C  27.76000 1.27700 24.87800
C  27.91900 2.47100 25.86000
N  27.26600 -0.12200 29.91400
C  28.30700 -0.44800 29.06400
C  29.47900 -0.90400 29.87300
C  29.08600 -0.77500 31.20200
C  27.72000 -0.31100 31.18200
C  30.91000 -1.20300 29.38300
C  29.47800 -1.02600 32.57400
O  30.57600 -1.43600 33.01300
C  28.30900 -0.61700 33.44000
C  28.08000 -1.77800 34.40700
O  27.14000 -2.58700 34.38900
O  28.96400 -1.60600 35.46500
C  28.80100 -2.51100 36.67500
H  21.57600 0.68100 32.01700
H  22.81800 0.58100 25.73300
H  28.96500 -0.61700 26.93100
H  25.15800 -0.60800 34.69100
H  23.37300 1.41400 34.06500
H  22.02000 -0.98400 33.47600
H  21.97200 -0.34700 35.10400
H  23.15700 -1.60600 34.81500
H  24.92200 2.09900 35.10900
H  26.38600 2.11300 34.16700
H  27.52500 1.43600 35.73800
H  26.59300 -0.03400 36.18200
H  18.96800 1.57000 29.79100
H  19.73100 0.54500 31.05200
H  19.01400 -0.21800 29.62600
H  18.16900 1.40000 26.26800
H  18.86400 2.02500 27.76000
H  18.35500 0.27600 27.60900
H  25.15900 0.98700 24.58500
H  27.34700 -0.89900 25.09700
H  24.24700 -1.74500 25.05100
H  25.68200 -1.95600 24.09000
H  24.32800 -0.84600 23.49600
H  27.34100 1.73800 23.98400
H  28.70800 0.91400 24.48100
H  27.38700 2.48400 26.81100
H  27.63700 3.40500 25.37300
H  29.00500 2.49900 25.94500
H  31.11300 -0.53600 28.54500
H  31.10100 -2.21600 29.02800
H  31.63000 -1.10700 30.19600
H  28.62500 0.20900 34.07700
H  28.15800 -2.00700 37.39500
H  29.72200 -2.75500 37.20500
H  28.26600 -3.41900 36.39500
Mg 30.01000 58.95000 39.57200
C  26.98300 57.29500 38.31900
C  31.68200 56.02500 38.56200
C  32.74800 60.67200 39.58100
C  28.00300 62.04800 39.40400
N  29.37500 57.05900 38.32100
C  28.13600 56.53200 38.04300
C  28.25500 55.18300 37.37900
C  29.73200 54.71200 37.76200
C  30.28000 56.02500 38.26900
C  29.80100 53.40800 38.59700
C  27.99500 55.26100 35.81000
C  26.72900 54.58600 35.32500
H  25.82800 55.32400 34.38500
N  31.91400 58.40700 39.38900
C  32.42400 57.12500 39.04000
C  33.82900 57.21300 39.11000
C  34.20500 58.60300 39.44500
C  32.95400 59.29600 39.59400
C  34.72200 56.03200 38.64600
C  35.61600 59.06600 39.47100
O  36.54000 58.21600 39.31600
C  36.15100 60.49300 39.82500
N  30.30400 61.08300 39.75800
C  31.61100 61.45200 39.54500
C  31.61400 62.99400 39.40200
C  30.15400 63.43800 39.15700
C  29.43800 62.17400 39.49700
C  32.30700 63.67700 40.57200
C  29.82200 63.96800 37.65000
C  29.07000 65.34100 37.58000
N  27.89600 59.55700 39.33500
C  27.27400 60.80700 39.29000
C  25.81100 60.59800 39.06700
C  25.67600 59.20100 38.81800
C  27.00200 58.64800 38.81900
C  24.74600 61.62800 39.08200
C  24.73800 58.16000 38.43100
O  23.56200 58.16200 38.30200
C  25.56500 56.78000 38.07300
C  25.15600 55.71800 39.01800
O  25.35000 55.72500 40.23200
O  24.43000 54.76400 38.34500
C  23.90200 53.76400 39.24200
H  32.28500 55.18300 38.21400
H  33.66000 61.26900 39.51700
H  27.42300 62.97300 39.35600
H  27.52500 54.55700 37.89300
H  30.24600 54.48800 36.82600
H  28.85100 52.90700 38.78500
H  30.37500 53.70900 39.47300
H  30.39600 52.65200 38.08500
H  28.85900 54.90600 35.24900
H  27.93200 56.30100 35.48900
H  26.17000 54.23600 36.19300
H  26.96300 53.64500 34.82800
H  34.27000 55.38400 37.89600
H  34.88900 55.55300 39.61100
H  35.61300 56.40700 38.14100
H  37.24000 60.48300 39.85700
H  35.68600 60.97300 40.68600
H  35.97200 60.99500 38.87400
H  32.15100 63.23700 38.48600
H  29.90100 64.24800 39.84000
H  31.66900 63.71900 41.45500
H  32.46800 64.71700 40.29100
H  33.24200 63.19700 40.85900
H  29.30500 63.16500 37.12600
H  30.77000 64.01400 37.11300
H  28.11200 65.28700 38.09800
H  28.91100 65.66700 36.55200
H  29.62900 66.08100 38.15200
H  24.05500 61.24200 38.33200
H  25.20300 62.59600 38.87900
H  24.35200 61.67700 40.09700
H  25.33000 56.53700 37.03700
H  24.74200 53.22800 39.68400
H  23.29900 53.08200 38.64200
H  23.24100 54.19500 39.99500

