158

Mg 44.82100 3.63700 47.20600
C  42.64500 6.34100 46.79400
C  42.03400 1.49400 47.31900
C  46.90500 1.00300 46.81300
C  47.49300 5.99200 46.68500
N  42.55000 3.94900 47.10600
C  41.93000 5.09200 46.83200
C  40.36900 4.87800 46.65100
C  40.20600 3.34000 46.99200
C  41.69500 2.92400 47.28200
C  39.15500 3.15700 48.15500
C  40.03000 5.16300 45.09800
C  38.83600 5.97500 44.76400
H  39.03700 7.03300 43.74500
N  44.53900 1.52500 47.17300
C  43.27300 0.88700 47.22900
C  43.57900 -0.58400 47.31700
C  44.95000 -0.72300 47.09700
C  45.54900 0.60900 46.94500
C  42.47400 -1.67300 47.44700
C  45.73700 -2.06300 47.11100
O  45.16200 -3.13700 47.31500
C  47.25300 -2.16700 46.94100
N  46.83900 3.56000 46.56800
C  47.45600 2.30500 46.67500
C  48.98200 2.53300 46.71400
C  49.13500 4.08900 46.94200
C  47.72600 4.63400 46.76900
C  49.76000 1.82500 47.81900
C  50.11200 4.80700 45.83700
C  51.13800 5.78400 46.49400
N  45.09300 5.78800 46.85000
C  46.21300 6.58300 46.72800
C  45.76200 7.90800 46.61600
C  44.37600 7.96600 46.57200
C  44.00100 6.56200 46.74200
C  46.72800 9.18400 46.34800
C  43.15900 8.77400 46.55800
O  42.92300 9.97900 46.58200
C  42.03500 7.73300 46.61600
C  41.20300 8.11200 47.76900
O  41.32300 7.68400 48.91500
O  40.22500 9.02900 47.36100
C  39.29200 9.50100 48.43700
H  41.19400 0.82000 47.14200
H  47.63300 0.18900 46.81400
H  48.40900 6.58400 46.64000
H  39.72700 5.52600 47.24900
H  39.88000 2.74600 46.13800
H  38.55700 4.06100 48.27600
H  39.55500 2.94800 49.14700
H  38.55500 2.27700 47.92600
H  39.78100 4.21900 44.61200
H  40.84500 5.65000 44.56300
H  38.53900 6.51900 45.66100
H  38.08300 5.26300 44.42600
H  42.37000 -2.38400 46.62700
H  41.56500 -1.17100 47.77800
H  42.73500 -2.38800 48.22700
H  47.83400 -1.63000 47.69000
H  47.38700 -1.89300 45.89400
H  47.57300 -3.20500 47.03400
H  49.42300 2.18400 45.78000
H  49.38400 4.32600 47.97700
H  49.28600 1.98400 48.78700
H  50.82000 2.07700 47.84200
H  49.66200 0.76100 47.60000
H  49.61500 5.18200 44.94200
H  50.78100 4.01300 45.50700
H  52.10000 5.28200 46.39500
H  50.88200 5.98700 47.53400
H  51.15600 6.68700 45.88400
H  46.51800 9.63000 45.37600
H  47.78600 8.94800 46.46300
H  46.51900 9.89000 47.15100
H  41.39300 7.84300 45.74200
H  39.61000 10.53400 48.57800
H  39.44700 9.04800 49.41700
H  38.28500 9.48200 48.02100
Mg 41.39500 41.92900 26.14300
C  40.73800 44.22900 28.63700
C  42.44800 39.65700 28.56100
C  42.63700 39.98500 23.69400
C  40.60200 44.46500 23.80200
N  41.41600 41.86300 28.32800
C  41.13900 42.97400 29.10600
C  41.28100 42.69100 30.61600
C  41.84700 41.21100 30.53500
C  41.88100 40.83800 29.07500
C  43.14400 40.93300 31.34800
C  39.97400 42.73800 31.53100
C  40.24400 43.27000 32.99300
H  40.20500 42.29800 34.10500
N  42.33100 40.00300 26.14800
C  42.70200 39.23400 27.25300
C  43.29100 38.02700 26.76500
C  43.39700 38.11400 25.33100
C  42.81200 39.41800 24.98000
C  43.88700 36.95800 27.63200
C  44.16800 37.17400 24.35000
O  44.36200 37.42900 23.15500
C  44.80300 35.87400 24.83600
N  41.67900 42.20600 24.09800
C  42.17200 41.24700 23.24400
C  42.01200 41.59100 21.76300
C  41.24100 42.99700 21.84000
C  41.12700 43.27200 23.34300
C  43.27100 41.58200 20.89000
C  39.82000 43.12100 21.23500
C  39.42900 44.41600 20.50400
N  40.71900 43.90700 26.14300
C  40.42800 44.76600 25.16700
C  40.09200 46.06700 25.72600
C  40.07200 45.89000 27.10100
C  40.53000 44.57800 27.32600
C  39.87000 47.39800 25.02500
C  39.89400 46.56100 28.44400
O  39.56700 47.69200 28.72300
C  40.29500 45.48100 29.50500
C  41.27300 45.99800 30.34200
O  42.43000 46.03100 30.07000
O  40.70000 46.25500 31.59200
C  41.64200 46.85000 32.54700
H  42.69100 38.95600 29.36200
H  42.94600 39.33700 22.87100
H  40.23000 45.20500 23.09100
H  42.05200 43.39500 30.92900
H  41.05900 40.50400 30.79600
H  43.32500 41.69900 32.10200
H  44.09700 40.84300 30.82600
H  43.14200 40.05800 31.99800
H  39.56500 41.73300 31.63800
H  39.12600 43.21100 31.03600
H  39.51300 44.06500 33.14100
H  41.20600 43.76200 32.84700
H  44.93900 37.21400 27.76000
H  43.78900 36.01700 27.09100
H  43.34600 36.99500 28.57800
H  45.45200 35.98800 25.70500
H  45.49200 35.49800 24.08000
H  44.07400 35.13600 25.17100
H  41.42100 40.80900 21.28500
H  41.86600 43.80700 21.46500
H  44.12600 41.39600 21.54100
H  43.40300 42.48700 20.29600
H  43.23100 40.70800 20.24000
H  39.08700 43.12600 22.04200
H  39.69600 42.37800 20.44700
H  38.44900 44.71100 20.87800
H  39.29900 44.25900 19.43300
H  40.19800 45.17800 20.62800
H  38.89200 47.35800 24.54500
H  40.71900 47.52200 24.35300
H  39.81500 48.21600 25.74300
H  39.44600 45.19100 30.12500
H  42.15700 46.03100 33.04900
H  41.08300 47.39400 33.30800
H  42.39000 47.58400 32.24500

