158

Mg 2.28900 -1.69200 44.23100
C  5.70100 -1.05600 43.98100
C  1.52600 1.17100 42.66100
C  -1.04200 -2.65600 44.37400
C  3.16600 -4.96900 45.25700
N  3.53000 -0.21800 43.33300
C  4.87600 -0.13400 43.35800
C  5.35000 1.13600 42.61600
C  4.02100 1.94000 42.32300
C  2.92000 0.87100 42.69400
C  3.83900 3.35100 43.01100
C  6.11800 0.71700 41.29000
C  7.28200 1.60300 40.96600
H  7.46200 2.12700 39.43700
N  0.50800 -0.87800 43.51600
C  0.43100 0.41200 43.03300
C  -0.97400 0.72000 42.79800
C  -1.73100 -0.44700 43.19700
C  -0.77000 -1.38900 43.77700
C  -1.40600 1.99600 42.12700
C  -3.26700 -0.62400 43.07800
O  -3.85400 0.24000 42.46400
C  -4.02800 -1.76400 43.55200
N  1.19100 -3.53700 44.61000
C  -0.18700 -3.70200 44.76800
C  -0.64700 -5.07500 45.25900
C  0.77100 -5.75400 45.62500
C  1.80200 -4.66200 45.13900
C  -1.62200 -5.05300 46.36900
C  0.87800 -7.06100 44.70100
C  0.11200 -8.35100 45.21300
N  4.02300 -2.84300 44.62700
C  4.21100 -4.09600 45.02000
C  5.54000 -4.32100 45.25300
C  6.16500 -3.13800 45.01700
C  5.20500 -2.25900 44.51400
C  6.14700 -5.57600 45.71000
C  7.43400 -2.48500 44.92400
O  8.57500 -2.82500 45.27800
C  7.17200 -1.12400 44.22300
C  7.62100 -0.01000 45.05800
O  7.39700 0.14600 46.22300
O  8.45400 0.76200 44.27700
C  8.84500 2.08500 44.84300
H  1.34800 2.21300 42.38600
H  -2.06200 -3.03600 44.45400
H  3.36300 -5.92300 45.75100
H  6.02500 1.77500 43.18500
H  3.99100 2.09200 41.24400
H  4.69100 3.58300 43.65100
H  2.88300 3.54000 43.50000
H  3.84400 4.00800 42.14200
H  5.36500 0.67800 40.50300
H  6.57000 -0.27400 41.33900
H  8.18800 1.03500 41.17900
H  7.41200 2.50500 41.56500
H  -2.12600 1.76000 41.34400
H  -0.59200 2.51000 41.61700
H  -1.80500 2.60900 42.93500
H  -5.00100 -1.97500 43.10800
H  -4.15300 -1.71300 44.63400
H  -3.62000 -2.73600 43.27700
H  -1.01400 -5.64200 44.40400
H  0.85000 -5.97500 46.68900
H  -2.23300 -4.15200 46.33100
H  -1.09300 -5.17800 47.31400
H  -2.26000 -5.91700 46.18200
H  1.94800 -7.25600 44.77200
H  0.56900 -6.80700 43.68800
H  0.79800 -9.08700 45.63200
H  -0.38300 -8.68700 44.30100
H  -0.52900 -7.98400 46.01400
H  6.38900 -6.28900 44.92200
H  5.53100 -6.11500 46.43000
H  7.07600 -5.30500 46.21300
H  7.73100 -1.17600 43.28900
H  8.57900 2.18100 45.89600
H  8.42500 2.83100 44.16900
H  9.91300 2.28900 44.76000
Mg 9.17200 49.36600 24.79500
C  7.16100 49.51200 27.54100
C  12.02200 50.07300 26.73200
C  11.25600 48.87200 22.07400
C  6.45500 48.82600 22.70500
N  9.49500 49.94200 26.84700
C  8.54000 49.75700 27.86700
C  9.19500 49.94500 29.18300
C  10.52800 50.57900 28.79100
C  10.74200 50.12900 27.30700
C  10.68600 52.10600 29.10700
C  9.32600 48.68800 30.08700
C  8.74100 48.97200 31.47200
H  8.60300 47.78300 32.44800
N  11.31900 49.51400 24.43300
C  12.32100 49.67100 25.40300
C  13.65800 49.71000 24.68900
C  13.41600 49.47900 23.34000
C  11.94500 49.32800 23.23100
C  14.96600 49.92400 25.43200
C  14.35800 49.41300 22.26300
O  14.01700 49.35900 21.12600
C  15.80700 49.52900 22.47100
N  8.94900 49.20000 22.59900
C  9.92300 48.84000 21.74000
C  9.41000 48.35300 20.40900
C  7.83400 48.27100 20.63700
C  7.72600 48.73400 22.13100
C  9.82300 49.21100 19.19300
C  7.21800 46.95200 20.29200
C  7.53100 45.71700 21.09600
N  7.19400 49.19300 25.01500
C  6.20200 48.98900 24.11300
C  4.87000 48.80300 24.82400
C  5.18600 49.12900 26.19300
C  6.61000 49.29600 26.24200
C  3.60200 48.42000 24.17300
C  4.61600 49.30200 27.54100
O  3.46300 49.20900 27.98400
C  5.88100 49.43300 28.43100
C  5.82900 48.27400 29.42300
O  6.13500 47.10600 29.16500
O  5.06600 48.68500 30.53900
C  4.67300 47.61300 31.44700
H  12.89800 50.28500 27.35000
H  11.83900 48.52000 21.22000
H  5.62100 48.52900 22.06600
H  8.71600 50.72200 29.77800
H  11.37100 50.03900 29.22300
H  11.52000 52.25000 29.79300
H  9.75600 52.45500 29.55800
H  10.95900 52.51800 28.13600
H  10.37700 48.55400 30.34600
H  8.98000 47.75800 29.63600
H  7.73500 49.38100 31.37600
H  9.31800 49.72800 32.00400
H  15.59600 49.03900 25.35600
H  14.79000 49.98800 26.50500
H  15.55200 50.77900 25.09200
H  16.05200 50.46400 22.97400
H  16.25000 49.71200 21.49200
H  16.16100 48.69700 23.07900
H  9.77300 47.35700 20.15500
H  7.37400 49.07500 20.06100
H  10.55300 49.83400 19.71000
H  9.04100 49.64700 18.57100
H  10.40500 48.64000 18.47000
H  7.59000 46.72000 19.29400
H  6.13600 46.99100 20.16700
H  6.64300 45.08500 21.10200
H  8.04900 45.99100 22.01600
H  8.26700 45.13900 20.53700
H  3.66400 47.37200 23.88300
H  3.55400 49.03600 23.27400
H  2.79000 48.64700 24.86500
H  5.79100 50.34300 29.02300
H  4.98700 46.57000 31.40800
H  3.59100 47.54600 31.33300
H  4.90400 47.98000 32.44700

