158

Mg 1.86600 -1.42200 42.16900
C  5.38100 -0.83300 41.78800
C  1.24800 1.47200 40.58000
C  -1.30300 -2.37900 41.82100
C  2.71300 -4.57000 43.37300
N  3.20400 0.10000 41.35100
C  4.53400 0.22000 41.42900
C  4.97500 1.57300 40.78500
C  3.63700 2.32800 40.69000
C  2.57200 1.27300 40.91000
C  3.48500 3.65100 41.58000
C  5.81400 1.53500 39.42900
C  5.74000 0.22100 38.57900
H  5.36500 0.27200 37.12600
N  0.19200 -0.56200 41.30100
C  0.13300 0.61200 40.71700
C  -1.22400 0.93400 40.34600
C  -2.01100 -0.13600 40.73200
C  -1.07500 -1.09000 41.34700
C  -1.56800 2.13200 39.54000
C  -3.50800 -0.28400 40.63400
O  -4.18000 0.54700 40.04200
C  -4.34100 -1.43500 41.18300
N  0.86800 -3.32500 42.55000
C  -0.50500 -3.37400 42.43100
C  -1.00600 -4.86900 42.64400
C  0.35100 -5.52800 43.30000
C  1.41300 -4.39500 43.17500
C  -2.39200 -5.08500 43.34800
C  0.70400 -6.83600 42.58400
C  0.93900 -7.98200 43.58500
N  3.67100 -2.48200 42.71500
C  3.84600 -3.75700 43.14300
C  5.23000 -4.08600 43.23300
C  5.87300 -2.95400 42.70000
C  4.87700 -1.99900 42.38100
C  5.78300 -5.38600 43.64200
C  7.15500 -2.38200 42.44900
O  8.34200 -2.76600 42.66500
C  6.90800 -0.99600 41.76000
C  7.58400 0.00900 42.52200
O  8.48700 0.70900 42.07900
O  7.17000 0.04700 43.81600
C  7.69900 1.20400 44.55600
H  0.93200 2.46100 40.24000
H  -2.30800 -2.75800 41.62300
H  3.07200 -5.54500 43.71100
H  5.66100 1.98000 41.52700
H  3.56600 2.64100 39.64800
H  4.21000 4.38300 41.22500
H  3.53000 3.37700 42.63400
H  2.48100 4.05100 41.43500
H  6.84300 1.58700 39.78500
H  5.61400 2.39200 38.78500
H  5.03800 -0.35600 39.18000
H  6.71700 -0.26200 38.57100
H  -0.76200 2.82600 39.29900
H  -2.31000 2.68700 40.11500
H  -2.06000 1.72700 38.65600
H  -5.39400 -1.23500 40.98900
H  -4.11000 -1.42500 42.24900
H  -4.07200 -2.40200 40.76000
H  -1.07500 -5.13500 41.58900
H  0.15200 -5.74900 44.34800
H  -2.13200 -5.74500 44.17500
H  -3.22200 -5.55800 42.82300
H  -2.69600 -4.07900 43.63800
H  1.60900 -6.67000 41.99900
H  -0.08900 -7.25400 41.96500
H  1.99800 -8.23100 43.51200
H  0.29100 -8.78900 43.24600
H  0.75300 -7.63400 44.60200
H  6.84100 -5.26200 43.87300
H  5.58000 -6.11700 42.85900
H  5.24700 -5.80200 44.49500
H  7.32500 -0.99600 40.75200
H  7.34100 1.15700 45.58400
H  7.38700 2.16400 44.14200
H  8.77800 1.29700 44.67900
Mg -10.69800 16.95900 40.17400
C  -7.27700 16.85400 39.91300
C  -10.59800 20.32900 39.64700
C  -14.10600 16.87100 40.03200
C  -10.72100 13.34200 40.00100
N  -9.12300 18.35400 39.65100
C  -7.79000 18.06600 39.60500
C  -7.01600 19.28200 39.14000
C  -8.00300 20.45400 39.50300
C  -9.36700 19.71400 39.66200
C  -7.56900 21.21300 40.77800
C  -6.69000 19.26500 37.66800
C  -5.17900 19.33800 37.24000
H  -4.66500 17.92900 36.71000
N  -12.14400 18.43700 39.80900
C  -11.92900 19.77400 39.53400
C  -13.21700 20.46300 39.39200
C  -14.24700 19.54000 39.63500
C  -13.49300 18.18600 39.77500
C  -13.18700 21.92100 39.13400
C  -15.81400 19.78200 39.78000
O  -16.22900 20.94800 39.76800
C  -16.78700 18.62200 39.76600
N  -12.21800 15.32700 40.02200
C  -13.53100 15.57700 40.13500
C  -14.38800 14.32600 40.18200
C  -13.38000 13.23300 39.87100
C  -12.01400 13.95200 39.94900
C  -15.17900 14.12900 41.44400
C  -13.43600 12.53500 38.38600
C  -13.26700 11.04700 38.41700
N  -9.35300 15.38900 40.12900
C  -9.42800 14.02200 40.10400
C  -8.10200 13.43500 40.22600
C  -7.19700 14.54000 40.20800
C  -8.04600 15.70500 40.09000
C  -7.68400 11.98600 40.01800
C  -5.81800 14.94800 40.18900
O  -4.81100 14.29900 40.38200
C  -5.76300 16.49200 40.04600
C  -5.21300 17.21200 41.23700
O  -5.72900 17.17900 42.32100
O  -4.09400 17.88600 40.88600
C  -3.32000 18.66500 41.92200
H  -10.51400 21.39200 39.41200
H  -15.18500 16.94700 40.18400
H  -10.72200 12.25000 39.99200
H  -6.10600 19.19600 39.73400
H  -8.20200 21.14100 38.68100
H  -7.09000 20.62600 41.56200
H  -8.46400 21.64800 41.22100
H  -6.98100 22.04900 40.39900
H  -7.11500 20.15500 37.20500
H  -7.07500 18.30900 37.31300
H  -4.46500 19.63800 38.00800
H  -4.99100 20.11200 36.49600
H  -14.13000 22.41200 39.36900
H  -12.88700 22.02600 38.09100
H  -12.54200 22.54400 39.75400
H  -16.44100 17.99800 38.94200
H  -17.74600 19.05100 39.47500
H  -17.02500 18.23400 40.75600
H  -15.07000 14.38600 39.33400
H  -13.27400 12.47100 40.64300
H  -16.24500 14.03400 41.23700
H  -15.26000 15.06800 41.99200
H  -14.79900 13.22400 41.91800
H  -12.70100 12.94900 37.69700
H  -14.41600 12.81900 38.00200
H  -14.05800 10.50800 37.89500
H  -12.96900 10.80600 39.43700
H  -12.38300 10.81100 37.82400
H  -7.82900 11.52800 40.99600
H  -6.69100 12.00500 39.56900
H  -8.42300 11.52600 39.36200
H  -5.13000 16.83500 39.22800
H  -3.57500 19.71900 41.81000
H  -2.27900 18.49800 41.64700
H  -3.54900 18.29000 42.91900

