158

Mg 17.09600 52.03000 26.26700
C  19.09700 50.40600 28.63400
C  14.65000 52.40300 28.69700
C  15.06700 53.52900 24.03900
C  19.25400 51.05500 23.85100
N  17.03900 51.57600 28.48500
C  17.90600 50.92900 29.25600
C  17.35100 50.76000 30.69400
C  15.84800 51.07500 30.47400
C  15.83900 51.77300 29.13700
C  14.90200 49.79900 30.52500
C  18.04500 51.72200 31.69900
C  18.26800 50.98000 32.99900
H  17.25100 51.32300 34.10400
N  15.13900 52.96200 26.36600
C  14.35300 53.04000 27.45100
C  13.09000 53.70400 27.09600
C  13.30700 54.16400 25.78500
C  14.51700 53.50300 25.28900
C  11.95500 53.96700 28.16900
C  12.42000 54.92700 24.93100
O  12.61000 54.93500 23.69800
C  11.23400 55.60500 25.52100
N  16.98600 52.11200 24.24900
C  16.17100 52.87700 23.54500
C  16.50300 52.87600 22.05200
C  17.79700 52.08200 21.99400
C  18.07700 51.73000 23.47000
C  15.33600 52.36400 21.11100
C  18.95900 52.70000 21.11000
C  19.89100 53.78900 21.75500
N  18.86300 50.88000 26.20700
C  19.66800 50.60200 25.13300
C  20.78200 49.75200 25.58400
C  20.66700 49.71700 26.97200
C  19.46000 50.42000 27.28400
C  21.81000 49.13300 24.68200
C  21.29000 49.32400 28.21600
O  22.34500 48.78100 28.47600
C  20.33000 49.76700 29.27300
C  19.95600 48.75400 30.23900
O  19.03100 47.96400 30.20700
O  20.89300 48.81300 31.23500
C  20.67100 47.93800 32.39200
H  13.91500 52.41000 29.50400
H  14.65400 54.18000 23.26600
H  20.03700 50.73500 23.16000
H  17.36900 49.69300 30.91800
H  15.45300 51.80400 31.18100
H  13.88300 50.17800 30.61300
H  15.10900 49.23900 31.43600
H  15.09200 49.13100 29.68500
H  17.34800 52.51700 31.96200
H  18.99100 52.13200 31.34600
H  19.27600 51.20700 33.34500
H  18.25500 49.91100 32.78600
H  11.98200 55.02500 28.42700
H  12.05300 53.28200 29.01100
H  11.05100 53.66000 27.64300
H  10.84900 56.32900 24.80300
H  11.49400 56.20900 26.39000
H  10.45000 54.90800 25.81900
H  16.73900 53.92500 21.87300
H  17.68200 51.08200 21.57500
H  15.71300 51.70900 20.32600
H  14.80900 53.22600 20.70300
H  14.68600 51.74000 21.72500
H  18.49900 53.19000 20.25200
H  19.67600 51.95500 20.76400
H  20.92100 53.48200 21.93600
H  19.62000 54.23400 22.71300
H  19.98100 54.54100 20.97100
H  21.28700 48.88100 23.75900
H  22.24700 48.24700 25.14100
H  22.65300 49.80600 24.52400
H  20.72600 50.52600 29.94800
H  19.78900 48.14200 33.00000
H  21.58800 48.00800 32.97600
H  20.63700 46.94100 31.95300
Mg -5.92900 25.40600 25.40700
C  -4.65500 26.36900 28.63000
C  -7.95100 23.15800 27.22200
C  -6.98200 24.20000 22.41700
C  -3.57300 27.23200 23.94500
N  -6.27900 24.78800 27.68700
C  -5.76500 25.46800 28.76500
C  -6.39500 25.01500 30.03200
C  -7.12600 23.66800 29.60200
C  -7.18300 23.88400 28.10400
C  -6.40700 22.39400 30.01500
C  -7.34800 26.09500 30.56800
C  -7.31800 26.38400 32.09700
H  -6.68200 25.27700 33.00400
N  -7.27300 23.91300 24.87700
C  -8.03800 23.14600 25.76800
C  -8.94000 22.32100 24.99700
C  -8.71400 22.60600 23.56900
C  -7.57000 23.56900 23.57000
C  -9.93900 21.35000 25.67600
C  -9.40400 21.98900 22.23100
O  -9.06800 22.26300 21.06000
C  -10.65900 21.01000 22.33500
N  -5.45000 25.75500 23.53900
C  -6.00100 25.14400 22.39500
C  -5.32500 25.62300 21.12200
C  -4.48200 26.78700 21.64500
C  -4.49800 26.58600 23.16000
C  -4.53100 24.52400 20.32000
C  -5.05800 28.20100 21.29000
C  -5.07300 28.53500 19.81100
N  -4.49500 26.63000 26.14300
C  -3.54300 27.26100 25.33700
C  -2.62800 28.00500 26.22900
C  -3.02500 27.66400 27.53100
C  -4.15200 26.83200 27.37900
C  -1.49000 28.90400 25.86100
C  -2.73900 27.85800 29.00000
O  -1.85500 28.49000 29.53400
C  -3.85700 27.05600 29.74400
C  -3.15600 26.22200 30.60800
O  -2.67100 25.16200 30.35000
O  -3.11500 26.86900 31.81000
C  -2.39400 26.24400 32.88900
H  -8.44900 22.27300 27.62400
H  -7.37700 23.79400 21.48300
H  -2.93100 28.00200 23.51100
H  -5.57800 24.91400 30.74700
H  -8.13000 23.74700 30.01800
H  -6.30600 21.66400 29.21200
H  -7.02600 21.99900 30.82000
H  -5.39700 22.52200 30.40600
H  -8.35500 25.76300 30.31600
H  -7.33800 27.05100 30.04500
H  -8.31600 26.60900 32.47500
H  -6.72800 27.29000 32.23700
H  -9.44600 20.37800 25.70900
H  -10.87300 21.25200 25.12200
H  -10.24600 21.63400 26.68200
H  -11.17500 20.90200 21.38200
H  -11.41800 21.39500 23.01700
H  -10.39700 19.99800 22.64600
H  -6.12500 25.90700 20.43700
H  -3.43000 26.66000 21.39000
H  -5.12200 24.04700 19.53800
H  -4.03200 23.75100 20.90500
H  -3.86900 25.17000 19.74400
H  -4.40700 28.88800 21.83000
H  -6.05300 28.37500 21.69900
H  -4.53000 29.46600 19.64600
H  -6.11300 28.76100 19.57900
H  -4.66000 27.71400 19.22500
H  -1.82500 29.93400 25.98100
H  -1.21700 28.63900 24.84000
H  -0.62500 28.56700 26.43300
H  -4.44700 27.78700 30.29800
H  -2.95200 26.21500 33.82500
H  -1.48500 26.82700 33.03400
H  -2.15300 25.23200 32.56600

