158

Mg -1.40400 17.27800 26.53600
C  -1.84900 15.33000 29.29600
C  -2.08200 20.07900 28.61800
C  -1.30600 19.37800 23.78200
C  -1.09700 14.59100 24.52000
N  -1.99900 17.71300 28.71900
C  -1.93200 16.70200 29.66000
C  -1.90800 17.24600 31.06700
C  -2.18800 18.72500 30.80500
C  -2.14300 18.84700 29.31800
C  -3.49200 19.32800 31.43500
C  -0.66100 16.82500 32.02100
C  -0.41200 17.65000 33.24000
H  -0.42300 16.93100 34.55800
N  -1.65900 19.42400 26.25200
C  -1.83600 20.35500 27.26800
C  -1.77200 21.68000 26.70600
C  -1.60400 21.53900 25.32100
C  -1.45500 20.08700 25.05700
C  -2.03500 23.01300 27.45100
C  -1.70100 22.58700 24.13000
O  -1.88500 22.28700 22.95600
C  -1.64300 24.02100 24.47700
N  -1.47000 17.01900 24.43400
C  -1.30100 18.00700 23.50900
C  -1.28900 17.37600 22.07200
C  -0.89500 15.89100 22.36400
C  -1.08000 15.80400 23.88400
C  -2.51300 17.61800 21.23600
C  0.60000 15.54300 22.05200
C  1.85100 16.26200 22.79500
N  -1.45000 15.38300 26.79900
C  -1.33900 14.34900 25.90000
C  -1.37800 13.08500 26.50100
C  -1.54800 13.43900 27.78100
C  -1.63200 14.82700 27.97700
C  -1.47000 11.82400 25.80500
C  -1.65200 12.83400 29.03100
O  -1.59800 11.62000 29.27500
C  -1.72500 14.02500 30.11900
C  -0.50200 13.83800 31.00000
O  0.66500 14.20300 30.82800
O  -0.91700 13.18400 32.13700
C  0.20100 12.96000 33.07100
H  -2.20600 20.91800 29.30400
H  -1.12300 20.02600 22.92200
H  -1.01900 13.65000 23.97200
H  -2.74000 16.78400 31.59700
H  -1.30700 19.22700 31.20400
H  -4.13600 19.70100 30.63800
H  -3.21800 20.04800 32.20600
H  -4.01800 18.56800 32.01300
H  0.24400 16.74700 31.41900
H  -0.93200 15.83200 32.38000
H  -1.15900 18.44300 33.25800
H  0.59500 18.05000 33.12200
H  -1.12100 23.60600 27.41300
H  -2.47200 22.91100 28.44400
H  -2.67700 23.69100 26.88800
H  -1.17800 24.49200 23.61100
H  -0.88700 24.21200 25.24000
H  -2.57200 24.48100 24.81300
H  -0.53000 17.90700 21.49700
H  -1.55100 15.09500 22.01200
H  -2.26500 17.93800 20.22400
H  -3.07600 18.44800 21.66300
H  -3.19200 16.76700 21.17900
H  0.74200 15.95300 21.05200
H  0.59600 14.45900 21.93400
H  2.53900 15.68200 23.41000
H  1.51900 17.02500 23.49900
H  2.41400 16.67600 21.95700
H  -0.99500 11.84100 24.82400
H  -2.48500 11.45200 25.65900
H  -0.98500 11.05600 26.40800
H  -2.68000 13.97000 30.64100
H  0.30400 13.72200 33.84400
H  1.17200 12.80500 32.60000
H  0.02200 12.04600 33.63700
Mg 52.90200 23.25800 44.66200
C  50.57100 25.73000 43.73000
C  50.98300 20.90000 43.10400
C  55.53000 21.23600 44.78700
C  55.01000 25.90700 45.73000
N  51.15300 23.33200 43.29700
C  50.30700 24.47100 43.03700
C  49.28600 24.05200 42.04600
C  49.13300 22.57800 42.36600
C  50.53000 22.19400 42.94600
C  47.99300 22.16200 43.22700
C  49.75300 24.27600 40.59700
C  48.67600 24.44500 39.52200
H  49.06400 25.33300 38.35000
N  53.10500 21.24600 44.18500
C  52.19900 20.46400 43.57300
C  52.73900 19.10700 43.60500
C  54.05100 19.15900 44.05400
C  54.31300 20.62500 44.42800
C  51.96400 18.03400 43.06400
C  54.96400 18.03400 44.12000
O  54.67500 16.96900 43.59500
C  56.26100 18.08900 44.78100
N  54.94800 23.58300 45.06900
C  55.84300 22.56000 45.09900
C  57.24900 22.95500 45.61200
C  57.04300 24.47200 45.91000
C  55.59700 24.67100 45.51500
C  57.84800 22.11100 46.79200
C  58.04600 25.45300 45.30200
C  57.81000 26.05200 43.94800
N  52.81800 25.41500 44.77200
C  53.72900 26.26300 45.41500
C  53.15500 27.58100 45.54400
C  51.85800 27.43100 44.92900
C  51.75500 26.10200 44.42800
C  53.71600 28.81600 46.22600
C  50.66200 28.08000 44.57800
O  50.39400 29.30100 44.67600
C  49.72800 27.05100 43.81800
C  49.51500 27.63000 42.55200
O  50.41300 28.10500 41.88300
O  48.13900 27.58800 42.30100
C  47.70900 28.11300 41.04500
H  50.39300 20.13900 42.58900
H  56.39200 20.60700 45.01900
H  55.65000 26.69600 46.13000
H  48.37800 24.60900 42.27600
H  48.97000 22.10300 41.39800
H  47.42200 23.03700 43.54000
H  48.21200 21.55700 44.10700
H  47.25800 21.67800 42.58400
H  50.45700 23.49400 40.31400
H  50.38600 25.16300 40.59000
H  47.69200 24.72900 39.89600
H  48.45200 23.43600 39.17500
H  52.21800 17.84000 42.02200
H  50.89800 18.23300 43.17700
H  52.10400 17.10800 43.62100
H  56.14100 18.62500 45.72200
H  56.98000 18.52000 44.08400
H  56.55200 17.08500 45.08900
H  57.81300 22.87200 44.68300
H  57.11900 24.56000 46.99400
H  58.52300 21.33900 46.42200
H  56.97600 21.52000 47.07500
H  58.13100 22.70200 47.66300
H  58.97100 24.87900 45.25000
H  58.16000 26.31100 45.96500
H  56.92800 25.62300 43.47300
H  58.65500 25.84600 43.29200
H  57.48700 27.09200 43.99600
H  53.29100 28.63200 47.21300
H  53.39300 29.79700 45.87700
H  54.80200 28.86000 46.30500
H  48.76700 26.97100 44.32700
H  47.35400 29.14300 41.06000
H  47.04400 27.44200 40.50100
H  48.60200 28.16100 40.42300

