158

Mg 9.54500 47.93500 25.95200
C  7.79200 47.88000 29.00400
C  12.37500 48.62400 27.72800
C  11.02000 47.94100 23.03300
C  6.48400 47.01300 24.38700
N  9.90700 48.52000 28.09900
C  9.15500 48.36800 29.17700
C  9.88600 48.84600 30.47600
C  11.22800 49.33600 29.94000
C  11.23200 48.83500 28.50500
C  11.51600 50.95600 30.18100
C  9.94300 47.69000 31.45600
C  10.95700 47.92900 32.53100
H  10.56500 47.55300 33.99100
N  11.39700 48.36500 25.42100
C  12.49500 48.44500 26.27700
C  13.68700 48.57800 25.47800
C  13.34500 48.19900 24.18800
C  11.88100 48.08500 24.16700
C  15.06400 48.81800 26.11500
C  14.23600 47.87400 23.03200
O  13.84400 47.45500 21.95900
C  15.69600 47.99600 23.13900
N  8.83500 47.62200 23.91300
C  9.67700 47.58200 22.90900
C  8.94400 47.31400 21.59100
C  7.64300 46.78300 22.09400
C  7.60000 47.18300 23.58000
C  8.77800 48.72400 20.90800
C  7.41300 45.23800 21.93100
C  8.37400 44.28200 22.64600
N  7.47700 47.68600 26.50200
C  6.44100 47.22000 25.74300
C  5.21800 47.02700 26.60300
C  5.74200 47.24500 27.89500
C  7.10900 47.65800 27.76400
C  3.85700 46.72600 26.09200
C  5.38900 47.24100 29.35800
O  4.34800 46.97100 29.86700
C  6.69800 47.62100 30.18400
C  6.95400 46.34400 30.95500
O  7.71900 45.41600 30.65400
O  6.20100 46.30800 32.10100
C  6.57200 45.28700 33.11500
H  13.32200 48.56800 28.26900
H  11.50600 48.02200 22.05800
H  5.62400 46.65100 23.82100
H  9.25700 49.61400 30.92600
H  12.03500 48.75500 30.38600
H  11.76100 51.44000 29.23600
H  12.42200 51.05200 30.78000
H  10.72700 51.31300 30.84300
H  10.09800 46.68000 31.07600
H  8.99200 47.70700 31.98700
H  11.29600 48.96500 32.56600
H  11.82600 47.35200 32.21500
H  14.95900 49.13000 27.15400
H  15.57000 49.55700 25.49400
H  15.59200 47.86600 26.08000
H  16.19100 47.23500 23.74200
H  15.92900 49.01800 23.43800
H  16.08400 47.81800 22.13600
H  9.48700 46.63600 20.93300
H  6.77900 47.24200 21.61400
H  9.34400 48.85200 19.98600
H  9.07300 49.50900 21.60500
H  7.73700 48.94200 20.66800
H  7.39400 45.01600 20.86400
H  6.40200 44.98900 22.25300
H  8.98600 44.80400 23.38100
H  9.02000 43.79500 21.91500
H  7.78300 43.58800 23.24400
H  3.46200 47.70100 25.80700
H  3.26700 46.42900 26.96000
H  3.89000 45.97200 25.30600
H  6.48500 48.46400 30.84200
H  7.62700 45.35700 33.38200
H  6.41300 44.29600 32.69000
H  5.96400 45.37000 34.01500
Mg -1.95500 34.31100 27.74300
C  -3.83400 32.42800 29.91800
C  -0.47200 35.91900 30.48400
C  -0.51400 36.44900 25.57200
C  -3.77100 32.88300 25.05200
N  -2.20000 34.23100 29.94800
C  -3.03900 33.33200 30.62600
C  -2.65500 33.23300 32.09600
C  -1.73900 34.45700 32.25700
C  -1.39900 34.88400 30.82800
C  -2.22600 35.67200 33.12400
C  -2.06400 31.86100 32.52200
C  -2.54700 31.27300 33.89000
H  -1.88200 31.84300 35.21900
N  -0.54600 35.83600 27.94900
C  -0.06500 36.38200 29.13000
C  0.90100 37.37300 28.76500
C  0.88000 37.51900 27.34000
C  -0.10500 36.56700 26.88300
C  1.72500 38.19800 29.76700
C  1.80400 38.44300 26.44700
O  1.79300 38.47300 25.20800
C  2.92200 39.18800 27.07400
N  -2.15800 34.57500 25.53800
C  -1.35800 35.52200 24.96900
C  -1.60500 35.53800 23.50800
C  -2.58000 34.31100 23.30700
C  -2.81600 33.82800 24.69300
C  -2.20100 36.81600 22.83400
C  -2.09800 33.20800 22.25900
C  -3.11900 32.85700 21.16200
N  -3.43600 32.96300 27.43800
C  -4.00300 32.42400 26.32200
C  -5.06100 31.45800 26.73400
C  -4.90500 31.39900 28.06400
C  -3.98000 32.33100 28.50300
C  -5.89200 30.60300 25.82200
C  -5.43700 30.64200 29.22800
O  -6.23300 29.69500 29.19100
C  -4.77200 31.35100 30.51200
C  -5.96700 31.82500 31.27800
O  -6.86200 32.40100 30.74800
O  -5.94500 31.47300 32.56500
C  -6.94300 31.93500 33.53600
H  0.00400 36.39600 31.34400
H  -0.08800 37.23400 24.94400
H  -4.38800 32.49700 24.23800
H  -3.56800 33.39600 32.66900
H  -0.70600 34.35300 32.58800
H  -1.76600 35.55400 34.10500
H  -3.31200 35.65200 33.21500
H  -1.92700 36.63000 32.69900
H  -0.99400 32.06600 32.54100
H  -2.23700 31.05100 31.81300
H  -2.56700 30.19200 33.74700
H  -3.58800 31.54800 34.05800
H  1.46100 38.13600 30.82300
H  1.64500 39.23900 29.45400
H  2.78900 37.98400 29.66200
H  2.51500 39.98400 27.69800
H  3.42300 39.79100 26.31700
H  3.53300 38.49500 27.65100
H  -0.62900 35.32600 23.07000
H  -3.57000 34.60300 22.95800
H  -2.69600 37.50600 23.51700
H  -3.03900 36.45400 22.23800
H  -1.48200 37.21400 22.11700
H  -1.79000 32.30200 22.78100
H  -1.24500 33.57500 21.68900
H  -3.18100 31.78000 21.00300
H  -2.79700 33.48300 20.33000
H  -4.09300 33.28400 21.40200
H  -5.14700 30.04300 25.25700
H  -6.45100 31.25200 25.14800
H  -6.51900 29.96100 26.44100
H  -4.22900 30.63500 31.12800
H  -6.54000 32.61900 34.28300
H  -7.16200 31.01800 34.08300
H  -7.83600 32.26300 33.00400

