158

Mg 2.40800 0.19100 45.21700
C  5.56000 1.70700 44.59400
C  1.07300 3.14800 43.96600
C  -0.40700 -1.42100 45.07000
C  4.16800 -2.96000 45.61700
N  3.24000 2.25100 44.40200
C  4.53000 2.55600 44.25100
C  4.71600 3.95900 43.82600
C  3.22700 4.51600 43.61600
C  2.47700 3.25500 44.06400
C  2.82500 5.89500 44.32000
C  5.43900 4.07500 42.44600
C  5.17300 3.01700 41.38900
H  5.73200 3.20300 40.03100
N  0.59100 0.75600 44.64100
C  0.15100 2.02700 44.19600
C  -1.23900 1.94000 43.85900
C  -1.69500 0.64000 44.30200
C  -0.43700 -0.06200 44.71900
C  -2.02800 3.14500 43.36100
C  -3.15200 0.19400 44.26000
O  -3.92200 0.88900 43.67700
C  -3.72300 -0.92700 45.05600
N  2.00200 -1.84200 45.36600
C  0.71300 -2.29000 45.30000
C  0.59700 -3.77900 45.27500
C  2.02600 -4.23000 45.37000
C  2.79200 -2.93400 45.42400
C  -0.33500 -4.36500 46.36500
C  2.44900 -5.30700 44.41200
C  2.99700 -6.65200 45.00700
N  4.41700 -0.49400 45.35900
C  4.96800 -1.79300 45.58800
C  6.40600 -1.70600 45.64800
C  6.65100 -0.38600 45.22200
C  5.43900 0.31900 45.01700
C  7.44600 -2.68800 45.88500
C  7.71200 0.68700 44.90600
O  8.95500 0.57200 44.96100
C  7.04100 2.03600 44.58000
C  7.38200 3.05000 45.48400
O  7.69000 4.24000 45.24100
O  7.07300 2.62700 46.68300
C  6.76100 3.60000 47.65100
H  0.50100 3.97200 43.53600
H  -1.35700 -1.95600 45.02000
H  4.69500 -3.90200 45.78700
H  5.18900 4.55300 44.60900
H  2.90300 4.66700 42.58600
H  1.91800 5.70000 44.89100
H  2.71700 6.73400 43.63300
H  3.68200 6.02600 44.98100
H  6.49200 4.35400 42.46700
H  4.96700 4.92600 41.95500
H  4.09600 3.05000 41.23100
H  5.54800 2.07600 41.79100
H  -3.05200 3.17200 43.73400
H  -1.95800 3.03100 42.27900
H  -1.58600 4.01300 43.85000
H  -3.33800 -0.96900 46.07500
H  -3.63000 -1.90900 44.59300
H  -4.78400 -0.77200 45.25000
H  0.19900 -4.01500 44.28700
H  2.17900 -4.62700 46.37300
H  -0.88200 -3.51000 46.76200
H  0.25400 -4.80100 47.17100
H  -0.99200 -5.12300 45.93800
H  3.18100 -4.83800 43.75300
H  1.59300 -5.54400 43.78000
H  2.87500 -6.77200 46.08300
H  4.05100 -6.72800 44.73800
H  2.44200 -7.45500 44.52200
H  8.13100 -2.10900 46.50500
H  7.93600 -2.92000 44.94000
H  7.12300 -3.62100 46.34600
H  7.35300 2.22900 43.55300
H  5.84000 4.07200 47.30900
H  7.37000 4.49200 47.80000
H  6.45700 3.20200 48.61900
Mg -2.75200 33.99600 26.61100
C  -3.92400 32.16500 29.44200
C  -1.17700 36.07000 28.57400
C  -2.12400 35.71000 23.83700
C  -4.76800 31.77600 24.74400
N  -2.60300 34.09100 28.80000
C  -2.98300 33.20900 29.74600
C  -2.54200 33.57100 31.13800
C  -1.63500 34.83700 30.80700
C  -1.84700 35.07700 29.29900
C  -1.96400 36.15900 31.63400
C  -1.91800 32.32500 31.94400
C  -2.52300 32.10500 33.29600
H  -1.52700 31.96200 34.43300
N  -1.70800 35.60200 26.23500
C  -1.05500 36.37700 27.21000
C  -0.30900 37.43500 26.59200
C  -0.61000 37.40200 25.17500
C  -1.52800 36.23200 25.01500
C  0.60900 38.35700 27.32800
C  -0.28500 38.32800 24.04800
O  -0.79100 38.41900 22.92000
C  0.80400 39.37600 24.34200
N  -3.46200 33.79500 24.61100
C  -2.96200 34.61700 23.59400
C  -3.28000 34.04200 22.15700
C  -3.97300 32.68200 22.54200
C  -4.08300 32.76000 24.06600
C  -4.14700 34.98900 21.26100
C  -3.17900 31.50400 22.04100
C  -1.76500 31.39700 22.71400
N  -4.16300 32.34800 26.95100
C  -4.85400 31.52800 26.13000
C  -5.64000 30.57900 26.86800
C  -5.30800 30.85400 28.15500
C  -4.34400 31.85500 28.16100
C  -6.53000 29.56400 26.28700
C  -5.59600 30.39300 29.46900
O  -6.33400 29.53600 29.95000
C  -4.64700 31.22600 30.35700
C  -5.46700 31.90000 31.38200
O  -6.06600 32.97700 31.24200
O  -5.69700 31.11800 32.48000
C  -6.57800 31.71900 33.47900
H  -0.56100 36.64100 29.27200
H  -1.92600 36.17300 22.86800
H  -5.39500 31.04900 24.22400
H  -3.38400 34.01200 31.67200
H  -0.59200 34.68000 31.08000
H  -2.59100 36.77900 30.99400
H  -1.05700 36.66500 31.96500
H  -2.48300 36.04700 32.58600
H  -0.85400 32.53400 32.04900
H  -1.91200 31.46000 31.28100
H  -3.07600 31.16700 33.24100
H  -3.20300 32.86300 33.68400
H  0.42900 38.44100 28.40000
H  0.43500 39.37700 26.98600
H  1.64500 38.09600 27.11200
H  1.67500 38.86200 24.74700
H  0.54800 40.17600 25.03800
H  1.02100 39.82900 23.37500
H  -2.32200 33.88300 21.66000
H  -5.01100 32.58800 22.22300
H  -3.89300 36.02200 21.49800
H  -5.17700 34.77200 21.54400
H  -3.91500 34.87900 20.20200
H  -2.94700 31.53500 20.97700
H  -3.70700 30.61000 22.37300
H  -1.62900 32.25000 23.37900
H  -1.06700 31.35500 21.87900
H  -1.82500 30.49100 23.31700
H  -6.37600 29.42200 25.21700
H  -7.50100 29.98600 26.54900
H  -6.47300 28.54100 26.66000
H  -3.97100 30.58800 30.92600
H  -7.49500 32.04900 32.99200
H  -6.22900 32.55200 34.08900
H  -6.72500 30.83000 34.09300

