158

Mg 48.01000 35.29600 28.13700
C  46.34700 33.80000 30.83900
C  48.31300 38.19400 30.06300
C  49.51300 36.87800 25.42800
C  47.35700 32.64300 26.08700
N  47.36600 35.92400 30.20200
C  46.92900 35.06600 31.16400
C  46.96200 35.81100 32.52400
C  47.16000 37.36300 32.14500
C  47.78700 37.11400 30.78300
C  45.94400 38.23700 32.01100
C  48.12200 35.30000 33.47300
C  47.82100 34.98900 34.96900
H  47.35700 36.20100 35.81500
N  48.90000 37.22900 27.80400
C  48.89600 38.28500 28.78200
C  49.70600 39.34900 28.26500
C  50.08600 38.92500 26.94000
C  49.47400 37.58800 26.65100
C  49.94000 40.65900 28.92600
C  50.94500 39.66200 25.93200
O  51.32200 39.07800 24.91900
C  51.34000 41.16600 26.12000
N  48.13000 34.95700 25.91800
C  48.91800 35.68800 25.05900
C  48.89000 35.08100 23.64600
C  48.43300 33.65800 23.97400
C  47.91200 33.69300 25.41500
C  47.99400 35.97000 22.77700
C  49.60100 32.53500 23.92300
C  49.08600 31.15100 23.45700
N  47.08100 33.56500 28.47000
C  46.83400 32.57200 27.49100
C  46.02300 31.49800 28.07700
C  45.81400 31.95300 29.44000
C  46.43700 33.22400 29.56600
C  45.63000 30.13100 27.49700
C  45.29600 31.51100 30.76300
O  44.83400 30.44800 31.15900
C  45.51700 32.80800 31.67500
C  46.04900 32.29300 32.93800
O  47.10400 31.75400 33.05200
O  44.99200 32.31600 33.93800
C  45.37800 31.86700 35.29900
H  48.31300 39.17700 30.53700
H  50.08300 37.35200 24.62500
H  47.27400 31.80900 25.38700
H  45.97900 35.62800 32.95900
H  47.88000 37.89800 32.76400
H  45.63100 38.62100 32.98200
H  45.13000 37.64600 31.59100
H  46.10200 39.08200 31.34100
H  48.98000 35.95900 33.33800
H  48.54800 34.40900 33.01100
H  48.79400 34.69000 35.35900
H  47.07600 34.19500 35.01300
H  49.17700 41.38800 28.65400
H  50.90500 41.08600 28.65100
H  49.91700 40.55000 30.01100
H  52.23100 41.35600 26.71800
H  50.44100 41.64000 26.51200
H  51.57200 41.58600 25.14100
H  49.84500 35.25700 23.15000
H  47.66800 33.35100 23.26100
H  48.67000 36.32300 21.99800
H  47.80900 36.93500 23.25100
H  47.16100 35.42200 22.33700
H  49.93500 32.38900 24.95000
H  50.44600 32.86000 23.31500
H  49.63000 30.80900 22.57700
H  48.07700 31.32900 23.08500
H  48.98900 30.35100 24.19100
H  46.08600 29.34100 28.09300
H  46.10100 30.05600 26.51700
H  44.54900 30.02900 27.39900
H  44.54200 33.21600 31.94300
H  45.07100 30.85300 35.55300
H  44.81100 32.54500 35.93600
H  46.41900 32.12400 35.49300
Mg 16.50400 51.66700 24.82200
C  18.01300 50.49000 27.70900
C  13.74000 52.60000 26.64500
C  14.80300 51.92500 21.94100
C  19.00000 50.03000 23.04100
N  15.90500 51.40400 26.99400
C  16.78400 51.07000 28.02600
C  16.17200 51.42700 29.37700
C  14.75800 51.93700 29.05800
C  14.75800 52.00200 27.47800
C  13.48500 51.15600 29.66500
C  17.12600 52.40100 30.13400
C  17.31900 52.30800 31.66100
H  16.53100 51.30700 32.50000
N  14.53400 52.26300 24.32900
C  13.53900 52.62100 25.25400
C  12.38900 52.95200 24.54400
C  12.64400 52.74200 23.16400
C  13.99300 52.28400 23.02400
C  11.12800 53.38200 25.26900
C  11.68800 52.91700 22.01700
O  12.05600 52.66700 20.86500
C  10.36400 53.59500 22.30100
N  16.83100 50.94900 22.80500
C  16.01100 51.34300 21.76800
C  16.58800 51.02300 20.40200
C  17.96600 50.53800 20.75200
C  17.98900 50.53700 22.25200
C  15.64000 50.05700 19.55500
C  19.22100 51.13900 20.06100
C  19.63500 52.55600 20.49800
N  18.19600 50.69700 25.24900
C  19.08100 50.06700 24.44200
C  20.12300 49.35300 25.11300
C  19.74000 49.50900 26.43200
C  18.61800 50.34200 26.47700
C  21.35500 48.77600 24.62500
C  20.04300 49.15800 27.80000
O  20.94900 48.52900 28.31300
C  18.94000 49.81500 28.69100
C  18.31300 48.67900 29.44700
O  17.27600 48.13400 29.22400
O  19.16600 48.31200 30.48700
C  18.83500 47.11400 31.29100
H  12.95900 53.03000 27.27500
H  14.31000 52.10000 20.98200
H  19.85900 49.54400 22.57500
H  16.02500 50.50600 29.94000
H  14.58100 52.93800 29.45000
H  12.82700 51.95900 29.99700
H  13.69100 50.41200 30.43500
H  13.00500 50.63100 28.83900
H  16.85300 53.40600 29.81300
H  18.12600 52.25700 29.72600
H  17.08300 53.29600 32.05600
H  18.35700 52.30900 31.99500
H  10.24700 52.89300 24.85400
H  11.12800 54.45600 25.08000
H  11.13700 53.07100 26.31300
H  10.52700 54.42000 22.99500
H  9.68700 52.81000 22.63900
H  9.92900 54.04900 21.41100
H  16.74700 51.96300 19.87300
H  17.87200 49.52200 20.36900
H  15.00500 50.49600 18.78500
H  14.87300 49.60800 20.18600
H  16.16500 49.33300 18.93200
H  19.05000 51.17900 18.98500
H  20.10600 50.54400 20.28300
H  19.67300 53.20700 19.62500
H  20.64100 52.45700 20.90600
H  18.91200 52.95900 21.20700
H  21.20600 48.10500 23.77900
H  21.99600 48.29200 25.36100
H  21.97300 49.51600 24.11600
H  19.32700 50.44900 29.48900
H  18.44900 46.26400 30.72700
H  18.13000 47.55300 31.99700
H  19.72700 46.83700 31.85200

