158

Mg 54.36900 24.02300 44.74500
C  51.80500 26.13800 43.77100
C  52.49200 21.37000 43.88700
C  57.12200 22.18200 45.03000
C  56.28300 26.89800 45.46900
N  52.48900 23.83600 43.61800
C  51.58500 24.82600 43.29600
C  50.29000 24.18400 42.66600
C  50.37200 22.71800 43.26500
C  51.85800 22.59900 43.54800
C  49.50400 22.51200 44.62900
C  50.39900 24.14600 41.13500
C  51.76200 24.35700 40.41600
H  52.97700 23.39000 40.57800
N  54.76900 22.07700 44.30800
C  53.83500 21.05400 44.14500
C  54.49600 19.78000 44.18600
C  55.81800 19.98500 44.52900
C  55.96800 21.49100 44.63600
C  53.70500 18.49700 43.85500
C  56.83500 18.79500 44.74400
O  56.54000 17.62800 44.71200
C  58.20500 19.06200 45.11600
N  56.44100 24.49300 44.91900
C  57.34800 23.54200 45.27300
C  58.68100 24.04100 45.81300
C  58.38400 25.49400 46.06900
C  56.97800 25.68700 45.36600
C  59.37000 23.26500 46.97500
C  59.43800 26.51600 45.60000
C  60.04400 27.47000 46.68400
N  54.10100 26.14200 44.90200
C  54.93300 27.20000 45.16200
C  54.14500 28.42200 45.20100
C  52.91300 28.02000 44.65300
C  52.94200 26.67900 44.46200
C  54.59400 29.71100 45.85500
C  51.57200 28.50100 44.40100
O  51.05900 29.59200 44.52800
C  50.85500 27.34000 43.54300
C  50.80800 27.88700 42.21600
O  51.77100 27.94500 41.47000
O  49.47200 27.93700 41.84300
C  49.15400 27.94800 40.43100
H  51.92300 20.45300 43.72100
H  58.09200 21.68100 45.03800
H  56.62000 27.82900 45.93000
H  49.38900 24.75700 42.88300
H  50.18300 21.91300 42.55400
H  49.00200 21.55100 44.51500
H  48.79800 23.34100 44.67400
H  50.09600 22.38100 45.53500
H  49.67500 24.85800 40.73800
H  50.01800 23.22200 40.70000
H  52.17200 25.25100 40.88700
H  51.61900 24.68200 39.38500
H  53.53600 18.21400 42.81600
H  52.68200 18.35300 44.20300
H  54.16100 17.70900 44.45500
H  58.66900 18.08300 45.23200
H  58.24900 19.67300 46.01800
H  58.66400 19.53400 44.24700
H  59.41100 24.01000 45.00400
H  58.15700 25.56400 47.13300
H  59.39000 23.81900 47.91300
H  60.42100 23.11100 46.73000
H  58.97700 22.25900 47.12200
H  58.90100 27.06400 44.82600
H  60.24500 26.08000 45.01200
H  61.11700 27.55400 46.50800
H  59.89600 27.09900 47.69800
H  59.66600 28.49100 46.73900
H  55.54000 30.06100 45.44100
H  54.78400 29.52400 46.91200
H  53.80500 30.46200 45.82000
H  49.92900 27.21500 44.10300
H  48.58200 28.86300 40.27900
H  48.58500 27.03800 40.24000
H  49.99900 27.79700 39.75900
Mg -11.91900 38.05700 42.33500
C  -9.85700 35.47400 41.05200
C  -9.90300 40.28400 40.48600
C  -14.34800 40.48500 42.50900
C  -14.06500 35.78300 43.57000
N  -10.09300 37.90700 40.92700
C  -9.48400 36.71500 40.56400
C  -8.27500 36.97400 39.63700
C  -8.07900 38.48300 39.87600
C  -9.41000 38.95000 40.39300
C  -6.78900 38.91500 40.78900
C  -8.49100 36.52600 38.19600
C  -7.50600 35.57600 37.46100
H  -6.64000 36.06600 36.28000
N  -12.05900 40.11400 41.77100
C  -11.12800 40.82800 41.02500
C  -11.47600 42.24400 41.00100
C  -12.74600 42.34500 41.57200
C  -13.17500 40.94900 41.96900
C  -10.64300 43.43600 40.38600
C  -13.57900 43.58800 41.68200
O  -13.14800 44.63900 41.19900
C  -14.93000 43.55700 42.26300
N  -13.91000 38.11300 42.81100
C  -14.74000 39.20200 42.93100
C  -16.04400 39.02900 43.57800
C  -15.84900 37.51900 43.95300
C  -14.48400 37.08600 43.39000
C  -16.34100 39.96900 44.78500
C  -17.09800 36.63700 43.41000
C  -17.61600 35.82500 44.59200
N  -12.02500 36.02600 42.31600
C  -12.92200 35.19100 42.92700
C  -12.48600 33.87200 42.88700
C  -11.34000 33.95000 42.06300
C  -11.04300 35.28100 41.74800
C  -13.17000 32.67200 43.67800
C  -10.29800 33.12900 41.41400
O  -10.13000 31.91800 41.38800
C  -9.30900 34.11800 40.73900
C  -7.96600 33.77500 41.21800
O  -7.16800 33.09200 40.56300
O  -7.70700 34.33500 42.49300
C  -6.42200 34.12400 43.15300
H  -9.29100 40.99100 39.92200
H  -15.18100 41.18900 42.57600
H  -14.75600 35.12300 44.09700
H  -7.38700 36.44800 39.98800
H  -7.86800 38.93900 38.90900
H  -6.18100 38.01300 40.73100
H  -7.10200 39.19600 41.79500
H  -6.19600 39.73600 40.38600
H  -8.60700 37.41800 37.58000
H  -9.46900 36.04400 38.18100
H  -8.00400 34.62600 37.26600
H  -6.68900 35.47800 38.17600
H  -11.16000 43.77100 39.48700
H  -9.64100 43.06300 40.17000
H  -10.51000 44.23200 41.11800
H  -15.35200 44.54900 42.42400
H  -14.93500 42.95600 43.17300
H  -15.53900 42.97300 41.57400
H  -16.75200 39.18600 42.76400
H  -15.65600 37.51600 45.02600
H  -16.74500 39.38000 45.60900
H  -16.96900 40.83100 44.56200
H  -15.42600 40.39600 45.19600
H  -16.76600 35.92600 42.65300
H  -17.90100 37.16900 42.90100
H  -18.56900 36.19100 44.97400
H  -16.90400 35.79600 45.41700
H  -17.76100 34.79200 44.27700
H  -14.18000 32.88200 44.03000
H  -12.48100 32.34100 44.45500
H  -13.40600 31.80400 43.06300
H  -9.38200 33.77700 39.70600
H  -6.04100 33.10300 43.14800
H  -6.45000 34.32800 44.22400
H  -5.82700 34.87100 42.62800

