158

Mg 49.42300 47.34400 43.05700
C  46.01400 47.53600 42.08800
C  49.44200 44.13000 41.64100
C  52.70700 47.33500 43.19000
C  49.29100 50.75400 43.60200
N  47.89000 46.06400 41.94400
C  46.57500 46.34600 41.63600
C  45.86000 45.16400 41.00300
C  46.81500 43.97700 41.28200
C  48.15500 44.77800 41.60400
C  46.42200 43.00400 42.46700
C  45.48300 45.27100 39.46400
C  43.99600 45.45200 39.14000
H  43.52200 45.19300 37.69200
N  50.82700 45.90700 42.55500
C  50.66300 44.68000 42.05700
C  51.90100 44.00000 41.96400
C  52.93500 44.91000 42.30500
C  52.19500 46.10700 42.68900
C  51.99300 42.54700 41.45000
C  54.44000 44.60500 42.29000
O  54.86200 43.49900 41.93200
C  55.38900 45.65500 42.77500
N  50.81700 48.82600 43.29900
C  52.09500 48.55700 43.50000
C  52.90000 49.73900 43.98600
C  51.83500 50.87700 44.05900
C  50.56700 50.15000 43.63000
C  53.84100 49.60900 45.19000
C  52.08600 52.21000 43.35300
C  51.79300 53.48300 44.18900
N  47.83900 48.82000 43.17800
C  48.05600 50.18400 43.32000
C  46.75600 50.86000 43.24300
C  45.89800 49.80400 42.74900
C  46.68100 48.56900 42.64600
C  46.48300 52.26000 43.62700
C  44.52100 49.46100 42.37900
O  43.55100 50.22400 42.36100
C  44.52300 47.89200 42.01800
C  43.64000 47.28100 42.98900
O  43.87000 47.34900 44.20500
O  42.65300 46.53600 42.43700
C  41.57300 46.03100 43.32100
H  49.28400 43.14300 41.20200
H  53.77800 47.41100 43.39300
H  49.26800 51.83900 43.72000
H  44.94700 44.98700 41.57100
H  46.84600 43.21500 40.50400
H  46.42000 41.95800 42.16000
H  45.39800 43.13100 42.81800
H  47.10000 43.05100 43.31900
H  45.85000 44.43000 38.87700
H  46.03500 46.15500 39.14400
H  43.68700 46.49300 39.22900
H  43.38300 44.79600 39.75900
H  52.98100 42.30500 41.05700
H  51.17200 42.31000 40.77400
H  51.90100 41.90400 42.32500
H  55.13400 46.50500 42.14100
H  56.34100 45.25900 42.42300
H  55.04600 45.59600 43.80800
H  53.51100 49.97900 43.11600
H  51.59000 51.08000 45.10200
H  54.88900 49.76200 44.93400
H  53.80100 48.63500 45.67800
H  53.56100 50.45800 45.81400
H  51.56200 52.34400 42.40700
H  53.15100 52.12000 43.13900
H  52.74800 53.98000 44.35700
H  51.28800 53.19800 45.11200
H  51.11900 54.11200 43.60700
H  47.22000 52.90900 43.15200
H  46.57700 52.33300 44.71100
H  45.55200 52.71000 43.28300
H  44.03500 47.79400 41.04800
H  41.82500 44.99100 43.53200
H  40.65300 46.05600 42.73700
H  41.59200 46.67600 44.19900
Mg 17.16000 52.75000 26.65300
C  19.07400 51.33700 29.16200
C  14.80400 53.63000 29.07200
C  15.41000 54.11500 24.08500
C  19.53900 51.53900 24.26700
N  16.93300 52.30400 28.84200
C  17.93500 51.94600 29.63300
C  17.65300 52.09800 31.10300
C  16.11500 52.56800 31.08900
C  15.90900 52.87900 29.56800
C  15.00500 51.51400 31.66700
C  18.60600 53.02500 31.81800
C  19.07800 52.63700 33.22100
H  18.01400 51.89600 34.02900
N  15.27600 53.65500 26.57300
C  14.53500 53.97300 27.70100
C  13.41000 54.82900 27.19600
C  13.46200 54.79800 25.72200
C  14.76100 54.18600 25.40100
C  12.32900 55.51100 28.09900
C  12.49000 55.24800 24.68700
O  12.73300 55.03800 23.48100
C  11.26800 55.89900 25.08000
N  17.38300 52.71500 24.53800
C  16.56100 53.45100 23.66400
C  17.03300 53.45700 22.17400
C  18.49900 52.87000 22.40200
C  18.41500 52.23700 23.79800
C  16.08200 52.49700 21.39000
C  19.59600 53.97800 22.23500
C  19.98900 54.72700 23.53200
N  18.88900 51.65700 26.65400
C  19.81100 51.28600 25.59600
C  20.93500 50.61300 26.22800
C  20.61400 50.49800 27.55400
C  19.35200 51.18500 27.79900
C  22.10900 50.02200 25.47800
C  21.15200 50.03700 28.85700
O  22.18100 49.45300 29.11800
C  20.22400 50.57800 29.91000
C  19.58100 49.44400 30.63900
O  18.92900 48.61000 30.14800
O  19.98800 49.41300 31.90300
C  19.51300 48.29400 32.82000
H  14.17000 54.02400 29.86900
H  14.95900 54.68100 23.26700
H  20.32100 51.10800 23.63800
H  17.62300 51.14000 31.62200
H  15.98200 53.52800 31.58700
H  14.40800 51.14400 30.83300
H  14.29700 52.03500 32.31100
H  15.48200 50.83100 32.37000
H  18.21800 54.04000 31.74000
H  19.54100 53.10800 31.26400
H  19.19200 53.54300 33.81500
H  19.97000 52.02700 33.07200
H  12.30800 55.06800 29.09400
H  11.33500 55.37800 27.67200
H  12.36000 56.60100 28.09600
H  10.66500 55.15600 25.60200
H  10.83300 56.24900 24.14300
H  11.49000 56.76700 25.70000
H  17.12000 54.50200 21.87700
H  18.76700 52.07100 21.71100
H  15.26200 52.18600 22.03800
H  16.67800 51.65800 21.03000
H  15.76500 53.10400 20.54300
H  19.29200 54.75700 21.53600
H  20.57700 53.61800 21.92400
H  19.51800 55.70800 23.47400
H  21.07000 54.86500 23.55100
H  19.81500 54.24100 24.49200
H  22.48400 50.73600 24.74400
H  21.93200 49.06400 24.99000
H  22.82900 49.87500 26.28300
H  20.70700 51.34000 30.52200
H  19.98600 47.35000 32.54900
H  18.45200 48.23500 32.57900
H  19.69700 48.62600 33.84200

