158

Mg 55.28300 25.00300 44.03000
C  52.33500 26.73900 43.12800
C  53.97900 22.12600 42.79500
C  58.33600 23.51300 44.47200
C  56.71000 28.06800 45.27100
N  53.47400 24.59300 42.81100
C  52.42400 25.40800 42.62400
C  51.38900 24.70900 41.70400
C  51.66900 23.24500 42.14300
C  53.20800 23.27200 42.49600
C  50.77200 22.84700 43.37100
C  51.75400 24.90700 40.16400
C  50.54000 25.16900 39.24700
H  50.87600 25.90500 37.93400
N  56.01100 23.06200 43.79700
C  55.28200 22.04200 43.38300
C  56.00300 20.76800 43.50200
C  57.29600 21.13200 44.00300
C  57.28900 22.62800 44.09300
C  55.46400 19.44100 43.12900
C  58.43100 20.13400 44.30900
O  58.35000 18.94300 44.08500
C  59.75100 20.54700 44.98300
N  57.29100 25.71900 44.68300
C  58.38600 24.91000 44.70000
C  59.68500 25.71900 45.00900
C  59.09200 27.13000 45.33200
C  57.58300 26.98100 45.13600
C  60.55200 25.10500 46.11800
C  59.80200 28.31800 44.57500
C  60.03600 29.52900 45.56300
N  54.71000 27.06700 44.18100
C  55.34100 28.18600 44.75600
C  54.34200 29.25700 44.89700
C  53.18400 28.73900 44.22200
C  53.43200 27.41200 43.79400
C  54.71700 30.54700 45.57700
C  51.82900 29.09300 43.84600
O  51.12400 30.11100 43.95700
C  51.26300 27.76900 43.10000
C  50.81500 28.17900 41.72200
O  51.51000 28.27500 40.70600
O  49.46300 28.35400 41.79700
C  48.91400 28.71200 40.49400
H  53.60000 21.14800 42.49100
H  59.34200 23.09600 44.54900
H  57.12500 28.87000 45.88500
H  50.37800 25.07100 41.89200
H  51.46500 22.52700 41.34900
H  51.42500 22.80800 44.24300
H  50.42300 21.84100 43.14000
H  49.91000 23.48600 43.56300
H  52.21900 23.96300 39.87900
H  52.50900 25.68000 40.02000
H  49.78100 25.70500 39.81800
H  50.31500 24.18000 38.84700
H  55.42300 19.41200 42.04000
H  54.45600 19.57300 43.52200
H  55.93800 18.59400 43.62500
H  59.52400 21.09600 45.89700
H  60.24100 21.23300 44.29100
H  60.42100 19.71600 45.19900
H  60.39900 25.74100 44.18600
H  59.11800 27.37000 46.39500
H  60.01600 24.28600 46.59600
H  60.80900 25.84700 46.87400
H  61.48300 24.76000 45.66800
H  59.18300 28.52200 43.70200
H  60.78300 28.07100 44.16900
H  60.33800 30.45200 45.06800
H  60.85800 29.16900 46.18100
H  59.14300 29.69000 46.16700
H  55.61800 30.50700 46.19000
H  53.85600 30.80100 46.19500
H  54.94800 31.34300 44.87000
H  50.43200 27.31700 43.64100
H  48.20200 27.92100 40.25900
H  49.58500 28.74000 39.63600
H  48.46100 29.70200 40.55900
Mg 30.73900 57.64400 40.48400
C  27.61500 56.11500 39.68000
C  32.32400 54.92900 39.19200
C  33.40200 59.41200 40.53000
C  28.69100 60.62100 40.97900
N  30.06300 55.69500 39.79100
C  28.78700 55.36100 39.44300
C  28.70200 54.04200 38.69400
C  30.18200 53.42900 39.01500
C  30.91000 54.75400 39.36000
C  30.36700 52.57900 40.24000
C  28.53400 54.29300 37.15500
C  28.22600 53.07100 36.28400
H  27.54100 53.27700 34.90900
N  32.69300 57.18800 39.92500
C  33.20100 56.07400 39.37900
C  34.63900 56.27800 39.15900
C  34.98700 57.55300 39.66100
C  33.68100 58.10300 39.97800
C  35.47900 55.19000 38.59700
C  36.41600 58.06500 39.82400
O  37.35300 57.32400 39.64400
C  36.70400 59.50100 40.27700
N  31.03200 59.74500 40.76400
C  32.28000 60.15800 40.77600
C  32.33900 61.59600 41.14800
C  30.85600 62.04300 41.23700
C  30.12200 60.75800 40.99200
C  33.20000 61.93700 42.32800
C  30.58700 63.13100 40.19000
C  30.81900 64.64200 40.68900
N  28.51700 58.18600 40.58600
C  27.94000 59.44300 40.73200
C  26.47600 59.36800 40.42200
C  26.29100 58.04700 39.99400
C  27.57500 57.38800 40.11300
C  25.42100 60.46800 40.52100
C  25.34200 57.02700 39.44900
O  24.18000 57.10700 39.23000
C  26.17500 55.76300 39.38800
C  25.67200 54.71300 40.30600
O  25.73200 54.77500 41.48100
O  25.23400 53.58800 39.56300
C  24.60900 52.54100 40.40400
H  32.89800 54.05100 38.88800
H  34.33100 59.97500 40.64000
H  28.12800 61.53000 41.20500
H  27.84300 53.44900 39.00600
H  30.67700 52.88200 38.21300
H  31.17000 52.76900 40.95200
H  30.63400 51.57300 39.91800
H  29.44300 52.52900 40.81600
H  29.55600 54.48100 36.82500
H  27.86400 55.13400 36.97700
H  27.55600 52.39200 36.81200
H  29.10300 52.46500 36.05900
H  36.22800 55.50000 37.86900
H  34.85900 54.46400 38.07100
H  35.94900 54.70900 39.45500
H  36.10900 60.23500 39.73300
H  37.76900 59.64400 40.09100
H  36.47800 59.52400 41.34300
H  32.80300 62.04600 40.26900
H  30.71300 62.28700 42.29000
H  33.78900 61.11100 42.72700
H  32.55500 62.35700 43.10000
H  33.96500 62.68800 42.13200
H  29.51200 62.98900 40.07500
H  31.02400 62.91000 39.21600
H  31.33900 64.79000 41.63600
H  29.78600 64.98000 40.77400
H  31.35500 65.26500 39.97300
H  25.06800 60.73800 41.51600
H  24.59300 60.21500 39.85800
H  25.93300 61.35200 40.14200
H  26.11700 55.31100 38.39800
H  25.47500 52.05900 40.85800
H  24.12000 51.79000 39.78300
H  23.86100 52.85300 41.13200

