158

Mg 47.24800 16.42100 28.80800
C  45.33400 15.89900 31.58500
C  49.38400 18.51300 30.55400
C  48.79100 17.22600 26.00500
C  44.79200 14.78100 26.83500
N  47.26300 17.24800 30.82900
C  46.42600 16.76600 31.83400
C  46.97400 17.26900 33.21000
C  48.11800 18.35800 32.79500
C  48.30500 18.02800 31.26000
C  47.75300 19.82100 33.03000
C  47.59300 16.09900 34.04200
C  47.41800 16.25700 35.52000
H  47.20700 17.68900 36.12100
N  48.94100 17.58400 28.36200
C  49.78200 18.23400 29.21400
C  50.89000 18.78200 28.51200
C  50.67900 18.50600 27.13300
C  49.40900 17.71800 27.12800
C  52.06800 19.38900 29.22500
C  51.45600 18.89900 25.92500
O  51.13300 18.61000 24.76000
C  52.61600 19.78800 26.07100
N  46.86600 15.98100 26.64300
C  47.69700 16.39600 25.75000
C  47.23100 16.05400 24.35900
C  45.96900 15.09500 24.63400
C  45.93600 15.19300 26.13800
C  47.03400 17.25100 23.45600
C  46.02900 13.57400 24.17000
C  45.25000 13.34900 22.89100
N  45.44200 15.56600 29.08800
C  44.51900 15.00000 28.19400
C  43.28700 14.65100 28.96600
C  43.62200 14.90500 30.28600
C  44.92600 15.48400 30.28300
C  42.03800 14.17700 28.44600
C  43.15600 14.86800 31.66800
O  42.13600 14.43900 32.13800
C  44.26700 15.53600 32.53700
C  43.71700 16.76000 33.10000
O  43.59700 17.82900 32.50800
O  43.34600 16.66900 34.44100
C  42.75500 17.91400 35.09400
H  49.96500 19.15500 31.22000
H  49.22300 17.49900 25.04000
H  43.92400 14.41000 26.28600
H  46.11800 17.73000 33.70200
H  49.00100 18.06200 33.36100
H  46.68300 20.00900 33.11100
H  48.19200 20.47000 32.27200
H  48.16000 20.04200 34.01700
H  48.64200 16.02100 33.75600
H  47.01500 15.20900 33.79100
H  48.14900 15.71600 36.12100
H  46.52400 15.69300 35.78800
H  52.91900 18.75000 28.99200
H  52.00100 19.34400 30.31200
H  52.27800 20.35100 28.75600
H  52.26500 20.72800 26.49700
H  53.14100 19.96800 25.13300
H  53.39400 19.44700 26.75300
H  48.04400 15.43800 23.97600
H  45.05700 15.54800 24.24500
H  47.15900 18.17000 24.02900
H  46.01800 17.19000 23.06700
H  47.67700 17.20100 22.57700
H  45.71400 12.96600 25.01800
H  47.01600 13.18300 23.92300
H  45.83500 12.69100 22.24800
H  44.80500 14.24900 22.46700
H  44.48300 12.61000 23.12300
H  41.17900 14.61300 28.95400
H  42.06200 13.08900 28.37800
H  41.84000 14.48900 27.42100
H  44.45400 14.83700 33.35200
H  41.99100 18.47900 34.55900
H  43.62300 18.54100 35.29900
H  42.34400 17.69000 36.07800
Mg 29.47500 57.94100 39.96800
C  26.35500 56.34100 39.13900
C  31.03400 55.32900 38.70700
C  32.14700 60.00000 39.74700
C  27.42400 60.96700 40.59400
N  28.77400 56.04200 39.05400
C  27.51900 55.58300 38.92800
C  27.48600 54.17800 38.36900
C  29.02300 53.69700 38.62000
C  29.65400 55.07700 38.78300
C  29.24300 52.75100 39.75100
C  26.94400 53.98600 36.97700
C  27.12400 55.16500 35.93600
H  27.98100 54.87800 34.67500
N  31.41700 57.64700 39.47600
C  31.89100 56.42300 39.04900
C  33.34900 56.49200 38.99300
C  33.72400 57.85600 39.22700
C  32.43900 58.58500 39.50400
C  34.20400 55.31400 38.61500
C  35.06500 58.44800 39.26400
O  36.04800 57.75400 39.05700
C  35.25100 59.84500 39.58900
N  29.71400 60.19500 40.13200
C  30.94200 60.66900 40.09000
C  30.88800 62.24600 40.34900
C  29.44700 62.50600 40.61200
C  28.77300 61.15400 40.44000
C  31.86500 62.76600 41.56000
C  28.76300 63.55500 39.73100
C  27.77700 64.52700 40.43800
N  27.35600 58.52400 40.08500
C  26.68600 59.77700 40.29200
C  25.27400 59.50400 40.20400
C  25.09000 58.18000 39.69800
C  26.38600 57.65400 39.62500
C  24.18700 60.55200 40.46400
C  24.13400 57.19600 39.28700
O  22.92800 57.30000 39.16300
C  24.96900 55.89600 38.88500
C  24.54600 54.69100 39.74300
O  24.81500 54.45100 40.88600
O  23.75400 53.90300 38.98300
C  22.93300 52.84000 39.62500
H  31.60600 54.46300 38.36900
H  32.92900 60.75100 39.87700
H  26.78600 61.80500 40.88100
H  26.83800 53.58500 39.01500
H  29.40500 53.34600 37.66100
H  29.80900 51.86000 39.48000
H  28.30600 52.30000 40.07800
H  29.74800 53.28300 40.55700
H  25.88300 53.76200 37.09100
H  27.39500 53.08400 36.56500
H  27.64300 55.97900 36.44200
H  26.13700 55.51100 35.62700
H  35.20100 55.22600 39.04600
H  34.33700 55.20100 37.54000
H  33.75700 54.39900 39.00500
H  36.29800 60.14900 39.56300
H  34.94300 60.05000 40.61400
H  34.63600 60.30000 38.81300
H  31.17300 62.84800 39.48500
H  29.47400 62.83100 41.65200
H  32.63000 63.47600 41.24600
H  32.16400 61.92500 42.18500
H  31.32400 63.42100 42.24300
H  28.07500 63.11300 39.01000
H  29.50100 64.09900 39.14100
H  28.29300 65.40600 40.82500
H  27.55200 64.02000 41.37600
H  26.85200 64.74800 39.90600
H  24.64000 61.38400 41.00200
H  23.35700 60.30500 41.12600
H  23.85800 60.85600 39.47000
H  24.75900 55.66700 37.84000
H  23.45900 52.35600 40.44800
H  22.73800 51.94200 39.03900
H  21.98200 53.31200 39.87300

