158

Mg 35.34800 3.02300 30.31300
C  32.99400 3.95600 32.56600
C  37.72700 2.92400 32.82800
C  37.82600 2.46700 28.02200
C  33.09200 3.54400 27.77600
N  35.38900 3.39400 32.40500
C  34.16900 3.62500 33.20000
C  34.47400 3.70500 34.68800
C  36.08000 3.64700 34.72900
C  36.45800 3.35300 33.22600
C  36.77900 4.92300 35.28300
C  33.77300 2.47100 35.42700
C  33.31800 2.76700 36.82600
H  33.98800 3.89200 37.59600
N  37.53000 2.56400 30.45300
C  38.23500 2.54400 31.61400
C  39.62800 2.10300 31.31900
C  39.62200 1.92600 29.84600
C  38.34300 2.30100 29.35700
C  40.66900 1.90200 32.29300
C  40.67700 1.36100 29.01700
O  40.54300 1.22200 27.82300
C  41.96300 0.97300 29.68200
N  35.46900 2.82900 28.19900
C  36.58200 2.74300 27.46800
C  36.27200 2.77200 25.98100
C  34.78300 3.00900 25.96400
C  34.33300 3.11000 27.40700
C  37.19400 3.74900 25.18300
C  33.93600 1.96100 25.22500
C  33.41900 0.64400 25.90600
N  33.44100 3.62800 30.11800
C  32.58200 3.81200 29.03000
C  31.35100 4.25800 29.42700
C  31.37800 4.28400 30.79800
C  32.72300 3.99100 31.17500
C  30.14500 4.49300 28.51200
C  30.69600 4.55600 32.01800
O  29.52300 4.80100 32.14400
C  31.70800 4.42900 33.23500
C  31.90400 5.69500 33.94900
O  32.52300 6.62900 33.49300
O  31.35100 5.65900 35.17400
C  31.74700 6.80600 36.00100
H  38.37500 2.78800 33.69600
H  38.42600 2.16900 27.16000
H  32.28300 3.73600 27.06800
H  34.07600 4.60700 35.15200
H  36.38400 2.86400 35.42300
H  36.15100 5.81200 35.34500
H  37.66000 5.06300 34.65700
H  37.07900 4.84500 36.32800
H  34.51000 1.67700 35.54800
H  33.03400 2.11100 34.71100
H  33.65600 1.89400 37.38400
H  32.23000 2.71000 36.82800
H  41.63800 2.37700 32.13900
H  40.88800 0.83500 32.34300
H  40.36300 2.21000 33.29300
H  42.68100 0.72000 28.90100
H  41.97600 0.06400 30.28300
H  42.34600 1.93300 30.02600
H  36.40600 1.77200 25.56800
H  34.58400 3.92200 25.40200
H  37.95600 3.24200 24.59200
H  37.71300 4.36400 25.91800
H  36.66900 4.33600 24.42900
H  34.36200 1.56000 24.30500
H  33.08100 2.47200 24.78000
H  32.34500 0.67700 25.72700
H  33.62000 0.52900 26.97100
H  33.63200 -0.23500 25.29700
H  29.66800 3.53800 28.29300
H  30.52400 4.96300 27.60400
H  29.55600 5.20600 29.08800
H  31.30500 3.66000 33.89300
H  31.77500 6.52100 37.05200
H  30.98500 7.58600 35.97300
H  32.73500 7.16300 35.71200
Mg 56.42000 24.89700 44.74900
C  53.70000 26.92700 43.57100
C  54.81000 22.23800 43.42500
C  59.16000 23.25700 45.05100
C  58.12500 27.97900 45.47900
N  54.56800 24.64000 43.53300
C  53.58200 25.58000 43.17800
C  52.28000 24.87400 42.93600
C  52.57500 23.43400 43.29500
C  54.10100 23.43500 43.42000
C  51.88700 22.79100 44.57200
C  51.92500 25.00100 41.46000
C  50.58400 24.47500 41.03600
H  50.68000 23.24900 40.10800
N  56.90400 22.98400 44.28600
C  56.14400 21.99300 43.69400
C  56.87200 20.70500 43.69300
C  58.08600 20.92000 44.41400
C  58.15300 22.43700 44.61100
C  56.36000 19.44600 43.03000
C  59.23500 19.98800 44.62100
O  59.08800 18.76300 44.34000
C  60.47700 20.39600 45.20700
N  58.41300 25.57600 45.12000
C  59.34300 24.64100 45.17500
C  60.72000 25.29900 45.50700
C  60.40200 26.85300 45.57900
C  58.88900 26.82900 45.34500
C  61.32400 24.84700 46.81900
C  61.20000 27.71100 44.51100
C  62.42400 28.56100 45.01700
N  55.98100 26.96200 44.69000
C  56.75200 28.05900 45.18100
C  55.87000 29.21300 45.16800
C  54.67800 28.83200 44.54800
C  54.81200 27.47500 44.25600
C  56.27300 30.55400 45.60200
C  53.37900 29.25900 44.07100
O  52.93000 30.38300 44.08700
C  52.62800 28.09300 43.45500
C  52.19500 28.54800 42.09700
O  52.86600 29.16900 41.29900
O  50.90900 28.18500 41.86100
C  50.18500 28.70100 40.64500
H  54.13300 21.45400 43.08000
H  60.16800 22.83600 45.06000
H  58.79200 28.79400 45.76900
H  51.43900 25.31100 43.47400
H  52.31300 22.78500 42.46000
H  51.16700 23.56200 44.84700
H  52.60500 22.62200 45.37500
H  51.47300 21.84200 44.23100
H  52.70500 24.53800 40.85600
H  51.96200 26.03700 41.12300
H  50.01300 25.21200 40.47200
H  49.91400 24.14900 41.83200
H  57.19100 18.78700 42.78100
H  55.86500 19.85900 42.15000
H  55.58700 19.05300 43.69000
H  61.15700 20.82200 44.46800
H  61.01500 19.53300 45.59800
H  60.34100 21.02800 46.08400
H  61.31300 24.98500 44.64800
H  60.52000 27.29700 46.56700
H  62.09200 24.11500 46.57000
H  60.55300 24.41300 47.45500
H  61.94800 25.64700 47.21900
H  60.54500 28.49100 44.12300
H  61.51300 27.06000 43.69500
H  62.36700 29.55600 44.57700
H  63.35000 28.03000 44.79300
H  62.34400 28.57800 46.10400
H  56.11300 30.58400 46.68000
H  55.53300 31.18100 45.10600
H  57.25400 30.89700 45.27200
H  51.68500 27.97500 43.98900
H  50.82400 28.63900 39.76400
H  49.83800 29.73000 40.74000
H  49.34800 28.01200 40.53300

