158

Mg 44.00500 4.69700 47.38600
C  42.09500 7.57400 47.36700
C  41.13800 2.74500 47.17900
C  45.96100 1.89700 46.66900
C  46.85800 6.60400 47.46700
N  41.85000 5.18700 47.07500
C  41.33000 6.39900 47.32400
C  39.77900 6.30500 47.58600
C  39.54500 4.73700 47.68500
C  40.89700 4.14700 47.33000
C  38.86200 4.37900 49.06300
C  38.94400 7.00900 46.46600
C  39.23000 6.58300 45.01400
H  39.11300 7.63000 43.92900
N  43.57600 2.60000 46.98000
C  42.31100 2.05100 47.05800
C  42.40100 0.61500 46.81200
C  43.77200 0.39000 46.48200
C  44.51400 1.65300 46.64200
C  41.19200 -0.39500 47.03700
C  44.44400 -1.00600 45.98400
O  43.72200 -2.00100 45.90900
C  45.91900 -1.19300 45.48500
N  46.10400 4.25400 47.03400
C  46.69500 3.05600 46.86500
C  48.23100 3.05200 46.93600
C  48.42100 4.58500 47.25700
C  47.02300 5.23400 47.24900
C  48.93700 1.97900 47.75700
C  49.36300 5.24300 46.23200
C  50.83100 5.42400 46.65600
N  44.48600 6.68200 47.40200
C  45.65800 7.35100 47.44900
C  45.37600 8.76700 47.46700
C  44.04200 8.87800 47.47700
C  43.51800 7.60800 47.36600
C  46.40500 9.84300 47.40900
C  42.96700 9.84500 47.34800
O  42.99400 11.05800 47.13000
C  41.62500 8.94200 47.32800
C  40.89100 9.29400 48.53100
O  40.95400 8.70700 49.58200
O  40.14900 10.45700 48.33900
C  39.40400 10.95700 49.47500
H  40.20300 2.18200 47.21200
H  46.66400 1.11300 46.38000
H  47.77100 7.18500 47.61300
H  39.59500 6.77900 48.55000
H  38.90100 4.36900 46.88700
H  38.55900 5.27800 49.60000
H  39.39900 3.72100 49.74600
H  37.91900 3.92700 48.75500
H  38.90200 8.09800 46.46200
H  37.91600 6.75400 46.72400
H  38.60600 5.72200 44.77200
H  40.25100 6.21300 44.91800
H  40.21500 0.06200 47.19100
H  41.49300 -0.90800 47.95100
H  41.12100 -0.90000 46.07400
H  46.68300 -1.18300 46.26200
H  46.09500 -0.35500 44.80900
H  46.04600 -2.14100 44.96200
H  48.49200 2.93200 45.88400
H  48.83200 4.57500 48.26700
H  48.25200 1.29200 48.25300
H  49.47500 2.52500 48.53300
H  49.53300 1.32400 47.12300
H  48.98300 6.25700 46.11400
H  49.40200 4.77600 45.24800
H  51.11800 5.03400 47.63300
H  50.83800 6.49500 46.85800
H  51.52000 5.17100 45.85000
H  47.43100 9.48700 47.31500
H  46.33600 10.50000 48.27600
H  46.24400 10.39600 46.48300
H  40.95000 9.22600 46.52100
H  38.57700 11.61700 49.21200
H  40.04700 11.34100 50.26700
H  38.82600 10.11000 49.84400
Mg -5.88500 24.31200 25.76400
C  -4.78500 25.95700 28.60300
C  -7.48900 22.06800 27.70100
C  -6.41400 22.45300 22.96200
C  -3.62400 26.37400 23.80600
N  -6.19800 24.15200 27.87000
C  -5.67300 24.96000 28.84000
C  -6.01300 24.43200 30.27400
C  -6.85000 23.09600 29.95200
C  -6.83300 23.07200 28.39700
C  -6.10700 21.83100 30.59400
C  -6.85600 25.41800 31.14000
C  -6.84700 25.26000 32.71300
H  -6.19400 23.94900 33.33700
N  -6.97500 22.55100 25.34900
C  -7.57100 21.80500 26.31800
C  -8.33300 20.68300 25.73300
C  -7.98400 20.74800 24.37100
C  -7.04600 21.92400 24.11800
C  -9.31800 19.87600 26.48700
C  -8.41400 19.89100 23.24000
O  -8.10700 20.05600 22.02700
C  -9.40900 18.72200 23.55300
N  -4.86600 24.15100 23.74900
C  -5.40500 23.35000 22.81300
C  -4.69500 23.62200 21.48600
C  -3.88300 24.93300 21.71500
C  -4.14900 25.25300 23.17300
C  -3.85500 22.46400 20.99400
C  -4.17100 26.09400 20.77600
C  -3.13500 26.50400 19.75800
N  -4.56600 25.83500 26.11800
C  -3.77700 26.64200 25.20700
C  -3.16600 27.72000 25.92900
C  -3.49600 27.50300 27.31700
C  -4.34700 26.38000 27.34300
C  -2.29700 28.67300 25.25200
C  -3.23600 27.88900 28.67200
O  -2.54500 28.75900 29.20000
C  -4.06900 26.91600 29.58300
C  -3.18200 26.19100 30.53100
O  -2.24100 25.43600 30.26200
O  -3.45700 26.53000 31.84400
C  -2.58300 25.98600 32.94500
H  -7.94500 21.31300 28.34500
H  -6.57000 21.89700 22.03600
H  -3.05000 27.10400 23.23100
H  -5.10800 24.22400 30.84500
H  -7.89800 23.15500 30.24700
H  -5.19700 22.16400 31.09200
H  -5.84400 21.11800 29.81300
H  -6.70400 21.19500 31.24800
H  -7.89300 25.39900 30.80500
H  -6.54000 26.41700 30.84000
H  -7.84400 25.31100 33.15000
H  -6.14000 25.99900 33.09000
H  -8.98500 18.84400 26.37600
H  -10.34900 19.89800 26.13400
H  -9.22700 20.16900 27.53300
H  -9.54100 18.05800 22.69900
H  -10.41600 19.04300 23.81800
H  -9.03800 18.05800 24.33400
H  -5.44400 23.74200 20.70400
H  -2.82700 24.66500 21.76100
H  -2.79900 22.72300 20.92400
H  -4.18200 22.19200 19.99000
H  -3.95700 21.70100 21.76700
H  -4.67600 26.91000 21.29300
H  -4.86600 25.56800 20.12200
H  -2.13500 26.07500 19.81700
H  -2.89200 27.56500 19.81100
H  -3.52100 26.25600 18.76900
H  -2.86900 29.45800 24.75600
H  -1.49700 28.29000 24.61900
H  -1.76400 29.23700 26.01700
H  -4.70500 27.56300 30.18800
H  -1.69900 25.46200 32.58100
H  -3.07800 25.46600 33.76500
H  -2.13800 26.90200 33.33500

