158

Mg 24.69000 -5.22700 46.18300
C  26.63400 -2.80200 44.58200
C  22.05000 -4.55500 44.23600
C  23.42000 -8.27300 46.97200
C  27.72700 -6.32400 47.79800
N  24.51400 -3.95600 44.50600
C  25.35400 -2.98200 44.06300
C  24.67000 -2.03400 42.96500
C  23.14400 -2.44200 43.16700
C  23.21400 -3.71100 43.99500
C  22.30000 -1.27300 43.68500
C  25.27500 -2.49400 41.63400
C  25.68500 -1.29700 40.72900
H  25.13300 -1.26200 39.27900
N  22.91300 -6.15800 45.81500
C  21.92000 -5.72400 45.02300
C  20.78500 -6.58900 45.05600
C  21.18300 -7.66300 45.81600
C  22.56700 -7.40700 46.29200
C  19.55000 -6.30900 44.26600
C  20.28000 -8.75300 46.29100
O  19.13900 -8.81000 45.84300
C  20.67200 -9.92300 47.24700
N  25.39900 -7.02600 47.45000
C  24.71700 -8.14400 47.44900
C  25.49900 -9.27500 48.12100
C  26.89700 -8.69100 48.48900
C  26.67200 -7.24500 47.87400
C  24.83100 -10.02000 49.32200
C  28.21600 -9.43900 47.87500
C  28.20700 -10.98800 47.86500
N  26.69200 -4.57500 46.37100
C  27.77400 -5.11600 47.04300
C  28.96800 -4.25600 46.81100
C  28.55800 -3.34800 45.83000
C  27.18400 -3.59100 45.53800
C  30.28100 -4.33300 47.44400
C  28.98600 -2.36500 45.00100
O  30.09600 -1.95100 44.83100
C  27.79200 -1.87900 44.12600
C  27.45100 -0.47500 44.34100
O  27.03600 -0.11900 45.43700
O  27.79100 0.30100 43.25200
C  27.88400 1.74400 43.40100
H  21.19400 -4.28100 43.61700
H  23.17000 -9.33400 47.02500
H  28.66200 -6.68600 48.23000
H  24.76700 -0.99600 43.28400
H  22.67300 -2.73600 42.23000
H  22.87300 -0.44700 44.10700
H  21.56100 -1.48700 44.45700
H  21.63100 -0.96700 42.88100
H  24.55400 -3.10300 41.08900
H  26.18900 -3.02900 41.89400
H  26.77100 -1.20700 40.74500
H  25.21000 -0.40000 41.12700
H  19.01400 -7.23100 44.04100
H  19.74800 -5.72500 43.36700
H  18.73700 -5.84800 44.82600
H  19.75600 -10.49100 47.41100
H  21.03300 -9.54700 48.20500
H  21.38800 -10.65100 46.86500
H  25.68700 -9.94700 47.28400
H  26.97000 -8.52200 49.56300
H  24.87900 -11.07200 49.04100
H  23.79900 -9.67900 49.41300
H  25.32300 -9.93500 50.29100
H  29.07300 -9.15600 48.48500
H  28.38800 -9.20300 46.82500
H  28.78400 -11.49700 48.63700
H  28.66300 -11.29600 46.92400
H  27.15600 -11.26400 47.95600
H  30.79400 -5.24400 47.13600
H  30.25400 -4.47100 48.52500
H  30.88400 -3.44900 47.23300
H  28.01700 -1.92100 43.06100
H  27.86900 2.05100 44.44700
H  27.06600 2.26900 42.90900
H  28.85200 2.08700 43.03500
Mg 29.47500 57.94100 39.96800
C  26.35500 56.34100 39.13900
C  31.03400 55.32900 38.70700
C  32.14700 60.00000 39.74700
C  27.42400 60.96700 40.59400
N  28.77400 56.04200 39.05400
C  27.51900 55.58300 38.92800
C  27.48600 54.17800 38.36900
C  29.02300 53.69700 38.62000
C  29.65400 55.07700 38.78300
C  29.24300 52.75100 39.75100
C  26.94400 53.98600 36.97700
C  27.12400 55.16500 35.93600
H  27.98100 54.87800 34.67500
N  31.41700 57.64700 39.47600
C  31.89100 56.42300 39.04900
C  33.34900 56.49200 38.99300
C  33.72400 57.85600 39.22700
C  32.43900 58.58500 39.50400
C  34.20400 55.31400 38.61500
C  35.06500 58.44800 39.26400
O  36.04800 57.75400 39.05700
C  35.25100 59.84500 39.58900
N  29.71400 60.19500 40.13200
C  30.94200 60.66900 40.09000
C  30.88800 62.24600 40.34900
C  29.44700 62.50600 40.61200
C  28.77300 61.15400 40.44000
C  31.86500 62.76600 41.56000
C  28.76300 63.55500 39.73100
C  27.77700 64.52700 40.43800
N  27.35600 58.52400 40.08500
C  26.68600 59.77700 40.29200
C  25.27400 59.50400 40.20400
C  25.09000 58.18000 39.69800
C  26.38600 57.65400 39.62500
C  24.18700 60.55200 40.46400
C  24.13400 57.19600 39.28700
O  22.92800 57.30000 39.16300
C  24.96900 55.89600 38.88500
C  24.54600 54.69100 39.74300
O  24.81500 54.45100 40.88600
O  23.75400 53.90300 38.98300
C  22.93300 52.84000 39.62500
H  31.60600 54.46300 38.36900
H  32.92900 60.75100 39.87700
H  26.78600 61.80500 40.88100
H  26.83800 53.58500 39.01500
H  29.40500 53.34600 37.66100
H  29.80900 51.86000 39.48000
H  28.30600 52.30000 40.07800
H  29.74800 53.28300 40.55700
H  25.88300 53.76200 37.09100
H  27.39500 53.08400 36.56500
H  27.64300 55.97900 36.44200
H  26.13700 55.51100 35.62700
H  35.20100 55.22600 39.04600
H  34.33700 55.20100 37.54000
H  33.75700 54.39900 39.00500
H  36.29800 60.14900 39.56300
H  34.94300 60.05000 40.61400
H  34.63600 60.30000 38.81300
H  31.17300 62.84800 39.48500
H  29.47400 62.83100 41.65200
H  32.63000 63.47600 41.24600
H  32.16400 61.92500 42.18500
H  31.32400 63.42100 42.24300
H  28.07500 63.11300 39.01000
H  29.50100 64.09900 39.14100
H  28.29300 65.40600 40.82500
H  27.55200 64.02000 41.37600
H  26.85200 64.74800 39.90600
H  24.64000 61.38400 41.00200
H  23.35700 60.30500 41.12600
H  23.85800 60.85600 39.47000
H  24.75900 55.66700 37.84000
H  23.45900 52.35600 40.44800
H  22.73800 51.94200 39.03900
H  21.98200 53.31200 39.87300

