158

Mg 52.69900 23.93000 44.79900
C  49.81800 25.69600 44.07800
C  51.35300 21.18800 43.36700
C  55.80000 22.69700 44.70400
C  54.16800 27.02700 46.04600
N  50.74400 23.48900 43.94400
C  49.73500 24.37900 43.67800
C  48.67600 23.65800 42.74700
C  49.08600 22.14500 42.99600
C  50.45100 22.25700 43.51800
C  48.19900 21.36000 43.99800
C  48.97500 24.02100 41.30300
C  47.90300 24.57200 40.39700
H  47.98800 24.04100 38.96900
N  53.42900 22.18600 44.19700
C  52.76500 21.15200 43.68100
C  53.61900 20.02900 43.48200
C  54.86300 20.35700 44.03400
C  54.76900 21.83200 44.37400
C  53.18700 18.71500 42.98100
C  56.03600 19.46700 44.02900
O  56.12500 18.33000 43.41700
C  57.22100 19.83100 44.92600
N  54.75200 24.89800 45.12800
C  55.79900 24.05400 45.11000
C  57.08400 24.76600 45.68800
C  56.50800 26.20900 46.07900
C  55.07800 26.10800 45.65100
C  57.81800 23.93500 46.80900
C  57.29200 27.38500 45.44900
C  57.67900 28.59000 46.34300
N  52.10300 25.98500 45.09800
C  52.81700 27.11000 45.63500
C  51.85700 28.23000 45.73800
C  50.64900 27.67500 45.17100
C  50.88400 26.39100 44.74200
C  52.03600 29.54200 46.40100
C  49.24200 28.03100 44.87600
O  48.50500 29.00500 45.19900
C  48.65600 26.77800 44.16800
C  48.27400 27.37500 42.85600
O  48.99400 27.42200 41.86100
O  46.96700 27.53600 42.75000
C  46.43300 28.13100 41.54800
H  51.02600 20.31900 42.79300
H  56.82700 22.33400 44.63300
H  54.42900 27.91000 46.63300
H  47.65400 23.87400 43.05800
H  49.31000 21.51800 42.13300
H  47.24400 21.85400 44.17200
H  48.68900 21.27700 44.96900
H  48.08800 20.34900 43.60600
H  49.36400 23.13800 40.79600
H  49.78500 24.74200 41.19900
H  48.08600 25.64100 40.29300
H  46.93000 24.32400 40.82200
H  53.67600 18.68200 42.00700
H  52.13300 18.47200 42.85000
H  53.59000 17.93300 43.62400
H  57.96200 20.48700 44.46800
H  57.56800 18.84800 45.24300
H  56.89900 20.36300 45.82100
H  57.85800 24.88200 44.92900
H  56.41000 26.25900 47.16400
H  58.18100 24.60400 47.59000
H  58.71900 23.51000 46.36800
H  57.17100 23.25600 47.36400
H  56.54700 27.84300 44.79800
H  58.07700 27.00600 44.79500
H  58.74400 28.72300 46.53200
H  57.24500 28.56500 47.34300
H  57.24800 29.43500 45.80700
H  52.56600 29.40400 47.34300
H  51.04200 29.97400 46.52300
H  52.56800 30.29200 45.81500
H  47.82300 26.35500 44.73100
H  45.46500 28.55600 41.81300
H  46.34900 27.38200 40.76100
H  47.07100 28.95300 41.22400
Mg -2.04900 34.70000 26.99500
C  -3.70600 32.79300 29.45000
C  -1.00200 36.84500 29.27500
C  -1.16900 36.62000 24.38100
C  -3.22300 32.33800 24.62100
N  -2.36900 34.85400 29.06600
C  -2.93800 33.89900 29.91300
C  -2.56300 34.14300 31.34300
C  -1.63900 35.39600 31.25900
C  -1.74400 35.79300 29.78400
C  -1.94700 36.48600 32.28200
C  -1.75500 32.96600 31.98500
C  -2.17200 32.47000 33.35500
H  -1.18300 32.61200 34.57900
N  -1.13400 36.54500 26.85100
C  -0.75600 37.26400 27.95500
C  -0.08400 38.49100 27.55100
C  -0.27600 38.49100 26.10900
C  -0.91500 37.19700 25.66900
C  0.55000 39.50900 28.54700
C  0.20100 39.52400 25.10800
O  0.14200 39.34300 23.88800
C  0.86200 40.81100 25.62900
N  -2.27100 34.51700 24.76000
C  -1.68000 35.44400 23.93600
C  -1.62200 34.94800 22.49600
C  -2.14100 33.53100 22.67800
C  -2.51900 33.37600 24.11600
C  -2.55400 35.80200 21.64800
C  -1.09800 32.50400 22.18400
C  -0.02000 32.11300 23.18400
N  -3.24200 32.93900 26.99500
C  -3.67800 32.10100 25.93300
C  -4.53200 31.05300 26.39600
C  -4.52800 31.27800 27.80400
C  -3.69700 32.42100 28.05400
C  -5.30400 30.04100 25.61200
C  -5.05400 30.79300 29.11400
O  -5.79400 29.86800 29.42200
C  -4.40300 31.71500 30.25900
C  -5.45800 32.24300 31.16000
O  -6.16900 33.17300 30.87900
O  -5.53500 31.46700 32.34200
C  -6.49600 31.97200 33.33700
H  -0.54400 37.48300 30.03500
H  -0.75000 37.12600 23.50900
H  -3.45700 31.57600 23.87400
H  -3.51000 34.28500 31.86300
H  -0.60000 35.09700 31.39700
H  -2.36100 37.35800 31.77600
H  -1.05100 36.63800 32.88400
H  -2.69700 36.04500 32.93900
H  -0.71000 33.25300 32.10700
H  -1.70600 32.08600 31.34400
H  -2.35500 31.40100 33.24000
H  -3.14700 32.94300 33.47200
H  1.42100 39.96200 28.07300
H  0.90500 39.06000 29.47500
H  -0.15900 40.29500 28.80800
H  0.90600 41.50600 24.79000
H  1.83700 40.56500 26.05000
H  0.19700 41.23100 26.38300
H  -0.59700 35.03300 22.13500
H  -3.04200 33.44600 22.07100
H  -3.25500 36.33600 22.28800
H  -3.14700 35.25000 20.91900
H  -1.99400 36.59800 21.15700
H  -0.63100 32.87600 21.27200
H  -1.68800 31.70000 21.74500
H  0.10900 32.94000 23.88300
H  0.93100 31.95400 22.67600
H  -0.19200 31.11100 23.57700
H  -5.04400 30.05900 24.55400
H  -6.36400 30.23200 25.77900
H  -5.12400 29.05100 26.03100
H  -3.65500 31.06800 30.71600
H  -7.38600 32.42100 32.89500
H  -6.13600 32.69500 34.06900
H  -6.73800 31.20300 34.07000

