158

Mg 9.53000 48.55100 26.43400
C  7.36100 48.46200 29.22900
C  12.07300 49.37500 28.65400
C  11.44100 48.84000 23.74000
C  6.68900 48.32800 24.34300
N  9.62300 48.76100 28.70900
C  8.65000 48.70100 29.63300
C  9.11400 48.99000 31.04200
C  10.56200 49.51000 30.89800
C  10.80000 49.24900 29.27900
C  10.80800 50.96800 31.35400
C  8.94200 47.72800 32.03200
C  9.92500 47.32400 33.08200
H  9.25800 46.66800 34.36600
N  11.46900 49.02300 26.21900
C  12.38300 49.27600 27.29000
C  13.71800 49.45800 26.72300
C  13.60100 49.30700 25.35600
C  12.14600 49.02800 25.00500
C  14.98500 49.73200 27.47900
C  14.74500 49.43700 24.38700
O  14.47700 49.64200 23.23400
C  16.14700 49.22700 24.75200
N  9.13200 48.57700 24.27500
C  10.12200 48.62800 23.39800
C  9.65800 48.22300 22.06500
C  8.07000 48.12400 22.24400
C  7.93300 48.36900 23.70400
C  10.09500 49.09600 20.89700
C  7.58000 46.67200 21.86900
C  6.21800 46.54500 21.19400
N  7.43700 48.32800 26.69100
C  6.40000 48.30200 25.74500
C  5.12500 48.17400 26.36800
C  5.49700 48.25900 27.71300
C  6.90600 48.23900 27.88100
C  3.79300 47.98500 25.66000
C  4.85700 48.31200 29.04300
O  3.69500 48.41400 29.45100
C  6.10300 48.38800 30.03700
C  5.97400 47.11800 30.84500
O  6.64100 46.13200 30.72500
O  4.98600 47.27200 31.75200
C  4.91600 46.21800 32.75500
H  12.93200 49.55500 29.30300
H  12.24400 48.85200 23.00100
H  5.78300 48.27500 23.73600
H  8.46500 49.74900 31.47800
H  11.31900 48.86500 31.34300
H  11.50700 50.85100 32.18200
H  9.85400 51.31000 31.75500
H  11.21000 51.62100 30.57900
H  9.01000 46.89000 31.33800
H  7.96700 47.75600 32.51800
H  10.37700 48.25000 33.43700
H  10.75400 46.67500 32.80100
H  15.56900 48.82500 27.64000
H  14.84200 50.11000 28.49100
H  15.60300 50.46800 26.96500
H  16.81300 48.97400 23.92800
H  16.10100 48.39400 25.45400
H  16.51700 50.14800 25.20200
H  10.07700 47.24700 21.82200
H  7.48300 48.87700 21.71700
H  9.48300 49.96400 20.65200
H  10.00400 48.52900 19.97100
H  11.10300 49.48900 21.03200
H  7.48900 46.05100 22.75900
H  8.40000 46.30900 21.24900
H  5.54600 46.02600 21.87700
H  6.39300 45.93400 20.30800
H  5.75800 47.51800 21.02100
H  3.77700 47.12600 24.98900
H  3.47000 48.84900 25.07900
H  3.00100 47.88700 26.40200
H  5.98300 49.17400 30.78300
H  5.81200 46.26400 33.37300
H  4.75800 45.19200 32.42100
H  4.05100 46.38600 33.39600
Mg -5.91300 25.41700 26.32900
C  -3.93000 26.91600 29.00500
C  -7.04900 23.20600 28.60200
C  -7.25000 23.93300 23.64000
C  -4.03900 27.62900 24.12900
N  -5.45500 25.07900 28.57400
C  -4.67400 25.80600 29.43300
C  -5.12900 25.49800 30.88300
C  -5.85800 24.17800 30.70400
C  -6.18600 24.06800 29.20100
C  -4.95000 22.95400 31.14400
C  -6.04800 26.61000 31.55200
C  -5.93900 26.89400 33.04100
H  -5.57700 25.83800 34.02400
N  -7.08500 23.89600 26.11900
C  -7.52900 23.09900 27.20400
C  -8.47000 22.17000 26.61600
C  -8.43700 22.30600 25.13600
C  -7.56000 23.45400 24.87700
C  -9.43800 21.36700 27.56000
C  -9.15800 21.54800 24.12200
O  -9.04500 21.79700 22.91100
C  -10.04900 20.40400 24.54500
N  -5.57200 25.73500 24.19700
C  -6.25500 24.92300 23.33500
C  -5.98400 25.28000 21.90200
C  -5.09800 26.61600 22.02600
C  -4.86000 26.68200 23.54300
C  -5.44900 24.16600 21.01300
C  -5.68300 27.94300 21.43000
C  -5.80500 28.07400 19.88500
N  -4.32900 26.92500 26.45400
C  -3.75000 27.76300 25.51700
C  -2.81700 28.67300 26.09700
C  -2.87400 28.31200 27.41500
C  -3.80300 27.28700 27.65100
C  -1.92700 29.71100 25.47400
C  -2.29000 28.73600 28.63600
O  -1.41900 29.57400 28.85100
C  -3.09300 27.85900 29.78200
C  -2.09000 27.05900 30.58600
O  -1.23200 26.30300 30.14500
O  -2.30300 27.26200 31.90700
C  -1.39200 26.57400 32.88300
H  -7.50600 22.56100 29.35600
H  -7.65700 23.54000 22.70600
H  -3.52000 28.25500 23.40100
H  -4.31500 25.20300 31.54500
H  -6.81500 24.07500 31.21600
H  -5.56200 22.05500 31.22200
H  -4.42500 23.29400 32.03700
H  -4.06200 22.77700 30.53600
H  -7.05400 26.22400 31.39000
H  -5.92100 27.56700 31.04600
H  -6.94400 27.23600 33.28800
H  -5.17900 27.66000 33.19400
H  -8.98600 20.41600 27.84100
H  -10.45900 21.28700 27.18700
H  -9.40300 21.97700 28.46300
H  -9.35200 19.75700 25.07900
H  -10.43700 19.86600 23.68000
H  -10.91200 20.79500 25.08400
H  -6.92000 25.63800 21.47300
H  -4.18200 26.48500 21.44900
H  -6.08600 24.14200 20.12900
H  -5.51000 23.21000 21.53400
H  -4.41600 24.33000 20.70800
H  -5.06400 28.70900 21.89700
H  -6.69900 27.99400 21.82100
H  -6.70900 28.64100 19.66400
H  -5.70000 27.08300 19.44400
H  -4.89800 28.60000 19.58600
H  -0.92600 29.28200 25.52900
H  -1.94800 30.62400 26.06900
H  -2.16700 29.89800 24.42800
H  -3.70100 28.41300 30.49800
H  -1.71800 26.57700 33.92300
H  -0.41500 27.05900 32.88400
H  -1.17300 25.62500 32.39400

