158

Mg 50.00000 46.31800 42.92400
C  46.59700 46.82600 41.75900
C  49.82900 43.22800 41.61900
C  53.32300 46.18000 43.43500
C  50.06300 49.74400 43.65900
N  48.39600 45.17800 41.73000
C  47.16000 45.57100 41.37200
C  46.38100 44.31900 40.90200
C  47.26000 43.08500 41.20400
C  48.60400 43.81800 41.58000
C  46.70100 42.23700 42.30900
C  46.02300 44.52100 39.36200
C  44.53300 44.26500 39.05500
H  44.07900 44.74100 37.65000
N  51.35700 44.83800 42.80300
C  51.06700 43.58000 42.24900
C  52.30800 42.73500 42.29000
C  53.27700 43.56400 42.95700
C  52.71000 44.95800 43.04400
C  52.38400 41.31100 41.92100
C  54.73200 43.05400 43.27600
O  55.11900 41.95200 42.86600
C  55.70100 43.80200 44.08400
N  51.54900 47.74200 43.43300
C  52.86100 47.47400 43.58100
C  53.62000 48.67900 44.16700
C  52.55000 49.80400 44.22600
C  51.26600 49.07300 43.65900
C  54.29300 48.46500 45.53900
C  52.88800 51.06100 43.41600
C  54.11200 51.91000 43.76600
N  48.62600 47.97000 42.77700
C  48.78300 49.24000 43.24100
C  47.49100 49.91700 43.07500
C  46.63700 48.99100 42.50400
C  47.37200 47.88700 42.36500
C  47.34400 51.32200 43.59500
C  45.27100 48.73800 42.00600
O  44.27200 49.42400 41.84900
C  45.21600 47.25600 41.66100
C  44.44000 46.68400 42.89200
O  44.38200 47.15500 44.04100
O  43.75100 45.56800 42.56300
C  43.12900 44.82000 43.68800
H  49.90400 42.24900 41.14200
H  54.38400 45.93500 43.52100
H  50.16100 50.77900 43.99300
H  45.37100 44.26400 41.30800
H  47.47500 42.47200 40.32900
H  45.94100 42.73300 42.91300
H  47.56300 41.98600 42.92800
H  46.27200 41.28100 42.00800
H  46.61700 43.82900 38.76500
H  46.28000 45.54900 39.10600
H  43.83300 44.80200 39.69600
H  44.41500 43.18400 39.13300
H  53.33200 41.18100 41.40000
H  51.75000 41.01500 41.08500
H  52.17900 40.67400 42.78100
H  55.23000 44.14900 45.00300
H  56.05700 44.64300 43.48800
H  56.55100 43.21400 44.42900
H  54.37500 49.05900 43.47900
H  52.42700 50.11800 45.26200
H  54.09800 47.46300 45.92000
H  53.95000 49.23800 46.22500
H  55.36600 48.64600 45.46800
H  52.10300 51.78100 43.64500
H  52.96500 50.70700 42.38800
H  54.49800 51.49500 44.69800
H  53.77900 52.88000 44.13500
H  54.81600 51.96700 42.93600
H  47.54000 52.07800 42.83500
H  47.87800 51.57200 44.51200
H  46.29600 51.15500 43.84300
H  44.72600 46.99800 40.72200
H  43.05700 43.78100 43.36900
H  42.09600 45.09600 43.90000
H  43.69500 44.87500 44.61800
Mg -5.26000 25.15900 26.29500
C  -3.63800 26.75600 28.93300
C  -7.24900 23.56300 28.66900
C  -6.57300 23.32500 23.85600
C  -2.90500 26.58500 24.13800
N  -5.40700 25.23300 28.50800
C  -4.63200 25.89400 29.39700
C  -4.91700 25.59500 30.81800
C  -6.04500 24.59500 30.68100
C  -6.26000 24.46800 29.18700
C  -5.76300 23.24800 31.52800
C  -5.17000 26.86000 31.70200
C  -6.08300 26.71200 32.91800
H  -5.68400 25.62600 33.91600
N  -6.67100 23.62700 26.22200
C  -7.42100 23.12700 27.34900
C  -8.47800 22.34600 26.83400
C  -8.40100 22.32900 25.43000
C  -7.24600 23.10400 25.07400
C  -9.47700 21.69900 27.76300
C  -9.32900 21.69500 24.42100
O  -9.20700 21.76700 23.20400
C  -10.52900 20.93200 24.86800
N  -4.92400 25.07300 24.19700
C  -5.52300 24.19300 23.40400
C  -4.85800 24.21100 22.00900
C  -3.66200 25.21300 22.19700
C  -3.85000 25.70200 23.60100
C  -4.48500 22.90500 21.34100
C  -3.61800 26.36400 21.14200
C  -2.48100 26.25400 20.06500
N  -3.68200 26.51100 26.41200
C  -2.82400 27.01500 25.44300
C  -1.86500 27.82300 26.10200
C  -2.09100 27.74700 27.46800
C  -3.22400 27.00900 27.59400
C  -0.79400 28.66500 25.47600
C  -1.64200 28.13700 28.80800
O  -0.61600 28.77300 29.03200
C  -2.55700 27.39200 29.88200
C  -1.82100 26.44800 30.78000
O  -1.39400 25.35900 30.46300
O  -1.69900 27.05800 32.02600
C  -1.20900 26.38700 33.27000
H  -7.81700 23.17400 29.51600
H  -6.98000 22.76600 23.01000
H  -2.06600 26.96400 23.55100
H  -4.08100 24.97000 31.12900
H  -6.95200 25.14500 30.93300
H  -5.82500 22.44400 30.79600
H  -6.53600 23.15100 32.29100
H  -4.83700 23.22300 32.10300
H  -5.30400 27.76100 31.10200
H  -4.20600 27.04300 32.17600
H  -7.13300 26.68600 32.62500
H  -6.06000 27.68000 33.41800
H  -9.52900 20.61100 27.72600
H  -10.42500 22.23200 27.68200
H  -9.29500 21.88200 28.82200
H  -11.04600 21.67000 25.48100
H  -10.21300 20.07500 25.46300
H  -11.09300 20.74800 23.95400
H  -5.56000 24.76900 21.38900
H  -2.70400 24.70300 22.30500
H  -3.58700 22.96300 20.72600
H  -5.21700 22.47100 20.66000
H  -4.30500 22.20800 22.15900
H  -3.47400 27.30000 21.68300
H  -4.59100 26.50200 20.67100
H  -2.14300 25.22200 20.15900
H  -1.67700 26.99000 20.09600
H  -2.93800 26.39700 19.08600
H  -0.81500 28.70000 24.38700
H  0.14300 28.18000 25.74600
H  -0.88900 29.73100 25.68600
H  -3.08800 28.10300 30.51600
H  -0.33600 26.89600 33.67800
H  -1.00500 25.33400 33.07900
H  -1.89500 26.52500 34.10600

