158

Mg 35.92300 48.46100 24.97200
C  35.46700 46.53100 27.83300
C  34.63900 51.23600 26.81900
C  35.68000 50.23000 22.21600
C  36.78300 45.70200 23.20800
N  35.07700 48.70200 27.05000
C  35.23100 47.87100 28.13200
C  35.04600 48.56100 29.51000
C  34.67800 50.03800 29.06000
C  34.82300 50.02100 27.52900
C  33.27000 50.54500 29.57000
C  36.34400 48.56200 30.39600
C  36.16800 48.42900 31.98400
H  34.77000 48.66300 32.59600
N  35.17500 50.43400 24.59100
C  34.71200 51.38800 25.43300
C  34.38800 52.60200 24.69500
C  34.46400 52.28900 23.29200
C  35.10800 50.90100 23.31500
C  33.75600 53.83700 25.31800
C  34.04900 52.99900 22.04600
O  34.28500 52.54300 20.90600
C  33.46400 54.37300 22.05900
N  36.02900 48.04100 22.93300
C  36.12700 49.00400 22.03500
C  36.45300 48.44400 20.70000
C  37.16200 47.03700 21.06200
C  36.63200 46.87500 22.51800
C  35.25000 48.35400 19.73200
C  38.73900 47.00200 21.08600
C  39.49100 46.98100 19.76500
N  36.05100 46.51200 25.37200
C  36.49100 45.48700 24.57600
C  36.64900 44.23700 25.28600
C  36.22000 44.61200 26.58300
C  35.78500 45.95800 26.55500
C  37.11900 42.91300 24.80200
C  36.07600 44.11200 27.97900
O  36.16600 42.96300 28.43200
C  35.69600 45.42800 28.82900
C  34.60000 45.04100 29.78600
O  33.38700 44.97000 29.56500
O  35.18000 44.87300 31.04800
C  34.23000 44.44000 32.10100
H  34.45500 52.14000 27.40400
H  35.74100 50.88100 21.34200
H  37.28900 44.91400 22.64600
H  34.19800 48.11300 30.02800
H  35.39900 50.75100 29.45900
H  32.65000 51.04700 28.82700
H  33.54500 51.19600 30.40000
H  32.66700 49.73700 29.98500
H  36.86000 49.51300 30.27300
H  37.10500 47.82300 30.14500
H  36.80800 49.11000 32.54600
H  36.46400 47.38700 32.10400
H  32.67200 53.72400 25.27400
H  34.07900 54.77400 24.86500
H  33.94100 53.88400 26.39200
H  32.62000 54.30600 22.74600
H  33.22300 54.79300 21.08300
H  34.21700 55.02200 22.50700
H  37.09600 49.22500 20.29300
H  36.80400 46.28800 20.35700
H  35.35500 47.44300 19.14300
H  35.16600 49.17100 19.01600
H  34.31400 48.26300 20.28300
H  39.03200 46.08100 21.59000
H  39.17800 47.82600 21.64900
H  40.22700 47.78000 19.85400
H  38.79400 47.07400 18.93200
H  39.89200 45.97900 19.61200
H  37.09000 42.79000 23.71900
H  36.43800 42.19200 25.25400
H  38.17800 42.77700 25.02300
H  36.55300 45.76800 29.40900
H  34.40300 43.49700 32.61900
H  33.16700 44.43500 31.85900
H  34.21500 45.15900 32.92100
Mg 15.96600 52.60000 26.46400
C  17.90100 50.65700 28.88300
C  13.89500 53.28500 28.95900
C  13.95800 53.58300 24.10800
C  18.01900 51.06100 24.02200
N  15.87400 51.82200 28.71400
C  16.77000 51.28700 29.46300
C  16.49700 51.51100 30.93800
C  14.97800 51.95000 30.90700
C  14.87400 52.32400 29.44500
C  13.97100 50.90200 31.40400
C  17.47300 52.49100 31.54600
C  17.52400 52.70700 33.06400
H  16.72200 51.77400 33.96900
N  14.27900 53.41000 26.55300
C  13.60500 53.78100 27.70400
C  12.53500 54.72900 27.32300
C  12.39400 54.63500 25.92800
C  13.55200 53.83500 25.47700
C  11.79100 55.64600 28.36900
C  11.29000 55.15500 25.09400
O  11.17300 54.80700 23.86700
C  10.13700 55.91800 25.60900
N  16.00400 52.23600 24.26700
C  15.07000 52.86100 23.55400
C  15.43500 52.74100 21.99200
C  16.75300 51.97200 22.04300
C  16.92500 51.76600 23.48900
C  14.35200 52.03300 21.08600
C  17.92700 52.68600 21.24600
C  19.11200 51.76800 20.86300
N  17.63600 51.15100 26.41500
C  18.39100 50.79100 25.31700
C  19.50000 49.97600 25.83100
C  19.34300 49.92200 27.20300
C  18.22500 50.64300 27.51600
C  20.50500 49.17200 25.07800
C  19.96200 49.30800 28.41900
O  20.97700 48.62200 28.60400
C  19.05100 49.90700 29.55300
C  18.64700 48.89300 30.54900
O  17.89600 47.97400 30.28000
O  19.27000 49.20200 31.75900
C  18.94400 48.32800 32.87700
H  13.24500 53.75300 29.70100
H  13.30200 54.00600 23.34400
H  18.68900 50.51700 23.35300
H  16.76300 50.67300 31.58300
H  14.80900 52.82800 31.53000
H  14.39500 49.91200 31.57500
H  13.21400 50.79800 30.62700
H  13.54400 51.33700 32.30700
H  17.42500 53.44800 31.02700
H  18.43400 52.04800 31.28200
H  17.38100 53.78000 33.19500
H  18.54900 52.57400 33.40900
H  11.05500 55.01600 28.86700
H  11.30800 56.54900 27.99300
H  12.55600 55.93800 29.08800
H  9.40400 56.34000 24.92100
H  10.42200 56.80900 26.16700
H  9.48500 55.34400 26.26800
H  15.61800 53.78100 21.71800
H  16.71400 50.92900 21.72800
H  13.51900 51.75000 21.73000
H  14.90100 51.19400 20.65700
H  14.02400 52.70200 20.29100
H  18.24600 53.49200 21.90600
H  17.51500 53.19900 20.37700
H  18.93400 50.75000 21.20800
H  20.07700 52.25900 20.99200
H  18.97300 51.52200 19.81000
H  21.35900 48.98800 25.72900
H  20.82100 49.70100 24.17900
H  20.14800 48.18600 24.78100
H  19.75000 50.61400 30.00100
H  17.87700 48.10900 32.88900
H  19.25900 48.65100 33.86900
H  19.30700 47.30500 32.77400

