158

Mg 24.65100 -4.94100 45.81000
C  26.84400 -2.50200 44.28600
C  22.30300 -4.14000 43.66100
C  23.19200 -7.73800 46.88200
C  27.46600 -5.69900 48.03900
N  24.69500 -3.46500 44.15600
C  25.57800 -2.58500 43.69100
C  25.00900 -1.72300 42.50500
C  23.44300 -2.11100 42.58500
C  23.41600 -3.31900 43.57100
C  22.47400 -0.94500 42.86600
C  25.81400 -1.90500 41.18500
C  26.08700 -0.61600 40.37200
H  25.78400 -0.65800 38.84100
N  22.97100 -5.81700 45.36600
C  22.07400 -5.28600 44.45600
C  20.92600 -6.19200 44.45900
C  21.24100 -7.25300 45.37500
C  22.49500 -6.95400 45.93500
C  19.73700 -6.09600 43.47600
C  20.31300 -8.48700 45.57700
O  19.10300 -8.45700 45.26700
C  20.76800 -9.67300 46.29400
N  25.36700 -6.64900 47.14300
C  24.46500 -7.57000 47.37700
C  24.95700 -8.47500 48.55000
C  26.25900 -7.76300 49.04000
C  26.39900 -6.62200 47.98900
C  23.88200 -8.62900 49.67300
C  27.56100 -8.66100 49.27000
C  28.14100 -8.59600 50.73800
N  26.71900 -4.25200 46.12800
C  27.70200 -4.65100 47.05500
C  28.88700 -3.85300 46.92500
C  28.59500 -2.98300 45.88300
C  27.31700 -3.27500 45.42500
C  30.06900 -3.91200 47.84200
C  29.09300 -1.76600 45.08300
O  29.99900 -1.02100 45.17800
C  28.07600 -1.62700 43.91500
C  27.76000 -0.13100 43.79800
O  27.07700 0.47700 44.57500
O  28.49000 0.40300 42.78000
C  28.15300 1.80200 42.62400
H  21.59200 -3.91900 42.86100
H  22.74200 -8.62300 47.33800
H  28.21500 -5.96200 48.78900
H  25.12900 -0.65200 42.66800
H  23.12500 -2.51300 41.62300
H  21.83600 -1.13800 43.72900
H  21.73300 -0.90700 42.06700
H  22.85600 0.07400 42.92200
H  25.22300 -2.65200 40.65600
H  26.73500 -2.44200 41.41200
H  27.13400 -0.31500 40.33200
H  25.47600 0.15900 40.83300
H  19.81100 -6.97800 42.84000
H  19.62900 -5.28300 42.75800
H  18.84200 -6.25500 44.07700
H  20.80300 -9.67100 47.38300
H  21.72500 -9.98300 45.87600
H  20.14300 -10.50500 45.96900
H  25.23500 -9.48000 48.23200
H  26.01400 -7.17700 49.92600
H  23.54000 -9.66300 49.72500
H  22.97300 -8.03300 49.60000
H  24.28500 -8.45100 50.67000
H  28.30800 -8.31000 48.55800
H  27.48200 -9.70100 48.95400
H  27.45100 -9.23900 51.28500
H  28.31000 -7.61200 51.17500
H  29.09000 -9.12900 50.69100
H  30.92900 -3.73600 47.19700
H  30.03400 -4.92200 48.25200
H  30.00200 -3.19400 48.66000
H  28.45100 -2.04200 42.98000
H  29.05200 2.12300 42.09700
H  27.99400 2.35200 43.55200
H  27.35000 1.89700 41.89400
Mg 25.92800 49.69600 26.46900
C  24.21000 51.08900 29.09200
C  28.37700 48.74100 28.88000
C  27.93100 48.60700 23.99400
C  24.08900 51.56600 24.13600
N  26.35700 50.02800 28.77600
C  25.27600 50.41200 29.61200
C  25.67100 50.18300 31.09900
C  27.15500 49.60200 30.97000
C  27.37100 49.48100 29.48000
C  28.27200 50.38100 31.75600
C  24.63300 49.20800 31.82500
C  23.99700 49.69400 33.22400
H  24.96900 50.04500 34.35600
N  27.79300 48.59700 26.51100
C  28.60900 48.26900 27.56200
C  29.64900 47.46600 27.07800
C  29.56300 47.47500 25.60600
C  28.34200 48.22300 25.27600
C  30.72100 46.78600 27.94400
C  30.49300 46.82500 24.63400
O  30.45100 46.98200 23.40700
C  31.69100 45.96900 25.04500
N  26.00000 50.02900 24.33600
C  26.93000 49.42900 23.56900
C  26.70400 49.66000 22.03500
C  25.18300 50.35400 22.09100
C  25.12200 50.77100 23.57400
C  27.79200 50.58400 21.39200
C  23.95100 49.46900 21.60200
C  23.43900 49.81800 20.19200
N  24.48000 51.02800 26.54600
C  23.74400 51.60500 25.51600
C  22.65600 52.30000 26.00500
C  22.74500 52.10700 27.40300
C  23.94500 51.38400 27.71000
C  21.60000 53.18400 25.29400
C  22.18100 52.39700 28.66800
O  21.19800 53.12100 28.91000
C  23.01100 51.70700 29.82800
C  23.35400 52.77000 30.84100
O  24.11800 53.67500 30.60500
O  22.61200 52.54100 31.98700
C  23.15600 53.40400 33.08900
H  29.19500 48.33700 29.48100
H  28.43000 48.00500 23.23100
H  23.35000 52.06300 23.50500
H  25.73600 51.15600 31.58700
H  27.21700 48.62500 31.44900
H  28.56600 49.92200 32.70000
H  27.91400 51.35500 32.08900
H  29.15400 50.68300 31.19100
H  25.01100 48.18800 31.89800
H  23.77900 49.22000 31.14800
H  23.37400 48.91500 33.66300
H  23.44700 50.63300 33.15800
H  30.80700 45.71800 27.74300
H  30.60200 46.97300 29.01100
H  31.59800 47.31200 27.56700
H  32.27200 46.61600 25.70300
H  32.23500 45.60700 24.17300
H  31.38100 45.04200 25.52700
H  26.72800 48.63700 21.65900
H  25.30500 51.27800 21.52700
H  27.37100 51.36500 20.75900
H  28.38200 50.00900 20.67800
H  28.37300 51.04200 22.19200
H  23.14000 49.67600 22.29900
H  24.19500 48.40700 21.56000
H  23.43600 48.90400 19.59900
H  24.17500 50.48600 19.74500
H  22.42400 50.18900 20.33200
H  21.10900 52.71100 24.44300
H  22.04300 54.13200 24.99000
H  20.77700 53.39400 25.97700
H  22.44800 50.87000 30.24100
H  24.21400 53.22800 33.28500
H  22.63500 53.41400 34.04600
H  23.02600 54.44800 32.80400

