158

Mg 46.88000 17.38200 27.70500
C  45.15800 17.24700 30.79200
C  49.55500 18.89500 29.39800
C  48.60600 17.72500 24.83600
C  44.18800 15.95300 26.15500
N  47.13300 18.15300 29.82400
C  46.41800 17.92600 30.94000
C  47.12800 18.35100 32.20400
C  48.35400 19.17100 31.64300
C  48.39200 18.74000 30.12800
C  48.09200 20.72800 31.82700
C  47.50700 17.18000 33.06600
C  47.22100 17.22800 34.60000
H  46.79700 18.64800 35.19300
N  48.69900 18.35500 27.14900
C  49.63200 18.88900 27.96500
C  50.80600 19.37600 27.17900
C  50.49200 19.02700 25.85900
C  49.22400 18.41500 25.86800
C  52.06600 19.78000 27.85400
C  51.28000 19.35000 24.49700
O  51.05200 18.87100 23.37200
C  52.36100 20.40500 24.44300
N  46.40200 17.00500 25.80500
C  47.38100 17.04600 24.79600
C  46.88300 16.36900 23.51100
C  45.61700 15.49100 24.05800
C  45.34700 16.24200 25.38000
C  46.59300 17.36500 22.34300
C  45.93700 14.01200 24.18600
C  44.75700 13.10100 24.24800
N  45.00300 16.90500 28.20200
C  44.01600 16.21500 27.54600
C  42.98400 15.74100 28.41900
C  43.44800 16.18000 29.67800
C  44.66900 16.87700 29.55300
C  41.68000 14.94300 28.13500
C  43.04600 16.02400 31.08900
O  42.10200 15.50700 31.66700
C  44.25800 16.77900 31.84100
C  43.56100 17.70000 32.77700
O  43.21200 18.81600 32.48300
O  43.23600 17.01600 33.92400
C  42.49500 17.76200 34.94700
H  50.42600 19.29500 29.92200
H  49.17400 17.65000 23.90700
H  43.34000 15.39300 25.75400
H  46.44900 19.03300 32.71600
H  49.28200 18.90100 32.14800
H  47.08300 21.12800 31.92900
H  48.61600 21.13500 30.96200
H  48.60200 21.08800 32.72000
H  48.54800 16.87200 32.96900
H  46.89000 16.34300 32.74200
H  48.16800 16.93400 35.05200
H  46.40900 16.52500 34.78600
H  52.11200 20.77300 28.30100
H  53.01400 19.72200 27.32000
H  52.33600 19.03500 28.60300
H  52.05900 21.41700 24.71100
H  52.66000 20.39000 23.39500
H  53.26100 20.18400 25.01700
H  47.61400 15.58700 23.30800
H  44.72400 15.69100 23.46700
H  46.48900 18.38800 22.70400
H  45.66300 17.09100 21.84500
H  47.46100 17.37600 21.68300
H  46.54900 13.88400 25.07900
H  46.54000 13.70600 23.33000
H  44.75700 12.39800 23.41500
H  43.85100 13.64900 23.98900
H  44.69700 12.59900 25.21300
H  41.71600 13.86500 27.98000
H  41.30700 15.49400 27.27100
H  41.01300 15.07500 28.98700
H  44.74100 15.93400 32.33200
H  43.23900 18.04800 35.69100
H  41.77700 17.17100 35.51700
H  42.13000 18.75600 34.69100
Mg -11.64900 39.36100 41.32400
C  -10.21000 36.17400 40.72600
C  -9.01500 40.83400 39.69900
C  -13.32400 42.28600 41.27100
C  -14.50800 37.68100 42.44500
N  -9.90500 38.59100 40.28600
C  -9.55100 37.29100 40.20300
C  -8.23400 37.16100 39.40800
C  -7.77600 38.64300 39.23600
C  -8.93200 39.42900 39.83300
C  -6.39600 39.02800 39.74000
C  -8.36000 36.30600 38.08500
C  -7.26800 35.28500 37.81400
H  -6.10300 35.70800 36.97300
N  -11.15100 41.36900 40.67300
C  -10.05700 41.67400 40.00200
C  -10.03800 43.13300 39.83700
C  -11.27900 43.62500 40.16300
C  -11.99100 42.41300 40.71000
C  -8.91000 43.89400 39.18700
C  -11.90100 45.04000 40.00900
O  -11.17700 45.94100 39.59400
C  -13.26200 45.42800 40.39000
N  -13.69400 39.86700 41.55100
C  -14.10200 41.15600 41.64700
C  -15.44200 41.26500 42.24900
C  -15.65600 39.85400 42.85700
C  -14.57400 39.07300 42.16300
C  -15.57600 42.33500 43.29000
C  -17.20300 39.40400 42.76400
C  -17.63000 38.84900 41.40800
N  -12.26500 37.29700 41.70900
C  -13.45200 36.77900 42.15300
C  -13.30300 35.34700 42.27900
C  -12.03300 35.04600 41.72900
C  -11.45400 36.28400 41.42200
C  -14.32400 34.42400 42.83400
C  -11.06700 34.00500 41.48300
O  -11.00800 32.76500 41.69400
C  -9.88000 34.72200 40.81400
C  -8.57300 34.37500 41.56000
O  -7.78500 33.45900 41.40100
O  -8.36300 35.33900 42.49300
C  -7.22800 35.13600 43.37900
H  -8.07600 41.29000 39.37800
H  -13.82400 43.23200 41.48800
H  -15.32900 37.19700 42.97800
H  -7.49200 36.71300 40.06900
H  -7.85100 38.85300 38.16900
H  -5.88300 39.68100 39.03400
H  -5.78200 38.13900 39.88800
H  -6.60800 39.67700 40.58900
H  -8.19300 36.92700 37.20500
H  -9.30600 35.76700 38.13500
H  -7.79800 34.47300 37.31600
H  -6.84400 34.94000 38.75700
H  -9.01500 43.71500 38.11700
H  -7.97400 43.53400 39.61400
H  -8.84300 44.96300 39.39100
H  -13.48100 45.22800 41.43900
H  -13.85300 44.87900 39.65800
H  -13.42600 46.49100 40.21000
H  -16.11900 41.55800 41.44700
H  -15.44900 39.71800 43.91800
H  -14.67800 42.37600 43.90700
H  -16.50200 42.27000 43.86100
H  -15.59400 43.31900 42.82100
H  -17.84700 40.23800 43.04100
H  -17.34600 38.58100 43.46400
H  -17.37700 37.78900 41.41800
H  -17.07000 39.37600 40.63600
H  -18.70900 38.98100 41.32100
H  -13.81700 33.46000 42.88400
H  -15.12300 34.35800 42.09600
H  -14.60200 34.73900 43.84000
H  -9.76200 34.28200 39.82400
H  -6.37900 34.93500 42.72600
H  -7.32300 34.21500 43.95500
H  -6.97500 36.00400 43.98800

