158

Mg 16.93600 -1.53700 28.11500
C  15.86600 0.80000 30.62100
C  18.47500 -3.28300 30.57700
C  18.12900 -3.53200 25.78200
C  15.60600 0.69000 25.72700
N  17.23200 -1.21400 30.31600
C  16.60600 -0.22300 31.10200
C  16.93100 -0.49500 32.56200
C  17.93200 -1.73800 32.52600
C  17.92600 -2.10300 31.03200
C  19.37200 -1.33500 32.96600
C  15.72700 -0.87700 33.45400
C  15.67700 -0.36800 34.98500
H  16.95800 0.21500 35.59800
N  18.12600 -3.16000 28.16200
C  18.65100 -3.81600 29.27400
C  19.29000 -5.04500 28.90000
C  19.24300 -5.08200 27.50400
C  18.48200 -3.90500 27.10400
C  19.97000 -6.03900 29.81700
C  19.97200 -6.04400 26.60200
O  19.98700 -5.94000 25.39800
C  20.78000 -7.21000 27.12800
N  16.93300 -1.38400 26.17200
C  17.46300 -2.33800 25.37500
C  17.48500 -2.05200 23.82200
C  16.60900 -0.73700 23.86200
C  16.26800 -0.45200 25.34900
C  18.82800 -1.76200 23.23100
C  15.32100 -0.82400 23.08800
C  15.08900 0.31800 22.01400
N  15.85600 0.32500 28.13200
C  15.43700 1.06100 27.09100
C  14.67100 2.20300 27.59300
C  14.79900 2.19300 28.98600
C  15.48000 0.96100 29.22200
C  13.90700 3.16400 26.79100
C  14.44300 2.83800 30.29700
O  13.90600 3.88600 30.53100
C  15.23400 1.99600 31.34200
C  16.16700 2.85100 31.99700
O  17.25700 3.06100 31.52800
O  15.64000 3.37100 33.18700
C  16.58500 4.29600 33.80400
H  18.91300 -3.89200 31.37100
H  18.45800 -4.22900 25.00800
H  15.15600 1.34100 24.97400
H  17.46200 0.42400 32.81200
H  17.67000 -2.59400 33.14900
H  19.79300 -2.17700 33.51500
H  19.40300 -0.45800 33.61300
H  20.03500 -1.07400 32.14200
H  15.62400 -1.95800 33.36800
H  14.80900 -0.44900 33.05000
H  15.43700 -1.19700 35.65000
H  14.88700 0.35800 35.18000
H  19.46300 -6.99700 29.70200
H  19.63400 -5.75100 30.81400
H  21.03900 -6.19400 29.67000
H  21.32000 -7.72800 26.33600
H  20.09900 -7.94300 27.56100
H  21.61800 -6.85500 27.72800
H  17.04000 -2.91700 23.33100
H  17.23000 0.14800 23.72000
H  18.77700 -0.83800 22.65500
H  19.18100 -2.58200 22.60500
H  19.62400 -1.63300 23.96500
H  14.46600 -0.51700 23.69100
H  15.17900 -1.78100 22.58600
H  14.37700 1.09700 22.29000
H  14.72300 -0.09000 21.07300
H  16.06600 0.75100 21.80200
H  13.34100 3.86800 27.40000
H  13.26600 2.48400 26.23000
H  14.54200 3.79900 26.17200
H  14.64000 1.69900 32.20700
H  17.60100 3.98300 33.56300
H  16.33700 4.31300 34.86600
H  16.57600 5.31200 33.41000
Mg -12.39500 37.92900 42.79700
C  -10.03400 35.46600 41.67400
C  -10.35100 40.26400 41.21100
C  -14.88600 40.00400 43.00900
C  -14.32300 35.22600 43.99100
N  -10.47700 37.80100 41.51000
C  -9.62000 36.71000 41.30200
C  -8.37200 37.04400 40.52200
C  -8.50700 38.60800 40.53200
C  -9.83000 38.94300 41.19400
C  -7.31500 39.26500 41.25700
C  -8.39000 36.32600 39.12500
C  -7.27400 35.30300 38.78100
H  -6.30600 35.56000 37.59000
N  -12.55400 39.91700 42.29400
C  -11.65000 40.75700 41.62800
C  -12.28400 42.13300 41.53800
C  -13.59200 42.02600 42.14000
C  -13.72700 40.60800 42.46200
C  -11.60500 43.34600 40.96400
C  -14.62300 43.13400 42.37300
O  -14.23000 44.27100 42.09400
C  -16.01200 43.03300 42.83500
N  -14.37800 37.60900 43.27300
C  -15.16700 38.66700 43.38000
C  -16.54900 38.16900 43.74100
C  -16.29400 36.78400 44.46300
C  -14.92500 36.45600 43.89300
C  -17.39200 39.14700 44.57600
C  -17.44700 35.73900 44.46200
C  -17.84500 35.40200 45.93100
N  -12.24000 35.75200 42.95000
C  -13.11200 34.81300 43.47600
C  -12.49800 33.47600 43.39500
C  -11.30800 33.69100 42.68400
C  -11.19900 35.09300 42.42000
C  -13.13000 32.20900 43.94300
C  -10.13800 33.01700 42.13200
O  -9.79800 31.88100 42.18900
C  -9.24600 34.15800 41.55200
C  -7.95300 34.17300 42.26200
O  -6.99300 33.52500 41.97200
O  -7.92300 35.14600 43.28700
C  -6.65500 35.59600 43.87300
H  -9.71000 40.97800 40.68800
H  -15.76200 40.65500 42.98200
H  -14.85900 34.38900 44.44200
H  -7.58600 36.63500 41.15700
H  -8.58600 38.92900 39.49400
H  -6.39300 38.69800 41.12600
H  -7.58900 39.35100 42.30800
H  -7.16500 40.19000 40.70000
H  -8.36400 37.08200 38.34000
H  -9.39600 35.90400 39.11900
H  -7.79300 34.36100 38.60500
H  -6.67900 35.17900 39.68600
H  -11.94600 43.71800 39.99800
H  -10.55000 43.10000 40.84200
H  -11.66000 44.10100 41.74800
H  -16.68500 42.64300 42.07200
H  -16.42100 44.02800 43.00800
H  -16.01900 42.52400 43.79900
H  -17.15500 37.86800 42.88700
H  -15.97000 36.95600 45.49000
H  -16.80700 40.05800 44.70400
H  -17.67900 38.69700 45.52600
H  -18.33700 39.46500 44.13500
H  -17.18900 34.79900 43.97300
H  -18.39100 36.18300 44.14800
H  -17.69100 34.35000 46.16900
H  -18.89800 35.43300 46.21300
H  -17.32900 36.04900 46.64000
H  -14.17200 32.41400 44.18700
H  -12.44900 31.86900 44.72300
H  -13.06000 31.40300 43.21200
H  -9.00800 33.91300 40.51700
H  -5.84300 34.87500 43.78600
H  -6.78000 35.85800 44.92400
H  -6.48700 36.56900 43.41100

