158

Mg 34.72000 2.79300 29.25000
C  32.46300 3.60700 31.83100
C  37.23600 2.80300 31.66400
C  36.94800 2.40200 26.74200
C  32.04000 3.08300 26.91800
N  34.84400 3.15100 31.48300
C  33.78900 3.50000 32.29500
C  34.16500 3.43200 33.77700
C  35.70400 3.47000 33.68100
C  35.97400 3.10900 32.18700
C  36.33800 4.78300 34.09200
C  33.47100 2.28700 34.62800
C  32.69000 2.69400 35.83200
H  33.34100 3.75000 36.73600
N  36.82500 2.66600 29.21100
C  37.65300 2.60000 30.31900
C  39.08700 2.34100 29.81700
C  38.97700 2.19800 28.38300
C  37.52500 2.44700 28.05300
C  40.32100 2.29700 30.80200
C  40.06500 1.77700 27.36000
O  39.94000 1.82100 26.15700
C  41.44000 1.28000 27.77200
N  34.57000 2.76600 27.16500
C  35.59600 2.52200 26.32900
C  35.17300 2.46700 24.82200
C  33.62600 2.41800 24.99100
C  33.31300 2.84800 26.43400
C  35.67700 3.65500 24.07400
C  32.99000 1.02200 24.73800
C  31.59000 1.10100 24.09000
N  32.67500 3.06600 29.36000
C  31.70800 3.31500 28.29900
C  30.50400 3.61300 28.96200
C  30.79600 3.78500 30.28100
C  32.12700 3.41900 30.52400
C  29.29000 4.01500 28.29800
C  30.15400 4.20100 31.51800
O  29.03800 4.69800 31.70100
C  31.17800 4.09600 32.62100
C  31.30100 5.40100 33.28400
O  32.03100 6.34000 32.93000
O  30.47700 5.49000 34.35200
C  30.50800 6.79400 35.01700
H  37.95900 2.63800 32.46600
H  37.73200 2.33200 25.98500
H  31.17100 3.12100 26.25800
H  33.82400 4.42100 34.08300
H  36.06700 2.58100 34.19700
H  37.20500 4.62600 34.73300
H  35.53400 5.32800 34.58700
H  36.59100 5.29200 33.16200
H  34.11400 1.44200 34.87400
H  32.74100 1.81000 33.97400
H  32.34200 1.81900 36.38200
H  31.70000 3.01400 35.50700
H  40.00600 2.99900 31.57300
H  41.22000 2.78200 30.42100
H  40.52800 1.32700 31.25400
H  41.32900 0.61100 28.62600
H  42.10100 2.08700 28.08800
H  41.87200 0.74700 26.92500
H  35.40700 1.51000 24.35600
H  33.16000 3.18800 24.37600
H  34.94100 4.45700 24.14100
H  35.86200 3.42000 23.02600
H  36.58800 3.98200 24.57500
H  32.86400 0.60700 25.73800
H  33.68200 0.41100 24.15900
H  31.53800 0.72500 23.06800
H  31.16400 2.10400 24.12200
H  30.94400 0.35300 24.55200
H  29.42700 4.44000 27.30300
H  28.68600 4.69800 28.89500
H  28.71100 3.10500 28.14100
H  30.83000 3.33000 33.31300
H  29.56300 6.86200 35.55700
H  30.81400 7.62800 34.38500
H  31.33600 6.70700 35.72000
Mg 27.33300 50.32000 26.78800
C  25.15900 51.48000 29.37700
C  29.41500 49.26700 29.08700
C  29.43500 49.53800 24.17900
C  25.14600 51.93700 24.47800
N  27.21300 50.30600 28.96600
C  26.25000 50.69000 29.86900
C  26.57900 50.20700 31.19900
C  28.07500 49.92500 31.16400
C  28.25800 49.79500 29.65100
C  28.97500 50.95000 31.90700
C  25.82600 48.91900 31.58700
C  25.36200 48.81100 33.04000
H  25.72100 49.95200 34.00400
N  29.21400 49.44100 26.63600
C  29.91700 49.12100 27.75800
C  31.22400 48.60700 27.32000
C  31.20300 48.69100 25.88100
C  29.88000 49.25500 25.51600
C  32.23800 48.14500 28.21400
C  32.35400 48.43700 25.01100
O  32.35200 48.98500 23.86500
C  33.58000 47.63700 25.42000
N  27.27000 50.78000 24.57200
C  28.23700 50.19700 23.79800
C  27.81500 50.35800 22.29600
C  26.37700 50.89700 22.40900
C  26.25300 51.22100 23.87300
C  28.88800 51.23600 21.39900
C  25.28100 49.93200 21.90700
C  24.35000 49.11100 22.87400
N  25.49500 51.31600 26.86700
C  24.81400 51.93500 25.86500
C  23.64700 52.54400 26.50000
C  23.69300 52.43800 27.85300
C  24.92400 51.71700 28.02000
C  22.57100 53.23100 25.75100
C  23.17500 52.79900 29.08400
O  22.19400 53.46900 29.44500
C  24.01400 52.09600 30.16400
C  24.48700 53.06300 31.23300
O  25.57200 53.51100 31.33000
O  23.36800 53.41600 31.93500
C  23.58100 54.17700 33.19300
H  30.14800 49.04700 29.86500
H  30.02900 49.13500 23.35600
H  24.30100 52.39300 23.95800
H  26.52800 51.03700 31.90400
H  28.36000 48.98500 31.63700
H  29.37700 50.40900 32.76300
H  28.55900 51.92400 32.16400
H  29.89400 51.14200 31.35200
H  26.51900 48.09800 31.40400
H  24.96400 48.74400 30.94200
H  25.61700 47.84700 33.48100
H  24.27700 48.89500 32.99000
H  31.97000 48.55100 29.18900
H  33.22800 48.54500 27.99600
H  32.34300 47.06100 28.16200
H  34.23800 48.13000 26.13500
H  34.18100 47.58800 24.51200
H  33.35800 46.62600 25.76300
H  27.81100 49.39500 21.78500
H  26.27400 51.88200 21.95400
H  29.75500 51.49700 22.00500
H  28.39100 52.12800 21.01900
H  29.23800 50.64400 20.55300
H  25.69600 49.28500 21.13300
H  24.68200 50.56200 21.24900
H  24.63400 49.08900 23.92700
H  24.27900 48.09000 22.49900
H  23.33800 49.51700 22.85000
H  22.19800 52.69000 24.88200
H  22.92300 54.16900 25.32200
H  21.75800 53.52200 26.41700
H  23.40600 51.30000 30.59300
H  24.61800 54.10900 33.52200
H  22.90600 53.79400 33.95900
H  23.32500 55.22200 33.01900

