158

Mg 24.36300 -4.90200 46.89700
C  26.32900 -2.75400 45.08200
C  21.70800 -4.15100 44.85400
C  22.93000 -7.90200 47.64400
C  27.31100 -5.97700 48.61500
N  24.06900 -3.61600 45.18600
C  24.97600 -2.74700 44.65300
C  24.41400 -1.90800 43.50000
C  22.83900 -2.18400 43.64800
C  22.82700 -3.35100 44.66900
C  22.08300 -0.99800 44.26100
C  25.02000 -2.16900 42.14900
C  25.48600 -1.07000 41.23100
H  25.04300 -1.07400 39.78400
N  22.46600 -5.78500 46.48700
C  21.50500 -5.29400 45.62900
C  20.34800 -6.17900 45.67200
C  20.65600 -7.27200 46.50300
C  22.05100 -7.06400 46.94400
C  19.17600 -6.03800 44.80400
C  19.68800 -8.40000 46.86000
O  18.52500 -8.45100 46.45200
C  20.18300 -9.45900 47.95500
N  25.13000 -6.74500 47.86200
C  24.30400 -7.73900 48.12700
C  24.96000 -8.74600 49.20800
C  26.40300 -8.10800 49.37100
C  26.27900 -6.86700 48.53100
C  24.13400 -9.00200 50.44000
C  27.55500 -9.08800 48.86700
C  28.64100 -9.51300 49.94900
N  26.42800 -4.45600 46.97600
C  27.43000 -4.86900 47.76300
C  28.61900 -3.97900 47.57900
C  28.22000 -3.18900 46.47900
C  26.89200 -3.52800 46.15400
C  29.92700 -4.02300 48.33700
C  28.69100 -2.24100 45.50300
O  29.78400 -1.74800 45.41700
C  27.47200 -1.95200 44.56600
C  27.31700 -0.50800 44.52000
O  26.96700 0.20000 45.44900
O  27.72900 0.00400 43.33800
C  27.65000 1.45500 43.17500
H  20.97300 -3.85900 44.10100
H  22.56700 -8.90700 47.86900
H  28.10400 -6.24500 49.31600
H  24.51300 -0.82800 43.61100
H  22.38200 -2.50600 42.71200
H  21.64500 -0.29200 43.55500
H  22.88100 -0.41400 44.71900
H  21.52000 -1.27200 45.15300
H  24.16900 -2.63000 41.64900
H  25.80400 -2.91800 42.04200
H  26.56900 -0.95000 41.25700
H  25.16300 -0.13300 41.68500
H  19.40800 -5.25700 44.07900
H  18.28100 -5.75000 45.35500
H  19.07100 -6.91500 44.16600
H  19.33300 -10.08000 48.23600
H  20.72000 -9.05000 48.81200
H  20.80600 -10.10900 47.34200
H  25.02000 -9.66100 48.61900
H  26.68700 -7.66700 50.32600
H  23.14800 -8.61200 50.18700
H  24.53400 -8.52900 51.33700
H  24.22300 -10.08100 50.56600
H  28.03900 -8.70700 47.96800
H  27.12300 -10.01100 48.48100
H  28.36700 -9.04400 50.89400
H  29.51800 -8.97200 49.59400
H  28.81600 -10.54400 50.25600
H  30.59800 -3.35300 47.79900
H  30.36900 -5.01600 48.40600
H  29.83400 -3.57400 49.32600
H  27.75700 -2.33500 43.58600
H  28.32900 1.59200 42.33300
H  28.12300 2.02300 43.97600
H  26.70200 1.95500 42.97400
Mg -11.89900 17.33100 39.63400
C  -8.57000 15.89200 39.60700
C  -10.42100 20.44400 39.13700
C  -14.85500 18.56400 38.74900
C  -13.04300 14.06800 39.45900
N  -9.69600 18.04100 39.41100
C  -8.54400 17.33900 39.49700
C  -7.35100 18.26200 39.49200
C  -8.00600 19.65700 39.67600
C  -9.52700 19.39100 39.46800
C  -7.76300 20.38700 41.03700
C  -6.60700 18.08700 38.08900
C  -5.17400 17.57200 38.18400
H  -4.92000 16.28900 37.50500
N  -12.68800 19.23200 39.19000
C  -11.85800 20.39300 39.00400
C  -12.68000 21.55100 38.80600
C  -14.01600 21.03100 38.53000
C  -13.90800 19.57800 38.78700
C  -12.14700 22.94600 38.87000
C  -15.28200 21.73900 38.07100
O  -15.25000 22.98900 37.98700
C  -16.58600 21.07200 37.86100
N  -13.70900 16.41100 39.10300
C  -14.80100 17.16400 38.92800
C  -16.06400 16.33500 39.20000
C  -15.47900 14.83700 39.10700
C  -13.99600 15.08400 39.24900
C  -16.72000 16.64100 40.56700
C  -15.70300 14.03400 37.79400
C  -17.12000 13.46700 37.63300
N  -11.07000 15.38600 39.59500
C  -11.67100 14.15300 39.61400
C  -10.77400 13.12300 39.90900
C  -9.52200 13.71700 39.89200
C  -9.78600 15.12600 39.66300
C  -11.16600 11.63100 40.10300
C  -8.10000 13.50400 39.95000
O  -7.37500 12.52000 40.20300
C  -7.47300 14.87200 39.73100
C  -6.68000 15.20100 40.91100
O  -7.15400 15.82200 41.87100
O  -5.38600 14.81400 40.75000
C  -4.45000 15.16900 41.83600
H  -9.90500 21.40500 39.06800
H  -15.88800 18.91900 38.76000
H  -13.45800 13.06300 39.55800
H  -6.66600 17.99200 40.29600
H  -7.62400 20.27500 38.86300
H  -7.74500 19.60200 41.79200
H  -8.54100 21.11700 41.26100
H  -6.81400 20.92300 41.01500
H  -6.45400 19.05200 37.60600
H  -7.27000 17.52500 37.43200
H  -4.98400 17.43300 39.24800
H  -4.49000 18.38300 37.93400
H  -11.93100 23.25500 37.84700
H  -11.31700 22.93600 39.57700
H  -12.97800 23.50500 39.30100
H  -16.38800 20.29600 37.12200
H  -17.36000 21.70400 37.42600
H  -16.96600 20.67500 38.80200
H  -16.75700 16.55800 38.38800
H  -15.93200 14.27100 39.92100
H  -15.91300 16.70500 41.29800
H  -17.39600 15.80400 40.74200
H  -17.18100 17.62200 40.68300
H  -14.81900 13.43200 37.58500
H  -15.71700 14.72700 36.95200
H  -17.60000 13.35300 38.60500
H  -16.82900 12.48800 37.25300
H  -17.75000 14.05400 36.96400
H  -10.61600 11.12600 39.30800
H  -12.23100 11.57500 39.87700
H  -11.02700 11.16000 41.07600
H  -6.77200 15.03700 38.91200
H  -3.44300 14.92000 41.49900
H  -4.73600 14.72800 42.79100
H  -4.43200 16.25700 41.89600

