158

Mg 16.10900 -1.56900 28.61300
C  15.07000 0.15700 31.53500
C  18.19300 -3.30600 30.63100
C  17.43000 -3.04200 25.92200
C  14.39100 0.61500 26.63200
N  16.51200 -1.61000 30.84700
C  15.93400 -0.87400 31.80600
C  16.50700 -1.18700 33.20400
C  17.55700 -2.33400 32.82300
C  17.41200 -2.43800 31.33500
C  19.04400 -2.07100 33.33700
C  15.37500 -1.56400 34.20700
C  15.33500 -0.80600 35.59300
H  16.69500 -0.40000 36.25200
N  17.46900 -3.06500 28.32900
C  18.22300 -3.66600 29.28200
C  19.23100 -4.51700 28.69300
C  19.04400 -4.46700 27.32700
C  17.92200 -3.51700 27.13700
C  20.13200 -5.23500 29.57900
C  19.67500 -5.27600 26.17000
O  19.39100 -5.13100 24.96900
C  20.57100 -6.39800 26.47200
N  15.97200 -1.16600 26.57800
C  16.62000 -1.91000 25.63500
C  16.39700 -1.33100 24.21900
C  15.16600 -0.41600 24.49600
C  15.16400 -0.34000 25.96900
C  17.66000 -0.73400 23.56000
C  13.81000 -0.92000 24.01800
C  13.37900 -0.45500 22.63600
N  14.89200 0.07500 28.92300
C  14.21000 0.86100 28.02200
C  13.39500 1.77400 28.71100
C  13.69100 1.56200 30.08300
C  14.55100 0.49400 30.23400
C  12.55700 2.77600 28.08100
C  13.39800 2.02800 31.45000
O  12.61400 2.83700 31.90700
C  14.33500 1.11800 32.40200
C  15.24400 2.07600 33.00100
O  16.34500 2.34400 32.57300
O  14.78100 2.60900 34.18800
C  15.69900 3.33600 35.05700
H  18.90800 -3.83200 31.26700
H  17.86000 -3.53100 25.04500
H  13.80100 1.30600 26.02600
H  17.06100 -0.33600 33.60000
H  17.18300 -3.25300 33.27500
H  19.37800 -2.75300 34.11800
H  19.14600 -1.11200 33.84400
H  19.82900 -2.27200 32.60700
H  15.43600 -2.60700 34.51700
H  14.40100 -1.50500 33.72100
H  14.90900 -1.58500 36.22500
H  14.64300 0.02900 35.48000
H  20.74800 -4.60300 30.21900
H  20.85100 -5.77700 28.96500
H  19.56700 -6.01300 30.09200
H  19.99500 -7.02300 27.15400
H  21.54500 -6.06800 26.83300
H  20.63000 -7.05000 25.60000
H  16.06300 -2.09300 23.51400
H  15.51300 0.58600 24.24500
H  18.48100 -0.78000 24.27600
H  17.58600 0.32800 23.32500
H  17.99100 -1.24700 22.65700
H  12.99000 -0.59500 24.65900
H  13.81300 -2.00900 24.00300
H  13.92000 0.44300 22.33600
H  12.32800 -0.20700 22.78600
H  13.47600 -1.28300 21.93500
H  11.79900 2.30800 27.45300
H  13.08900 3.45300 27.41300
H  12.04400 3.32800 28.86800
H  13.65100 0.70900 33.14600
H  15.63300 4.40000 34.82900
H  16.75100 3.05100 35.02300
H  15.31200 3.31600 36.07600
Mg -13.19200 16.22300 42.96000
C  -10.08900 14.44300 42.61200
C  -11.81500 18.81900 41.05800
C  -16.27200 17.52300 42.40400
C  -14.67600 13.16900 43.83900
N  -11.17100 16.63300 41.94800
C  -10.09900 15.76800 42.03500
C  -8.87500 16.44900 41.26500
C  -9.35300 17.92300 41.07800
C  -10.87900 17.81800 41.28100
C  -8.71100 19.10600 41.87700
C  -8.49400 15.71500 39.97800
C  -7.14800 15.02700 39.89400
H  -6.49000 14.86600 38.50500
N  -13.91100 18.03700 42.09300
C  -13.16800 18.90100 41.31900
C  -13.97900 20.01100 40.91600
C  -15.29500 19.68400 41.31300
C  -15.17500 18.32900 41.97000
C  -13.45100 21.21500 40.14700
C  -16.51500 20.50000 41.14600
O  -16.44600 21.64300 40.68600
C  -17.86800 20.22600 41.69500
N  -15.17500 15.44600 42.99900
C  -16.29600 16.28900 42.86000
C  -17.60200 15.60000 43.22000
C  -17.06000 14.19400 43.69400
C  -15.55500 14.25200 43.55600
C  -18.47600 16.31400 44.22700
C  -17.70100 12.95500 42.82000
C  -18.31100 11.74800 43.63600
N  -12.54500 14.20200 43.30700
C  -13.26000 13.10900 43.74800
C  -12.37100 11.99300 43.90800
C  -11.11700 12.45900 43.45300
C  -11.23000 13.81700 43.07800
C  -12.60000 10.59400 44.59000
C  -9.68000 12.06200 43.25000
O  -9.02400 11.08500 43.48900
C  -8.99600 13.40900 42.60900
C  -7.86900 13.70900 43.44300
O  -8.01000 14.03000 44.63600
O  -6.65000 13.67200 42.81200
C  -5.44800 13.85200 43.66800
H  -11.33200 19.53500 40.39000
H  -17.27400 17.88600 42.16400
H  -15.08900 12.24900 44.25800
H  -7.97000 16.40500 41.87100
H  -9.32200 18.16500 40.01500
H  -8.24300 19.87100 41.25800
H  -7.87500 18.85400 42.52900
H  -9.40700 19.66400 42.50300
H  -8.41600 16.43400 39.16300
H  -9.15100 14.90000 39.67400
H  -7.23600 14.00700 40.26800
H  -6.50900 15.53200 40.61800
H  -13.69900 21.06500 39.09600
H  -12.36100 21.20900 40.17200
H  -13.80600 22.16900 40.53700
H  -18.19900 19.43100 41.02600
H  -18.42300 21.16200 41.63300
H  -17.93300 19.90200 42.73300
H  -18.18200 15.49000 42.30400
H  -17.47900 13.98000 44.67700
H  -17.90500 16.98600 44.86800
H  -18.78800 15.51300 44.89800
H  -19.29200 16.90200 43.80800
H  -16.94600 12.56600 42.13600
H  -18.50800 13.35300 42.20500
H  -17.43300 11.16600 43.91400
H  -19.03500 11.11000 43.12900
H  -18.84400 12.16100 44.49200
H  -11.85900 10.48700 45.38200
H  -12.39700 9.77100 43.90600
H  -13.63100 10.54400 44.94200
H  -8.79900 13.24500 41.54900
H  -5.41600 13.09100 44.44800
H  -5.31300 14.89600 43.95400
H  -4.52800 13.67400 43.11200

