158

Mg 2.55600 -2.20300 43.94900
C  5.89500 -1.07900 44.30700
C  1.70300 0.88400 42.56000
C  -0.35900 -3.35100 42.83600
C  3.68900 -5.45600 44.73600
N  3.69200 -0.29200 43.38500
C  5.02700 -0.10400 43.65000
C  5.39300 1.40800 43.50200
C  3.98800 2.02700 43.26900
C  3.04800 0.82500 43.04900
C  3.43600 3.03000 44.33900
C  6.39000 1.63800 42.31300
C  6.05300 0.87400 40.99500
H  6.13400 1.59800 39.64800
N  0.78500 -1.26300 43.12300
C  0.71700 -0.07400 42.49200
C  -0.54400 0.11900 41.88100
C  -1.25300 -1.07000 42.08000
C  -0.25300 -1.98600 42.66000
C  -0.92800 1.25500 41.09500
C  -2.67100 -1.36900 41.70700
O  -3.34500 -0.46600 41.15500
C  -3.41200 -2.72000 42.08200
N  1.73400 -4.09600 43.91000
C  0.48800 -4.27600 43.46200
C  0.03800 -5.71200 43.76000
C  1.31000 -6.40900 44.44100
C  2.33000 -5.26500 44.42300
C  -1.29000 -5.84900 44.51900
C  1.78500 -7.67100 43.66400
C  2.60800 -7.52000 42.29600
N  4.46300 -3.21400 44.44100
C  4.72800 -4.50600 44.71100
C  6.10200 -4.57800 45.09900
C  6.63900 -3.29500 45.03900
C  5.61000 -2.49600 44.52900
C  6.80600 -5.84300 45.63600
C  7.78000 -2.46800 45.30900
O  8.92500 -2.69400 45.65700
C  7.32100 -1.00700 44.84900
C  7.40000 -0.03300 45.96900
O  6.67400 -0.04300 46.98700
O  8.29400 0.97300 45.68200
C  8.45900 1.88600 46.78900
H  1.42300 1.87900 42.20600
H  -1.32000 -3.77000 42.52900
H  3.92600 -6.47800 45.04100
H  5.76000 1.75700 44.46700
H  3.95600 2.63200 42.36300
H  2.88500 3.84400 43.86900
H  4.28300 3.46700 44.86800
H  2.92900 2.46900 45.12400
H  7.33300 1.26700 42.71100
H  6.52600 2.69300 42.07300
H  5.05700 0.43700 40.93900
H  6.73300 0.02800 41.08900
H  -1.62900 0.95200 40.31800
H  -0.13900 1.73600 40.51700
H  -1.22200 2.00000 41.83500
H  -4.49700 -2.75700 41.98800
H  -3.20000 -2.96700 43.12300
H  -2.94500 -3.50200 41.48400
H  -0.24100 -6.08600 42.77500
H  1.16000 -6.68100 45.48500
H  -1.02600 -6.10700 45.54400
H  -1.89800 -6.61900 44.04300
H  -1.84400 -4.91500 44.43200
H  0.93400 -8.32300 43.46700
H  2.26900 -8.30200 44.40900
H  3.60200 -7.91400 42.50500
H  2.64700 -6.49000 41.94000
H  2.03400 -8.06500 41.54600
H  6.08400 -6.16400 46.38600
H  7.85700 -5.70700 45.89400
H  6.72500 -6.59700 44.85300
H  7.99500 -0.59700 44.09700
H  7.80400 1.83300 47.65800
H  8.59700 2.89300 46.39500
H  9.41800 1.60500 47.22400
Mg 30.33800 58.31800 40.48000
C  27.91000 56.11400 39.24300
C  32.69900 55.86800 39.64900
C  32.77400 60.66100 40.58900
C  27.94800 60.79700 40.53600
N  30.26700 56.19900 39.57000
C  29.17100 55.54700 39.12800
C  29.56500 54.22100 38.43700
C  30.94800 53.97100 39.10800
C  31.37800 55.41400 39.51800
C  30.90700 53.02000 40.35500
C  29.48400 54.44300 36.88400
C  29.10900 53.27300 35.98700
H  28.06200 53.41900 34.87600
N  32.37700 58.23600 40.31000
C  33.21200 57.14500 39.90800
C  34.58900 57.58900 39.78900
C  34.69400 58.89200 40.20700
C  33.23200 59.29900 40.36800
C  35.77000 56.79200 39.39000
C  36.04000 59.68200 40.54800
O  37.09900 59.13700 40.37500
C  35.98800 61.07800 41.08500
N  30.40000 60.39500 40.60700
C  31.50500 61.13800 40.69800
C  31.22100 62.63200 40.87900
C  29.64200 62.58500 41.00400
C  29.31200 61.14800 40.66200
C  31.99500 63.28600 42.01400
C  28.84100 63.49700 40.03300
C  27.69500 64.31000 40.57100
N  28.31600 58.46300 40.32400
C  27.44400 59.57300 40.32200
C  26.09200 59.13300 40.10800
C  26.21200 57.77600 39.64100
C  27.58900 57.44700 39.78500
C  24.87800 60.03300 40.20200
C  25.47500 56.62600 39.18300
O  24.32000 56.51400 38.80500
C  26.59500 55.54800 38.85100
C  26.10400 54.33600 39.64600
O  26.11900 54.26100 40.87200
O  25.80500 53.31200 38.73300
C  25.48600 52.09700 39.38000
H  33.51300 55.15800 39.49100
H  33.62800 61.34100 40.54800
H  27.16000 61.55200 40.58900
H  28.83400 53.48100 38.76100
H  31.68100 53.70100 38.34700
H  31.17700 53.64600 41.20600
H  31.69500 52.27300 40.26000
H  29.92500 52.55200 40.42500
H  30.51600 54.64700 36.59600
H  28.89800 55.34000 36.68300
H  28.80300 52.53500 36.72800
H  30.03700 52.93400 35.52600
H  35.39600 55.86900 38.94700
H  36.40400 56.49100 40.22400
H  36.38700 57.38900 38.71800
H  36.98100 61.26500 41.49200
H  35.19000 61.13100 41.82600
H  35.86700 61.68600 40.18800
H  31.47000 63.00900 39.88700
H  29.39700 62.79700 42.04500
H  32.51600 62.53200 42.60500
H  31.34600 63.89800 42.64000
H  32.66000 63.99300 41.51700
H  28.34100 62.96300 39.22500
H  29.53800 64.19300 39.56500
H  27.98200 65.32700 40.30300
H  27.41600 64.17300 41.61500
H  26.75600 64.18500 40.03200
H  24.79800 60.27200 41.26200
H  24.04600 59.47800 39.76800
H  25.06100 60.94300 39.63100
H  26.53100 55.26800 37.79900
H  25.10700 51.47800 38.56700
H  24.67300 52.31100 40.07300
H  26.36500 51.69000 39.87900

