158

Mg 8.64400 3.16400 27.48300
C  10.02500 1.85800 30.33700
C  6.77300 5.38300 29.52900
C  7.25400 4.40600 24.69700
C  9.83900 0.39300 25.61300
N  8.41500 3.58400 29.72000
C  9.15600 2.95100 30.66000
C  8.86600 3.59800 32.02500
C  7.68700 4.59600 31.73800
C  7.62300 4.57500 30.24900
C  6.27700 4.25100 32.17700
C  10.10600 4.30200 32.63000
C  10.47200 3.96700 34.11700
H  10.74700 5.08800 35.14900
N  7.33500 4.79500 27.07500
C  6.65000 5.50700 28.10000
C  5.77800 6.39100 27.41100
C  5.91300 6.16700 25.99100
C  6.92800 5.09100 25.87700
C  4.93100 7.41200 28.05200
C  5.10900 6.76900 24.81100
O  5.45000 6.59000 23.63400
C  3.81600 7.54900 25.11100
N  8.76200 2.53800 25.31200
C  8.01200 3.22800 24.35600
C  8.07300 2.50900 22.94200
C  8.88600 1.22200 23.31500
C  9.16700 1.33700 24.80800
C  6.77900 2.12800 22.29900
C  10.17100 0.84600 22.50200
C  10.03600 -0.47000 21.79600
N  9.58900 1.46300 27.79600
C  10.08100 0.48300 27.01700
C  10.80600 -0.47700 27.88800
C  10.95300 0.05700 29.13700
C  10.15200 1.25000 29.07600
C  11.54100 -1.70300 27.35800
C  11.52900 -0.09200 30.46500
O  12.26200 -0.96900 30.96400
C  10.93600 1.10900 31.29100
C  10.20200 0.50100 32.42300
O  9.15500 -0.07200 32.29900
O  11.00500 0.64100 33.55400
C  10.34900 0.13900 34.79000
H  6.32700 6.16800 30.14300
H  6.74700 4.70500 23.77700
H  10.23400 -0.51000 25.14300
H  8.31200 2.85600 32.59900
H  7.88000 5.59700 32.12400
H  5.77500 5.16900 32.48000
H  6.22800 3.53100 32.99400
H  5.62100 3.79300 31.43700
H  10.00500 5.37700 32.48000
H  10.93900 3.90600 32.04800
H  11.37500 3.36700 34.00100
H  9.70600 3.29600 34.50800
H  5.32700 7.77300 29.00200
H  3.93200 7.00600 28.21000
H  5.12300 8.30800 27.46100
H  3.21900 7.63200 24.20300
H  4.19400 8.48400 25.52400
H  3.38200 6.94800 25.90900
H  8.67600 3.05700 22.21800
H  8.21300 0.36400 23.31900
H  6.10800 2.33400 23.13200
H  6.63200 1.07700 22.04900
H  6.55800 2.84400 21.50800
H  11.05900 0.81000 23.13300
H  10.41400 1.73300 21.91700
H  10.21200 -0.40600 20.72200
H  9.09200 -0.97800 21.98700
H  10.78200 -1.20900 22.08800
H  12.58800 -1.42400 27.23900
H  11.06200 -2.00800 26.42800
H  11.45100 -2.48700 28.11000
H  11.71500 1.81700 31.57300
H  9.66800 -0.70200 34.65900
H  9.64900 0.93700 35.03900
H  11.02800 -0.07800 35.61500
Mg 16.57300 -1.57300 28.01000
C  15.59200 0.31100 30.67300
C  18.34700 -3.55400 30.10900
C  17.87200 -2.96400 25.24900
C  14.75000 0.54900 25.83600
N  16.89600 -1.65800 30.14800
C  16.38100 -0.83700 31.05300
C  16.93200 -1.11600 32.47900
C  17.79200 -2.38100 32.28800
C  17.66400 -2.59600 30.75500
C  19.27100 -2.13100 32.65600
C  15.97500 -1.34200 33.68300
C  16.36900 -0.85600 35.10300
H  17.83300 -0.99900 35.52000
N  18.00900 -2.96200 27.75400
C  18.56200 -3.76600 28.72100
C  19.28800 -4.79500 28.13300
C  19.18500 -4.60700 26.70000
C  18.31700 -3.44400 26.48200
C  19.87100 -5.97100 28.97800
C  19.75700 -5.48800 25.61100
O  19.62700 -5.28800 24.38800
C  20.73100 -6.53600 26.06300
N  16.39500 -1.21900 25.85200
C  16.94100 -2.02000 24.94100
C  16.53900 -1.74400 23.47600
C  15.70800 -0.39100 23.70900
C  15.55300 -0.38300 25.24300
C  17.67900 -1.40400 22.48600
C  14.42000 -0.39200 22.95200
C  13.31700 -1.40000 23.42900
N  15.29800 0.02000 28.16100
C  14.68500 0.83200 27.24800
C  14.09800 2.00000 27.87400
C  14.41800 1.87200 29.22000
C  15.14200 0.68500 29.32100
C  13.36700 3.09900 27.17700
C  14.35800 2.46500 30.44200
O  13.78200 3.44800 30.82600
C  15.04200 1.52400 31.49100
C  16.21900 2.18800 32.19800
O  17.23600 2.50100 31.57500
O  15.82300 2.41300 33.45600
C  16.70500 3.32400 34.15300
H  18.85100 -4.32800 30.69100
H  18.30800 -3.42900 24.36200
H  14.20400 1.18100 25.13200
H  17.43000 -0.18400 32.74700
H  17.49800 -3.29600 32.80100
H  19.52500 -1.16700 33.09800
H  20.03700 -2.23500 31.88700
H  19.47500 -2.86000 33.44000
H  15.84800 -2.42100 33.77800
H  15.03800 -0.83000 33.46900
H  15.83700 -1.50700 35.79700
H  15.95500 0.11600 35.37100
H  20.92400 -6.10900 28.73100
H  19.39300 -6.94300 28.85200
H  19.90000 -5.68700 30.03000
H  21.61000 -6.12800 26.56300
H  21.01700 -6.97700 25.10800
H  20.30300 -7.40400 26.56500
H  15.85800 -2.47600 23.04400
H  16.30800 0.47400 23.42700
H  17.29300 -1.49900 21.47100
H  18.33200 -2.26400 22.63400
H  18.09100 -0.40300 22.61700
H  14.71800 -0.53400 21.91300
H  14.02500 0.61400 23.09200
H  12.55200 -1.00500 24.09700
H  13.82600 -2.22900 23.92200
H  12.77800 -1.86500 22.60400
H  12.29000 2.97800 27.29700
H  13.51300 3.20400 26.10200
H  13.70700 4.00200 27.68400
H  14.26400 1.25800 32.20700
H  16.06200 4.06000 34.63700
H  17.37400 3.85200 33.47300
H  17.21800 2.76500 34.93500

