158

Mg 35.43200 47.79700 25.13000
C  35.48500 46.13400 28.20600
C  34.47000 50.63900 26.90900
C  35.03700 49.32000 22.22200
C  36.29700 44.90300 23.48200
N  34.92600 48.32800 27.28100
C  35.15400 47.48600 28.39100
C  34.84900 48.25300 29.73800
C  34.26600 49.57100 29.21500
C  34.67900 49.52600 27.71600
C  32.79500 49.74000 29.56900
C  36.17900 48.45800 30.53700
C  36.08600 48.29000 32.03900
H  34.72100 48.25600 32.79300
N  34.84400 49.71000 24.65900
C  34.46500 50.76900 25.54900
C  34.17100 51.95200 24.77200
C  34.38700 51.57800 23.36400
C  34.79200 50.13700 23.34700
C  33.62500 53.31000 25.34300
C  34.22100 52.38000 22.11500
O  34.33400 52.00100 20.93200
C  33.86800 53.82800 22.23800
N  35.78600 47.28200 23.16100
C  35.42700 48.03400 22.11900
C  35.77000 47.44800 20.73600
C  36.43900 46.08000 21.13500
C  36.15000 45.99800 22.66900
C  34.54100 47.28500 19.83400
C  37.93700 46.01100 20.73700
C  38.50100 44.57800 20.71700
N  35.89900 45.92600 25.69300
C  36.17500 44.78200 24.90300
C  36.49500 43.70000 25.74900
C  36.22100 44.16100 27.03600
C  35.87100 45.53500 26.93500
C  36.72700 42.32000 25.31800
C  36.08300 43.78300 28.38400
O  36.28900 42.71600 28.93200
C  35.59100 45.09000 29.21900
C  34.29800 44.70300 29.75600
O  33.28600 44.44100 29.09800
O  34.33700 44.81600 31.06500
C  33.09700 44.36200 31.80800
H  34.20400 51.54900 27.45100
H  34.91400 49.76600 21.23300
H  36.44000 43.92200 23.02400
H  34.14300 47.71700 30.37300
H  34.83900 50.40000 29.63000
H  32.16300 49.86800 28.69100
H  32.61100 50.69500 30.06100
H  32.37600 48.87200 30.07800
H  36.66700 49.42300 30.40600
H  36.82400 47.64900 30.19300
H  36.65100 49.10200 32.49600
H  36.65100 47.41900 32.37300
H  34.46400 53.94000 25.63700
H  32.94500 53.07300 26.16100
H  33.08800 53.93500 24.62800
H  32.84400 53.86800 22.60900
H  33.99700 54.31900 21.27300
H  34.57700 54.29500 22.92200
H  36.45800 48.23000 20.41700
H  35.89400 45.23500 20.71300
H  34.22100 48.29000 19.56000
H  33.73900 46.84500 20.42700
H  34.82800 46.87200 18.86700
H  38.54600 46.56500 21.45100
H  37.96400 46.39300 19.71700
H  39.32400 44.39400 21.40700
H  38.92200 44.56000 19.71200
H  37.70100 43.84400 20.81500
H  36.40800 41.70500 26.16000
H  37.79300 42.28600 25.09600
H  36.10200 42.14400 24.44200
H  36.24300 45.33400 30.05700
H  32.23900 44.95500 31.49000
H  33.11600 44.74500 32.82900
H  32.96400 43.29500 31.63600
Mg -2.50800 35.39800 26.41000
C  -4.29600 33.99200 29.16600
C  -1.41700 37.74900 28.53000
C  -0.82300 36.83900 23.84000
C  -3.71900 33.00800 24.39700
N  -2.93300 35.82000 28.62000
C  -3.47300 35.05700 29.62000
C  -3.38200 35.67200 30.98600
C  -2.43300 36.87100 30.75300
C  -2.23500 36.82100 29.19600
C  -2.88900 38.15400 31.46100
C  -3.01100 34.63600 32.02700
C  -3.98200 34.62100 33.30500
H  -3.46400 34.19900 34.77000
N  -1.23300 37.06600 26.21500
C  -0.94900 37.88100 27.23400
C  0.04100 38.85900 26.72800
C  0.46800 38.37500 25.43000
C  -0.53100 37.35200 25.08200
C  0.57500 40.05100 27.51400
C  1.56700 38.93800 24.60100
O  1.76100 38.53300 23.47100
C  2.49000 40.00900 25.20600
N  -2.50000 35.13000 24.38600
C  -1.67700 35.78800 23.53500
C  -1.54000 35.09300 22.25400
C  -2.51800 33.81000 22.41600
C  -2.90900 33.96600 23.82600
C  -1.78200 35.97400 21.00700
C  -1.81500 32.46200 22.05200
C  -2.66400 31.38000 21.47900
N  -3.96900 33.95800 26.54600
C  -4.30400 32.99800 25.63500
C  -5.31300 32.12000 26.19900
C  -5.40300 32.51200 27.59500
C  -4.45600 33.58600 27.75000
C  -6.16600 31.03000 25.49600
C  -6.00700 32.13300 28.84600
O  -6.72600 31.18900 29.19200
C  -5.27000 33.08000 29.93000
C  -6.38400 33.91200 30.53700
O  -6.71400 35.07500 30.30300
O  -7.02600 33.22300 31.59200
C  -8.02800 33.99600 32.44300
H  -1.00400 38.50000 29.20600
H  -0.18800 37.25700 23.05500
H  -4.04200 32.19000 23.74900
H  -4.41200 35.96900 31.18500
H  -1.58100 36.47500 31.30500
H  -2.05500 38.52900 32.05400
H  -3.70000 37.81900 32.10800
H  -3.34700 38.88200 30.79200
H  -1.95500 34.69600 32.29200
H  -3.04200 33.69000 31.48600
H  -4.70100 33.83700 33.06900
H  -4.53400 35.56100 33.29400
H  1.64000 40.09700 27.73800
H  0.09100 40.12400 28.48800
H  0.41800 40.97600 26.95900
H  3.33700 40.27100 24.57200
H  2.97700 39.77100 26.15200
H  1.88300 40.90600 25.32700
H  -0.53700 34.68300 22.13300
H  -3.47900 33.85000 21.90300
H  -2.78800 35.77300 20.64000
H  -1.02200 35.93900 20.22600
H  -1.89800 36.99800 21.36300
H  -1.27700 31.94100 22.84400
H  -0.99200 32.58500 21.34800
H  -3.18300 30.85600 22.28100
H  -2.06800 30.75100 20.81800
H  -3.40700 31.79800 20.80000
H  -7.21600 31.32400 25.51200
H  -5.96300 30.09300 26.01500
H  -5.87600 31.07900 24.44700
H  -4.79200 32.54000 30.74700
H  -7.56500 34.75300 33.07600
H  -8.49200 33.24200 33.07800
H  -8.74800 34.46200 31.76900

