158

Mg 6.27300 53.05200 40.46500
C  5.68600 49.54300 40.45900
C  9.37100 52.37600 39.27800
C  6.49800 56.31500 39.62600
C  2.87900 53.43000 41.27400
N  7.35700 51.18700 39.91400
C  6.94100 49.89100 39.99700
C  8.03000 48.88200 39.50600
C  9.30800 49.79200 39.56600
C  8.68500 51.22400 39.65000
C  10.42400 49.50400 40.64700
C  7.80900 48.31000 38.05000
C  7.00000 49.04900 36.98400
H  7.81500 49.54700 35.71900
N  7.74000 54.15300 39.58100
C  8.98100 53.72500 39.30000
C  9.82900 54.92700 38.86100
C  9.00800 56.04300 38.88600
C  7.67200 55.50100 39.36000
C  11.25900 54.85700 38.40800
C  9.39400 57.35800 38.30000
O  10.59500 57.62400 37.96500
C  8.41600 58.47600 38.20100
N  4.88800 54.60800 40.31000
C  5.26900 55.86900 40.02300
C  4.19500 56.90500 40.44000
C  3.00300 56.00300 40.91500
C  3.59600 54.56600 40.84300
C  4.75600 57.91500 41.53700
C  1.69100 56.22400 40.16800
C  0.43100 56.77800 40.93700
N  4.59800 51.81700 40.91800
C  3.30100 52.06600 41.26100
C  2.58700 50.88600 41.54800
C  3.48700 49.86600 41.18800
C  4.66300 50.48300 40.75000
C  1.19100 50.66100 42.11000
C  3.70200 48.41700 41.17900
O  2.93500 47.51100 41.37300
C  5.15800 48.18800 40.62600
C  5.01100 47.26300 39.41600
O  4.51300 47.61800 38.35600
O  5.19200 45.93700 39.80700
C  4.93500 44.94100 38.76100
H  10.33200 51.99800 38.92200
H  6.51800 57.38700 39.41700
H  1.82200 53.46100 41.54200
H  8.06500 48.07200 40.23400
H  9.84000 49.73000 38.61700
H  11.43900 49.85000 40.45200
H  10.53800 48.42100 40.68700
H  10.19000 49.85500 41.65200
H  7.25400 47.37600 38.13300
H  8.76800 47.95800 37.66800
H  6.57600 49.92200 37.48100
H  6.22700 48.35900 36.64500
H  11.36800 55.24600 37.39600
H  11.58300 53.82000 38.31800
H  11.89200 55.25700 39.20100
H  8.11900 58.69200 39.22700
H  7.66600 58.19300 37.46300
H  8.80300 59.47000 37.97800
H  3.81400 57.44400 39.57200
H  2.65600 56.15500 41.93700
H  5.63300 57.45100 41.98800
H  4.05000 58.06700 42.35300
H  5.00500 58.84900 41.03400
H  1.29900 55.26500 39.83100
H  1.86800 56.76700 39.24000
H  0.68400 56.86800 41.99400
H  -0.49300 56.20300 40.98800
H  0.23300 57.78100 40.56100
H  0.59700 51.54200 42.35200
H  1.20400 49.99500 42.97200
H  0.61800 50.08500 41.38300
H  5.72200 47.59400 41.34500
H  5.88700 44.94800 38.23000
H  4.18700 45.14800 37.99700
H  4.62100 44.00500 39.22200
Mg 0.72900 42.68900 25.92700
C  2.13700 42.63800 28.97100
C  -1.99100 41.02800 27.12700
C  -0.40800 42.14900 22.71900
C  3.80000 43.72700 24.57200
N  0.14100 42.00500 27.80800
C  0.86500 42.21200 28.91200
C  0.05200 41.80700 30.14500
C  -1.33200 41.26300 29.55800
C  -1.01500 41.38900 28.03100
C  -1.75700 39.80900 30.10300
C  -0.08700 42.88200 31.20100
C  0.41500 42.45400 32.62100
H  -0.41900 42.66600 33.87600
N  -1.00400 41.84000 25.09500
C  -1.97500 41.21900 25.75800
C  -2.99700 40.81300 24.85900
C  -2.60300 41.27700 23.54500
C  -1.28100 41.72800 23.69600
C  -4.27000 40.25800 25.37300
C  -3.36500 41.06700 22.22500
O  -2.83600 41.33300 21.11400
C  -4.72100 40.38400 22.15600
N  1.57700 42.92100 23.99300
C  0.85200 42.70700 22.85900
C  1.60900 43.15100 21.58300
C  2.83900 43.88700 22.22300
C  2.78100 43.54900 23.68800
C  1.96100 42.04600 20.58100
C  2.86800 45.45500 21.92800
C  4.09500 45.85000 21.12800
N  2.66300 43.05400 26.61200
C  3.82200 43.48300 25.95700
C  4.92500 43.62800 26.92400
C  4.27400 43.30100 28.10100
C  2.92400 42.98800 27.84600
C  6.36200 43.93400 26.59400
C  4.48300 43.16500 29.55900
O  5.49800 43.38300 30.24500
C  3.10400 42.73000 30.11100
C  3.32200 41.44200 30.83700
O  3.00000 40.32800 30.44600
O  3.93900 41.68400 32.05700
C  4.20900 40.52100 32.90000
H  -2.88800 40.66700 27.63500
H  -0.68500 41.93600 21.68500
H  4.69500 44.06100 24.04400
H  0.64900 40.94300 30.43500
H  -2.23600 41.84200 29.74200
H  -1.64600 39.13100 29.25700
H  -2.79900 39.68500 30.40000
H  -1.03500 39.55100 30.87800
H  -1.07900 43.33200 31.24500
H  0.54100 43.71300 30.87800
H  1.28300 43.11300 32.64100
H  0.89500 41.47500 32.63600
H  -5.04000 41.01800 25.23800
H  -4.26500 39.92800 26.41200
H  -4.68300 39.44800 24.77200
H  -4.53600 39.37800 22.53400
H  -4.98600 40.32200 21.10000
H  -5.42700 41.05200 22.65000
H  0.89800 43.83700 21.12300
H  3.73000 43.40700 21.82100
H  1.61400 41.06300 20.89900
H  3.00900 41.95400 20.29300
H  1.26600 42.18800 19.75300
H  2.92000 46.05800 22.83500
H  2.04700 45.77600 21.28600
H  4.75000 46.39700 21.80600
H  3.89200 46.56100 20.32700
H  4.65300 45.01800 20.69800
H  6.48300 44.61500 25.75200
H  6.96800 43.04800 26.40400
H  6.89700 44.38100 27.43200
H  2.80000 43.50100 30.81800
H  5.09600 40.20200 32.35400
H  3.42700 39.76200 32.90200
H  4.46000 40.79500 33.92500

