158

Mg 24.54300 -6.53600 46.49500
C  26.75400 -4.23100 44.96500
C  22.32100 -5.78800 43.95000
C  22.86100 -9.32000 47.17500
C  27.28000 -7.72400 48.41100
N  24.55600 -5.05200 44.74300
C  25.51500 -4.27100 44.27000
C  25.21400 -3.59300 42.92300
C  23.76100 -4.14000 42.69000
C  23.48500 -5.04500 43.83000
C  22.80100 -2.91700 42.64600
C  26.18200 -3.88800 41.71200
C  26.55000 -2.70100 40.86500
H  25.91600 -2.58300 39.52400
N  22.68500 -7.31100 45.93200
C  21.95300 -6.88100 44.80500
C  20.73400 -7.63400 44.70200
C  20.83700 -8.62900 45.59600
C  22.18700 -8.46500 46.25100
C  19.60600 -7.28600 43.73100
C  19.73500 -9.70500 45.97800
O  18.69900 -9.64100 45.35000
C  19.95700 -10.84200 46.99300
N  25.03200 -8.23600 47.67800
C  24.13000 -9.16000 47.88100
C  24.71500 -10.31800 48.80500
C  26.04600 -9.69600 49.33300
C  26.14600 -8.54300 48.42200
C  23.77800 -10.84100 49.90900
C  27.21900 -10.71900 49.42700
C  28.05600 -10.96100 48.14500
N  26.56500 -6.03700 46.71800
C  27.48800 -6.57600 47.58100
C  28.77200 -5.83700 47.46600
C  28.49900 -4.97600 46.44900
C  27.15100 -5.10600 46.03900
C  30.08900 -5.95200 48.26300
C  29.08500 -3.87700 45.67300
O  30.17400 -3.30800 45.76700
C  27.96300 -3.44700 44.61400
C  27.80900 -1.98000 44.69700
O  28.05600 -1.22600 43.72500
O  27.29700 -1.61300 45.92400
C  27.06400 -0.19800 46.15300
H  21.69000 -5.55000 43.09200
H  22.40100 -10.26500 47.47100
H  28.13000 -8.00400 49.03700
H  25.21300 -2.53500 43.18300
H  23.54300 -4.58100 41.71700
H  22.80600 -2.42900 41.67200
H  23.03300 -2.24400 43.47200
H  21.73400 -3.11400 42.75700
H  25.65300 -4.56300 41.04000
H  27.07100 -4.42000 42.05200
H  27.63800 -2.64800 40.88300
H  26.22800 -1.85100 41.46800
H  19.88800 -6.82100 42.78700
H  18.92600 -6.60200 44.23900
H  18.96700 -8.15800 43.58800
H  19.94400 -10.34000 47.96000
H  20.82100 -11.37400 46.59500
H  19.26500 -11.68200 46.93200
H  24.98800 -11.03300 48.02900
H  25.90800 -9.27600 50.33000
H  23.97700 -11.91200 49.86600
H  22.72100 -10.62600 49.75600
H  24.09800 -10.55200 50.91100
H  26.84000 -11.73000 49.57200
H  27.85700 -10.50200 50.28500
H  27.53800 -10.56600 47.27100
H  28.22300 -12.02100 47.95400
H  29.05500 -10.53600 48.24100
H  30.90800 -6.33700 47.65600
H  30.08500 -6.59300 49.14400
H  30.27300 -4.93500 48.61100
H  28.41800 -3.71400 43.66000
H  26.15600 0.24000 45.73800
H  27.86800 0.44400 45.79200
H  26.99700 -0.04800 47.23000
Mg 47.78900 34.58700 27.00200
C  45.99900 32.98200 29.59500
C  47.95500 37.35400 29.06400
C  49.22100 35.97400 24.50600
C  46.99600 31.76600 24.99100
N  46.94700 35.08700 29.12200
C  46.48800 34.23400 30.01600
C  46.39600 34.88400 31.38600
C  46.68800 36.39300 31.09400
C  47.16600 36.35000 29.63400
C  45.49900 37.33500 31.27400
C  47.49400 34.25700 32.27500
C  47.04700 33.87100 33.71300
H  47.68700 34.76700 34.77000
N  48.40300 36.50700 26.70700
C  48.54500 37.45800 27.73300
C  49.28700 38.60100 27.15500
C  49.63600 38.23100 25.82200
C  49.07700 36.84000 25.61900
C  49.50600 39.84800 27.88700
C  50.45200 38.98700 24.80600
O  50.65900 38.57900 23.66800
C  51.00100 40.42600 25.10100
N  47.92900 33.91000 24.92500
C  48.69300 34.73000 24.09800
C  49.01300 33.96300 22.73000
C  48.32200 32.60300 22.99200
C  47.74800 32.73000 24.37500
C  48.47300 34.68300 21.45700
C  49.22400 31.29300 22.93100
C  48.61400 30.04900 22.21400
N  46.71700 32.78600 27.18700
C  46.44100 31.81800 26.26400
C  45.55800 30.81200 26.87800
C  45.47600 31.19800 28.20500
C  46.15100 32.41700 28.34200
C  45.04800 29.49500 26.23200
C  44.90200 30.80200 29.49000
O  44.19700 29.82200 29.79800
C  45.05700 32.08000 30.37000
C  45.58500 31.46900 31.59200
O  46.75300 31.12800 31.76300
O  44.54100 31.36000 32.52000
C  44.82400 30.97500 33.89000
H  48.02900 38.22100 29.72200
H  49.84800 36.30700 23.67600
H  46.87800 30.84400 24.41900
H  45.37800 34.78500 31.76300
H  47.39600 36.78700 31.82200
H  45.75300 38.31300 31.68200
H  44.69700 36.93000 31.89100
H  45.01900 37.50800 30.31100
H  48.36500 34.90900 32.34000
H  47.89700 33.31800 31.89500
H  47.54700 32.91700 33.88100
H  45.99000 33.67700 33.89200
H  49.26500 39.77100 28.94700
H  48.98600 40.69600 27.44100
H  50.55000 40.15000 27.80600
H  51.53500 40.77400 24.21700
H  51.73600 40.31500 25.89800
H  50.20100 41.07800 25.45300
H  50.07200 33.75400 22.57600
H  47.34600 32.56600 22.50800
H  48.11200 35.62700 21.86600
H  47.69500 34.10600 20.95600
H  49.32200 35.01400 20.85900
H  49.31700 30.85000 23.92300
H  50.17400 31.60100 22.49500
H  49.35500 29.48700 21.64400
H  47.76800 30.19500 21.54300
H  48.23900 29.33800 22.95000
H  44.05400 29.73400 25.85400
H  44.89300 28.75200 27.01400
H  45.84800 29.14000 25.58300
H  44.05800 32.48200 30.53700
H  45.91300 30.94500 33.94300
H  44.47100 30.04200 34.33000
H  44.43600 31.71900 34.58600

