158

Mg -0.85100 17.77400 27.77800
C  -1.72600 15.63800 30.43700
C  -1.67500 20.31000 29.77800
C  -0.77900 19.67800 25.05700
C  -0.63400 14.99900 25.68400
N  -1.66200 17.99400 29.93400
C  -1.91100 16.98600 30.79100
C  -2.09400 17.54600 32.19400
C  -2.18900 19.05300 31.91500
C  -1.87100 19.10400 30.44200
C  -3.61600 19.61600 32.32100
C  -0.96200 17.12100 33.17300
C  -0.51900 18.22000 34.29500
H  0.45100 17.70200 35.30400
N  -1.04100 19.76100 27.55700
C  -1.31700 20.69400 28.49300
C  -1.17700 21.98300 27.90600
C  -0.99300 21.86600 26.50300
C  -0.93700 20.38400 26.34000
C  -1.45400 23.26200 28.65800
C  -0.72500 22.87600 25.37900
O  -0.67100 22.49900 24.21900
C  -0.71700 24.33200 25.70800
N  -0.69600 17.40900 25.71100
C  -0.61400 18.39900 24.77200
C  -0.50400 17.86900 23.32400
C  -0.08600 16.42400 23.63800
C  -0.50900 16.24900 25.10300
C  -1.77400 18.16300 22.52200
C  1.34700 16.21500 23.36800
C  2.40500 16.62200 24.38900
N  -1.13700 15.78300 27.99400
C  -0.95200 14.77200 27.02400
C  -1.25800 13.40700 27.60000
C  -1.53200 13.67800 28.97900
C  -1.42700 15.15900 29.13000
C  -1.36600 12.18200 26.82600
C  -1.82800 13.09900 30.25400
O  -1.89200 11.91500 30.53500
C  -1.91900 14.34400 31.32400
C  -0.68500 14.12200 32.21100
O  0.38800 14.64000 32.03600
O  -1.10600 13.43200 33.34500
C  -0.15300 13.46100 34.43700
H  -1.91300 21.09800 30.49500
H  -0.95100 20.23300 24.13300
H  -0.52700 14.15000 25.00500
H  -3.07700 17.16300 32.46800
H  -1.44300 19.59100 32.50100
H  -4.28000 19.39300 31.48600
H  -3.46100 20.67900 32.50900
H  -4.05300 19.19000 33.22400
H  -0.05100 16.93200 32.60400
H  -1.26200 16.28000 33.79800
H  -1.39600 18.75800 34.65500
H  0.18200 18.93400 33.86200
H  -2.10800 23.84500 28.00900
H  -0.47800 23.72100 28.81400
H  -1.98700 23.00100 29.57200
H  -0.22400 24.94400 24.95300
H  -0.15900 24.53300 26.62200
H  -1.74000 24.68700 25.82800
H  0.34800 18.41500 22.92100
H  -0.70100 15.64300 23.19100
H  -2.24100 17.21000 22.27500
H  -1.46300 18.80200 21.69500
H  -2.51300 18.78000 23.03300
H  1.62400 16.69600 22.43100
H  1.45200 15.15300 23.14300
H  2.89300 17.50500 23.97600
H  2.92500 15.67100 24.50700
H  2.02800 16.97500 25.34800
H  -0.52300 12.02400 26.15300
H  -2.31400 12.15700 26.28700
H  -1.33900 11.34600 27.52500
H  -2.89900 14.37500 31.79900
H  0.11900 12.51300 34.90100
H  -0.70500 14.01100 35.20000
H  0.80200 13.94400 34.23000
Mg 48.15100 16.03300 28.09100
C  46.50100 15.54800 31.11300
C  50.23200 18.27800 29.72400
C  49.86000 16.26400 25.27700
C  45.71200 14.02200 26.57000
N  48.29000 16.94800 30.20800
C  47.58900 16.46900 31.24100
C  48.22800 17.01400 32.55800
C  49.22700 18.11600 32.12500
C  49.21200 17.81900 30.58700
C  49.04600 19.62200 32.52900
C  48.84600 15.97500 33.56900
C  48.33400 16.08200 34.98800
H  47.91000 17.41400 35.62200
N  49.84200 17.01400 27.59000
C  50.51700 17.97800 28.35400
C  51.62600 18.52600 27.51000
C  51.62600 17.83500 26.30800
C  50.38900 16.99700 26.31100
C  52.53000 19.58800 27.97900
C  52.52100 17.85300 25.12300
O  52.38200 17.12600 24.17000
C  53.67200 18.81500 25.11300
N  47.85400 15.24400 26.18600
C  48.75300 15.45600 25.17700
C  48.29000 14.93300 23.81700
C  46.88800 14.29600 24.22100
C  46.82400 14.48800 25.74700
C  48.21700 15.96600 22.71100
C  46.77000 12.84000 23.85900
C  45.58900 12.46800 23.00600
N  46.34200 15.09100 28.64100
C  45.45200 14.30800 27.93400
C  44.47200 13.75200 28.83600
C  44.82400 14.17300 30.07800
C  45.95700 15.04000 29.87000
C  43.39900 12.73600 28.43600
C  44.53200 14.06500 31.49800
O  43.65600 13.42600 32.05400
C  45.54800 15.06200 32.19200
C  44.73300 16.19700 32.83100
O  44.07000 17.01700 32.23100
O  44.61100 15.95000 34.16400
C  43.46500 16.64100 34.78700
H  50.81500 19.03700 30.25100
H  50.24900 16.52800 24.29200
H  45.12500 13.26800 26.04100
H  47.37500 17.54300 32.98400
H  50.23600 17.91600 32.48700
H  49.10300 20.34600 31.71600
H  49.69600 19.81600 33.38200
H  48.09700 19.80900 33.03000
H  49.92800 16.06700 33.65700
H  48.64400 14.94800 33.26400
H  49.15200 15.64600 35.56300
H  47.54400 15.33300 35.05100
H  53.57600 19.32100 28.13100
H  52.24400 19.87400 28.99100
H  52.56000 20.51600 27.40900
H  53.85300 18.93300 24.04500
H  54.49600 18.49100 25.74900
H  53.44800 19.84100 25.40500
H  48.96500 14.18300 23.40300
H  46.03200 14.79400 23.76500
H  48.43500 16.99900 22.98100
H  47.26300 15.87300 22.19200
H  49.01300 15.62100 22.05100
H  46.73200 12.18200 24.72800
H  47.63200 12.47800 23.29800
H  44.65600 12.86000 23.41300
H  45.51700 11.38500 22.91400
H  45.61500 12.93200 22.02000
H  43.16400 11.93500 29.13700
H  43.76600 12.21000 27.55400
H  42.47400 13.29200 28.28900
H  46.04800 14.58000 33.03200
H  43.33100 17.68300 34.49700
H  43.47600 16.57300 35.87500
H  42.67000 15.99300 34.41600

