158

Mg 46.32900 24.67900 29.23300
C  47.10800 27.06500 31.62300
C  45.68800 22.41300 31.78800
C  45.72500 22.38900 26.93600
C  47.29700 26.90600 26.72600
N  46.54900 24.76700 31.44200
C  46.76100 25.84400 32.16200
C  46.39700 25.60400 33.62400
C  45.97700 24.06600 33.64500
C  45.97300 23.75300 32.21400
C  46.85200 23.16200 34.44700
C  45.28000 26.55500 34.03600
C  45.51500 27.34800 35.33200
H  44.40700 27.22400 36.34500
N  45.80600 22.55700 29.32100
C  45.63600 21.81100 30.46800
C  45.22700 20.45000 30.10000
C  45.28200 20.38500 28.67600
C  45.64200 21.78200 28.21000
C  44.94900 19.47300 31.13100
C  44.87400 19.21600 27.77600
O  44.91000 19.33800 26.50500
C  44.48300 17.89800 28.35300
N  46.64400 24.66500 27.14900
C  46.22200 23.61300 26.39200
C  46.51400 23.79300 24.84900
C  46.70200 25.35900 24.79300
C  46.94200 25.64500 26.30500
C  47.75400 22.98500 24.45200
C  45.58000 26.21600 24.11800
C  44.20500 25.90900 24.69000
N  47.09800 26.69200 29.14700
C  47.36900 27.44500 28.02100
C  47.80100 28.71100 28.51400
C  47.68600 28.67100 29.91300
C  47.26800 27.37500 30.25100
C  48.40900 29.77700 27.65000
C  47.88100 29.39200 31.18600
O  48.24300 30.54100 31.36800
C  47.49900 28.42300 32.30200
C  48.68800 28.17900 33.14500
O  49.78400 27.83300 32.70000
O  48.39500 28.46300 34.48000
C  49.34900 28.07600 35.48800
H  45.48800 21.82000 32.68200
H  45.21100 21.88400 26.11600
H  47.74300 27.57000 25.98300
H  47.34600 25.67500 34.15500
H  44.97300 23.80400 33.97800
H  47.76400 23.05700 33.86000
H  46.34400 22.22000 34.65400
H  47.14000 23.61600 35.39600
H  44.33200 26.03100 34.15800
H  45.05800 27.28200 33.25500
H  45.58100 28.40800 35.08800
H  46.45000 26.99000 35.76300
H  45.56100 18.62000 30.84000
H  43.87800 19.32400 31.27100
H  45.35500 19.87000 32.06100
H  45.31900 17.61000 28.99100
H  44.29200 17.11900 27.61600
H  43.57200 17.98400 28.94600
H  45.56700 23.56600 24.35900
H  47.66700 25.51700 24.31300
H  47.65200 22.25300 23.65100
H  48.01900 22.43200 25.35300
H  48.59100 23.60300 24.12700
H  45.54100 25.95800 23.06000
H  45.74600 27.28500 24.25200
H  43.68800 25.22500 24.01700
H  43.58200 26.76500 24.95100
H  44.27000 25.33700 25.61500
H  47.80200 30.00900 26.77500
H  49.43000 29.52500 27.36100
H  48.39700 30.70700 28.21800
H  46.66600 28.86800 32.84600
H  48.87600 27.37200 36.17400
H  49.35500 28.91800 36.18000
H  50.34800 27.84500 35.12000
Mg 25.24100 52.47300 26.00300
C  23.35800 53.40800 28.84100
C  27.92000 52.08600 28.11300
C  26.99700 52.42600 23.23000
C  22.35700 53.39100 23.96100
N  25.55800 52.92400 28.29100
C  24.63700 53.07800 29.22100
C  25.23400 52.80800 30.65200
C  26.74300 52.56100 30.38400
C  26.75800 52.60300 28.79300
C  27.61700 53.61600 31.13400
C  24.51300 51.57000 31.36900
C  23.81500 51.82900 32.73200
H  24.71400 52.11600 33.83600
N  27.14800 52.11000 25.70200
C  28.11400 51.95000 26.67600
C  29.36500 51.58100 26.06400
C  29.18600 51.77200 24.64800
C  27.71700 52.10300 24.44200
C  30.67900 51.31900 26.81300
C  30.17900 51.70800 23.54500
O  29.91200 51.87400 22.38100
C  31.56600 51.15000 23.86900
N  24.75800 52.99700 23.91400
C  25.73900 52.74900 22.92700
C  25.20500 52.97100 21.51800
C  23.71000 53.21900 21.77400
C  23.59500 53.25700 23.28700
C  25.99900 54.06400 20.72000
C  22.74400 52.19800 21.11000
C  22.43100 52.65500 19.63300
N  23.28500 53.25900 26.31600
C  22.25000 53.48200 25.41700
C  21.11800 53.85500 26.08800
C  21.39400 53.73600 27.45400
C  22.80200 53.42200 27.51600
C  19.90000 54.35300 25.32000
C  20.84000 53.84400 28.75300
O  19.69400 54.03000 29.16400
C  22.13900 53.61200 29.77800
C  22.32600 54.82600 30.61700
O  22.82400 55.91200 30.28500
O  21.78000 54.64900 31.83800
C  21.97200 55.63800 32.90600
H  28.84600 52.04800 28.69000
H  27.67200 52.32300 22.37800
H  21.47300 53.64200 23.37100
H  25.06700 53.73700 31.19600
H  27.20600 51.60800 30.64100
H  28.33800 53.11300 31.77900
H  26.98600 54.11800 31.86800
H  28.09600 54.29900 30.43200
H  25.20600 50.74700 31.54400
H  23.77600 51.20700 30.65300
H  23.20700 50.94300 32.91700
H  23.19100 52.71500 32.62200
H  31.41600 52.02000 26.42100
H  31.07400 50.30300 26.80700
H  30.56900 51.73900 27.81300
H  32.16500 50.86400 23.00400
H  31.53100 50.24600 24.47700
H  32.08400 51.96600 24.37400
H  25.43200 52.07800 20.93500
H  23.54200 54.26500 21.52000
H  26.95800 54.35100 21.15100
H  25.38700 54.94900 20.54800
H  26.25300 53.64200 19.74800
H  21.77400 51.91200 21.51600
H  23.27300 51.25200 20.99300
H  22.35600 51.74800 19.03400
H  23.14800 53.41100 19.31300
H  21.50400 53.22700 19.60600
H  20.18200 55.23300 24.74300
H  19.10300 54.75400 25.94700
H  19.61900 53.65500 24.53200
H  21.88500 52.74800 30.39100
H  22.24300 56.62200 32.52200
H  22.77600 55.31700 33.56900
H  21.08400 55.85900 33.49800

