158

Mg 44.41100 5.03800 47.25700
C  42.10900 7.93000 46.90000
C  41.52500 3.01800 46.76000
C  46.37600 2.47500 46.98400
C  46.95700 7.19100 46.55400
N  42.06600 5.45500 47.00100
C  41.45100 6.65200 46.86100
C  39.95400 6.40700 46.61900
C  39.76200 4.85900 46.92300
C  41.24500 4.42100 46.88200
C  38.86900 4.47200 48.17000
C  39.53200 6.78500 45.20300
C  38.42300 7.80300 45.09400
H  37.60700 7.78700 43.81400
N  43.99500 3.02100 47.18800
C  42.81800 2.35300 46.90600
C  43.12400 0.97700 46.71700
C  44.52800 0.71400 46.77300
C  45.00300 2.07600 47.09300
C  42.04200 -0.13100 46.59100
C  45.27200 -0.63500 46.58600
O  44.73200 -1.64300 46.23700
C  46.82000 -0.82600 46.58900
N  46.42400 4.87300 46.75400
C  47.06300 3.69100 46.81300
C  48.56700 3.89800 47.00000
C  48.75500 5.37700 46.49200
C  47.29500 5.89400 46.64100
C  49.05500 3.59200 48.46800
C  49.34900 5.64000 45.01700
C  50.82500 5.99700 44.98100
N  44.57900 7.13200 47.03100
C  45.72200 7.85300 46.75600
C  45.39700 9.32500 46.74800
C  44.04800 9.38500 46.89900
C  43.54100 8.04700 46.93600
C  46.36100 10.42900 46.61500
C  42.85300 10.27600 46.99200
O  42.84100 11.52900 46.95700
C  41.62600 9.38500 46.95900
C  40.70500 9.58500 48.12300
O  40.59300 8.84900 49.11600
O  39.97700 10.66600 47.86300
C  38.88200 10.99500 48.70900
H  40.69900 2.31300 46.64900
H  47.15100 1.70800 46.93400
H  47.84600 7.80200 46.38100
H  39.37000 6.98900 47.33300
H  39.27400 4.21700 46.18900
H  39.54000 4.54200 49.02600
H  38.54400 3.43500 48.09400
H  38.04900 5.18200 48.28900
H  39.19800 5.93000 44.61400
H  40.46600 7.11500 44.74900
H  38.76700 8.79000 45.40300
H  37.77100 7.43300 45.88500
H  41.95900 -0.78400 47.45900
H  42.31700 -0.77400 45.75500
H  40.99300 0.13800 46.46300
H  47.02600 -1.82700 46.21000
H  47.32900 -0.53100 47.50700
H  47.22900 -0.22100 45.77900
H  49.06000 3.15100 46.37900
H  49.33800 5.93400 47.22500
H  48.12700 3.47900 49.03000
H  49.59800 4.46800 48.82100
H  49.69200 2.71200 48.37800
H  48.66500 6.40900 44.65800
H  49.30600 4.75700 44.37900
H  51.07500 6.54000 44.07000
H  51.31500 5.02500 44.92400
H  51.14900 6.48400 45.90200
H  47.35100 10.15400 46.97900
H  45.95700 11.31100 47.11200
H  46.48700 10.82900 45.60900
H  41.08600 9.66200 46.05300
H  38.99600 12.03700 49.00700
H  38.55000 10.46900 49.60400
H  37.91800 11.00300 48.20000
Mg 16.87600 52.08900 26.54900
C  19.22600 50.67900 28.84400
C  14.87500 52.69300 29.17400
C  14.84300 53.11400 24.40800
C  19.06300 50.79700 23.95700
N  17.15500 51.84400 28.69800
C  18.14500 51.22500 29.43700
C  17.77900 51.26500 30.92200
C  16.23800 51.51600 30.97500
C  16.03300 51.98700 29.50600
C  15.44900 50.26600 31.07600
C  18.58700 52.23200 31.76500
C  18.58600 52.02800 33.32000
H  17.70100 50.87600 33.93800
N  15.16800 52.94800 26.76000
C  14.47900 53.10800 27.89000
C  13.27200 53.83200 27.58800
C  13.19700 53.97400 26.15100
C  14.38500 53.28300 25.67800
C  12.35300 54.30500 28.60500
C  12.09600 54.55500 25.20600
O  12.23600 54.66000 24.01400
C  10.86700 55.07700 25.80700
N  16.91500 51.84600 24.43900
C  15.88600 52.43500 23.81200
C  16.14000 52.49000 22.27200
C  17.65200 52.05600 22.14500
C  17.95100 51.58900 23.57700
C  15.08600 51.59400 21.47800
C  18.67000 53.22500 21.81500
C  19.16400 53.22000 20.38600
N  18.74800 50.94800 26.38000
C  19.47700 50.55300 25.28000
C  20.76600 49.97000 25.77400
C  20.66600 49.93400 27.12000
C  19.47000 50.61700 27.45000
C  21.86400 49.42300 24.91500
C  21.32900 49.53300 28.36500
O  22.30800 48.91500 28.56100
C  20.47000 50.06200 29.53400
C  20.19600 48.89400 30.41700
O  20.03100 47.74900 30.01700
O  20.25200 49.21400 31.78700
C  20.44900 48.05900 32.70800
H  14.26500 52.87700 30.06100
H  14.19800 53.59000 23.66700
H  19.81600 50.54400 23.20800
H  17.88800 50.23800 31.27100
H  15.84600 52.27300 31.65500
H  15.63100 49.57700 30.25100
H  14.39900 50.53600 31.19500
H  15.63500 49.80100 32.04400
H  18.27000 53.26200 31.60500
H  19.58200 52.16200 31.32700
H  18.22500 52.96800 33.73800
H  19.62800 51.83200 33.57200
H  11.59600 53.53000 28.72400
H  11.98700 55.29200 28.32200
H  12.81400 54.44500 29.58300
H  10.13000 55.48600 25.11600
H  11.13700 55.95900 26.38700
H  10.34800 54.28200 26.34200
H  15.88800 53.50200 21.95700
H  17.59600 51.25700 21.40500
H  15.59000 50.99000 20.72400
H  14.29200 52.20500 21.04800
H  14.50600 50.92900 22.11800
H  19.53800 53.14600 22.47000
H  18.09600 54.14300 21.93600
H  18.55500 53.94000 19.83900
H  18.92700 52.22400 20.01100
H  20.22000 53.48600 20.34500
H  21.92700 49.82300 23.90300
H  21.73000 48.34400 24.84000
H  22.77900 49.65900 25.45900
H  21.01800 50.81500 30.10100
H  21.12600 48.26600 33.53700
H  20.82100 47.17600 32.18700
H  19.56600 47.67100 33.21500

