158

Mg 26.61300 50.11700 26.04500
C  24.53900 51.39100 28.54000
C  28.98300 49.47200 28.37900
C  28.72100 49.34600 23.52900
C  24.35800 51.37600 23.75600
N  26.69400 50.41200 28.29100
C  25.68300 50.80700 29.08200
C  26.04700 50.59700 30.59600
C  27.61400 50.21900 30.47500
C  27.79000 50.00600 28.92400
C  28.63900 51.23700 31.05500
C  25.18300 49.57800 31.37800
C  24.64300 50.04000 32.69600
H  24.90700 49.06900 33.81300
N  28.51300 49.30600 25.97900
C  29.34200 49.04300 27.06200
C  30.62900 48.48200 26.57900
C  30.54200 48.48000 25.15000
C  29.18900 49.04200 24.79400
C  31.66000 47.93400 27.54700
C  31.48200 48.09800 24.08900
O  31.38700 48.40600 22.91800
C  32.83000 47.40200 24.50100
N  26.58900 50.43900 23.91900
C  27.58500 49.99100 23.09000
C  27.22200 50.20400 21.57100
C  25.73800 50.76500 21.65300
C  25.50600 50.87900 23.19200
C  28.35200 50.98500 20.70100
C  24.69900 49.80900 20.95400
C  24.47700 48.38700 21.44800
N  24.82100 51.25900 26.04500
C  23.98100 51.69400 25.04000
C  22.81300 52.31900 25.60700
C  22.96900 52.25500 26.98400
C  24.18900 51.58100 27.20100
C  21.76400 52.91500 24.70700
C  22.40700 52.66500 28.23200
O  21.39900 53.25000 28.46600
C  23.32000 51.98400 29.34500
C  23.73400 53.09900 30.29400
O  24.36600 54.12000 29.97400
O  23.08600 52.91200 31.51700
C  23.27300 53.91300 32.56700
H  29.74500 49.03800 29.03000
H  29.23100 49.28500 22.56500
H  23.60800 51.59800 22.99400
H  25.87900 51.57900 31.03900
H  27.68600 49.22100 30.90700
H  28.20000 51.72300 31.92600
H  28.76100 51.98900 30.27600
H  29.56900 50.91800 31.52600
H  25.85200 48.74700 31.60300
H  24.38700 49.12900 30.78300
H  23.56600 50.07000 32.53000
H  24.93500 51.07400 32.87900
H  31.30200 46.91400 27.68400
H  31.53100 48.26900 28.57600
H  32.66400 48.14600 27.17900
H  33.25600 48.22500 25.07500
H  33.35500 47.03700 23.61800
H  32.66600 46.56500 25.18000
H  27.29500 49.22900 21.09100
H  25.69400 51.75600 21.20000
H  28.61200 50.42200 19.80500
H  29.20400 51.26300 21.32100
H  27.93000 51.93100 20.36200
H  25.03700 49.88600 19.92000
H  23.70700 50.25200 20.86500
H  23.49400 48.29400 21.91100
H  25.21000 48.12300 22.21100
H  24.51800 47.69400 20.60700
H  21.84800 52.47200 23.71500
H  22.02700 53.96800 24.60600
H  20.72500 52.89000 25.03600
H  22.86700 51.15100 29.88200
H  23.92200 53.71100 33.41800
H  22.27600 54.00200 32.99900
H  23.56000 54.87800 32.15000
Mg 0.46100 42.75900 26.11200
C  2.78200 42.56300 28.74100
C  -1.99300 41.80800 28.32200
C  -1.68000 42.56200 23.44900
C  3.08600 43.45100 24.04700
N  0.44200 42.05500 28.20100
C  1.48400 42.28600 29.13600
C  0.96500 42.23100 30.60300
C  -0.47000 41.60800 30.39600
C  -0.78100 41.84200 28.87700
C  -0.59600 40.12900 30.81700
C  1.07200 43.63400 31.32400
C  1.00900 43.78200 32.91100
H  0.60900 42.49600 33.76200
N  -1.51900 42.27600 25.92400
C  -2.37600 42.00300 26.96300
C  -3.70600 41.90800 26.46000
C  -3.67000 42.06400 25.01500
C  -2.23800 42.27000 24.68600
C  -4.91000 41.68000 27.30100
C  -4.80600 42.02800 24.03000
O  -4.59500 42.16300 22.84300
C  -6.18300 41.77100 24.56100
N  0.68600 42.82500 24.00200
C  -0.31900 42.87000 23.11200
C  0.10700 43.27800 21.67300
C  1.62600 43.56200 21.91200
C  1.84200 43.21400 23.41000
C  -0.21000 42.14500 20.70600
C  2.08600 44.96900 21.56300
C  1.70700 46.02900 22.57800
N  2.53400 43.03800 26.32600
C  3.42500 43.24500 25.36600
C  4.77900 43.27400 25.89400
C  4.62200 42.99400 27.26200
C  3.19500 42.87200 27.42800
C  6.04700 43.31200 25.10800
C  5.23700 42.81400 28.50400
O  6.41700 42.80000 28.76800
C  4.07100 42.54000 29.52400
C  4.30300 41.28900 30.30700
O  3.84200 40.15600 30.06700
O  5.21800 41.51500 31.28900
C  5.68200 40.36100 32.10200
H  -2.71800 41.65700 29.12400
H  -2.32700 42.62700 22.57200
H  3.82900 43.82600 23.34000
H  1.65700 41.58300 31.14100
H  -1.26700 42.14100 30.91400
H  0.38400 39.67100 30.94900
H  -0.98200 39.66500 29.90900
H  -1.25400 39.87500 31.64800
H  0.31300 44.34300 30.99600
H  1.99300 44.12100 31.00400
H  0.34200 44.57900 33.24100
H  1.91800 44.18400 33.35800
H  -5.61500 42.51000 27.27500
H  -4.61100 41.36000 28.30000
H  -5.47200 40.87500 26.82700
H  -6.29200 40.72800 24.85800
H  -6.90900 41.88600 23.75600
H  -6.46200 42.38100 25.42000
H  -0.50400 44.11500 21.33700
H  2.25400 42.86500 21.35800
H  0.33700 42.18000 19.76300
H  -1.28500 41.97400 20.66700
H  0.15700 41.24400 21.19700
H  1.55000 45.13500 20.62800
H  3.17300 45.05200 21.57900
H  1.07000 45.55900 23.32700
H  1.19100 46.85200 22.08400
H  2.66000 46.39900 22.95800
H  6.84900 43.86400 25.60000
H  5.74600 43.70900 24.13900
H  6.45500 42.31900 24.92100
H  4.15900 43.33400 30.26600
H  4.89300 39.62200 32.23700
H  5.84100 40.71100 33.12200
H  6.60900 39.91600 31.73900

