158

Mg 7.71300 2.34400 27.83400
C  8.87700 1.21900 30.93600
C  5.37900 4.34000 29.59300
C  6.61500 3.56700 24.90800
C  9.71200 0.07600 26.25200
N  7.04000 2.58300 30.08100
C  7.87300 2.17100 31.12900
C  7.54200 2.98900 32.40500
C  6.20200 3.70700 31.95100
C  6.20100 3.54800 30.44200
C  4.82400 3.16000 32.70600
C  8.74000 3.96800 32.77500
C  8.51600 5.04900 33.95100
H  9.34400 4.82900 35.18800
N  6.26600 3.76900 27.31700
C  5.34600 4.40500 28.14100
C  4.40900 5.21400 27.34300
C  4.94300 5.16400 26.01400
C  5.96700 4.12700 26.01100
C  3.34500 6.05200 27.92400
C  4.51900 5.86600 24.76900
O  5.15700 5.81800 23.78100
C  3.40400 6.87200 24.81900
N  8.08300 1.88200 25.98800
C  7.55900 2.54500 24.90400
C  7.95100 1.88000 23.58500
C  8.98200 0.88700 23.95900
C  8.92900 0.89300 25.46600
C  6.72200 1.38600 22.69600
C  10.47300 1.21900 23.42000
C  11.31500 0.01000 22.95800
N  8.96300 0.92000 28.43300
C  9.73000 0.02800 27.67100
C  10.66200 -0.67400 28.47400
C  10.37700 -0.29500 29.77600
C  9.35100 0.74200 29.69100
C  11.62300 -1.60700 27.98200
C  10.72700 -0.43300 31.17300
O  11.61100 -1.14300 31.65100
C  9.88800 0.62200 31.99200
C  9.25500 -0.07600 33.11000
O  8.79400 -1.21300 32.96300
O  9.56800 0.44600 34.31300
C  9.10000 -0.48000 35.41300
H  4.68900 4.94400 30.18600
H  6.30100 3.87800 23.91000
H  10.55500 -0.52100 25.89800
H  7.31900 2.32300 33.23800
H  6.25500 4.78500 32.09900
H  4.21700 2.61700 31.98200
H  4.22400 4.00900 33.03400
H  5.04100 2.44700 33.50100
H  8.85600 4.49800 31.82900
H  9.61100 3.35900 33.01500
H  7.45500 5.04600 34.19900
H  8.73600 6.04400 33.56400
H  3.45300 7.05100 27.50000
H  3.37100 6.04700 29.01400
H  2.31600 5.73800 27.74700
H  2.59200 6.35400 25.33000
H  3.21800 7.17200 23.78800
H  3.82900 7.71900 25.35800
H  8.42000 2.67400 23.00500
H  8.69100 -0.14300 23.75100
H  5.76200 1.73200 23.07800
H  6.70300 0.30200 22.81000
H  6.89000 1.60300 21.64100
H  10.95400 1.80000 24.20700
H  10.27500 1.84600 22.55100
H  12.20000 -0.20200 23.55900
H  11.74100 0.23400 21.98000
H  10.68100 -0.86500 22.81600
H  12.37800 -1.81000 28.74100
H  12.05000 -1.19700 27.06600
H  11.07000 -2.53500 27.84200
H  10.54400 1.43300 32.30700
H  9.57000 -1.45200 35.26100
H  8.01600 -0.51300 35.51600
H  9.55100 -0.23000 36.37400
Mg -10.77800 38.23100 40.72000
C  -8.30700 35.80100 40.47400
C  -8.62400 40.54900 39.52900
C  -13.44400 40.33600 40.30800
C  -13.11800 35.63300 41.37500
N  -8.71800 38.15900 40.07500
C  -7.94300 37.07000 39.94700
C  -6.56300 37.33800 39.26100
C  -6.65000 38.90800 39.17200
C  -8.09500 39.26700 39.62800
C  -5.52600 39.69800 39.94500
C  -6.42600 36.51800 37.92000
C  -5.07900 35.84200 37.66200
H  -4.13200 36.31900 36.53800
N  -10.96600 40.22700 40.16600
C  -9.90900 41.03000 39.81000
C  -10.40200 42.30800 39.59100
C  -11.81300 42.34800 39.71100
C  -12.15300 40.91700 40.09100
C  -9.53500 43.54600 39.13700
C  -12.70000 43.52800 39.72300
O  -12.23500 44.67900 39.52700
C  -14.11700 43.48700 40.01300
N  -12.98400 38.03500 40.79000
C  -13.82000 39.06900 40.58400
C  -15.27200 38.65000 40.90100
C  -15.14900 37.10900 41.19300
C  -13.65000 36.86400 41.04100
C  -15.93400 39.46700 42.03300
C  -16.04700 36.18700 40.28900
C  -15.47300 35.54300 38.99200
N  -10.76600 36.11500 40.98900
C  -11.74300 35.24200 41.37900
C  -11.20300 33.95100 41.67900
C  -9.84300 34.11600 41.29000
C  -9.63600 35.45200 40.96400
C  -12.01100 32.66800 42.03600
C  -8.56100 33.46700 41.03200
O  -8.27500 32.26600 41.04300
C  -7.51100 34.49600 40.47800
C  -6.35900 34.47700 41.35800
O  -5.50300 33.64100 41.35800
O  -6.37100 35.62100 42.12900
C  -5.28500 35.86300 43.04100
H  -8.05200 41.37600 39.10300
H  -14.23700 41.07000 40.15700
H  -13.79400 34.86500 41.75700
H  -5.76500 37.12900 39.97400
H  -6.52700 39.19600 38.12800
H  -4.88800 40.12000 39.16800
H  -4.88100 39.15600 40.63600
H  -5.90100 40.57400 40.47400
H  -6.55500 37.28000 37.15300
H  -7.24500 35.80100 37.86100
H  -5.36900 34.81700 37.42900
H  -4.51300 35.74700 38.58800
H  -8.55800 43.33600 38.70200
H  -9.39200 44.34400 39.86500
H  -10.08500 43.94200 38.28300
H  -14.58200 42.83100 39.27800
H  -14.60800 44.46000 40.05500
H  -14.23800 42.99700 40.97900
H  -16.03900 38.71000 40.12900
H  -15.65900 36.98400 42.14800
H  -15.33500 40.33800 42.29900
H  -16.16300 38.87600 42.92000
H  -16.88000 39.88400 41.68600
H  -17.00500 36.62600 40.01100
H  -16.26800 35.34100 40.93800
H  -16.26400 35.39800 38.25700
H  -14.99700 34.59600 39.24800
H  -14.77300 36.23500 38.52300
H  -11.42500 31.75600 41.92800
H  -12.81700 32.71300 41.30300
H  -12.36500 32.53900 43.05900
H  -7.29000 34.11600 39.48000
H  -4.45100 36.12500 42.39000
H  -5.10800 34.97300 43.64500
H  -5.51300 36.67700 43.72900

