158

Mg 47.95800 45.53600 43.52600
C  44.34600 45.37400 43.03300
C  47.89500 42.14300 42.78600
C  51.11900 45.81400 43.10900
C  47.43200 49.06200 43.89100
N  46.24700 44.00300 42.85400
C  44.94000 44.15700 42.62000
C  44.31500 42.96200 41.95200
C  45.39400 41.85200 42.23600
C  46.63200 42.68700 42.67900
C  44.95600 40.77500 43.21900
C  43.87500 43.21700 40.48500
C  42.64800 42.56100 39.95500
H  42.64400 41.69100 38.68800
N  49.34700 44.14700 43.07900
C  49.15100 42.80900 42.91200
C  50.51800 42.22100 42.82400
C  51.48200 43.26900 42.65500
C  50.70400 44.47200 42.96400
C  50.70900 40.69900 42.88600
C  52.92600 43.07700 42.22500
O  53.33400 41.91100 42.06300
C  53.84100 44.20200 42.01300
N  49.01600 47.28000 43.14400
C  50.34300 47.06300 43.29800
C  51.06200 48.39600 43.58300
C  49.87700 49.33600 44.00100
C  48.66700 48.53300 43.68100
C  52.28400 48.27200 44.53700
C  49.82200 50.64600 43.23300
C  49.22800 51.84900 43.92300
N  46.24100 46.94600 43.64000
C  46.23700 48.29300 43.83100
C  44.89700 48.77500 43.97500
C  44.15400 47.65900 43.67500
C  44.98600 46.59100 43.41300
C  44.41900 50.21200 44.33100
C  42.78700 47.21200 43.41300
O  41.74200 47.81900 43.45100
C  42.88800 45.77100 42.99900
C  42.08800 45.06500 44.14800
O  41.20100 44.27000 43.92900
O  42.54900 45.32000 45.40000
C  41.97500 44.55200 46.52100
H  48.08400 41.08500 42.59300
H  52.18400 45.98500 42.94000
H  47.45800 50.13200 44.10900
H  43.39100 42.62700 42.42300
H  45.72100 41.36100 41.31900
H  45.62100 40.66400 44.07600
H  44.90100 39.80300 42.72900
H  43.95400 41.01200 43.57700
H  44.69800 42.90100 39.84400
H  43.89000 44.29400 40.32100
H  41.92300 43.37500 39.96300
H  42.30700 41.83200 40.69100
H  51.05800 40.51900 41.86900
H  49.80400 40.11800 43.06200
H  51.42400 40.42300 43.66200
H  53.41300 45.00900 41.41900
H  54.77500 43.88300 41.55000
H  54.07900 44.61300 42.99400
H  51.52400 48.82500 42.69400
H  49.81600 49.60300 45.05600
H  52.36200 47.31400 45.05000
H  52.21700 48.97400 45.36900
H  53.25600 48.54000 44.12400
H  49.31900 50.59400 42.26700
H  50.82300 51.00500 42.99800
H  49.92700 52.68300 43.98300
H  48.86800 51.63200 44.92900
H  48.36200 52.19700 43.36000
H  43.76600 50.65900 43.58200
H  45.30800 50.84200 44.31400
H  43.93900 50.15100 45.30800
H  42.41100 45.55300 42.04400
H  40.88600 44.57900 46.56100
H  42.37300 44.95700 47.45100
H  42.18300 43.48700 46.42200
Mg 47.93800 35.48800 28.77200
C  46.04300 33.30200 30.85400
C  47.40700 37.97200 31.20000
C  49.01700 37.81300 26.67600
C  47.39100 33.21500 26.07500
N  46.87400 35.55500 30.81700
C  46.38000 34.50700 31.50200
C  46.32400 34.91700 33.00700
C  46.18400 36.44900 32.96100
C  46.83900 36.69200 31.57400
C  44.83800 37.08600 33.29400
C  47.65200 34.22800 33.64400
C  47.58700 33.85500 35.16700
H  46.56400 34.65500 35.91200
N  48.54800 37.50000 29.01900
C  48.22800 38.33100 30.07200
C  48.91800 39.62400 29.84000
C  49.46300 39.54400 28.51300
C  48.93500 38.26400 27.97000
C  49.00500 40.61200 30.94900
C  50.53700 40.45200 27.94000
O  51.14700 40.17900 26.88100
C  51.04600 41.74800 28.67000
N  48.17000 35.48200 26.53800
C  48.70700 36.57900 25.98600
C  48.83900 36.27400 24.49800
C  48.52500 34.75000 24.34300
C  48.02100 34.44600 25.71400
C  47.94300 37.14700 23.58300
C  49.68800 33.78800 24.00700
C  50.78400 33.47600 25.00600
N  47.01900 33.67400 28.47800
C  46.91700 32.78200 27.33800
C  46.25800 31.56100 27.72300
C  46.00600 31.62500 29.13500
C  46.43500 33.01700 29.51300
C  46.01300 30.34400 26.87500
C  45.38600 30.99500 30.33100
O  44.77000 29.96700 30.47100
C  45.42900 31.99500 31.43700
C  45.95200 31.48000 32.77700
O  47.10500 31.02900 33.03100
O  44.95000 31.45100 33.70900
C  45.26700 30.90800 34.99900
H  47.13800 38.71100 31.95800
H  49.37400 38.45900 25.87100
H  47.35400 32.48600 25.26300
H  45.50300 34.44200 33.54300
H  46.88800 36.68100 33.76000
H  44.32000 37.65600 32.52300
H  44.99100 37.74400 34.14900
H  44.04000 36.41400 33.60900
H  48.54300 34.83800 33.49400
H  47.88200 33.34900 33.04200
H  48.56100 34.10700 35.58500
H  47.41700 32.81100 35.43000
H  48.73400 41.62300 30.64400
H  50.06500 40.58700 31.20500
H  48.34900 40.31700 31.76800
H  51.99100 42.05800 28.22400
H  51.23900 41.61400 29.73400
H  50.33000 42.55800 28.53600
H  49.89100 36.45800 24.27800
H  47.73200 34.58900 23.61300
H  47.49800 37.97600 24.13300
H  47.09900 36.62500 23.13200
H  48.62400 37.37500 22.76300
H  50.20100 34.26900 23.17400
H  49.24800 32.82900 23.73300
H  51.65200 33.24400 24.38700
H  50.34100 32.73200 25.66700
H  50.98400 34.32700 25.65700
H  45.26400 30.46400 26.09200
H  45.60500 29.52300 27.46600
H  46.88000 29.97500 26.32800
H  44.37500 32.17500 31.64900
H  44.40500 30.39800 35.42800
H  45.54500 31.74200 35.64300
H  46.04900 30.14900 34.96200

