158

Mg 53.55700 24.72700 45.69100
C  51.07900 26.93500 44.38400
C  52.08400 22.26600 43.75600
C  56.06600 22.85000 46.47100
C  54.99000 27.54400 47.13600
N  51.87200 24.70800 44.06100
C  51.04900 25.69700 43.72100
C  50.05000 25.24600 42.74700
C  50.24400 23.70100 42.77100
C  51.45000 23.49700 43.61800
C  48.92600 22.83600 43.16200
C  50.07400 25.81000 41.31400
C  51.42600 26.37100 40.92100
H  52.14200 25.53600 39.81000
N  54.04100 22.83100 45.13800
C  53.29700 21.92500 44.51000
C  53.70800 20.56200 44.71400
C  54.85200 20.73900 45.57300
C  55.05700 22.18600 45.76000
C  52.85000 19.37600 44.30700
C  55.68100 19.58200 46.09800
O  55.33000 18.42400 45.89700
C  56.82800 19.78700 46.99400
N  55.31500 25.21200 46.38100
C  56.25500 24.23500 46.69900
C  57.40500 24.75100 47.49300
C  57.14700 26.24000 47.42800
C  55.74000 26.34600 46.95800
C  57.57700 24.16300 48.90400
C  58.27600 26.94600 46.60300
C  57.88400 27.68400 45.25500
N  53.09100 26.84000 45.86400
C  53.71300 27.76000 46.57000
C  52.94800 28.99500 46.61800
C  51.83000 28.68000 45.82400
C  52.00500 27.36500 45.28600
C  53.27000 30.20000 47.42300
C  50.60500 29.21000 45.27300
O  50.08800 30.31100 45.45000
C  50.01000 28.08800 44.40500
C  49.85400 28.66700 43.03000
O  50.74400 29.07200 42.26600
O  48.49900 28.81300 42.81100
C  48.02700 29.35500 41.53000
H  51.64500 21.48000 43.13800
H  56.89700 22.32100 46.94000
H  55.36600 28.45100 47.61400
H  49.05400 25.51600 43.10000
H  50.37600 23.35400 41.74600
H  48.32100 22.73800 42.26100
H  48.30600 23.35700 43.89100
H  49.28400 21.92100 43.63400
H  49.38300 26.64900 41.23500
H  49.84000 25.02900 40.59200
H  52.20400 26.45400 41.68000
H  51.36200 27.36900 40.48700
H  52.78000 19.14900 43.24300
H  51.91700 19.53300 44.84800
H  53.23600 18.52400 44.86600
H  57.18400 18.83100 47.37900
H  56.59500 20.41300 47.85500
H  57.62600 20.27500 46.43400
H  58.30800 24.46800 46.95300
H  57.01300 26.69900 48.40800
H  58.55200 23.67700 48.87800
H  56.68600 23.55500 49.05800
H  57.56000 24.83200 49.76500
H  59.08300 26.24900 46.38100
H  58.66500 27.68300 47.30600
H  56.92200 27.38200 44.84200
H  58.57200 27.42600 44.44900
H  57.90300 28.74200 45.51400
H  53.87500 30.81000 46.75300
H  53.73200 30.02800 48.39500
H  52.39800 30.84000 47.56200
H  49.05100 27.73700 44.78500
H  47.10000 29.90500 41.68900
H  47.79100 28.54300 40.84200
H  48.76900 30.01800 41.08500
Mg 7.98800 53.00200 40.99700
C  7.64400 49.55400 40.63600
C  11.17900 52.70200 39.91500
C  8.03300 56.34300 40.65100
C  4.62100 53.11100 41.86500
N  9.13500 51.31400 40.08900
C  8.89700 49.97200 40.15000
C  9.99400 49.19600 39.50700
C  11.22600 50.11900 39.91900
C  10.48800 51.50700 39.94200
C  12.05000 49.81900 41.24400
C  9.84700 49.09800 37.89600
C  9.96800 47.70000 37.27100
H  8.78500 47.20800 36.31400
N  9.44200 54.44000 40.33100
C  10.69800 54.07800 39.96800
C  11.45900 55.24200 39.75500
C  10.56900 56.37500 39.91200
C  9.30500 55.76500 40.38800
C  12.97600 55.23300 39.27900
C  11.02200 57.81400 39.63100
O  12.17200 58.02500 39.19700
C  10.12700 59.05200 39.86600
N  6.56900 54.54600 41.24600
C  6.80100 55.81700 40.89700
C  5.60200 56.72500 41.14500
C  4.46100 55.69800 41.45600
C  5.24700 54.39200 41.54900
C  5.87200 57.71200 42.27600
C  3.27900 55.63700 40.49400
C  3.70700 55.10500 39.17700
N  6.43100 51.64000 41.27500
C  5.16000 51.82200 41.77600
C  4.50300 50.59300 42.00300
C  5.49700 49.65500 41.59200
C  6.59300 50.36500 41.14000
C  3.11800 50.41800 42.61500
C  5.82600 48.23800 41.61100
O  5.26600 47.28200 42.10900
C  7.18700 48.17800 40.93500
C  7.07000 47.43800 39.61800
O  6.68800 47.86800 38.52500
O  7.35000 46.10200 39.85200
C  6.88900 45.08800 38.90200
H  12.20900 52.44000 39.66500
H  7.99200 57.40800 40.41200
H  3.58900 53.19700 42.21300
H  10.05400 48.19900 39.94400
H  11.94900 50.02200 39.10900
H  11.50000 49.09500 41.84500
H  12.23800 50.69800 41.86100
H  12.93900 49.39900 40.77300
H  10.56300 49.77200 37.42700
H  8.86300 49.50100 37.65400
H  10.11200 46.95200 38.05100
H  10.74100 47.64400 36.50500
H  12.99400 55.92200 38.43400
H  13.41200 54.24900 39.10500
H  13.51000 55.62800 40.14300
H  9.49900 58.96900 40.75200
H  9.46000 59.12400 39.00700
H  10.69000 59.98400 39.89000
H  5.29400 57.15800 40.19300
H  4.14600 55.93000 42.47300
H  6.70000 57.38600 42.90600
H  4.95700 57.81000 42.85900
H  6.26900 58.66100 41.91600
H  2.84900 56.58700 40.17500
H  2.39900 55.12700 40.88400
H  3.15400 55.53600 38.34200
H  3.62100 54.01900 39.22500
H  4.75400 55.34000 38.98900
H  2.49200 51.19400 42.17600
H  3.18400 50.54600 43.69600
H  2.63600 49.46300 42.40800
H  7.73300 47.64100 41.71100
H  7.76500 44.78400 38.33000
H  6.13400 45.36600 38.16700
H  6.53200 44.16200 39.35300

