158

Mg 42.23400 40.61500 26.18300
C  41.41100 42.90700 28.74400
C  43.39900 38.51100 28.63200
C  43.01000 38.63200 23.71600
C  41.39400 43.18100 23.81300
N  42.52600 40.79300 28.35600
C  41.99300 41.75400 29.23900
C  42.00300 41.37800 30.72900
C  42.76100 39.94100 30.62800
C  42.90300 39.74600 29.11600
C  44.21900 40.01600 31.34400
C  40.51300 41.14300 31.16000
C  40.10000 41.95600 32.38900
H  39.40800 41.18400 33.52400
N  43.14100 38.78800 26.25700
C  43.44200 37.97700 27.32100
C  43.87700 36.69300 26.76700
C  43.81600 36.78900 25.32000
C  43.32800 38.15700 25.01900
C  44.17700 35.55300 27.65700
C  44.11000 35.67900 24.32700
O  44.10700 35.88800 23.12500
C  44.64000 34.38700 24.67300
N  42.31200 40.92700 23.96200
C  42.69400 39.88200 23.22500
C  42.46700 40.20500 21.74800
C  41.87600 41.68100 21.83200
C  41.90500 42.01200 23.32400
C  43.70700 40.10800 20.82300
C  40.41100 41.82900 21.26600
C  40.29500 42.25600 19.76400
N  41.47400 42.60200 26.21700
C  41.14500 43.48900 25.18800
C  40.71500 44.75200 25.78800
C  40.81200 44.56800 27.21000
C  41.27300 43.27000 27.37300
C  40.30200 45.94900 25.05000
C  40.57200 45.13700 28.44600
O  40.07300 46.20500 28.63100
C  40.97400 44.16500 29.50900
C  42.01600 44.67700 30.39500
O  43.23200 44.63900 30.26600
O  41.39400 45.16200 31.50900
C  42.27000 45.36100 32.64200
H  43.68100 37.86300 29.46500
H  43.33800 37.92500 22.95100
H  40.97300 43.92100 23.12900
H  42.55200 42.09500 31.33900
H  42.30200 39.10800 31.15900
H  44.33100 39.17600 32.03100
H  44.28300 40.92200 31.94600
H  44.97800 39.84300 30.58100
H  40.36300 40.13300 31.54200
H  39.85900 41.33500 30.30900
H  39.46400 42.81200 32.16400
H  41.01900 42.29700 32.86500
H  45.10400 35.02500 27.43200
H  43.41100 34.78700 27.53900
H  44.15400 35.81000 28.71600
H  44.79100 33.72400 23.82000
H  44.04100 33.86200 25.41600
H  45.63100 34.51500 25.10700
H  41.70300 39.53400 21.35400
H  42.58100 42.40500 21.42400
H  44.24800 41.05200 20.76700
H  43.43000 39.74100 19.83500
H  44.37700 39.40800 21.32100
H  39.69600 42.48400 21.76400
H  39.87200 40.88200 21.29500
H  39.68400 41.67800 19.07000
H  41.31700 42.38600 19.40800
H  39.95300 43.28800 19.67800
H  39.28800 46.30900 25.22700
H  40.50400 45.77800 23.99300
H  40.96000 46.79800 25.23400
H  40.05800 43.92300 30.04800
H  42.48900 44.36300 33.02400
H  41.73700 46.04300 33.30300
H  43.24700 45.78200 32.40400
Mg 9.71800 48.69500 25.32700
C  7.49700 49.45300 27.92700
C  12.20000 50.07000 27.37700
C  11.71300 47.77900 23.04600
C  6.97800 47.80300 23.45100
N  9.82700 49.59700 27.46300
C  8.82600 49.78300 28.31300
C  9.28400 50.36700 29.59500
C  10.51300 51.19800 29.08300
C  10.91300 50.24800 27.89000
C  10.26800 52.62900 28.58700
C  9.67900 49.18600 30.64100
C  9.47900 49.52800 32.08100
H  9.00000 48.37600 33.01400
N  11.66200 48.90200 25.24300
C  12.58300 49.33000 26.18100
C  13.91800 49.06700 25.73700
C  13.83600 48.45800 24.44700
C  12.34900 48.31900 24.22600
C  15.15000 49.65800 26.38500
C  14.90800 47.91100 23.51800
O  14.63400 47.35700 22.46400
C  16.34300 47.94900 23.91200
N  9.33600 48.09700 23.35200
C  10.40600 47.66300 22.58700
C  10.01100 46.95300 21.28100
C  8.43600 47.14800 21.31800
C  8.20100 47.67600 22.80200
C  10.66200 47.48700 19.98400
C  7.60600 45.89500 21.02100
C  6.34000 46.06700 20.21000
N  7.57900 48.72100 25.49400
C  6.60300 48.21000 24.72300
C  5.34400 48.17000 25.40800
C  5.65800 48.64100 26.68500
C  7.01400 48.93300 26.68300
C  3.96600 47.75800 24.83800
C  5.05300 49.03300 27.92000
O  3.92100 48.93000 28.27900
C  6.27100 49.48000 28.81000
C  6.28600 48.78900 30.06800
O  6.67500 47.66000 30.24500
O  5.73900 49.60700 31.04800
C  5.47500 48.92400 32.34300
H  12.94600 50.56700 28.00100
H  12.38400 47.27800 22.34500
H  6.19500 47.29000 22.88900
H  8.48600 51.03700 29.91500
H  11.33000 51.12000 29.80100
H  9.19600 52.82200 28.56300
H  10.70800 52.67800 27.59100
H  10.73700 53.40200 29.19500
H  10.69700 48.81100 30.54300
H  9.12000 48.31400 30.30100
H  8.89800 50.43900 32.22300
H  10.45300 49.86000 32.44100
H  15.68000 48.76400 26.71200
H  14.98700 50.38600 27.18000
H  15.78400 50.18200 25.67000
H  16.85800 48.90700 23.98400
H  16.85800 47.45900 23.08500
H  16.43200 47.34400 24.81500
H  10.21400 45.90500 21.49900
H  8.15000 47.99100 20.69100
H  10.36800 46.77900 19.20800
H  11.71800 47.43700 20.24800
H  10.28900 48.49500 19.80400
H  7.32200 45.40400 21.95200
H  8.18400 45.13100 20.50200
H  6.49700 45.58300 19.24600
H  6.15600 47.14000 20.14900
H  5.40900 45.68100 20.62400
H  4.02800 46.67900 24.69500
H  3.76300 48.39400 23.97600
H  3.23100 47.90700 25.62900
H  6.16300 50.53600 29.05900
H  5.59100 47.84300 32.42800
H  4.47700 49.20200 32.68200
H  6.02200 49.39500 33.15900

