158

Mg 41.41500 8.81100 30.33800
C  43.25600 10.01700 32.92500
C  39.01300 7.69400 32.54800
C  39.82800 7.27700 27.79900
C  44.21300 9.43600 28.22300
N  41.32100 8.61000 32.50200
C  42.05600 9.41500 33.31900
C  41.34200 9.72900 34.62200
C  40.11900 8.70800 34.59900
C  40.16200 8.30000 33.10000
C  40.24300 7.50200 35.54200
C  40.98900 11.20800 34.72200
C  40.31100 11.59300 35.98700
H  41.02600 12.03000 37.31500
N  39.57900 7.85500 30.14600
C  38.78800 7.44900 31.18800
C  37.64500 6.76500 30.61600
C  37.71400 6.85700 29.22900
C  39.05600 7.32200 28.99500
C  36.53700 6.28000 31.57000
C  36.70700 6.37500 28.18100
O  36.92500 6.29900 26.97000
C  35.32500 5.96900 28.70600
N  41.97200 8.37300 28.30200
C  41.10200 7.68600 27.50000
C  41.85600 7.60400 26.08700
C  43.08600 8.47800 26.25700
C  43.09600 8.79200 27.67300
C  42.19900 6.11500 25.79700
C  43.20900 9.58700 25.20200
C  42.50500 10.95500 25.41700
N  43.41500 9.57700 30.48500
C  44.44400 9.87800 29.58200
C  45.47300 10.58500 30.25100
C  45.11500 10.64000 31.62300
C  43.85200 9.97400 31.70200
C  46.75300 11.09200 29.56700
C  45.49300 11.07400 32.89100
O  46.45400 11.66200 33.38900
C  44.32500 10.67000 33.82700
C  44.76300 9.52900 34.76400
O  44.49900 8.30800 34.68900
O  45.57700 10.14600 35.66900
C  45.78700 9.19400 36.74000
H  38.30900 7.55800 33.37200
H  39.32600 6.79900 26.95500
H  45.10600 9.82300 27.72900
H  42.08200 9.52900 35.39700
H  39.11600 9.08200 34.80500
H  39.60800 7.57700 36.42500
H  41.29100 7.38200 35.81700
H  39.82100 6.61700 35.06600
H  40.43700 11.47500 33.82100
H  41.86700 11.85200 34.66700
H  39.76600 10.69500 36.27700
H  39.46300 12.24500 35.77400
H  36.07100 7.22300 31.85700
H  36.95100 5.84200 32.47800
H  35.87000 5.55600 31.10100
H  34.63600 5.95800 27.86200
H  35.00500 6.76000 29.38400
H  35.40000 4.98800 29.17400
H  41.29500 7.99100 25.23700
H  44.00200 7.88700 26.27500
H  41.89800 6.06300 24.75100
H  41.84700 5.44900 26.58500
H  43.26900 5.92600 25.70700
H  42.93100 9.33900 24.17800
H  44.26700 9.84400 25.15400
H  43.22700 11.76600 25.32200
H  42.03400 10.96100 26.40000
H  41.74200 11.12300 24.65600
H  46.56800 11.22000 28.50100
H  47.58400 10.39000 29.63200
H  47.06300 12.08900 29.88300
H  43.93200 11.56000 34.31700
H  44.92300 8.91100 37.34000
H  46.50700 9.68900 37.39300
H  46.25300 8.30700 36.31100
Mg 47.96700 25.06400 28.59700
C  48.52300 27.66600 31.02700
C  47.64400 22.84100 31.15200
C  47.73700 22.60800 26.24000
C  49.05200 27.27300 26.16300
N  48.03200 25.28400 30.87600
C  48.20200 26.47300 31.67300
C  47.94400 26.13600 33.19400
C  47.70400 24.56600 33.13100
C  47.81600 24.17300 31.58800
C  48.72700 23.72600 33.98900
C  46.74300 26.98300 33.74700
C  46.22200 26.54500 35.12300
H  45.64600 27.51200 36.07500
N  47.67700 23.01200 28.64800
C  47.52000 22.28300 29.82700
C  47.32900 20.85100 29.45400
C  47.40200 20.79700 28.00300
C  47.60100 22.14100 27.57200
C  47.09800 19.71100 30.40500
C  47.17300 19.62900 27.05900
O  46.99500 19.80500 25.85500
C  47.02800 18.26400 27.61900
N  48.53200 24.94100 26.52900
C  48.14000 23.86200 25.76800
C  48.16200 24.15400 24.27100
C  48.47500 25.74000 24.28500
C  48.72200 26.01300 25.70000
C  49.06400 23.29300 23.38900
C  47.26500 26.65000 23.68300
C  47.66700 27.84300 22.77000
N  48.71900 27.00800 28.55500
C  49.13300 27.77700 27.47900
C  49.42900 29.12400 27.94300
C  49.27100 29.13200 29.36400
C  48.82800 27.82400 29.66300
C  49.87000 30.19300 26.95200
C  49.40900 29.97900 30.55900
O  49.94800 31.04900 30.74700
C  48.72800 29.06600 31.65400
C  49.72300 29.08000 32.72200
O  50.91800 28.69900 32.67600
O  49.20100 29.82100 33.76900
C  49.92600 29.71700 34.98500
H  47.58900 22.09300 31.94600
H  47.61900 21.98100 25.35400
H  49.35500 27.93000 25.34500
H  48.86400 26.32300 33.74700
H  46.67800 24.51800 33.49700
H  48.25900 22.92300 34.55800
H  49.25700 24.38400 34.67700
H  49.40200 23.30600 33.24300
H  45.96600 27.00200 32.98300
H  47.13700 27.99800 33.77800
H  46.91000 25.90100 35.67100
H  45.37500 25.89300 34.91000
H  46.05400 19.42600 30.54100
H  47.50700 20.18600 31.29600
H  47.75800 18.87200 30.18500
H  48.06500 17.95900 27.75700
H  46.55100 17.72100 26.80200
H  46.38500 18.03100 28.46700
H  47.20600 24.02500 23.76200
H  49.37200 26.01000 23.72700
H  49.03800 22.25200 23.71100
H  50.12700 23.53400 23.42200
H  48.72200 23.44000 22.36500
H  46.80300 27.12300 24.55000
H  46.44500 26.08600 23.23700
H  47.48300 28.85600 23.12600
H  46.84300 27.77200 22.05900
H  48.60300 27.79200 22.21400
H  49.35600 29.93800 26.02600
H  50.95000 30.11900 26.82800
H  49.63700 31.20900 27.26800
H  47.72400 29.32800 31.98900
H  50.18600 28.66000 35.04300
H  49.25100 29.90100 35.82200
H  50.85700 30.28400 34.99000

