158

Mg 24.25700 -4.83000 44.96300
C  26.44500 -2.49100 43.55400
C  21.75600 -3.63900 43.05400
C  22.50000 -7.79700 45.59100
C  26.86700 -6.04000 46.79700
N  24.16200 -3.33100 43.36700
C  25.09000 -2.35400 43.06400
C  24.55400 -1.40800 42.00800
C  22.99900 -1.53800 42.37300
C  22.95000 -2.89200 43.05300
C  22.35700 -0.45300 43.21400
C  24.81600 -1.81100 40.55700
C  25.16700 -0.60000 39.59800
H  24.85600 -0.78500 38.11700
N  22.30900 -5.64700 44.36700
C  21.40800 -4.93800 43.63900
C  20.12100 -5.66000 43.68000
C  20.29500 -6.74800 44.51100
C  21.77600 -6.80800 44.79400
C  18.94500 -5.08000 42.84800
C  19.20600 -7.78000 44.86000
O  18.05900 -7.66000 44.41400
C  19.43500 -9.04200 45.65200
N  24.66500 -6.72200 45.95200
C  23.78600 -7.68700 46.16400
C  24.43800 -8.83400 47.02700
C  25.67900 -8.12700 47.57900
C  25.72200 -6.84900 46.79100
C  23.46800 -9.37600 48.15500
C  26.92000 -9.08600 47.62700
C  27.82600 -9.05700 48.93800
N  26.30600 -4.46300 45.17900
C  27.23800 -5.03800 45.93100
C  28.48800 -4.34000 45.78400
C  28.24700 -3.35900 44.86300
C  26.87100 -3.45400 44.53000
C  29.77300 -4.59000 46.55700
C  28.88100 -2.22200 44.16600
O  30.01700 -1.77300 44.17700
C  27.69800 -1.67500 43.30000
C  27.52200 -0.24100 43.68900
O  27.59300 0.22700 44.76700
O  27.28700 0.51400 42.56900
C  27.42100 1.96900 42.91600
H  21.01800 -3.16700 42.40100
H  21.95000 -8.71400 45.81400
H  27.64600 -6.29900 47.51800
H  24.74500 -0.34500 42.15400
H  22.47200 -1.46400 41.42100
H  21.78700 0.22700 42.58000
H  23.18400 0.06200 43.70500
H  21.74300 -0.91100 43.98900
H  24.01000 -2.37900 40.09300
H  25.69900 -2.45000 40.53000
H  26.24800 -0.48100 39.66600
H  24.67700 0.28500 40.00400
H  17.96200 -5.17700 43.30900
H  18.71300 -5.65600 41.95300
H  19.01700 -3.99900 42.72300
H  18.61000 -9.75200 45.60500
H  19.59900 -8.63400 46.64900
H  20.21700 -9.67300 45.23000
H  24.73500 -9.64100 46.35600
H  25.52700 -7.72800 48.58200
H  23.16500 -10.42300 48.13800
H  22.60000 -8.75500 48.37600
H  24.09100 -9.47000 49.04500
H  27.59400 -8.79500 46.82200
H  26.61200 -10.12600 47.51300
H  28.80700 -8.63000 48.73000
H  28.08600 -10.05900 49.28200
H  27.18700 -8.56600 49.67200
H  30.57200 -3.94600 46.19000
H  30.04300 -5.64000 46.43800
H  29.46100 -4.41600 47.58700
H  27.97900 -1.73000 42.24800
H  28.18100 2.20600 43.66100
H  26.50300 2.45900 43.24000
H  27.79000 2.43700 42.00300
Mg 16.55500 -1.33800 27.93200
C  15.27700 0.54300 30.73600
C  18.61900 -3.02800 29.95400
C  17.60100 -2.81000 25.17500
C  14.53000 0.83800 25.95000
N  16.98100 -1.10100 30.10700
C  16.31200 -0.41100 31.04500
C  16.85100 -0.68900 32.45300
C  17.94100 -1.76800 32.21700
C  17.88500 -1.99900 30.67000
C  19.37900 -1.33800 32.63800
C  15.62000 -1.28500 33.36500
C  15.30900 -0.70400 34.75000
H  16.32500 0.15600 35.46400
N  17.75400 -2.77000 27.64300
C  18.57600 -3.36700 28.56400
C  19.38800 -4.42500 27.97800
C  19.13500 -4.35700 26.60200
C  18.14500 -3.27600 26.42100
C  20.24100 -5.37800 28.83200
C  19.94700 -5.01200 25.46500
O  19.68400 -4.80200 24.29400
C  20.93100 -6.06000 25.85700
N  16.16300 -0.88000 25.84400
C  16.71000 -1.75500 24.95700
C  16.37000 -1.24800 23.53100
C  15.06500 -0.34100 23.79400
C  15.26300 -0.07800 25.26500
C  17.50900 -0.48700 22.79300
C  13.71700 -1.09200 23.51100
C  12.67400 -0.11500 22.91200
N  15.33100 0.45800 28.21400
C  14.55800 1.14500 27.31900
C  13.64000 2.02800 27.98600
C  13.87700 1.86900 29.33500
C  14.92800 0.90300 29.44700
C  12.69400 3.06900 27.40500
C  13.55500 2.30400 30.67400
O  12.82800 3.17500 31.03400
C  14.45400 1.41800 31.63800
C  15.32800 2.42000 32.23700
O  16.43900 2.80900 31.82800
O  14.80300 2.90200 33.39700
C  15.66600 3.88800 34.02900
H  19.22100 -3.65500 30.61500
H  17.86800 -3.42300 24.31100
H  13.84100 1.49500 25.41600
H  17.23100 0.21900 32.92100
H  17.74700 -2.74900 32.65000
H  19.98600 -1.45400 31.74100
H  19.66600 -1.92700 33.50900
H  19.52300 -0.28300 32.87200
H  15.62500 -2.36900 33.48300
H  14.76000 -1.32200 32.69600
H  15.08100 -1.60300 35.32200
H  14.38900 -0.12100 34.80400
H  19.85100 -6.39600 28.84400
H  20.34100 -5.23500 29.90800
H  21.28600 -5.37700 28.52100
H  21.78200 -5.60800 26.36800
H  21.30900 -6.38900 24.88900
H  20.44900 -6.86600 26.41000
H  16.17300 -2.15000 22.95200
H  15.21200 0.54800 23.18100
H  17.06900 0.45100 22.45300
H  17.77100 -1.14200 21.96200
H  18.38700 -0.32100 23.41700
H  13.32200 -1.77600 24.26100
H  13.87300 -1.81400 22.70900
H  11.91400 -0.84900 22.64600
H  12.97400 0.54700 22.09900
H  12.26800 0.47400 23.73500
H  11.86600 2.93300 28.10100
H  12.30400 2.73300 26.44500
H  13.19900 4.03500 27.37000
H  13.82600 0.95500 32.39800
H  16.13400 4.57400 33.32200
H  16.45800 3.39800 34.59400
H  15.05300 4.35300 34.80100

