158

Mg 1.88300 -1.97700 43.79900
C  5.05400 -0.62500 43.25900
C  0.63300 0.78800 42.07200
C  -1.11800 -3.48700 43.80300
C  3.36900 -4.74700 45.14800
N  2.74500 -0.21400 42.69900
C  4.04900 0.16600 42.67600
C  4.26700 1.50800 41.93900
C  2.78800 2.11500 42.08500
C  2.02100 0.84700 42.22600
C  2.59200 3.18500 43.20400
C  4.78600 1.37900 40.49100
C  5.46200 2.64400 39.83600
H  5.58900 2.63700 38.28000
N  -0.00500 -1.39200 43.13000
C  -0.27500 -0.27600 42.37100
C  -1.75400 -0.22100 42.11100
C  -2.29400 -1.38000 42.70200
C  -1.13000 -2.19000 43.24600
C  -2.45700 0.92400 41.43300
C  -3.73800 -1.87400 42.77300
O  -4.64700 -1.23500 42.19800
C  -4.22300 -3.12100 43.49200
N  1.18100 -3.85200 44.41100
C  -0.11900 -4.27400 44.39900
C  -0.29100 -5.72800 44.90200
C  1.21800 -6.10100 45.38200
C  1.97200 -4.77400 45.05400
C  -1.37800 -5.93400 45.97400
C  1.71200 -7.27000 44.48600
C  1.48300 -8.63800 45.15500
N  3.77200 -2.60700 44.18700
C  4.20000 -3.75700 44.73100
C  5.62900 -3.73200 44.87200
C  6.01300 -2.53100 44.32900
C  4.83400 -1.88400 43.90100
C  6.43400 -4.78700 45.59300
C  7.10700 -1.65900 44.03600
O  8.30000 -1.87300 44.19700
C  6.53300 -0.39700 43.30800
C  6.82400 0.73100 44.27700
O  6.38800 0.83500 45.40400
O  7.85800 1.52100 43.80200
C  8.34400 2.55900 44.65400
H  0.16100 1.69500 41.68800
H  -1.98100 -4.13100 43.62100
H  3.90100 -5.62800 45.51200
H  4.87400 2.17700 42.54800
H  2.37100 2.56500 41.18400
H  3.50300 3.59100 43.64600
H  1.99300 2.75100 44.00500
H  1.91200 3.95000 42.83200
H  4.00400 1.00200 39.83100
H  5.63100 0.68900 40.49000
H  6.52900 2.53900 40.03000
H  5.01800 3.50800 40.33100
H  -2.27300 0.79600 40.36600
H  -2.20400 1.85200 41.94600
H  -3.54300 0.86900 41.51100
H  -4.10200 -3.96800 42.81600
H  -5.24500 -2.92100 43.81500
H  -3.68600 -3.31000 44.42100
H  -0.61600 -6.41000 44.11600
H  1.32400 -6.30900 46.44700
H  -2.12300 -5.14000 46.01900
H  -1.01100 -6.11300 46.98400
H  -1.78700 -6.92200 45.76100
H  2.75400 -7.11400 44.20600
H  1.13600 -7.29000 43.56100
H  0.83500 -8.76500 46.02300
H  2.52100 -8.92200 45.32200
H  0.92500 -9.31800 44.51200
H  5.95400 -5.16100 46.49800
H  7.44800 -4.49000 45.86100
H  6.48100 -5.62200 44.89400
H  7.10600 -0.24800 42.39300
H  9.01900 2.24800 45.45200
H  7.47800 3.02500 45.12300
H  8.86400 3.23300 43.97400
Mg 27.67100 49.95400 26.08600
C  25.51300 51.06300 28.76200
C  29.90500 48.89800 28.43100
C  29.49800 49.16600 23.54000
C  25.42700 51.58900 23.99000
N  27.74200 50.07000 28.34800
C  26.75600 50.49800 29.21000
C  27.11500 50.16700 30.70900
C  28.53800 49.58100 30.52700
C  28.69800 49.41200 28.96200
C  29.76300 50.46600 31.04200
C  25.99900 49.23400 31.43100
C  25.34100 49.92400 32.61900
H  26.35300 50.34000 33.76200
N  29.47400 49.09400 25.99800
C  30.29200 48.70700 27.02900
C  31.49700 48.08300 26.51800
C  31.39100 48.25700 25.12800
C  30.08300 48.81500 24.79300
C  32.55300 47.39000 27.40200
C  32.50700 47.87300 24.14300
O  32.34700 47.98800 22.97400
C  33.90100 47.38500 24.56800
N  27.52400 50.37300 24.05300
C  28.37400 49.85700 23.20100
C  28.08100 50.25800 21.75100
C  26.60500 50.73900 21.81900
C  26.40600 50.79400 23.42100
C  29.19800 51.13000 21.08200
C  25.56100 49.85500 21.11800
C  24.34000 50.67400 20.62600
N  25.95600 51.22200 26.29600
C  25.14800 51.78800 25.33200
C  23.96700 52.28700 25.95200
C  24.04500 52.08000 27.28900
C  25.25900 51.40100 27.44800
C  22.71300 52.84300 25.21800
C  23.37900 52.28500 28.57100
O  22.30400 52.78100 28.89800
C  24.42000 51.78300 29.60000
C  24.76300 52.93800 30.48500
O  25.67200 53.73100 30.32400
O  23.95200 52.87600 31.53000
C  24.29200 53.83300 32.64300
H  30.59200 48.63600 29.23800
H  30.12000 48.86200 22.69500
H  24.66800 51.98600 23.31300
H  27.15800 51.09800 31.27300
H  28.61900 48.60700 31.00900
H  30.44800 50.85700 30.28900
H  30.31200 49.82500 31.73100
H  29.39500 51.35300 31.55800
H  26.51000 48.32600 31.75300
H  25.25300 48.95300 30.68800
H  24.56100 49.21300 32.89400
H  24.74000 50.78800 32.33300
H  32.19400 47.37300 28.43100
H  33.57300 47.77500 27.38100
H  32.55400 46.37800 26.99800
H  34.37700 48.17900 25.14300
H  34.43900 47.04900 23.68200
H  33.75800 46.43500 25.08300
H  28.07700 49.36900 21.12100
H  26.68100 51.72800 21.36700
H  29.76900 50.58200 20.33200
H  29.85900 51.53200 21.85000
H  28.73200 51.98900 20.59900
H  25.07600 49.12700 21.77000
H  26.06700 49.33500 20.30500
H  23.45700 50.27700 21.12600
H  24.36400 50.56000 19.54200
H  24.35200 51.71300 20.95500
H  21.87100 53.02500 25.88600
H  22.41200 52.01200 24.58000
H  22.92700 53.62300 24.48800
H  23.87300 51.02700 30.16300
H  25.26900 53.47600 32.96800
H  23.55700 53.75400 33.44400
H  24.47200 54.84600 32.28300

