158

Mg 39.91500 9.05200 29.53400
C  41.68700 10.57300 32.02100
C  37.57400 8.06100 31.72800
C  38.37700 7.22800 26.95100
C  42.74300 9.42700 27.40600
N  39.77300 9.26500 31.69000
C  40.50400 9.99600 32.53700
C  39.88500 10.16000 33.97100
C  38.65800 9.24900 33.80700
C  38.65200 8.85600 32.30200
C  38.63300 7.95200 34.78800
C  39.50900 11.63000 34.42700
C  38.41500 11.82000 35.52600
H  38.81900 12.68600 36.63400
N  38.04800 8.00500 29.29400
C  37.27600 7.63600 30.37800
C  36.07800 6.99100 29.89200
C  36.21000 6.90300 28.50600
C  37.55500 7.40500 28.14900
C  34.99500 6.49000 30.78100
C  35.24700 6.28100 27.49600
O  35.49800 6.16100 26.33500
C  33.89500 5.73100 27.86800
N  40.58400 8.23500 27.56900
C  39.77900 7.54400 26.73100
C  40.41900 7.42000 25.31500
C  41.78500 8.07200 25.49300
C  41.70200 8.68800 26.90700
C  40.52500 5.94500 24.73900
C  42.11400 9.16000 24.41400
C  41.32400 10.50800 24.60200
N  41.81300 9.87500 29.65100
C  42.78600 10.05700 28.69600
C  43.84000 10.87100 29.23400
C  43.50400 11.09900 30.51400
C  42.19800 10.48600 30.75200
C  45.04700 11.28700 28.52000
C  43.90900 11.61500 31.72500
O  44.93600 12.25400 31.97500
C  42.74800 11.33000 32.73100
C  43.30700 10.52400 33.90800
O  43.86200 9.42800 33.81000
O  42.99900 11.13000 35.09200
C  42.98600 10.27800 36.24600
H  36.89000 7.80900 32.54200
H  37.88900 6.72300 26.11500
H  43.50400 9.63700 26.65100
H  40.58300 9.79400 34.72400
H  37.74700 9.78500 34.07100
H  38.67600 7.00800 34.24600
H  37.79700 7.90900 35.48600
H  39.55400 7.96900 35.37000
H  39.06700 12.11900 33.55900
H  40.33700 12.30300 34.65300
H  38.23400 10.85500 35.99900
H  37.49500 12.12900 35.03000
H  34.02300 6.80700 30.40300
H  35.12200 6.93700 31.76700
H  35.10600 5.40800 30.85600
H  34.02000 4.87900 28.53600
H  33.41000 5.28900 26.99800
H  33.18400 6.44700 28.27900
H  39.89900 8.04000 24.58500
H  42.59500 7.35900 25.64600
H  40.18600 5.23400 25.49200
H  41.59400 5.90900 24.53000
H  40.00200 5.85000 23.78700
H  41.85400 8.63600 23.49400
H  43.18700 9.35000 24.42100
H  40.85700 10.79500 23.65900
H  41.95900 11.30400 24.99200
H  40.57300 10.45300 25.38900
H  45.07600 12.37600 28.48100
H  45.13400 10.95000 27.48800
H  45.93100 10.95100 29.06200
H  42.35400 12.30000 33.03300
H  43.17800 10.90000 37.11900
H  43.85600 9.65000 36.43900
H  42.07900 9.67300 36.22800
Mg 53.37400 23.93500 44.55200
C  50.96100 26.28300 43.69200
C  51.40200 21.38900 43.30800
C  56.07200 21.70900 44.66800
C  55.33600 26.53000 45.56300
N  51.38800 23.86200 43.49400
C  50.57500 24.96400 43.34600
C  49.30300 24.47800 42.62900
C  49.39100 22.91500 42.92200
C  50.79400 22.70300 43.32000
C  48.41900 22.41000 43.97100
C  49.11900 24.69900 41.09800
C  50.34100 25.02800 40.24900
H  50.01500 25.58100 38.83700
N  53.67700 21.80900 44.02900
C  52.73100 20.97400 43.51100
C  53.32400 19.66200 43.26300
C  54.67200 19.74100 43.73600
C  54.85200 21.06800 44.27200
C  52.64500 18.56400 42.52500
C  55.56200 18.51600 43.69600
O  55.30200 17.52200 43.04900
C  56.77800 18.46600 44.48200
N  55.43400 24.17500 44.94000
C  56.31500 23.08000 44.94000
C  57.66700 23.55200 45.44700
C  57.49200 25.08600 45.60000
C  56.03000 25.29500 45.38100
C  58.16500 22.87400 46.75400
C  58.49400 25.87900 44.63900
C  59.56300 26.74900 45.34500
N  53.22900 25.98900 44.71000
C  54.09500 26.90700 45.16000
C  53.43100 28.18900 45.19900
C  52.16600 28.02300 44.60100
C  52.13600 26.63500 44.37400
C  53.98100 29.45900 45.74800
C  50.90500 28.66200 44.23500
O  50.49900 29.83300 44.31400
C  50.03800 27.50800 43.57200
C  49.73500 28.08600 42.17100
O  50.50900 28.36100 41.28200
O  48.36000 28.15500 42.12800
C  47.60700 28.29700 40.89900
H  50.67800 20.59800 43.10100
H  56.97400 21.12600 44.46800
H  55.97100 27.34100 45.92600
H  48.46700 24.95600 43.14000
H  49.25800 22.28300 42.04400
H  48.01200 23.21900 44.57700
H  48.87300 21.76500 44.72300
H  47.52600 22.02600 43.47700
H  48.41900 25.53300 41.03300
H  48.61800 23.81200 40.71100
H  50.84900 24.06700 40.17600
H  51.01100 25.81600 40.59400
H  53.15700 18.24200 41.61800
H  51.61400 18.83900 42.30200
H  52.59200 17.66300 43.13600
H  56.91300 17.40400 44.68700
H  56.74500 18.98500 45.44000
H  57.59800 18.92200 43.92700
H  58.52400 23.44400 44.78200
H  57.80200 25.33900 46.61400
H  57.90000 21.81700 46.74400
H  57.74600 23.43300 47.59000
H  59.23900 22.97700 46.90700
H  57.82800 26.58600 44.14300
H  59.01200 25.27600 43.89300
H  59.73000 26.46600 46.38500
H  59.52000 27.82700 45.18700
H  60.55400 26.56800 44.93000
H  55.05400 29.56400 45.58800
H  53.79800 29.45200 46.82200
H  53.58700 30.38500 45.32800
H  49.14000 27.39800 44.18000
H  48.26500 28.18100 40.03800
H  47.07500 29.23900 41.03600
H  46.82800 27.53800 40.82600

