158

Mg 49.03300 34.76400 28.33900
C  47.33100 33.24700 31.03300
C  49.28500 37.61700 30.32000
C  50.28400 36.37000 25.53600
C  48.15200 32.03900 26.28300
N  48.38100 35.32400 30.44400
C  47.82700 34.58300 31.36500
C  48.09200 35.15700 32.77500
C  48.33800 36.67500 32.41800
C  48.75600 36.54700 30.96300
C  47.11300 37.60500 32.82900
C  49.38000 34.46100 33.38300
C  49.42700 34.27800 34.93200
H  48.73900 35.31400 35.85900
N  49.75000 36.65800 27.97700
C  49.81800 37.68000 28.96800
C  50.47700 38.86500 28.40600
C  50.63800 38.61200 27.00300
C  50.17000 37.15400 26.79100
C  50.93900 39.96900 29.30000
C  51.26100 39.49200 25.99100
O  51.46600 39.05600 24.90800
C  51.48400 40.87700 26.28500
N  49.26500 34.28600 26.21100
C  49.93300 35.01500 25.31300
C  50.45100 34.09100 24.16900
C  49.58800 32.82300 24.27100
C  48.98700 33.02700 25.67300
C  50.46200 34.79600 22.75400
C  50.21700 31.43200 24.03100
C  51.50400 31.35700 23.08500
N  47.98000 33.02400 28.56000
C  47.73700 31.97900 27.67100
C  47.01800 30.83200 28.33900
C  46.91200 31.29600 29.68000
C  47.39300 32.62700 29.72500
C  46.74800 29.42800 27.72400
C  46.35300 30.95300 30.97600
O  45.71900 29.98100 31.33400
C  46.47500 32.27800 31.82600
C  46.87900 31.91400 33.19900
O  47.85300 31.22700 33.51400
O  45.93900 32.25500 34.08000
C  46.19600 31.90200 35.49600
H  49.33100 38.52500 30.92500
H  50.80800 36.85600 24.71100
H  48.11400 31.10000 25.72700
H  47.19500 35.04600 33.38500
H  49.17000 37.06900 33.00200
H  47.39400 38.25600 33.65700
H  46.23000 37.03000 33.10700
H  46.82300 38.20500 31.96600
H  50.27000 34.98100 33.02900
H  49.43900 33.50600 32.86200
H  50.49100 34.25300 35.16600
H  49.20300 33.23600 35.16200
H  50.24800 40.80900 29.22700
H  51.93700 40.16900 28.91100
H  51.01000 39.76500 30.36800
H  52.32800 41.13000 26.92500
H  50.59100 41.26400 26.77700
H  51.56500 41.44300 25.35700
H  51.44100 33.82800 24.54300
H  48.74800 32.92000 23.58300
H  51.32600 35.43900 22.58300
H  49.54700 35.38100 22.65600
H  50.40700 34.12500 21.89700
H  49.47800 30.71200 23.68000
H  50.41500 31.06400 25.03800
H  51.21600 30.54100 22.42200
H  52.35200 31.21300 23.75500
H  51.74200 32.26700 22.53400
H  47.02600 28.65300 28.43900
H  47.24900 29.16500 26.79300
H  45.67100 29.30400 27.60300
H  45.46300 32.67900 31.88600
H  46.59900 30.89400 35.59500
H  45.25000 31.92200 36.03600
H  46.93700 32.59700 35.89200
Mg -6.21200 24.79000 25.53300
C  -4.96300 26.49300 28.28300
C  -8.25900 23.04900 27.43100
C  -7.30400 23.36400 22.75100
C  -3.92700 26.61100 23.58900
N  -6.45700 24.74400 27.67000
C  -5.91200 25.54200 28.65000
C  -6.29500 25.11000 30.05200
C  -7.12500 23.78600 29.73800
C  -7.36100 23.85900 28.18200
C  -6.39600 22.43700 30.18800
C  -7.00200 26.23500 30.81700
C  -6.43600 26.54400 32.21700
H  -5.86900 25.42200 33.08100
N  -7.65100 23.53900 25.15300
C  -8.48200 22.96400 26.10700
C  -9.58600 22.20200 25.39200
C  -9.15700 22.18900 24.05800
C  -7.94900 23.03500 23.94700
C  -10.68700 21.49500 26.09100
C  -9.93300 21.44900 22.88800
O  -9.60700 21.59100 21.69700
C  -10.97000 20.39600 23.19300
N  -5.74100 25.05100 23.44400
C  -6.28900 24.29800 22.42900
C  -5.69700 24.49300 21.09100
C  -4.69800 25.75700 21.37200
C  -4.72700 25.74800 22.88400
C  -4.98800 23.24700 20.51200
C  -5.17400 27.00600 20.60100
C  -4.39100 27.46300 19.38200
N  -4.79200 26.25200 25.82400
C  -3.96400 26.90900 24.93500
C  -3.13100 27.91400 25.65800
C  -3.52900 27.77200 26.96700
C  -4.54000 26.77600 26.99900
C  -2.30800 28.94000 25.00000
C  -3.28500 28.22200 28.28300
O  -2.55400 29.07700 28.73800
C  -4.06300 27.32000 29.16700
C  -3.18700 26.42500 29.90000
O  -2.77700 25.30800 29.58700
O  -2.92800 26.93300 31.15000
C  -1.82900 26.30300 31.99100
H  -9.03300 22.50600 27.97800
H  -7.58900 22.81600 21.85100
H  -3.10200 26.93900 22.95200
H  -5.39000 24.77000 30.55700
H  -8.04400 23.75200 30.32300
H  -5.34600 22.57300 30.44800
H  -6.40400 21.79100 29.30900
H  -6.95100 21.93200 30.97900
H  -8.06400 25.99300 30.87600
H  -6.98000 27.13000 30.19600
H  -7.33800 26.99300 32.63400
H  -5.71200 27.34900 32.33800
H  -11.59600 21.79400 25.57000
H  -10.68000 21.79300 27.14000
H  -10.57500 20.41500 25.99100
H  -10.71200 19.66600 23.96100
H  -11.00000 19.77700 22.29700
H  -11.99400 20.75900 23.28300
H  -6.55900 24.74900 20.47500
H  -3.69700 25.48400 21.03700
H  -4.81000 22.46400 21.24900
H  -4.02900 23.58200 20.11700
H  -5.63500 22.85700 19.72700
H  -5.22400 27.82400 21.32000
H  -6.18800 26.89900 20.21500
H  -4.93900 27.70700 18.47100
H  -3.77700 26.70300 18.90100
H  -3.65000 28.24100 19.56700
H  -1.64100 29.33700 25.76400
H  -2.93600 29.72800 24.58500
H  -1.66700 28.46600 24.25700
H  -4.65600 27.86100 29.90500
H  -0.85200 26.16300 31.52900
H  -2.26400 25.39200 32.40300
H  -1.55300 27.05000 32.73500

