158

Mg 35.48400 1.22300 30.46100
C  33.09900 2.47800 32.79000
C  37.75100 1.01100 33.01300
C  37.65800 0.46100 28.04400
C  33.06100 1.67700 27.98600
N  35.40900 1.61600 32.63900
C  34.32600 2.12300 33.36400
C  34.64100 2.06700 34.87900
C  36.18000 1.91800 34.83500
C  36.45900 1.42500 33.38100
C  36.94500 3.29000 35.09100
C  33.81400 0.99600 35.60700
C  33.16700 1.41000 36.92600
H  33.97800 2.38900 37.76200
N  37.41000 0.78000 30.51800
C  38.17900 0.71300 31.65500
C  39.52100 0.35200 31.28700
C  39.55900 0.36300 29.83300
C  38.14500 0.54300 29.36800
C  40.58700 0.11500 32.24200
C  40.71600 0.00700 28.88600
O  40.64700 0.00900 27.66100
C  42.03300 -0.10300 29.52800
N  35.42900 1.26800 28.27600
C  36.42000 0.78600 27.53500
C  36.05700 0.53700 26.06900
C  34.48700 0.84400 26.11200
C  34.28800 1.31200 27.56500
C  36.97300 1.42900 25.07600
C  33.57100 -0.40900 25.79200
C  32.57400 -0.23600 24.65800
N  33.52000 1.87700 30.33500
C  32.66400 2.12300 29.26300
C  31.44500 2.77700 29.65700
C  31.56000 2.86500 31.02000
C  32.82400 2.34500 31.39800
C  30.23000 3.02100 28.79300
C  30.86200 3.25200 32.24700
O  29.73000 3.61300 32.39500
C  31.87000 3.01800 33.45600
C  32.10700 4.32000 34.11800
O  32.90100 5.20900 33.73700
O  31.47000 4.33700 35.34900
C  31.90200 5.31800 36.33000
H  38.57700 1.08700 33.72300
H  38.36200 0.16300 27.26400
H  32.31100 1.69300 27.19300
H  34.29700 3.01800 35.28600
H  36.61800 1.16200 35.48600
H  37.40700 3.23100 36.07700
H  36.30700 4.16900 34.99800
H  37.73500 3.36500 34.34500
H  34.39600 0.09600 35.80200
H  32.99300 0.61600 34.99900
H  33.13900 0.55300 37.59800
H  32.19700 1.88600 36.78200
H  41.33700 0.89700 32.36100
H  41.18900 -0.75300 31.97400
H  40.09600 -0.06600 33.19900
H  42.79500 -0.08700 28.74900
H  42.09500 -1.13600 29.87100
H  42.28700 0.67500 30.24700
H  36.14200 -0.51400 25.79100
H  34.18300 1.67400 25.47400
H  36.46900 2.33600 24.74100
H  37.49400 1.01400 24.21300
H  37.80600 1.78900 25.68000
H  32.98200 -0.59900 26.68900
H  34.19000 -1.27700 25.56700
H  33.20600 -0.34100 23.77600
H  32.00300 0.69100 24.61300
H  31.75900 -0.95700 24.71800
H  30.43300 3.42700 27.80200
H  29.62100 3.77800 29.28800
H  29.66900 2.08800 28.75700
H  31.53200 2.29400 34.19800
H  31.53100 6.30000 36.03600
H  32.98700 5.41700 36.29500
H  31.61000 5.02800 37.33900
Mg 8.81000 47.51100 27.57000
C  6.82100 47.20500 30.44000
C  11.52700 47.93400 29.44600
C  10.44900 48.29100 24.72000
C  5.72900 47.59400 25.63700
N  9.10300 47.55700 29.62400
C  8.21300 47.34200 30.63700
C  8.85100 47.25600 32.02800
C  10.28700 47.70100 31.68200
C  10.33400 47.69500 30.14000
C  10.78900 49.10500 32.17600
C  8.82000 45.87600 32.76000
C  9.95600 45.42100 33.73600
H  9.51900 44.89300 35.11000
N  10.77400 48.01000 27.16600
C  11.80100 48.10600 28.08100
C  13.05600 48.20200 27.39900
C  12.71300 48.41100 26.00800
C  11.25600 48.29800 25.91600
C  14.37700 48.20900 28.14800
C  13.69600 48.46400 24.88400
O  13.34600 48.65400 23.70800
C  15.21000 48.43300 25.11000
N  8.10400 47.83200 25.50000
C  9.05100 48.07400 24.52800
C  8.44700 48.44200 23.13900
C  6.97000 47.92800 23.36300
C  6.90700 47.68400 24.92000
C  8.54900 49.97500 22.84500
C  6.63800 46.55900 22.54700
C  5.51300 46.75500 21.55100
N  6.73100 47.36600 27.95100
C  5.62600 47.51000 27.06700
C  4.35900 47.39300 27.80000
C  4.82900 47.25000 29.18300
C  6.24000 47.24600 29.17400
C  2.94400 47.64300 27.20700
C  4.45000 47.06100 30.56900
O  3.34900 46.95100 31.13500
C  5.70300 46.86700 31.42300
C  5.75200 45.48400 31.86000
O  6.07700 44.52000 31.13600
O  5.30600 45.35400 33.17600
C  5.48400 43.99900 33.75800
H  12.49100 48.02400 29.94900
H  11.07500 48.66900 23.91000
H  4.80200 47.54500 25.06100
H  8.43200 48.01600 32.68800
H  11.00300 46.89200 31.82100
H  10.12900 49.46900 32.96400
H  10.69000 49.92100 31.46100
H  11.78300 49.07600 32.62400
H  8.80900 45.10900 31.98500
H  7.97300 45.70100 33.42400
H  10.54400 46.31900 33.92200
H  10.58500 44.75600 33.14400
H  15.00400 47.51900 27.58300
H  14.31200 47.87400 29.18300
H  14.72600 49.24200 28.13600
H  15.53100 48.94600 26.01600
H  15.54700 48.93000 24.20000
H  15.57300 47.40600 25.06200
H  9.01000 47.93200 22.35700
H  6.25300 48.71800 23.14100
H  8.70800 50.43100 23.82300
H  7.62400 50.36600 22.41900
H  9.39400 50.14900 22.17900
H  6.34900 45.78700 23.26000
H  7.54000 46.14300 22.09900
H  5.04200 47.73300 21.45300
H  4.67500 46.13700 21.87400
H  5.92900 46.39500 20.61000
H  2.35000 46.82800 27.62100
H  2.86000 47.78100 26.12900
H  2.51000 48.48600 27.74400
H  5.68800 47.56400 32.26100
H  6.51000 43.70500 33.53600
H  4.69500 43.28100 33.53500
H  5.60100 44.05600 34.84000

