158

Mg 9.38300 5.10500 27.73500
C  10.33600 3.13100 30.58200
C  7.10200 6.72400 29.73900
C  7.94100 6.39800 24.88600
C  11.10500 2.66000 25.83700
N  8.83600 4.97400 29.83900
C  9.51600 4.24600 30.87700
C  9.07500 4.82000 32.23800
C  7.83500 5.68200 31.92700
C  7.97000 5.84700 30.41600
C  6.41000 5.16000 32.37000
C  10.28000 5.52300 32.91200
C  10.73500 4.74300 34.24900
H  10.97400 5.64100 35.42200
N  7.85100 6.54300 27.37000
C  6.99100 7.01800 28.35100
C  6.16900 8.05900 27.76400
C  6.49000 8.05400 26.30000
C  7.41900 6.93900 26.11200
C  5.25300 8.83700 28.59800
C  5.98800 8.96400 25.18600
O  6.23500 8.75400 23.97900
C  5.09900 10.14900 25.40000
N  9.44000 4.47300 25.73800
C  8.78200 5.25600 24.75300
C  9.18700 4.78500 23.31200
C  10.32000 3.76100 23.59200
C  10.32500 3.59800 25.12300
C  8.05200 4.19300 22.55700
C  11.71400 4.09800 23.06100
C  12.04500 3.60600 21.71800
N  10.67000 3.45000 28.11100
C  11.19300 2.54200 27.22300
C  11.90100 1.46600 27.87300
C  11.68200 1.78600 29.21300
C  10.85300 2.88700 29.30100
C  12.38500 0.26100 27.21500
C  11.88500 1.28000 30.62700
O  12.55600 0.34600 31.03500
C  11.20400 2.24800 31.57200
C  10.33700 1.48000 32.48900
O  9.16700 1.17900 32.34600
O  11.06800 1.25700 33.60900
C  10.36100 0.65400 34.76900
H  6.54700 7.30800 30.47600
H  7.63900 6.94100 23.98800
H  11.46700 1.84100 25.21200
H  8.77500 3.90600 32.75000
H  7.89600 6.70700 32.29400
H  5.82400 5.88500 32.93500
H  6.45800 4.23000 32.93600
H  5.78500 4.97500 31.49600
H  10.04100 6.56300 33.13100
H  11.04900 5.56600 32.14000
H  11.56700 4.07100 34.03800
H  9.81800 4.26500 34.59300
H  5.84300 9.06500 29.48600
H  4.47000 8.16900 28.95800
H  4.71800 9.62400 28.06800
H  5.54700 10.70200 26.22500
H  4.11700 9.85500 25.77000
H  4.93600 10.81600 24.55400
H  9.60000 5.65000 22.79300
H  10.10700 2.75200 23.24000
H  7.15300 4.77400 22.76100
H  7.82600 3.17300 22.87100
H  8.12500 4.27600 21.47300
H  12.49600 3.86900 23.78400
H  11.66300 5.17600 22.90700
H  12.88900 2.93800 21.89100
H  12.27900 4.39600 21.00500
H  11.25100 3.02800 21.24400
H  11.55000 -0.15700 26.65300
H  12.69000 -0.52800 27.90300
H  13.19700 0.66600 26.61100
H  11.80200 2.93300 32.17300
H  11.06800 -0.08600 35.14200
H  9.35600 0.29600 34.54600
H  10.11700 1.42300 35.50200
Mg 17.19100 -0.36500 27.68200
C  16.40000 1.47300 30.65800
C  19.13500 -2.36300 29.53300
C  18.38200 -1.64200 24.83100
C  15.68800 2.19900 25.83600
N  17.95700 -0.20000 29.81600
C  17.33600 0.45600 30.87100
C  17.59500 -0.21700 32.22500
C  18.56600 -1.36400 31.81200
C  18.62000 -1.26300 30.29400
C  20.00300 -1.29400 32.49600
C  16.37100 -0.73900 32.98800
C  16.30900 -0.46200 34.51200
H  17.60600 0.03100 35.22500
N  18.54800 -1.87400 27.23200
C  19.19900 -2.70400 28.18700
C  19.81300 -3.82300 27.53200
C  19.58700 -3.56700 26.07200
C  18.78000 -2.34200 25.99900
C  20.41600 -4.96700 28.32100
C  19.84800 -4.48200 24.90700
O  19.43900 -4.28000 23.75300
C  20.68600 -5.70500 25.08800
N  17.16900 0.23200 25.68900
C  17.68100 -0.49300 24.69600
C  17.58300 0.18400 23.27800
C  16.66200 1.39800 23.64100
C  16.41300 1.27300 25.13500
C  18.98900 0.57300 22.66900
C  15.31700 1.31200 22.79500
C  14.27800 0.40800 23.28300
N  16.02800 1.27800 28.10200
C  15.42900 2.25600 27.24600
C  14.71100 3.23500 27.98900
C  15.09600 2.98000 29.30000
C  15.93300 1.77600 29.34700
C  14.04600 4.48900 27.49100
C  14.92700 3.49200 30.67700
O  14.31000 4.46300 31.05700
C  15.83600 2.55300 31.62900
C  16.87600 3.27600 32.30900
O  18.04200 3.31300 31.96900
O  16.40700 3.93500 33.45700
C  17.35400 4.62500 34.36900
H  19.51800 -3.16600 30.16600
H  18.63000 -2.07900 23.86100
H  15.16100 3.01300 25.33300
H  18.16300 0.39800 32.92300
H  18.25600 -2.37600 32.07300
H  19.90000 -2.24500 33.01700
H  20.09000 -0.42600 33.15000
H  20.86600 -1.22900 31.83300
H  16.23700 -1.78100 32.69600
H  15.48500 -0.24500 32.58900
H  16.00800 -1.38700 35.00400
H  15.48400 0.19400 34.78900
H  19.92600 -5.92400 28.14000
H  20.33200 -4.83800 29.40000
H  21.48900 -5.12300 28.21200
H  21.61300 -5.46300 25.60900
H  20.93000 -6.04800 24.08300
H  20.12400 -6.54500 25.49500
H  17.09700 -0.46700 22.55200
H  17.19900 2.34100 23.53900
H  19.00400 1.58000 22.25400
H  19.36600 -0.21200 22.01300
H  19.71900 0.42200 23.46400
H  15.59600 0.97500 21.79700
H  14.89200 2.31100 22.69300
H  13.78400 -0.04900 22.42600
H  13.57700 0.95200 23.91600
H  14.57200 -0.41900 23.93000
H  14.76200 4.89600 26.77800
H  13.80400 5.13900 28.33200
H  13.21000 4.07200 26.93000
H  15.19800 2.04200 32.35000
H  17.16100 4.27800 35.38400
H  17.29300 5.70600 34.24500
H  18.38500 4.31000 34.20600

