158

Mg 39.78400 9.60800 29.02300
C  41.53500 11.09600 31.84200
C  37.49600 8.54600 31.16500
C  38.49900 8.15800 26.47700
C  42.68200 10.51200 27.09900
N  39.74700 9.68400 31.29500
C  40.30400 10.50500 32.18600
C  39.64300 10.55200 33.58900
C  38.52500 9.46800 33.39500
C  38.57000 9.24700 31.88100
C  38.57200 8.21500 34.30600
C  39.21700 11.98500 33.98900
C  38.90200 12.14800 35.46000
H  39.72800 13.10000 36.36100
N  38.16400 8.57400 28.87400
C  37.31900 8.17000 29.83500
C  36.25800 7.48600 29.29300
C  36.52900 7.28200 27.90100
C  37.76200 8.04700 27.68000
C  35.08000 6.97900 30.08600
C  35.71400 6.58600 26.88100
O  36.10000 6.48100 25.75700
C  34.37800 6.02100 27.19000
N  40.47700 9.53000 27.01700
C  39.70300 8.85600 26.08700
C  40.39300 8.78100 24.72600
C  41.87800 9.29100 25.06600
C  41.65400 9.89900 26.42800
C  40.25100 7.50200 23.84100
C  42.47000 10.33400 24.06200
C  41.93200 11.80500 24.28200
N  41.71800 10.49300 29.35500
C  42.79700 10.83200 28.45800
C  43.79600 11.51100 29.16100
C  43.35000 11.61900 30.49700
C  42.10700 11.02300 30.54500
C  45.04800 12.11500 28.54400
C  43.73800 12.20600 31.70000
O  44.70600 12.87000 32.04600
C  42.55100 11.86400 32.72700
C  43.06500 11.12500 33.88800
O  43.55600 9.96900 33.95100
O  42.73000 11.86800 35.03800
C  43.04400 11.25700 36.35200
H  36.72600 8.28000 31.89200
H  38.05700 7.56100 25.67600
H  43.64600 10.53300 26.58600
H  40.41500 10.23000 34.28800
H  37.65800 10.10000 33.58800
H  39.52700 8.02100 34.79500
H  38.21900 7.39400 33.68200
H  37.85700 8.40700 35.10600
H  38.39600 12.14200 33.28900
H  40.02300 12.67100 33.72800
H  39.08200 11.15900 35.88100
H  37.85600 12.45100 35.52100
H  34.12300 7.42300 29.81000
H  35.13800 7.29100 31.12900
H  34.89400 5.90500 30.05900
H  33.64900 6.82100 27.32000
H  34.62000 5.42400 28.07000
H  33.98600 5.41000 26.37800
H  39.77100 9.47600 24.16100
H  42.67500 8.54800 25.03200
H  39.45100 7.77100 23.15100
H  40.02400 6.59600 24.40300
H  41.16200 7.29500 23.28100
H  42.18300 9.96900 23.07600
H  43.55400 10.42300 23.99400
H  42.73000 12.31200 24.82500
H  41.05400 11.84300 24.92700
H  41.68600 12.24300 23.31500
H  45.29500 11.75700 27.54500
H  45.82900 11.83100 29.25000
H  44.98500 13.20200 28.49400
H  41.99200 12.73800 33.06000
H  42.35100 11.68200 37.07900
H  44.02900 11.51500 36.74100
H  42.87800 10.18000 36.33500
Mg 37.01400 49.76400 24.96800
C  36.95000 48.02800 27.88000
C  35.69300 52.55100 26.43400
C  36.50300 51.18200 21.92700
C  38.05800 46.83100 23.28700
N  36.25400 50.16500 26.86500
C  36.52500 49.33200 28.04500
C  36.29700 50.07800 29.36500
C  35.64900 51.50600 28.80600
C  35.79900 51.45000 27.23200
C  34.23800 51.86400 29.37900
C  37.61600 50.19700 30.12200
C  37.52100 49.70200 31.62700
H  36.33600 49.99600 32.55000
N  36.49100 51.69500 24.27300
C  35.96000 52.66700 25.07600
C  35.61400 53.83400 24.29300
C  35.97600 53.53000 22.90300
C  36.31400 52.09200 22.99100
C  34.85300 55.06200 24.82300
C  36.10200 54.37900 21.66600
O  36.41000 53.86800 20.56200
C  35.73600 55.76400 21.67500
N  37.12800 49.02200 22.86200
C  36.94900 49.83400 21.80700
C  37.42500 49.23600 20.47700
C  38.26500 48.06100 20.99100
C  37.86100 47.96000 22.51100
C  36.26800 48.88100 19.48100
C  39.74900 48.38200 20.88800
C  40.76800 47.31700 20.88400
N  37.24600 47.73400 25.38500
C  37.69900 46.68800 24.56500
C  37.88500 45.55400 25.46700
C  37.59000 46.02700 26.79700
C  37.29100 47.38000 26.65700
C  38.50900 44.24300 25.05200
C  37.54900 45.58400 28.18700
O  37.88900 44.54500 28.71000
C  37.14000 46.90300 28.95900
C  35.95400 46.46300 29.65100
O  34.74000 46.37700 29.29000
O  36.30300 46.31700 30.95000
C  35.19400 45.97300 31.87000
H  35.21700 53.37000 26.97800
H  36.43400 51.70200 20.96900
H  38.57300 45.96600 22.86300
H  35.62800 49.44700 29.95100
H  36.31700 52.28200 29.18000
H  34.23400 52.76700 29.99000
H  33.86900 51.08100 30.04100
H  33.49700 52.08900 28.61200
H  38.03700 51.20200 30.15200
H  38.36900 49.62000 29.58500
H  38.45600 50.02600 32.08400
H  37.58100 48.61400 31.59800
H  35.57500 55.85900 25.00200
H  34.39500 54.89500 25.79800
H  34.12000 55.42600 24.10400
H  35.96200 56.35700 20.78900
H  36.30500 56.23800 22.47600
H  34.68200 55.88200 21.92700
H  38.08500 50.00800 20.08100
H  38.02300 47.10700 20.52200
H  35.95400 47.85100 19.65200
H  36.62300 48.98800 18.45600
H  35.43100 49.57100 19.58900
H  39.89500 48.99200 21.77900
H  39.90900 49.12500 20.10700
H  41.65100 47.63100 21.44100
H  41.03600 47.25400 19.82900
H  40.42300 46.31800 21.15000
H  38.98000 43.70600 25.87500
H  39.30000 44.24800 24.30100
H  37.66900 43.64800 24.69500
H  37.88200 47.21100 29.69600
H  34.92600 44.91700 31.91000
H  34.38900 46.67100 31.64200
H  35.41800 46.20300 32.91100

