158

Mg 34.71300 1.49100 28.92900
C  32.40300 2.83700 31.33600
C  37.17600 1.85900 31.23100
C  36.70600 0.62100 26.47200
C  31.95700 1.78000 26.54800
N  34.68400 2.19600 31.08500
C  33.67900 2.63800 31.86200
C  34.18600 2.79400 33.27700
C  35.71200 2.75400 33.16900
C  35.90800 2.30300 31.73800
C  36.45900 4.09800 33.43600
C  33.54000 1.82400 34.30600
C  32.99800 2.55200 35.53400
H  33.98000 3.09900 36.64300
N  36.69000 1.19200 28.88500
C  37.52500 1.39700 29.94000
C  38.89000 1.01000 29.51200
C  38.77000 0.70300 28.11600
C  37.35200 0.87300 27.74000
C  40.05600 0.89500 30.43800
C  39.88800 0.19800 27.19200
O  39.72200 0.07400 25.97200
C  41.29800 -0.16800 27.74600
N  34.31000 1.12500 26.89500
C  35.36100 0.84000 26.06200
C  34.96200 0.92800 24.51200
C  33.36300 1.05400 24.64700
C  33.20100 1.32300 26.13900
C  35.67400 2.10000 23.78200
C  32.57900 -0.21600 24.25300
C  32.09100 -0.16600 22.82600
N  32.58600 2.04500 28.91100
C  31.64000 2.09700 27.86500
C  30.36800 2.65000 28.41300
C  30.61700 2.85200 29.74500
C  31.93500 2.52000 30.01900
C  29.06300 2.78700 27.66500
C  30.01300 3.32400 31.01300
O  28.89500 3.58500 31.24300
C  31.15400 3.31100 32.09400
C  31.31300 4.75100 32.59700
O  31.82300 5.65600 31.97900
O  30.69100 4.82000 33.76400
C  30.60700 5.97400 34.66900
H  37.96700 2.08200 31.95100
H  37.34900 0.51400 25.59600
H  31.13100 1.97500 25.86100
H  33.79500 3.80100 33.42300
H  36.24000 2.01500 33.77100
H  35.69900 4.68700 33.95000
H  36.66900 4.61400 32.49900
H  37.36000 3.92200 34.02300
H  34.31300 1.13100 34.63700
H  32.72200 1.28200 33.83200
H  32.30500 1.80700 35.92600
H  32.38100 3.36400 35.15000
H  40.72900 1.72900 30.23500
H  40.78200 0.08200 30.46800
H  39.64300 1.16300 31.41100
H  41.88600 0.69400 28.06000
H  41.85600 -0.73100 26.99700
H  41.11700 -0.76600 28.63900
H  35.19000 0.04800 23.91100
H  33.00800 1.90200 24.06200
H  35.03800 2.92600 23.46400
H  36.15400 1.69600 22.89100
H  36.43700 2.62700 24.35600
H  31.64700 -0.32000 24.80800
H  33.15200 -1.11300 24.48700
H  32.25200 -1.11300 22.31100
H  32.69900 0.56900 22.29800
H  31.06200 0.18000 22.73100
H  28.61700 1.79300 27.62400
H  29.02500 3.38700 26.75600
H  28.60100 3.39200 28.44500
H  30.97400 2.62500 32.92200
H  30.26300 6.84400 34.11000
H  31.55400 6.08300 35.19800
H  29.97200 5.78100 35.53300
Mg 46.13100 25.27100 28.16400
C  47.09600 27.35000 30.78500
C  45.40100 22.74500 30.50700
C  46.03300 22.88100 25.64900
C  47.54900 27.53100 25.89700
N  46.33500 25.12700 30.37400
C  46.56500 26.15900 31.23000
C  46.24500 25.78000 32.73800
C  45.74100 24.30300 32.64600
C  45.78500 24.06100 31.07000
C  46.53500 23.36800 33.55800
C  45.14500 26.71700 33.43000
C  45.53200 27.51300 34.70800
H  44.51200 27.53100 35.82100
N  45.62400 23.11400 28.02900
C  45.35300 22.32300 29.16900
C  44.90800 21.02800 28.66000
C  45.19400 20.99300 27.27300
C  45.65200 22.34500 26.93600
C  44.24100 19.96900 29.64500
C  45.13500 19.80200 26.30400
O  45.17200 20.01700 25.05900
C  45.06500 18.42500 26.76400
N  46.58400 25.27900 26.11300
C  46.46100 24.16800 25.28600
C  46.76800 24.61100 23.80100
C  47.14200 26.11300 23.91000
C  47.01400 26.31700 25.38700
C  47.77900 23.71100 23.09900
C  46.33700 27.09600 23.05300
C  47.24700 27.85600 22.06200
N  47.17400 27.10200 28.26600
C  47.58600 27.96200 27.23800
C  48.25600 29.14900 27.89500
C  47.95800 29.01000 29.27800
C  47.36400 27.69800 29.40700
C  48.84400 30.19600 27.18900
C  48.12800 29.66000 30.53500
O  48.51300 30.79300 30.82700
C  47.51800 28.61100 31.51400
C  48.59800 28.18400 32.38100
O  49.60000 27.57600 31.98600
O  48.34200 28.69900 33.64600
C  49.35700 28.30100 34.64400
H  45.08800 22.16900 31.38000
H  45.97700 22.12400 24.86400
H  48.02300 28.23000 25.20500
H  47.17900 25.74900 33.29800
H  44.66100 24.30900 32.79700
H  46.98200 23.98500 34.33700
H  47.38600 22.87100 33.09100
H  45.91500 22.64500 34.08900
H  44.28100 26.06600 33.56200
H  44.84000 27.41000 32.64500
H  45.56200 28.55000 34.37200
H  46.45600 27.22900 35.21200
H  43.49700 19.41300 29.07600
H  43.68600 20.47500 30.43500
H  44.90800 19.19400 30.02400
H  45.47200 17.72900 26.03100
H  43.99100 18.24400 26.80500
H  45.61100 18.29600 27.69800
H  45.81400 24.53600 23.28000
H  48.20400 26.13000 23.66600
H  48.06800 22.81500 23.64900
H  48.68300 24.22200 22.76900
H  47.31600 23.29000 22.20600
H  45.86700 27.90700 23.61000
H  45.46900 26.57900 22.64400
H  48.18800 27.32800 21.90600
H  47.48400 28.82500 22.50300
H  46.79700 28.05800 21.09100
H  49.23600 31.03200 27.76800
H  48.06500 30.58600 26.53400
H  49.62600 29.70300 26.61200
H  46.66200 29.10300 31.97700
H  50.22700 27.72800 34.32300
H  48.93100 27.57800 35.34000
H  49.76600 29.15300 35.18700

