158

Mg 40.14100 10.00300 29.55500
C  42.16300 11.20800 32.01100
C  38.08800 8.63000 31.81700
C  38.29800 8.60600 26.94700
C  42.51800 11.01300 27.12000
N  40.15100 9.89600 31.69800
C  41.02500 10.60100 32.54000
C  40.54400 10.45400 33.98600
C  39.29900 9.49500 33.92200
C  39.22300 9.28700 32.38400
C  39.48900 8.22500 34.74500
C  40.23900 11.85900 34.46400
C  39.65100 12.10700 35.93400
H  40.31600 13.10300 36.93900
N  38.50300 8.75800 29.45000
C  37.71600 8.33400 30.49700
C  36.56800 7.59700 30.02600
C  36.56600 7.69800 28.65000
C  37.86700 8.38500 28.30900
C  35.65800 6.84600 30.99000
C  35.53900 7.19100 27.69100
O  35.62800 7.34800 26.50300
C  34.39700 6.51100 28.31000
N  40.36200 9.75800 27.38600
C  39.48700 9.16500 26.53600
C  39.88800 9.18100 25.10100
C  41.25600 9.99800 25.10800
C  41.39900 10.26700 26.66800
C  39.93700 7.76800 24.45000
C  41.13900 11.25900 24.14200
C  40.67500 12.60400 24.81000
N  41.95300 10.94700 29.51900
C  42.78800 11.35100 28.46100
C  43.89300 12.04600 29.00500
C  43.66800 12.03100 30.40800
C  42.48600 11.31800 30.61100
C  45.10100 12.42700 28.31900
C  44.22200 12.52200 31.63900
O  45.17300 13.29200 31.86300
C  43.07900 12.12200 32.75400
C  43.73500 11.48000 33.86800
O  44.26500 10.37900 33.83100
O  43.68400 12.28100 35.04600
C  44.16000 11.72600 36.33700
H  37.52200 8.32000 32.69800
H  37.72600 8.14300 26.14000
H  43.19500 11.28200 26.30700
H  41.30300 10.09200 34.68000
H  38.41500 10.08800 34.15500
H  38.67600 8.05200 35.45000
H  40.43800 8.23900 35.28000
H  39.59800 7.35600 34.09600
H  39.69400 12.27300 33.61600
H  41.15300 12.45200 34.51500
H  39.58100 11.14300 36.43900
H  38.56900 12.20500 35.84500
H  36.24600 6.79200 31.90700
H  35.41500 5.82900 30.68200
H  34.82500 7.51800 31.19700
H  34.76300 5.55000 28.67300
H  33.70400 6.28900 27.49800
H  33.95100 7.09600 29.11400
H  39.06100 9.68400 24.60100
H  42.07700 9.39500 24.72000
H  39.09900 7.55000 23.78900
H  40.08300 6.93600 25.13900
H  40.69400 7.65100 23.67500
H  40.43200 10.96900 23.36500
H  42.12700 11.49800 23.74800
H  40.28500 12.39800 25.80700
H  39.87500 13.04600 24.21600
H  41.40700 13.41200 24.82000
H  45.55700 11.62200 27.74200
H  45.79700 12.87100 29.03000
H  44.87700 13.23200 27.61900
H  42.71500 13.06600 33.16100
H  45.04400 12.28000 36.64900
H  44.49600 10.69300 36.24900
H  43.36700 11.84200 37.07500
Mg 36.32900 49.47500 24.95700
C  36.18800 47.57600 27.98900
C  34.98300 52.10800 26.64000
C  36.12700 51.25100 22.12800
C  37.38200 46.63900 23.31300
N  35.79800 49.73900 27.04800
C  35.94500 48.89900 28.10200
C  35.59300 49.60800 29.38500
C  34.95800 50.93900 28.91400
C  35.34300 50.96600 27.46000
C  33.36200 51.04300 29.27700
C  36.80200 49.77300 30.39400
C  36.62400 49.64900 31.89300
H  35.18600 49.72100 32.40000
N  35.47800 51.40600 24.42500
C  35.06500 52.38200 25.28900
C  34.79400 53.61600 24.58200
C  35.18600 53.37200 23.23300
C  35.58100 51.95800 23.20700
C  34.04200 54.78500 25.15500
C  35.11900 54.41100 22.00800
O  35.41500 54.04700 20.88300
C  34.63100 55.85700 22.15900
N  36.69000 48.97200 22.98400
C  36.54800 49.90600 21.99900
C  36.79800 49.22300 20.61800
C  37.41200 47.79600 21.01400
C  37.17500 47.76100 22.54400
C  35.54900 49.22500 19.72300
C  38.95700 47.61300 20.69900
C  39.97300 48.61000 21.45500
N  36.80100 47.51000 25.48400
C  37.18100 46.46600 24.67200
C  37.27700 45.27700 25.50800
C  36.82500 45.66600 26.76000
C  36.49300 46.97400 26.72000
C  37.73100 43.85300 24.98200
C  36.63900 45.22900 28.13700
O  36.83400 44.12500 28.59700
C  36.29100 46.48900 29.00600
C  35.01400 46.14900 29.67600
O  33.86700 46.26100 29.20000
O  35.33400 45.49400 30.85000
C  34.21600 45.04700 31.71400
H  34.60400 52.96300 27.20500
H  36.13000 51.82000 21.19600
H  37.60900 45.69600 22.81100
H  34.93300 49.03200 30.03300
H  35.47000 51.78200 29.37800
H  32.76100 51.10500 28.36900
H  33.20300 51.96100 29.84300
H  33.05900 50.16900 29.85300
H  37.35800 50.70400 30.28600
H  37.55200 49.03600 30.10700
H  37.22900 50.50200 32.20400
H  37.16400 48.82900 32.36700
H  32.96400 54.76400 24.99800
H  34.37500 55.77600 24.84700
H  34.16300 54.84300 26.23700
H  34.57700 56.43600 21.23700
H  35.29400 56.40000 22.83200
H  33.71400 55.78700 22.74500
H  37.56200 49.77200 20.06700
H  36.94300 46.97900 20.46500
H  35.62400 49.79200 18.79500
H  34.68800 49.68100 20.21100
H  35.27100 48.23200 19.37000
H  39.11900 47.84600 19.64700
H  39.10700 46.55300 20.90200
H  40.06200 48.42600 22.52600
H  39.62700 49.63800 21.34500
H  40.96000 48.56500 20.99400
H  38.53500 43.97200 24.25600
H  36.84700 43.39500 24.53800
H  38.11600 43.36600 25.87700
H  37.05500 46.72000 29.74800
H  33.39100 45.75600 31.78800
H  34.67100 44.93000 32.69700
H  33.93300 44.09700 31.26200

