158

Mg 48.87900 45.44400 44.34800
C  45.68200 45.98900 42.90300
C  48.99400 42.34000 43.04500
C  52.12000 45.47500 45.26400
C  48.78700 48.98800 45.32000
N  47.51600 44.43600 42.86900
C  46.20000 44.66600 42.69800
C  45.48500 43.48400 42.07000
C  46.46900 42.25100 42.45300
C  47.71800 43.06400 42.81800
C  46.12100 41.37300 43.70700
C  45.14100 43.63700 40.56000
C  43.69400 43.34000 40.23300
H  43.50600 42.14800 39.21700
N  50.29600 44.06800 44.19700
C  50.19400 42.85300 43.69500
C  51.46100 42.13500 43.80700
C  52.42800 43.00600 44.37100
C  51.66100 44.27700 44.61500
C  51.50700 40.65800 43.33600
C  53.84000 42.66300 44.71300
O  54.23800 41.47500 44.51600
C  54.83000 43.63100 45.27400
N  50.25600 47.05600 45.16500
C  51.53300 46.69300 45.57600
C  52.27100 47.90600 46.22400
C  51.09800 48.96200 46.37300
C  50.00200 48.30700 45.52600
C  53.00600 47.45400 47.51300
C  51.45900 50.41700 45.95700
C  51.11400 51.42600 47.06500
N  47.47600 47.16500 44.21900
C  47.53100 48.44300 44.71900
C  46.35700 49.12100 44.33000
C  45.60300 48.11400 43.61600
C  46.34000 47.02200 43.56300
C  45.91100 50.50400 44.70500
C  44.30700 47.86900 43.02000
O  43.40200 48.67500 42.94300
C  44.31900 46.50500 42.48200
C  43.16600 45.78300 43.03400
O  43.00000 45.40800 44.15400
O  42.32300 45.39300 42.00400
C  41.01900 44.78700 42.40800
H  48.87100 41.29900 42.74000
H  53.20100 45.50900 45.41600
H  48.85800 50.03700 45.61600
H  44.56900 43.36700 42.64800
H  46.50700 41.56100 41.61000
H  46.87700 41.36900 44.49300
H  46.11800 40.34000 43.35900
H  45.11800 41.49400 44.11500
H  45.85400 43.05500 39.97500
H  45.26800 44.69500 40.33000
H  43.06200 44.16400 39.90100
H  43.19200 42.99100 41.13500
H  51.20900 40.76100 42.29300
H  50.68000 40.10100 43.77700
H  52.48100 40.17100 43.35800
H  54.37900 44.09200 46.15300
H  54.96300 44.48700 44.61200
H  55.82400 43.21200 45.42900
H  53.02000 48.26000 45.51500
H  50.74400 48.96100 47.40400
H  54.08800 47.33300 47.46000
H  52.62800 46.47100 47.79400
H  52.71600 48.04600 48.38100
H  50.90700 50.74300 45.07600
H  52.54400 50.46500 45.86100
H  50.67800 52.29900 46.57900
H  52.04300 51.57000 47.61700
H  50.35400 50.99400 47.71500
H  44.93500 50.73500 44.27700
H  46.58400 51.27700 44.33500
H  45.89600 50.65600 45.78400
H  44.31500 46.42600 41.39500
H  40.59800 45.11600 43.35800
H  41.09200 43.71400 42.58500
H  40.22300 44.87600 41.66800
Mg 48.51900 35.05100 28.04400
C  47.04900 33.20400 30.55400
C  48.34900 37.79200 30.04400
C  49.89800 36.65500 25.52000
C  47.89100 32.26500 25.83300
N  47.68100 35.41700 30.12500
C  47.31400 34.48900 30.93900
C  47.10400 35.10200 32.38200
C  47.14400 36.66600 31.98000
C  47.78000 36.61400 30.60300
C  45.80600 37.50500 32.06200
C  48.23900 34.60800 33.37900
C  48.70500 35.53700 34.55700
H  47.73900 36.56400 35.14300
N  49.08700 36.99300 27.85400
C  48.92000 37.98800 28.76800
C  49.64800 39.13300 28.23800
C  50.07100 38.85600 26.88500
C  49.66000 37.45500 26.67500
C  50.00200 40.38300 29.05800
C  50.83400 39.75300 25.85900
O  51.39900 39.30200 24.87600
C  51.00500 41.19300 26.10700
N  48.80400 34.61100 25.98000
C  49.51500 35.40300 25.16100
C  49.91100 34.79000 23.87400
C  49.25700 33.32000 23.98200
C  48.54500 33.40400 25.32400
C  49.39400 35.58300 22.61200
C  50.34900 32.27400 24.06100
C  50.00300 30.87200 23.54400
N  47.68800 32.97900 28.11100
C  47.46300 32.04000 27.14900
C  46.82500 30.87000 27.77800
C  46.59700 31.31500 29.10900
C  47.12300 32.61300 29.25000
C  46.24200 29.68700 27.06000
C  46.05500 30.92900 30.42600
O  45.45400 29.91800 30.74700
C  46.48200 32.06100 31.37600
C  47.43000 31.62700 32.48000
O  48.65500 31.58900 32.37900
O  46.79600 31.27000 33.59700
C  47.55600 31.13900 34.85500
H  48.42500 38.63200 30.73700
H  50.45300 37.16200 24.72800
H  47.74300 31.43500 25.13900
H  46.14700 34.73100 32.74800
H  47.78700 37.26600 32.62400
H  45.78800 38.01100 33.02800
H  44.95100 36.83000 32.08500
H  45.91400 38.26700 31.29100
H  49.11000 34.26200 32.82200
H  47.84700 33.76900 33.95200
H  49.56700 36.06900 34.15400
H  48.96700 34.85000 35.36200
H  49.79000 41.28200 28.47900
H  50.99500 40.31300 29.50200
H  49.36000 40.42700 29.93800
H  51.54100 41.26500 27.05400
H  50.02800 41.67500 26.14900
H  51.59800 41.59200 25.28400
H  50.99400 34.72300 23.77700
H  48.64400 33.06500 23.11700
H  48.70900 36.37500 22.91400
H  48.90700 34.95400 21.86700
H  50.19200 36.03700 22.02500
H  50.70300 32.07300 25.07300
H  51.15700 32.69100 23.46100
H  50.84300 30.40700 23.02700
H  49.07000 30.87300 22.98100
H  49.76400 30.11800 24.29400
H  47.09700 29.08500 26.75000
H  45.77400 30.10100 26.16800
H  45.47100 29.13300 27.59600
H  45.59700 32.42700 31.89600
H  48.45700 31.74800 34.93900
H  47.94700 30.12200 34.89700
H  46.81100 31.35700 35.62000

