158

Mg 46.91900 35.52600 29.03800
C  45.11400 33.41700 31.17700
C  47.11000 37.81900 31.59700
C  48.08900 37.76000 26.92200
C  46.46400 33.25300 26.42700
N  46.06900 35.57800 31.06500
C  45.58400 34.52800 31.80800
C  45.79200 34.76700 33.29700
C  45.87500 36.27900 33.34000
C  46.45400 36.61800 31.88200
C  44.47900 37.00900 33.53000
C  47.02400 34.02600 33.83400
C  47.21400 33.83400 35.33700
H  46.28900 34.68400 36.26500
N  47.50300 37.53000 29.27500
C  47.56700 38.27300 30.34900
C  48.37800 39.41800 30.04600
C  48.67500 39.46400 28.70600
C  48.05400 38.29400 28.22400
C  48.84000 40.30900 31.23400
C  49.52200 40.46000 27.88700
O  49.73300 40.31500 26.68300
C  50.14700 41.71400 28.60500
N  47.14900 35.50100 26.87900
C  47.57800 36.63900 26.30600
C  47.46500 36.49700 24.78900
C  47.21700 34.92000 24.59600
C  46.98800 34.49200 26.02700
C  46.42900 37.50400 24.10600
C  48.33200 34.07200 23.94100
C  48.42600 34.36700 22.46200
N  46.08200 33.64400 28.75800
C  45.93000 32.86900 27.66100
C  45.28300 31.63800 28.06200
C  44.91600 31.81500 29.40700
C  45.45400 33.03300 29.85900
C  44.84800 30.53200 27.19400
C  44.16700 31.24500 30.51000
O  43.54300 30.19500 30.62100
C  44.07700 32.45300 31.59400
C  44.15900 31.85700 33.01600
O  44.94300 31.10700 33.43400
O  43.13800 32.38700 33.79400
C  43.07100 32.08700 35.23500
H  47.36700 38.39400 32.48900
H  48.57100 38.40400 26.18400
H  46.50800 32.48700 25.65000
H  44.95700 34.36600 33.87200
H  46.53200 36.64700 34.12900
H  44.60800 37.80000 34.27000
H  43.79500 36.23700 33.88100
H  44.08900 37.48300 32.62900
H  47.92400 34.51200 33.45700
H  46.94700 33.07900 33.29900
H  48.24600 33.93800 35.67200
H  46.84400 32.81200 35.41400
H  48.20300 40.18200 32.11000
H  48.91600 41.34000 30.89000
H  49.77700 39.82800 31.51600
H  50.72200 41.35000 29.45600
H  49.43600 42.43000 29.01800
H  50.69600 42.35600 27.91600
H  48.47100 36.56900 24.37500
H  46.31400 34.82200 23.99300
H  46.85600 38.36200 23.58800
H  45.72100 37.88900 24.84000
H  45.92600 36.86100 23.38400
H  48.30600 32.99700 24.11900
H  49.23700 34.36500 24.47300
H  49.32400 34.94800 22.25200
H  47.51900 34.80400 22.04500
H  48.40700 33.40600 21.94800
H  44.52800 29.63100 27.71800
H  45.76400 30.14200 26.75100
H  44.02700 30.77600 26.51900
H  43.09400 32.90800 31.47700
H  42.17800 31.46300 35.28400
H  42.82700 33.07000 35.63700
H  43.93300 31.50600 35.56100
Mg -10.33900 17.74200 42.96700
C  -6.68200 17.89900 43.17100
C  -10.30200 21.02700 42.54000
C  -13.52600 17.48600 42.56000
C  -9.93700 14.21900 42.65800
N  -8.58800 19.26800 42.69200
C  -7.28700 19.18500 43.06200
C  -6.66300 20.55400 43.18200
C  -7.90700 21.52900 43.07900
C  -9.06200 20.56300 42.70100
C  -8.24000 22.54000 44.24800
C  -5.51600 20.80600 42.08000
C  -5.97300 20.73800 40.57900
H  -5.23900 19.85000 39.63000
N  -11.75500 19.07300 42.50000
C  -11.56700 20.40400 42.38100
C  -12.89000 21.04100 42.07800
C  -13.79200 19.99600 42.01500
C  -13.02500 18.76500 42.37500
C  -13.01200 22.57100 41.81800
C  -15.26700 20.15800 41.69100
O  -15.75000 21.26100 41.51200
C  -16.13600 18.97100 41.50500
N  -11.48400 16.05600 42.51300
C  -12.83900 16.21600 42.57000
C  -13.49600 14.88800 42.97400
C  -12.44500 13.87800 42.46300
C  -11.20000 14.75200 42.51000
C  -13.87200 14.77600 44.48300
C  -12.62500 13.23900 40.99900
C  -12.65400 11.65400 40.90000
N  -8.68000 16.30100 43.02700
C  -8.65600 14.93800 42.80700
C  -7.33100 14.32100 42.83600
C  -6.50500 15.50800 43.10000
C  -7.38200 16.63700 43.15900
C  -7.01900 12.92500 42.73500
C  -5.13200 15.98500 43.14000
O  -4.11400 15.32300 43.08800
C  -5.16800 17.51300 43.27700
C  -4.45400 17.91500 44.59800
O  -3.74600 18.92500 44.71300
O  -4.73900 17.01700 45.58100
C  -4.35900 17.27600 46.98200
H  -10.38000 22.11400 42.60800
H  -14.58700 17.25900 42.42900
H  -9.91800 13.12800 42.70500
H  -6.35800 20.67600 44.22100
H  -7.73500 22.10700 42.17100
H  -9.04500 22.11100 44.84400
H  -8.53700 23.49900 43.82300
H  -7.38000 22.63900 44.91100
H  -4.86400 19.95800 42.29100
H  -4.98500 21.74600 42.22300
H  -5.82400 21.70900 40.10500
H  -7.01600 20.42200 40.58100
H  -12.70000 22.86100 40.81500
H  -12.23700 23.02000 42.44000
H  -13.93300 23.10700 42.04300
H  -16.30300 18.46200 42.45500
H  -15.54700 18.27000 40.91400
H  -17.13900 19.18500 41.13500
H  -14.39300 14.79900 42.36200
H  -12.34800 13.06800 43.18600
H  -13.53100 15.73100 44.88200
H  -13.48800 14.00700 45.15300
H  -14.95800 14.74500 44.56600
H  -11.71100 13.45500 40.44600
H  -13.41900 13.68500 40.40100
H  -13.56100 11.32200 40.39300
H  -12.52000 11.25800 41.90700
H  -11.86500 11.25500 40.26200
H  -6.22800 12.79300 41.99700
H  -7.96300 12.54100 42.34800
H  -6.84700 12.38600 43.66700
H  -4.51400 17.82800 42.46300
H  -5.26200 17.84100 47.21200
H  -3.46700 17.90200 46.98400
H  -4.11200 16.30800 47.41800

