158

Mg 41.39300 7.60300 29.16400
C  43.08600 9.08800 31.79700
C  39.22300 6.10900 31.39500
C  39.98700 5.94200 26.52300
C  44.06100 8.52700 27.06100
N  41.23700 7.59200 31.30100
C  41.86400 8.46900 32.19100
C  41.21600 8.53200 33.55200
C  40.18200 7.30300 33.40300
C  40.25200 6.90100 31.95800
C  40.60600 6.03400 34.30600
C  40.60100 9.93800 33.86300
C  40.18900 10.16300 35.32200
H  40.92400 11.04800 36.23500
N  39.67200 6.36600 28.98900
C  38.96000 5.90300 30.00900
C  37.84900 5.13000 29.48000
C  37.94900 5.14800 28.01100
C  39.24800 5.76100 27.74600
C  36.78900 4.53300 30.38400
C  37.00900 4.64900 26.91000
O  37.24200 4.70800 25.69400
C  35.68200 4.26300 27.29800
N  41.89400 7.29600 27.06300
C  41.16700 6.58200 26.19600
C  41.74700 6.71600 24.71600
C  42.93400 7.70500 24.92100
C  42.94100 7.91800 26.46000
C  42.08300 5.27100 24.24300
C  42.71500 9.03800 24.11900
C  41.68600 10.04300 24.60500
N  43.16700 8.57500 29.26500
C  44.19400 8.81000 28.34500
C  45.27700 9.61300 28.96200
C  44.90700 9.74700 30.30300
C  43.67900 9.04900 30.44700
C  46.51200 10.10800 28.33900
C  45.22700 10.34200 31.59300
O  46.14000 11.08000 31.86400
C  44.03400 9.87300 32.61200
C  44.64900 9.11800 33.71900
O  44.67000 7.89600 33.84500
O  45.04100 10.01900 34.71200
C  45.33800 9.39200 36.03400
H  38.69600 5.59800 32.20300
H  39.59700 5.51300 25.59700
H  44.75400 8.99500 26.35900
H  41.90600 8.24800 34.34700
H  39.16800 7.68900 33.50900
H  41.06900 6.26900 35.26500
H  41.27800 5.37700 33.75300
H  39.72800 5.46600 34.61300
H  39.70500 10.02800 33.24800
H  41.32200 10.74800 33.75000
H  40.22800 9.19000 35.81100
H  39.14300 10.46800 35.34600
H  37.03300 4.53900 31.44600
H  36.60000 3.47000 30.23500
H  35.91500 5.16300 30.22100
H  35.16300 5.12400 27.71900
H  35.58600 3.43000 27.99400
H  35.20900 3.96200 26.36300
H  40.90000 7.14400 24.18000
H  43.92900 7.27100 24.82200
H  41.60300 4.53300 24.88600
H  43.15600 5.14400 24.38700
H  41.96700 5.07100 23.17700
H  42.48000 8.78200 23.08600
H  43.69300 9.51200 24.03800
H  40.80300 9.94200 23.97400
H  42.09700 11.04400 24.47900
H  41.33400 10.00500 25.63700
H  46.17100 10.23000 27.31100
H  47.31900 9.37800 28.40600
H  46.64600 11.06900 28.83400
H  43.53700 10.74800 33.03200
H  46.15700 8.68800 35.89400
H  44.56300 8.80400 36.52700
H  45.70800 10.19300 36.67500
Mg 30.51700 59.66400 40.47800
C  27.73500 57.89000 39.39600
C  32.44500 56.82500 39.72100
C  33.24500 61.49600 40.92000
C  28.44400 62.30600 41.10000
N  30.16500 57.69400 39.51400
C  28.92100 57.20100 39.14300
C  29.01000 55.81600 38.42400
C  30.46800 55.40300 38.91600
C  31.11600 56.72700 39.35100
C  30.48600 54.22100 39.97900
C  28.87900 55.96800 36.90000
C  27.89000 55.06100 36.19200
H  26.87600 55.72800 35.27600
N  32.62500 59.24600 40.19200
C  33.19000 57.98200 40.10700
C  34.57200 58.09200 40.27600
C  34.86800 59.46600 40.60000
C  33.54700 60.15000 40.62200
C  35.57800 56.96100 39.95200
C  36.30700 59.95600 40.75700
O  37.32700 59.21500 40.71900
C  36.60500 61.41900 40.91900
N  30.83600 61.62800 40.64500
C  32.07700 62.12700 40.93800
C  32.05400 63.58500 41.31400
C  30.49700 63.83100 41.43300
C  29.90400 62.47600 41.04100
C  32.99200 64.10800 42.44400
C  30.05500 65.05300 40.53200
C  29.14200 66.11100 41.11000
N  28.49900 60.03900 40.48200
C  27.78300 61.17200 40.74400
C  26.32100 60.92600 40.63800
C  26.27000 59.66700 40.01100
C  27.61800 59.16800 40.00900
C  25.21500 61.96700 40.87400
C  25.36200 58.63100 39.47200
O  24.14200 58.65900 39.40300
C  26.27100 57.46500 39.08000
C  25.77100 56.35900 39.94700
O  26.16000 56.16700 41.10300
O  24.77700 55.67100 39.28400
C  24.25700 54.51500 39.95600
H  32.99400 55.90100 39.52400
H  34.07200 62.03400 41.39000
H  27.82100 63.15700 41.38200
H  28.20600 55.18600 38.80500
H  31.03200 55.00400 38.07200
H  30.79900 53.26300 39.56500
H  29.47100 54.05100 40.33700
H  31.03400 54.59700 40.84300
H  29.84700 55.61300 36.54600
H  28.79200 57.01000 36.59300
H  27.35400 54.47000 36.93400
H  28.46400 54.35400 35.59300
H  36.08900 56.74800 40.89100
H  36.38200 57.18600 39.25100
H  35.00200 56.06000 39.73900
H  37.62100 61.66300 40.60900
H  36.26200 61.81600 41.87500
H  36.02900 61.94200 40.15600
H  32.42100 64.10500 40.42900
H  30.05000 64.01200 42.41100
H  32.27900 64.68400 43.03400
H  33.75900 64.81000 42.11800
H  33.40000 63.32200 43.07900
H  29.64600 64.71100 39.58100
H  30.98600 65.53800 40.23900
H  28.52700 66.54400 40.32200
H  29.70900 66.97200 41.46400
H  28.49600 65.72800 41.90000
H  24.84100 62.44700 39.96900
H  25.61300 62.78100 41.48100
H  24.35800 61.57000 41.41700
H  26.10500 57.34500 38.01000
H  24.99200 54.17800 40.68800
H  24.10700 53.70700 39.24000
H  23.35900 54.82700 40.48800

