158

Mg 9.03100 2.68800 27.62900
C  9.97800 1.05300 30.61500
C  7.47800 5.02100 29.41200
C  7.70000 3.87500 24.65000
C  10.52000 0.04300 25.72500
N  8.80100 3.05300 29.73300
C  9.26600 2.24900 30.83300
C  8.94500 2.98100 32.18800
C  8.02000 4.22400 31.82200
C  8.08700 4.08700 30.22000
C  6.63900 4.11800 32.48100
C  10.22100 3.35800 32.91800
C  10.07000 4.02000 34.37700
H  11.01700 3.59800 35.49200
N  7.92500 4.33100 27.11200
C  7.30700 5.13400 27.99300
C  6.53400 6.15300 27.28500
C  6.51900 5.78600 25.90300
C  7.43800 4.63200 25.83800
C  5.87400 7.41700 27.95200
C  5.83200 6.50700 24.71700
O  6.04100 6.07400 23.56700
C  4.94400 7.69300 24.98200
N  9.09400 2.01300 25.54200
C  8.45400 2.67500 24.54200
C  8.64200 1.93300 23.16600
C  9.74300 0.85700 23.47900
C  9.78400 0.94200 25.05000
C  7.27000 1.36400 22.45600
C  11.08900 0.92500 22.69600
C  11.17200 0.14000 21.38800
N  9.94200 0.85700 27.99100
C  10.56700 -0.03900 27.15000
C  11.14800 -1.11200 27.93200
C  10.96700 -0.72200 29.29500
C  10.20500 0.47100 29.27000
C  12.00900 -2.27600 27.40100
C  11.25800 -1.07500 30.71400
O  11.91100 -2.03700 31.13800
C  10.68300 0.15600 31.59500
C  9.80500 -0.42600 32.58400
O  8.86900 -1.17400 32.38500
O  10.35900 -0.17700 33.85600
C  9.68300 -0.96300 34.89600
H  6.95600 5.76600 30.01700
H  7.30600 4.17700 23.67800
H  10.95800 -0.77000 25.14200
H  8.40300 2.19000 32.70600
H  8.47400 5.12900 32.22500
H  5.88300 3.90200 31.72500
H  6.40000 5.04000 33.01100
H  6.53600 3.20100 33.06100
H  10.69500 4.18000 32.38100
H  10.90300 2.50800 32.90800
H  9.01700 4.19200 34.60100
H  10.36500 5.06100 34.24500
H  6.08100 7.55300 29.01400
H  4.82000 7.18800 27.79300
H  6.19200 8.31400 27.42100
H  4.05000 7.31300 25.47600
H  4.55100 7.91700 23.99100
H  5.40300 8.58400 25.41000
H  9.01800 2.66300 22.45000
H  9.21300 -0.06900 23.25300
H  7.39400 0.30700 22.22300
H  7.07400 1.98200 21.58000
H  6.50400 1.51700 23.21700
H  11.94200 0.57200 23.27600
H  11.31500 1.97600 22.51500
H  10.89400 0.76100 20.53600
H  10.45500 -0.67600 21.47800
H  12.15400 -0.28000 21.17200
H  12.84600 -1.88200 26.82500
H  11.60900 -3.10300 26.81500
H  12.30300 -2.82000 28.29900
H  11.49300 0.67900 32.10400
H  9.72300 -0.50800 35.88600
H  10.10100 -1.96900 34.93800
H  8.61600 -1.02500 34.68600
Mg 35.37000 0.40700 29.63900
C  33.42200 1.35300 32.33400
C  38.02700 0.01100 31.88300
C  37.40300 0.21200 27.05700
C  32.72500 0.94800 27.46200
N  35.68200 0.72700 31.90200
C  34.70800 1.07400 32.80400
C  35.21000 0.95800 34.25200
C  36.83700 0.81400 34.10700
C  36.84700 0.49500 32.54700
C  37.71300 2.00800 34.56400
C  34.38600 -0.18600 35.05700
C  33.82300 0.26100 36.48500
H  34.54600 1.40400 37.19800
N  37.41900 -0.04400 29.50300
C  38.32700 -0.22000 30.49900
C  39.59200 -0.64400 29.89200
C  39.41100 -0.50800 28.49800
C  38.05200 -0.02400 28.31400
C  40.80900 -0.92300 30.72500
C  40.41700 -0.76400 27.35700
O  40.20700 -0.70000 26.18100
C  41.90700 -0.96600 27.72900
N  35.08000 0.41900 27.59500
C  36.06000 0.40800 26.69100
C  35.60000 0.40200 25.22000
C  34.02500 0.47400 25.35900
C  33.90500 0.55900 26.88700
C  36.17500 1.59200 24.37800
C  33.29400 -0.74000 24.66000
C  33.18600 -1.96600 25.54700
N  33.48800 0.96500 29.78500
C  32.46800 0.99100 28.88400
C  31.21200 1.36400 29.47700
C  31.55700 1.59800 30.82500
C  32.87000 1.27400 30.99400
C  29.91400 1.59000 28.72500
C  31.05600 1.93200 32.08300
O  29.89000 2.20600 32.40000
C  32.19400 1.71000 33.14400
C  32.39100 2.93300 33.94100
O  33.27000 3.74600 33.77300
O  31.39200 3.08400 34.93000
C  31.40900 4.33300 35.66500
H  38.86800 -0.02700 32.57900
H  37.90100 0.11600 26.08900
H  31.86100 1.11400 26.81600
H  34.93100 1.90700 34.71100
H  37.21500 -0.08800 34.58900
H  37.10300 2.69100 35.15400
H  37.92000 2.57300 33.65500
H  38.55400 1.83400 35.23600
H  35.08400 -0.98100 35.32100
H  33.61100 -0.72000 34.50700
H  33.98600 -0.48500 37.26300
H  32.77100 0.53500 36.41100
H  41.39300 -1.73300 30.28800
H  40.58400 -1.11600 31.77400
H  41.27300 0.06100 30.66600
H  41.99700 -0.30300 28.59000
H  42.64500 -0.65000 26.99200
H  42.22000 -1.99800 27.89200
H  35.81800 -0.60400 24.86100
H  33.59100 1.40800 25.00100
H  37.02400 1.97400 24.94500
H  35.46800 2.37100 24.09400
H  36.55100 1.19300 23.43600
H  33.90400 -0.92200 23.77400
H  32.35300 -0.35500 24.26800
H  33.48800 -2.76400 24.86900
H  32.13300 -2.22500 25.66600
H  33.84500 -2.11300 26.40300
H  29.59000 0.67500 28.23000
H  30.12000 2.31200 27.93400
H  29.15900 1.94200 29.42800
H  31.88800 0.92600 33.83700
H  30.70700 4.26700 36.49600
H  31.00600 5.14700 35.06200
H  32.39400 4.65700 36.00000

