158

Mg 47.10800 24.24200 27.78400
C  47.97700 26.44500 30.34800
C  46.15300 22.06500 30.11600
C  46.56300 22.16200 25.34700
C  48.10000 26.65000 25.46800
N  47.09000 24.28800 29.96600
C  47.42000 25.27800 30.84600
C  47.26900 24.85100 32.35400
C  46.55300 23.45200 32.20900
C  46.58800 23.30600 30.67200
C  47.41100 22.44000 32.99700
C  46.46500 25.87400 33.26300
C  45.89300 25.31000 34.57500
H  46.50600 26.07900 35.78500
N  46.46300 22.35600 27.74700
C  46.09000 21.59500 28.77800
C  45.61400 20.31800 28.36500
C  45.63400 20.35700 26.94800
C  46.30900 21.68300 26.63100
C  45.10500 19.27000 29.26800
C  45.33400 19.20800 25.96800
O  45.50400 19.17300 24.72300
C  44.84400 17.92900 26.61200
N  47.49500 24.32700 25.62300
C  46.99500 23.33100 24.89100
C  46.98800 23.78400 23.38000
C  47.36200 25.27200 23.39200
C  47.70200 25.46900 24.90400
C  47.89000 22.93900 22.44400
C  46.25400 26.24000 22.81500
C  46.73700 27.27400 21.80200
N  47.98100 26.04600 27.85600
C  48.29800 26.98400 26.83000
C  48.94500 28.14900 27.38600
C  48.89700 27.93500 28.77900
C  48.25000 26.70100 29.04200
C  49.56100 29.26600 26.68500
C  49.23900 28.60000 30.03000
O  49.73000 29.67600 30.34200
C  48.55800 27.68900 31.15800
C  49.54800 27.23100 32.12300
O  50.29800 26.27500 31.98600
O  49.49600 27.99800 33.30900
C  50.22000 27.53600 34.50100
H  45.71800 21.36200 30.83100
H  46.38900 21.33900 24.65100
H  48.30100 27.42900 24.72900
H  48.23800 24.69100 32.82700
H  45.55300 23.56900 32.62500
H  47.89000 22.82700 33.89700
H  48.15100 21.87500 32.43100
H  46.78400 21.67800 33.46000
H  45.70400 26.37900 32.66700
H  47.06200 26.74400 33.53700
H  46.04800 24.25000 34.77400
H  44.81200 25.44800 34.53900
H  44.06500 19.01200 29.06700
H  45.18300 19.59800 30.30400
H  45.69500 18.36000 29.15300
H  45.65400 17.53200 27.22300
H  44.54300 17.34300 25.74300
H  43.94600 18.06800 27.21400
H  45.99700 23.61800 22.95800
H  48.27500 25.51400 22.84800
H  48.59900 22.42600 23.09400
H  48.36600 23.62600 21.74400
H  47.32100 22.25600 21.81300
H  45.74600 26.79700 23.60200
H  45.43600 25.72000 22.31700
H  47.49200 26.72400 21.24000
H  47.21700 28.16100 22.21500
H  45.86900 27.62100 21.24100
H  49.90300 28.96800 25.69300
H  50.37300 29.59800 27.33200
H  48.84800 30.08500 26.58800
H  47.91300 28.36200 31.72100
H  51.25800 27.45100 34.18000
H  49.86500 26.57800 34.88100
H  50.10000 28.29400 35.27600
Mg -1.61500 34.99400 26.17600
C  -3.48000 33.38500 28.76600
C  -0.55900 37.15400 28.59600
C  -0.00100 36.68500 23.82500
C  -3.39200 33.14100 23.97200
N  -1.93600 35.13300 28.46800
C  -2.77900 34.44200 29.30000
C  -2.77600 34.91800 30.71700
C  -2.01700 36.29700 30.57200
C  -1.43300 36.19900 29.13400
C  -2.90300 37.53200 30.82100
C  -2.14900 33.95400 31.77800
C  -2.96300 33.85600 33.13500
H  -2.30500 33.12600 34.33200
N  -0.38700 36.59700 26.20800
C  -0.06400 37.35200 27.29700
C  0.85500 38.39200 26.87700
C  1.13200 38.20300 25.55500
C  0.26600 37.08300 25.13100
C  1.32200 39.44400 27.86900
C  1.90400 39.03800 24.56900
O  2.30100 38.55600 23.49300
C  2.38700 40.40700 24.97500
N  -1.81500 35.07200 24.12900
C  -0.95900 35.75500 23.32800
C  -1.14800 35.43600 21.86700
C  -2.15800 34.24300 21.95800
C  -2.52100 34.14100 23.43800
C  -1.61300 36.70300 21.02500
C  -1.65300 32.90000 21.31400
C  -0.46400 32.20200 22.01800
N  -3.01400 33.40700 26.22800
C  -3.66500 32.74000 25.24000
C  -4.52500 31.69600 25.77100
C  -4.49700 31.96300 27.17600
C  -3.55500 32.92400 27.40900
C  -5.36500 30.72000 25.08400
C  -5.05800 31.50600 28.39600
O  -5.81000 30.61000 28.70000
C  -4.30700 32.36600 29.51500
C  -5.38300 32.99400 30.24600
O  -5.97200 34.07200 30.01900
O  -5.75000 32.16000 31.30200
C  -6.73700 32.63800 32.25900
H  -0.27700 37.83400 29.40200
H  0.54400 37.04900 22.95100
H  -3.86600 32.46400 23.25700
H  -3.82100 35.10200 30.96500
H  -1.14100 36.41200 31.20900
H  -2.92200 38.16400 29.93300
H  -2.44400 38.20200 31.54800
H  -3.94100 37.33500 31.08900
H  -1.17000 34.31500 32.09600
H  -2.05300 32.97900 31.30100
H  -3.94000 33.43100 32.90200
H  -3.06000 34.88300 33.48600
H  1.27200 39.08600 28.89800
H  0.65400 40.30500 27.85900
H  2.38500 39.68200 27.89100
H  1.61600 40.93600 25.53500
H  2.66100 40.92200 24.05500
H  3.27100 40.14600 25.55800
H  -0.21800 35.02200 21.47900
H  -3.08700 34.58300 21.50000
H  -2.69900 36.76100 21.10900
H  -1.33600 36.61700 19.97500
H  -1.18800 37.61700 21.44000
H  -1.46900 33.17700 20.27600
H  -2.43600 32.14300 21.27200
H  -0.86700 31.30800 22.49400
H  0.04400 32.73700 22.82100
H  0.30200 31.85500 21.32500
H  -5.21500 29.70200 25.44400
H  -5.20500 30.91100 24.02300
H  -6.41100 30.91100 25.32300
H  -3.71600 31.62600 30.05500
H  -6.42700 33.26700 33.09400
H  -7.27800 31.79500 32.69000
H  -7.44300 33.36100 31.85000

