158

Mg 17.27000 -1.99600 28.28900
C  16.21900 0.19200 30.87500
C  19.16800 -3.73000 30.78500
C  18.69800 -3.72900 25.85100
C  15.36100 -0.16000 26.06400
N  17.73100 -1.63500 30.57900
C  16.99800 -0.80400 31.40100
C  17.17100 -1.15300 32.82700
C  18.34000 -2.31300 32.84100
C  18.42100 -2.67600 31.34600
C  19.67100 -1.85300 33.52300
C  15.93300 -1.68000 33.54500
C  15.74300 -1.04600 34.91400
H  16.88200 -0.44600 35.76300
N  18.66100 -3.51800 28.30300
C  19.25100 -4.17000 29.35900
C  20.08800 -5.25800 28.91100
C  20.15700 -5.16400 27.47600
C  19.14400 -4.12400 27.13000
C  20.85800 -6.12700 29.87100
C  21.10700 -5.92600 26.49800
O  21.04800 -5.72800 25.28100
C  22.07000 -7.00800 27.08300
N  17.08800 -1.90600 26.30600
C  17.74900 -2.75000 25.47700
C  17.09100 -2.74100 23.98400
C  15.98300 -1.68000 24.13700
C  16.10400 -1.27200 25.61900
C  18.16500 -2.52300 22.85500
C  14.51000 -2.13600 23.72900
C  14.38200 -2.19000 22.17800
N  16.07700 -0.26400 28.36000
C  15.30300 0.30800 27.39500
C  14.62100 1.40900 27.96400
C  14.94500 1.39200 29.29900
C  15.79200 0.33100 29.53100
C  13.64400 2.37700 27.34500
C  14.81000 2.17000 30.49100
O  14.22300 3.24500 30.77100
C  15.51900 1.36300 31.63300
C  16.42400 2.26600 32.39000
O  17.58600 2.59600 32.09400
O  15.66300 2.61200 33.58600
C  16.31700 3.52200 34.54400
H  19.62700 -4.36500 31.54500
H  19.10100 -4.28400 25.00100
H  14.75600 0.31100 25.28600
H  17.54600 -0.25200 33.31400
H  18.08800 -3.27900 33.27900
H  19.55200 -0.87500 33.98800
H  20.47000 -1.80800 32.78400
H  20.00400 -2.50700 34.32900
H  15.87000 -2.76200 33.65900
H  15.05400 -1.44300 32.94500
H  15.23100 -1.75700 35.56200
H  15.04200 -0.22500 34.76200
H  20.94200 -7.17100 29.56800
H  20.25800 -6.20000 30.77800
H  21.81100 -5.61700 30.01000
H  22.51500 -6.60000 27.99100
H  22.80500 -7.02300 26.27900
H  21.62000 -7.97400 27.31500
H  16.66500 -3.73900 23.87400
H  16.21500 -0.82800 23.49800
H  19.11800 -2.20700 23.28000
H  17.84400 -1.83600 22.07200
H  18.22700 -3.50800 22.39200
H  13.87600 -1.31800 24.07200
H  14.28900 -3.08500 24.21900
H  13.68600 -3.01200 22.01300
H  15.31600 -2.44800 21.67900
H  13.96300 -1.24800 21.82300
H  13.14000 1.95000 26.47700
H  14.18400 3.24100 26.95800
H  13.05700 2.75200 28.18300
H  14.60200 0.98800 32.08800
H  15.76800 3.44900 35.48300
H  16.45600 4.54800 34.20300
H  17.30700 3.10800 34.73600
Mg 46.81100 24.31100 28.58700
C  47.58800 26.77000 31.15400
C  46.27700 22.09300 31.20500
C  46.60100 21.90900 26.24500
C  48.19000 26.52200 26.27300
N  46.85500 24.45900 30.90600
C  47.06800 25.59500 31.69500
C  46.91600 25.26400 33.21600
C  46.60300 23.68400 33.17800
C  46.59100 23.33300 31.64000
C  47.60000 22.86300 34.06600
C  45.72300 26.10100 33.88000
C  45.99000 26.53700 35.28600
H  44.72500 27.01200 36.09100
N  46.39400 22.30100 28.67700
C  46.12000 21.57500 29.86100
C  45.75500 20.24300 29.41000
C  45.90200 20.11800 28.02700
C  46.33700 21.40900 27.52500
C  45.28600 19.25900 30.39200
C  45.88900 18.84000 27.17400
O  46.24700 18.93100 25.98500
C  45.41100 17.57700 27.75900
N  47.34400 24.17000 26.59000
C  47.01500 23.14200 25.78000
C  47.37800 23.35000 24.28300
C  48.02000 24.77400 24.38400
C  47.79400 25.23700 25.77300
C  48.47000 22.27500 23.63400
C  47.36700 25.86200 23.34000
C  47.89500 25.73300 21.85600
N  47.60000 26.26100 28.57100
C  48.22200 27.01300 27.58100
C  48.78400 28.21000 28.09200
C  48.49400 28.14800 29.46200
C  47.81900 26.98300 29.75600
C  49.61000 29.29400 27.36600
C  48.80000 28.87500 30.72700
O  49.44900 29.88800 30.88600
C  48.17800 27.99100 31.83700
C  49.14800 27.63200 32.83800
O  50.13700 26.95900 32.70400
O  48.77800 28.13200 34.04200
C  49.64500 27.93100 35.25300
H  46.09400 21.46700 32.08100
H  46.33000 21.21000 25.45100
H  48.75700 27.14700 25.58100
H  47.79600 25.55900 33.78700
H  45.64800 23.42700 33.63700
H  48.08500 23.58500 34.72200
H  48.32700 22.45200 33.36500
H  47.17500 22.01100 34.59700
H  44.84400 25.46300 33.79600
H  45.47500 26.98900 33.29800
H  46.64100 27.40500 35.19200
H  46.53800 25.72200 35.76000
H  45.05400 19.78500 31.31800
H  46.05000 18.51300 30.61300
H  44.36700 18.83400 29.98800
H  46.12100 17.14300 28.46300
H  45.30400 16.94400 26.87800
H  44.37600 17.73800 28.06100
H  46.47600 23.37600 23.67300
H  49.10200 24.85500 24.28000
H  49.17300 22.88800 23.07000
H  47.97300 21.56200 22.97600
H  48.99800 21.75000 24.43000
H  47.54700 26.87000 23.71300
H  46.27800 25.80600 23.31300
H  47.00600 25.59300 21.24200
H  48.60600 24.91400 21.74100
H  48.30900 26.70200 21.57900
H  50.19900 28.72600 26.64500
H  50.25100 29.59500 28.19400
H  49.10900 30.10000 26.83000
H  47.46100 28.51800 32.46600
H  49.17000 27.28900 35.99400
H  49.80000 28.89800 35.73200
H  50.58600 27.50300 34.90500

