158

Mg 47.45600 16.31600 27.93100
C  45.27000 15.69800 30.68900
C  49.54400 17.77800 30.34300
C  49.09700 17.80700 25.51300
C  45.12300 15.09300 25.87300
N  47.35400 16.76700 30.26000
C  46.46100 16.30700 31.13200
C  46.80900 16.56800 32.61500
C  48.02500 17.57300 32.41100
C  48.38100 17.33900 30.95500
C  47.73100 19.06000 32.73400
C  47.02800 15.23100 33.44000
C  46.69800 15.30600 34.91500
H  46.27600 16.62900 35.62600
N  49.19700 17.41700 27.92800
C  49.96800 17.81100 29.00000
C  51.22100 18.29900 28.48600
C  51.02800 18.47700 27.04600
C  49.69000 17.87600 26.78400
C  52.39200 18.69400 29.34000
C  51.97000 18.99700 25.91700
O  51.68200 19.10200 24.70600
C  53.34300 19.29600 26.31800
N  47.13500 16.51700 26.02700
C  47.90800 17.26700 25.14300
C  47.44900 17.17300 23.63100
C  46.41600 15.98600 23.80000
C  46.15800 15.87000 25.34000
C  46.73700 18.48600 23.14100
C  46.97000 14.62700 23.19600
C  45.94400 13.71600 22.61300
N  45.58300 15.53600 28.14500
C  44.76100 14.96400 27.21800
C  43.58900 14.39800 27.80600
C  43.74100 14.64900 29.19200
C  44.99200 15.35400 29.35000
C  42.43100 13.70800 27.14400
C  43.11500 14.50600 30.48000
O  42.09100 13.91200 30.78500
C  44.05500 15.19900 31.48000
C  43.32200 16.24100 32.29100
O  42.75200 17.19400 31.86500
O  43.31200 15.77700 33.59700
C  42.65200 16.72200 34.55100
H  50.31700 18.32900 30.88300
H  49.49700 18.29300 24.62100
H  44.47700 14.60800 25.13800
H  45.93600 17.07300 33.02900
H  48.90400 17.20800 32.94200
H  46.70900 19.29500 33.03000
H  48.05300 19.64800 31.87500
H  48.33200 19.48500 33.53800
H  48.09900 15.05700 33.33600
H  46.43400 14.42500 33.00800
H  47.63600 15.03400 35.39900
H  46.02600 14.52400 35.26800
H  53.21700 18.04700 29.04200
H  52.20700 18.49400 30.39600
H  52.70800 19.73700 29.33000
H  53.75200 18.37200 26.72900
H  53.46900 20.06000 27.08500
H  53.84900 19.67100 25.42800
H  48.27800 16.86600 22.99300
H  45.42700 16.19100 23.39100
H  47.09500 19.34000 23.71600
H  45.64900 18.42600 23.16800
H  47.00700 18.67800 22.10300
H  47.59100 14.14600 23.95200
H  47.59200 14.96200 22.36500
H  46.19500 13.36500 21.61200
H  45.02300 14.30000 22.60000
H  45.89400 12.84400 23.26500
H  42.22200 14.09200 26.14500
H  41.52300 13.86300 27.72700
H  42.66200 12.64200 27.13400
H  44.41300 14.48400 32.22100
H  42.94200 17.73700 34.28000
H  42.89700 16.47500 35.58400
H  41.58200 16.54800 34.43500
Mg 6.91100 54.49800 40.73100
C  6.49600 50.96000 41.20200
C  10.17700 54.00400 40.02500
C  6.92400 57.61700 39.83000
C  3.36400 54.65100 41.43300
N  8.08400 52.65300 40.42100
C  7.75300 51.34300 40.72100
C  8.87600 50.39200 40.53400
C  10.12400 51.40000 40.43700
C  9.44200 52.76700 40.26000
C  11.20700 51.33200 41.53500
C  8.76100 49.35200 39.33300
C  8.81300 49.83900 37.93900
H  7.41200 49.79100 37.24200
N  8.36600 55.67400 39.89700
C  9.69100 55.30300 39.77800
C  10.41500 56.44200 39.43000
C  9.54200 57.57200 39.32400
C  8.19000 56.98100 39.58000
C  11.91600 56.35200 39.21600
C  9.99400 59.00900 38.99000
O  11.17800 59.31600 38.88300
C  9.06000 60.10300 38.81700
N  5.37500 55.89700 40.47700
C  5.65500 57.14700 40.17200
C  4.49000 58.06700 40.55600
C  3.35200 57.02400 40.81900
C  4.09200 55.72000 40.95900
C  4.77600 58.94500 41.82800
C  2.27000 57.02800 39.65400
C  1.15200 58.00100 39.75000
N  5.18700 53.13100 41.16300
C  3.85900 53.33300 41.52900
C  3.24200 52.20900 42.06900
C  4.28800 51.20400 41.96300
C  5.38100 51.82500 41.39500
C  1.83800 51.98300 42.61300
C  4.58300 49.86700 42.42100
O  3.87500 48.97600 42.94100
C  5.96600 49.57200 41.67900
C  5.68600 48.58100 40.51200
O  5.11600 48.82900 39.46200
O  6.14700 47.36200 40.87400
C  5.90200 46.30600 39.89900
H  11.25700 53.84300 40.04600
H  6.86700 58.70100 39.71300
H  2.33400 54.69500 41.79400
H  8.94200 49.87300 41.49100
H  10.71400 51.24300 39.53500
H  11.19200 52.23400 42.14600
H  12.19900 51.06900 41.16800
H  10.90700 50.49000 42.15900
H  7.93200 48.64700 39.39000
H  9.71300 48.82600 39.40600
H  9.44800 49.27400 37.25700
H  9.11300 50.88700 37.93600
H  12.45000 56.63100 40.12400
H  12.09600 56.89500 38.28800
H  12.22900 55.33800 38.97000
H  8.68000 60.43500 39.78300
H  8.19700 59.75100 38.25100
H  9.47200 60.95600 38.27900
H  4.26300 58.71000 39.70500
H  2.87900 57.22300 41.78100
H  4.27100 58.60300 42.73100
H  4.51400 59.97800 41.60000
H  5.85000 58.89800 42.00700
H  1.84500 56.03500 39.50800
H  2.80100 57.16800 38.71200
H  1.21300 58.71300 38.92700
H  1.08800 58.34300 40.78300
H  0.15500 57.58000 39.61500
H  1.41800 51.06400 42.20500
H  1.25100 52.75000 42.10900
H  1.75500 51.95700 43.70000
H  6.65300 49.04900 42.34300
H  4.91300 46.34300 39.44100
H  6.12700 45.33900 40.34700
H  6.60900 46.46000 39.08400

