158

Mg -11.97100 37.83800 42.13500
C  -10.07400 35.17900 41.04100
C  -9.60800 40.01200 40.60600
C  -14.12100 40.59300 42.51500
C  -14.27700 35.74000 43.37200
N  -10.14900 37.59300 40.82100
C  -9.53700 36.33300 40.61000
C  -8.22000 36.55000 39.86200
C  -8.01700 38.10000 40.04100
C  -9.31300 38.63700 40.59300
C  -6.81500 38.62600 40.85000
C  -8.33800 35.92700 38.39000
C  -7.23200 34.90300 37.89800
H  -6.46400 35.32400 36.61200
N  -11.82200 40.05400 41.74900
C  -10.71400 40.67300 41.16900
C  -11.07400 42.08700 41.00500
C  -12.39900 42.29800 41.69400
C  -12.88400 40.93000 42.00300
C  -10.08400 43.16400 40.36400
C  -13.00300 43.65600 41.89600
O  -12.50800 44.67100 41.37300
C  -14.24700 43.77100 42.65000
N  -13.91600 38.16500 42.74100
C  -14.57500 39.30200 42.96400
C  -16.01200 39.01500 43.52400
C  -15.85800 37.60200 44.10300
C  -14.63500 37.07000 43.32100
C  -16.52900 40.00000 44.48000
C  -17.07600 36.70300 44.01500
C  -17.40100 36.02600 45.40600
N  -12.23500 35.82400 42.26300
C  -13.17100 35.07700 42.82200
C  -12.86000 33.64100 42.81200
C  -11.65700 33.66500 42.04500
C  -11.36600 34.94600 41.76000
C  -13.67200 32.53500 43.30700
C  -10.67200 32.82000 41.45200
O  -10.51800 31.60300 41.42800
C  -9.65000 33.77800 40.75600
C  -8.29400 33.52400 41.36500
O  -7.33300 33.03600 40.82300
O  -8.40300 33.80600 42.76800
C  -7.14400 33.79500 43.50000
H  -8.84400 40.66800 40.18400
H  -14.87400 41.38100 42.58000
H  -14.86700 35.10200 44.03400
H  -7.47400 35.98500 40.42000
H  -7.80600 38.58800 39.09000
H  -6.10300 37.80000 40.86300
H  -7.18300 38.86400 41.84800
H  -6.33300 39.46800 40.35200
H  -8.46400 36.71000 37.64200
H  -9.26800 35.37400 38.26300
H  -7.74000 33.96700 37.66700
H  -6.49000 34.71800 38.67500
H  -9.37300 42.67400 39.69800
H  -9.67300 43.72500 41.20300
H  -10.71800 43.85900 39.81400
H  -15.00200 43.25400 42.05800
H  -14.58400 44.80500 42.71600
H  -14.17000 43.25000 43.60500
H  -16.71500 39.05500 42.69200
H  -15.66900 37.78300 45.16100
H  -17.41300 40.42700 44.00700
H  -15.78600 40.73200 44.79900
H  -16.86400 39.55200 45.41600
H  -16.99400 35.89200 43.29000
H  -17.99300 37.24100 43.77500
H  -18.45600 36.22000 45.60000
H  -16.76700 36.42600 46.19700
H  -17.13200 34.98000 45.25400
H  -13.05200 31.64800 43.43500
H  -14.45000 32.22500 42.60900
H  -14.07500 32.84600 44.27100
H  -9.53600 33.48000 39.71400
H  -6.61200 34.70500 43.22200
H  -6.58200 32.92100 43.16900
H  -7.46900 33.61700 44.52500
Mg 1.23600 42.26300 25.43800
C  2.41600 42.44300 28.89400
C  -1.41800 40.41700 26.79700
C  0.25400 41.94500 22.41700
C  4.45500 43.56100 24.45000
N  0.64200 41.52500 27.62800
C  1.12000 42.02800 28.82400
C  0.07700 41.84500 30.01800
C  -1.01500 40.94000 29.29700
C  -0.58500 40.86800 27.80000
C  -1.32900 39.66500 29.99300
C  -0.48400 43.18500 30.68300
C  -0.44600 43.33900 32.20200
H  -0.59100 42.11100 33.10900
N  -0.32300 41.33500 24.68200
C  -1.36800 40.68100 25.30900
C  -2.35900 40.30700 24.38000
C  -1.93400 40.77800 23.06500
C  -0.61200 41.38400 23.34500
C  -3.66900 39.67100 24.82400
C  -2.64100 40.72800 21.71300
O  -2.22000 41.27900 20.75800
C  -3.94400 40.00600 21.61700
N  2.20000 42.77200 23.71400
C  1.53900 42.47400 22.53800
C  2.28600 42.91700 21.36000
C  3.41800 43.74900 21.94000
C  3.41900 43.30900 23.50200
C  2.86000 41.62500 20.60700
C  3.48200 45.24600 21.69300
C  4.01400 45.74500 20.28700
N  3.13900 42.70700 26.45900
C  4.30900 43.26900 25.89300
C  5.24300 43.45700 26.97000
C  4.49700 43.22000 28.15400
C  3.23100 42.74200 27.78500
C  6.64200 43.95800 26.82800
C  4.59200 43.14100 29.63700
O  5.57000 43.47100 30.32700
C  3.19800 42.64800 30.14300
C  3.41700 41.34900 30.76800
O  3.70900 40.30800 30.21300
O  3.21100 41.44300 32.12300
C  3.05200 40.22700 32.92600
H  -2.31100 39.92000 27.18400
H  -0.23800 41.96600 21.44200
H  5.44900 43.90000 24.15200
H  0.49200 41.20400 30.79600
H  -1.89600 41.57700 29.22400
H  -2.30900 39.78100 30.45600
H  -0.64600 39.23400 30.72500
H  -1.57700 38.83800 29.32900
H  -1.49800 43.32800 30.31100
H  0.26500 43.88700 30.31900
H  -1.24500 44.04600 32.42500
H  0.46800 43.86000 32.48700
H  -3.90600 39.86200 25.87100
H  -3.53800 38.62600 24.54600
H  -4.53300 39.97800 24.23400
H  -3.72500 38.97500 21.89300
H  -4.26500 40.04000 20.57600
H  -4.74800 40.45900 22.19700
H  1.71900 43.58600 20.71300
H  4.39200 43.42900 21.57000
H  3.07500 41.94700 19.58900
H  2.14900 40.79800 20.61900
H  3.72300 41.25000 21.15700
H  4.20800 45.70000 22.36800
H  2.51100 45.63600 21.99700
H  3.99800 44.93100 19.56200
H  5.00100 46.18700 20.42200
H  3.30700 46.42200 19.80700
H  7.10900 43.14900 26.26600
H  7.06700 44.13600 27.81600
H  6.86500 44.77400 26.14200
H  2.79000 43.37100 30.84900
H  2.04900 39.81400 32.82300
H  3.33100 40.28600 33.97800
H  3.73100 39.42100 32.64800

