158

Mg 6.30600 53.11700 41.53300
C  5.61800 49.70000 41.39700
C  9.63400 52.45100 40.83900
C  6.97600 56.56500 41.44700
C  2.95000 53.86000 41.87600
N  7.45300 51.19600 40.92500
C  6.98000 49.94600 41.06000
C  8.15500 48.90200 40.88300
C  9.45200 49.88800 40.84000
C  8.85500 51.29100 40.99100
C  10.52700 49.47500 41.93800
C  8.12700 48.17400 39.56800
C  8.08000 48.96000 38.26000
H  7.15700 48.45200 37.19800
N  8.08800 54.34100 41.21200
C  9.35400 53.82200 41.01500
C  10.28600 54.95500 40.75500
C  9.55100 56.09100 40.90000
C  8.11700 55.71600 41.31200
C  11.81100 54.84900 40.51900
C  10.15700 57.53100 40.68900
O  11.34600 57.60500 40.42500
C  9.39200 58.80000 40.69300
N  5.14400 54.93000 41.59200
C  5.63500 56.20400 41.62600
C  4.54300 57.18600 41.60300
C  3.22900 56.36500 41.71500
C  3.78100 54.97800 41.65800
C  4.60500 58.31900 42.67500
C  2.05500 56.49800 40.64300
C  1.01000 57.54100 41.16000
N  4.62600 52.02900 41.57100
C  3.31100 52.49000 41.77300
C  2.42700 51.33600 42.11700
C  3.30500 50.20700 41.87600
C  4.60600 50.69100 41.62000
C  1.03200 51.35800 42.56400
C  3.38700 48.73800 41.98000
O  2.51800 47.92700 42.36100
C  4.81200 48.37500 41.60100
C  4.83600 47.49500 40.46400
O  4.41800 47.76400 39.36000
O  5.36700 46.29200 40.76400
C  5.41400 45.36500 39.61900
H  10.65500 52.14900 40.59600
H  7.15300 57.64200 41.44500
H  1.92700 54.13400 42.14100
H  8.27700 48.17100 41.68200
H  10.08700 49.78100 39.96000
H  11.47700 49.08900 41.56700
H  10.04900 48.90200 42.73300
H  10.77500 50.45900 42.33600
H  7.32900 47.43200 39.57700
H  9.08200 47.64900 39.57800
H  9.05600 48.80300 37.80200
H  7.76200 49.98800 38.43500
H  12.09900 55.34200 39.59100
H  12.10200 53.81100 40.36400
H  12.31700 55.31400 41.36600
H  8.58000 58.77300 39.96700
H  9.93500 59.72300 40.48800
H  9.07900 59.01300 41.71500
H  4.54600 57.56100 40.58000
H  2.76300 56.43700 42.69800
H  3.68500 58.49400 43.23200
H  4.77600 59.30200 42.23700
H  5.41900 58.11300 43.37100
H  1.51500 55.57200 40.44500
H  2.37300 56.88300 39.67400
H  0.85600 58.19100 40.29900
H  1.41400 58.13800 41.97700
H  0.00800 57.21800 41.44200
H  0.76100 50.79100 43.45500
H  0.58000 50.92800 41.67000
H  0.76600 52.40200 42.73100
H  5.24500 47.79300 42.41500
H  5.91500 44.41000 39.77700
H  5.97000 45.76600 38.77200
H  4.40700 45.19200 39.23700
Mg 9.42400 47.25700 27.72800
C  7.35100 47.35700 30.45100
C  12.10400 47.97200 29.73800
C  11.42200 47.37700 24.88100
C  6.59800 47.52800 25.56400
N  9.63700 47.55900 29.78700
C  8.69600 47.56800 30.74600
C  9.35100 47.73800 32.14800
C  10.80700 48.23300 31.79100
C  10.86300 47.91400 30.33900
C  10.93900 49.82900 32.11400
C  9.35900 46.41700 32.90900
C  8.75700 46.41800 34.30700
H  8.66600 45.19800 35.30000
N  11.53400 47.49900 27.37400
C  12.49400 47.63700 28.38000
C  13.82600 47.68600 27.68500
C  13.58400 47.51500 26.29200
C  12.13800 47.49200 26.15400
C  15.13500 47.90600 28.41200
C  14.63900 47.40100 25.17800
O  14.43600 47.29700 23.93400
C  16.17700 47.27300 25.54000
N  9.03500 47.43500 25.52000
C  10.04900 47.42300 24.61600
C  9.47100 47.57300 23.16300
C  7.93000 47.54800 23.38200
C  7.81600 47.55600 24.90500
C  10.01000 48.85100 22.50800
C  7.07000 46.36600 22.80000
C  6.28300 46.81600 21.57600
N  7.34700 47.42500 27.88000
C  6.39900 47.47200 26.98200
C  5.09700 47.40700 27.65200
C  5.41500 47.32500 28.99500
C  6.80400 47.32300 29.09800
C  3.71200 47.60800 27.01300
C  4.80300 47.32500 30.39900
O  3.61700 47.55100 30.73700
C  6.09100 47.24500 31.35400
C  5.95400 45.98600 32.10200
O  6.24200 44.89200 31.68700
O  5.44200 46.24600 33.38500
C  5.40800 45.07700 34.23600
H  12.97600 48.23900 30.34000
H  11.99100 47.58300 23.97200
H  5.73000 47.52700 24.90300
H  8.71800 48.51300 32.58100
H  11.62200 47.71400 32.29600
H  11.94400 49.92000 32.52500
H  10.18100 50.22200 32.79200
H  11.05200 50.42300 31.20700
H  10.32900 45.94400 33.05900
H  8.68200 45.73700 32.39200
H  7.75900 46.83900 34.18700
H  9.37700 47.23100 34.68400
H  15.04800 47.80900 29.49400
H  15.51000 48.90100 28.17500
H  15.78900 47.06600 28.18000
H  16.79000 46.96400 24.69300
H  16.30600 46.37500 26.14300
H  16.56000 48.21800 25.92600
H  9.68500 46.65100 22.62300
H  7.64900 48.51100 22.95600
H  9.23500 49.23600 21.84600
H  10.84100 48.45000 21.92900
H  10.33600 49.61900 23.20900
H  6.34000 45.97100 23.50600
H  7.75800 45.58100 22.48600
H  5.24400 46.53600 21.74800
H  6.66200 46.35200 20.66500
H  6.30300 47.90100 21.48400
H  2.89500 47.51400 27.72800
H  3.44000 46.80600 26.32700
H  3.75600 48.60200 26.56700
H  6.13400 48.07200 32.06300
H  5.32700 45.35600 35.28600
H  6.25400 44.39900 34.12400
H  4.52100 44.57200 33.85300

