158

Mg 9.65900 48.35400 26.15900
C  7.54700 48.31900 29.01200
C  12.12900 49.75800 28.06800
C  11.59800 48.47100 23.38200
C  6.84300 47.83000 24.21900
N  9.70000 49.03900 28.28900
C  8.84300 48.70200 29.29000
C  9.29500 49.21600 30.59700
C  10.70900 49.94400 30.19100
C  10.88600 49.60900 28.73500
C  10.81200 51.48100 30.49000
C  9.35000 48.17000 31.70700
C  10.01100 48.63700 33.01200
H  9.28200 48.42000 34.36100
N  11.64200 48.89400 25.79400
C  12.55000 49.37500 26.73600
C  13.92000 49.33000 26.15100
C  13.61500 49.12700 24.78500
C  12.22600 48.93000 24.57800
C  15.20500 49.68300 26.92100
C  14.56900 49.19500 23.64600
O  14.21400 49.20300 22.48200
C  16.06200 49.30300 23.96200
N  9.24700 48.24900 24.09900
C  10.23700 48.25900 23.12800
C  9.58700 47.83100 21.76500
C  8.15800 47.46100 22.11700
C  8.09000 47.77400 23.59800
C  9.72400 48.82300 20.54900
C  7.84600 46.00400 21.77600
C  8.47500 45.04100 22.72300
N  7.51000 48.14700 26.49900
C  6.51700 47.90700 25.57200
C  5.31800 47.59400 26.26300
C  5.64700 47.68900 27.61900
C  7.00500 48.02600 27.70700
C  3.93300 47.10000 25.79000
C  5.16300 47.60700 28.98700
O  4.03800 47.29100 29.36600
C  6.37300 47.99600 29.96900
C  6.55900 46.69200 30.60500
O  7.49000 45.93900 30.26300
O  5.65300 46.55900 31.60700
C  5.86600 45.36900 32.52400
H  12.90300 49.87600 28.82900
H  12.05000 48.42300 22.38900
H  5.99600 47.48000 23.62400
H  8.57900 49.98400 30.89000
H  11.51200 49.45200 30.74000
H  11.83100 51.63800 30.84200
H  10.11100 51.78100 31.26900
H  10.70100 51.95700 29.51500
H  9.92000 47.33300 31.30400
H  8.33800 47.85600 31.96100
H  10.14200 49.71900 32.98300
H  10.96900 48.14000 33.16600
H  15.96100 48.89800 26.93900
H  14.89300 49.87400 27.94800
H  15.55800 50.61000 26.46900
H  16.30800 48.58200 24.74100
H  16.32100 50.29300 24.33800
H  16.60100 49.07800 23.04200
H  10.04000 46.90200 21.41700
H  7.46500 48.03300 21.50000
H  10.15000 49.76600 20.89200
H  8.73300 49.01300 20.13900
H  10.41200 48.33200 19.86000
H  8.35600 45.71500 20.85700
H  6.75800 45.96700 21.83700
H  7.71300 44.55300 23.33100
H  9.20400 45.48100 23.40500
H  8.92700 44.24100 22.13800
H  4.02700 46.54800 24.85600
H  3.43800 48.05300 25.60500
H  3.29100 46.49700 26.43200
H  6.22200 48.84900 30.63200
H  5.96200 45.52600 33.59900
H  6.61600 44.63300 32.23500
H  4.99700 44.73600 32.34200
Mg -12.51300 16.60100 41.71400
C  -9.41200 14.94100 41.20700
C  -10.98300 19.44600 40.49500
C  -15.46300 17.91200 41.47000
C  -13.83400 13.50800 42.52100
N  -10.42700 17.05200 40.79600
C  -9.28300 16.29200 40.79900
C  -7.98000 17.15600 40.57700
C  -8.58800 18.56300 40.54900
C  -10.12700 18.34800 40.58400
C  -8.00900 19.53100 41.64300
C  -7.06800 16.82000 39.33500
C  -5.57700 16.53400 39.30400
H  -5.20900 15.29000 38.51500
N  -13.13100 18.42100 41.08300
C  -12.37400 19.48300 40.58600
C  -13.27900 20.68500 40.35100
C  -14.59400 20.18000 40.63200
C  -14.41800 18.79000 41.07300
C  -12.72300 21.95100 39.87500
C  -15.88800 21.04200 40.59700
O  -15.79500 22.15600 40.14500
C  -17.23100 20.50200 40.93100
N  -14.43700 15.70400 41.74400
C  -15.45600 16.59800 41.86900
C  -16.72400 15.83900 42.16700
C  -16.23700 14.41200 42.62400
C  -14.73200 14.55000 42.41600
C  -17.88000 16.47400 42.96800
C  -16.83600 13.08800 41.87200
C  -17.43700 11.99600 42.75200
N  -11.78200 14.62200 41.94500
C  -12.47200 13.45100 42.25800
C  -11.56300 12.32100 42.28900
C  -10.33800 12.87300 41.91600
C  -10.52800 14.22500 41.67900
C  -12.00000 10.87700 42.60200
C  -8.93000 12.58900 41.69000
O  -8.28600 11.54900 41.68800
C  -8.21200 13.91000 41.27300
C  -7.15900 14.30000 42.21200
O  -7.30800 14.90200 43.25500
O  -5.95700 13.96300 41.58600
C  -4.73800 14.25500 42.39800
H  -10.37700 20.33200 40.29200
H  -16.51100 18.22100 41.45100
H  -14.23400 12.56100 42.88900
H  -7.42700 17.07300 41.51300
H  -8.39700 19.03100 39.58400
H  -7.78000 20.46100 41.12100
H  -7.09800 19.17700 42.12400
H  -8.70300 19.77400 42.44700
H  -7.08700 17.73300 38.73900
H  -7.52700 16.04800 38.71800
H  -5.10600 16.48700 40.28500
H  -5.07600 17.34900 38.78100
H  -13.16200 22.81900 40.36600
H  -12.99200 22.01800 38.82100
H  -11.63900 21.98500 39.99200
H  -17.23600 20.24100 41.98900
H  -17.43700 19.67700 40.24900
H  -17.91400 21.30400 40.65000
H  -17.18600 15.64300 41.20000
H  -16.41000 14.29800 43.69400
H  -18.22100 15.88800 43.82200
H  -18.75900 16.61500 42.33900
H  -17.63300 17.48400 43.29800
H  -16.19000 12.78100 41.05000
H  -17.68900 13.44900 41.29800
H  -17.09400 11.07600 42.27900
H  -18.52400 12.04000 42.81900
H  -17.11000 12.22900 43.76600
H  -12.05500 10.41400 41.61600
H  -12.95600 10.78000 43.11700
H  -11.26900 10.27400 43.14000
H  -7.75200 13.77900 40.29400
H  -4.85900 15.24400 42.84100
H  -3.87700 14.29200 41.73100
H  -4.51800 13.41300 43.05500

