158

Mg 35.89100 47.97600 26.60400
C  36.07600 46.00900 29.49200
C  34.81400 50.54600 28.58200
C  36.11800 49.86000 23.89400
C  36.46300 45.05500 24.72000
N  35.58400 48.27700 28.84700
C  35.75100 47.32200 29.78000
C  35.58300 47.94600 31.15400
C  34.64800 49.20100 30.83400
C  34.95500 49.34000 29.32600
C  33.10700 49.04400 31.07600
C  36.95300 48.53400 31.74800
C  37.14700 48.38900 33.26700
H  36.72600 49.47900 34.21900
N  35.43500 49.91100 26.22400
C  34.98600 50.89900 27.20600
C  34.90700 52.17700 26.60400
C  35.23600 51.98800 25.25700
C  35.62400 50.57700 25.07200
C  34.39200 53.45900 27.40400
C  35.29700 53.05400 24.05800
O  35.38500 52.74200 22.87700
C  35.08700 54.53300 24.27400
N  36.07700 47.42600 24.49100
C  36.25100 48.47900 23.60700
C  36.65200 47.88500 22.16800
C  36.57000 46.31200 22.41000
C  36.39400 46.20100 23.93100
C  35.76900 48.29500 20.96200
C  37.73300 45.45600 21.90200
C  37.55700 44.80200 20.56000
N  36.14300 45.92800 26.94200
C  36.39400 44.85500 26.04900
C  36.58400 43.60500 26.84300
C  36.57400 44.07300 28.16700
C  36.21100 45.43400 28.18100
C  36.73900 42.17300 26.28000
C  36.72300 43.63500 29.53800
O  37.07400 42.56100 29.94700
C  36.45900 44.91700 30.48400
C  35.37600 44.58700 31.40800
O  34.24400 44.19500 31.13800
O  35.84400 44.80000 32.68400
C  34.85300 44.58800 33.75600
H  34.48400 51.39100 29.19000
H  36.24300 50.54000 23.04800
H  36.65400 44.10300 24.21900
H  35.07700 47.27200 31.84600
H  34.94900 50.08900 31.38900
H  33.04400 48.15800 31.70800
H  32.58400 49.05100 30.12000
H  32.71200 49.88100 31.65300
H  37.04100 49.58000 31.45300
H  37.74800 47.94700 31.28900
H  38.21200 48.27800 33.47300
H  36.69300 47.44200 33.55900
H  34.75600 54.40400 27.00100
H  34.69200 53.31700 28.44200
H  33.30300 53.41400 27.41900
H  34.27000 54.67500 24.98300
H  34.68400 55.06300 23.41100
H  35.93000 55.08100 24.69600
H  37.67000 48.17600 21.91100
H  35.69900 45.88700 21.91100
H  34.96500 48.97200 21.25000
H  35.40400 47.49600 20.31600
H  36.35000 48.92900 20.29200
H  37.89700 44.69200 22.66300
H  38.66800 46.01000 21.81600
H  38.43600 44.99200 19.94300
H  36.67000 45.04200 19.97400
H  37.52300 43.72200 20.70400
H  36.35300 41.42500 26.97300
H  37.77300 41.99800 25.98400
H  36.18300 41.99500 25.36000
H  37.38600 45.15300 31.00700
H  35.33800 44.87100 34.69000
H  34.60200 43.54500 33.94600
H  33.95600 45.13100 33.46100
Mg 9.57400 47.94800 24.15600
C  7.18500 48.72500 26.70500
C  12.02900 49.08400 26.30100
C  11.79800 47.70700 21.73500
C  6.93500 47.51500 21.92200
N  9.61700 48.71900 26.19100
C  8.55000 48.81400 27.10800
C  9.04500 49.22100 28.47800
C  10.40000 49.86700 28.08600
C  10.72100 49.21600 26.77000
C  10.49600 51.40200 28.11500
C  9.23000 48.00900 29.41600
C  8.68600 48.35800 30.79600
H  8.19400 47.20400 31.69900
N  11.74600 48.25800 24.07400
C  12.58600 48.67200 25.07500
C  13.95300 48.69100 24.63800
C  13.86500 48.31400 23.25200
C  12.40900 48.11800 22.93000
C  15.21300 48.99000 25.49600
C  14.99300 48.06700 22.22800
O  14.76600 47.79900 21.08800
C  16.37600 48.09800 22.68900
N  9.44300 47.69500 22.14900
C  10.52700 47.45100 21.35100
C  10.12800 46.94500 19.93200
C  8.54600 46.77900 20.08200
C  8.26200 47.32600 21.44100
C  10.60800 47.88400 18.72000
C  7.95000 45.38000 19.95700
C  8.78400 44.24000 20.53900
N  7.48500 48.09500 24.27100
C  6.55400 47.87700 23.26900
C  5.18300 48.16500 23.83200
C  5.37100 48.45200 25.20700
C  6.79100 48.31900 25.40800
C  3.84900 48.07800 23.11300
C  4.70600 48.65500 26.50000
O  3.56600 48.81700 26.80800
C  5.87500 48.80600 27.48900
C  5.59700 47.76000 28.48300
O  6.08000 46.63000 28.51400
O  4.69600 48.21800 29.46100
C  4.38200 47.23900 30.53300
H  12.72100 49.52300 27.02200
H  12.60400 47.51000 21.02500
H  6.20700 47.35600 21.12400
H  8.21200 49.89200 28.69100
H  11.08300 49.46500 28.83500
H  10.88700 51.70900 29.08500
H  9.46000 51.73100 28.03800
H  10.99100 51.81100 27.23300
H  10.26700 47.71200 29.57100
H  8.63300 47.14200 29.13100
H  7.85400 49.06100 30.75400
H  9.49400 48.81500 31.36700
H  14.77700 49.12100 26.48600
H  15.71000 49.91700 25.21000
H  15.85300 48.10700 25.50400
H  16.60400 47.23800 23.31900
H  16.50200 49.09800 23.10500
H  16.87400 47.87800 21.74500
H  10.57000 45.94900 19.90000
H  7.96300 47.41800 19.42100
H  10.92300 48.81800 19.18600
H  9.89800 48.32900 18.02300
H  11.52800 47.48900 18.28900
H  7.79500 45.16300 18.90100
H  6.94500 45.37100 20.37800
H  8.23700 43.72800 21.33100
H  9.69300 44.61400 21.01200
H  9.09800 43.55200 19.75500
H  3.11700 47.55000 23.72300
H  4.05400 47.35300 22.32600
H  3.52200 49.01700 22.66400
H  5.82100 49.79400 27.94600
H  4.40400 47.64900 31.54300
H  5.05500 46.38400 30.60600
H  3.40500 46.79500 30.34100

