158

Mg 25.68100 51.22500 25.65500
C  23.40000 51.91900 28.02000
C  28.04800 50.64900 28.09700
C  27.97300 50.64400 23.28600
C  23.48400 52.21500 23.09700
N  25.70000 51.20600 27.80400
C  24.57600 51.35600 28.59900
C  24.86000 51.22100 30.07700
C  26.38000 50.86700 29.98300
C  26.75100 50.93300 28.53200
C  27.25700 51.75100 30.84800
C  23.85400 50.18300 30.76900
C  23.39200 50.54500 32.24000
H  23.80000 49.42800 33.34900
N  27.69900 50.74700 25.64900
C  28.55600 50.49800 26.75400
C  29.93300 50.11600 26.33600
C  29.87600 50.11000 24.91600
C  28.43400 50.49800 24.53700
C  31.04500 49.80500 27.33100
C  30.92600 49.72100 23.93300
O  30.85700 49.92200 22.73200
C  32.25500 49.40100 24.37700
N  25.71000 51.38400 23.49000
C  26.74800 51.00700 22.68800
C  26.49100 51.08700 21.19200
C  25.00400 51.53600 21.16800
C  24.66900 51.68800 22.67300
C  27.42300 52.12000 20.43400
C  24.04800 50.49000 20.43700
C  23.36500 50.97700 19.18700
N  23.94600 51.99800 25.54500
C  23.15200 52.39000 24.48700
C  21.90800 52.99900 24.93300
C  21.97400 52.85000 26.35300
C  23.18200 52.19200 26.67100
C  20.83300 53.53100 24.15400
C  21.22500 52.96600 27.57400
O  20.07200 53.41900 27.74500
C  22.08000 52.28700 28.74600
C  22.33400 53.36800 29.67100
O  23.11300 54.25500 29.45900
O  21.49400 53.18700 30.75100
C  21.69600 54.07900 31.91300
H  28.70300 50.24900 28.87300
H  28.57500 50.37600 22.41600
H  22.75500 52.58900 22.37600
H  24.62600 52.18900 30.51900
H  26.64900 49.89600 30.39900
H  26.68600 52.57500 31.27800
H  28.09400 52.12600 30.26000
H  27.61100 51.11600 31.66000
H  24.38200 49.22900 30.75600
H  22.99400 49.95800 30.13800
H  22.30600 50.53100 32.32400
H  23.64700 51.53800 32.61000
H  31.79200 49.09000 26.98600
H  30.66200 49.23700 28.17900
H  31.46700 50.77200 27.60400
H  32.62800 50.02300 25.19000
H  33.03800 49.39500 23.61800
H  32.17500 48.37700 24.74300
H  26.54200 50.03500 20.91300
H  24.99300 52.52000 20.69800
H  27.98300 52.80500 21.07000
H  26.93600 52.72300 19.66900
H  28.16900 51.48000 19.96200
H  23.27300 50.33600 21.18800
H  24.52800 49.52500 20.27500
H  23.11000 50.11600 18.57000
H  23.93700 51.66900 18.56900
H  22.43900 51.39100 19.58600
H  19.99700 53.49600 24.85200
H  20.81300 53.12700 23.14200
H  21.05800 54.58800 24.01300
H  21.46200 51.45400 29.08200
H  22.08700 54.95200 31.39000
H  22.50200 53.74500 32.56500
H  20.77500 54.33300 32.43800
Mg -6.26500 25.03800 26.34800
C  -4.48100 26.68400 28.89200
C  -7.43500 22.86800 28.71400
C  -7.61000 23.38400 23.91000
C  -4.59000 27.12100 24.12300
N  -6.06100 24.83600 28.58600
C  -5.31700 25.69900 29.41000
C  -5.48700 25.31800 30.88300
C  -6.25200 23.94900 30.75700
C  -6.64500 23.84900 29.28300
C  -5.50800 22.67700 31.38900
C  -6.12300 26.49400 31.72300
C  -7.17600 26.23900 32.73400
H  -6.71400 25.38600 33.88600
N  -7.36700 23.32000 26.39300
C  -7.87600 22.58600 27.41800
C  -8.71400 21.54400 26.86600
C  -8.70900 21.61600 25.43800
C  -7.85800 22.78400 25.18500
C  -9.44600 20.58000 27.81000
C  -9.49300 20.75600 24.42200
O  -9.48000 21.03800 23.17700
C  -10.39700 19.61100 24.82200
N  -6.21100 25.30300 24.30500
C  -6.87200 24.52900 23.48000
C  -6.57200 24.85300 22.05700
C  -5.76400 26.17000 22.05200
C  -5.51700 26.23400 23.56400
C  -5.86100 23.69900 21.27700
C  -6.51800 27.36600 21.38500
C  -6.04600 27.69700 19.93100
N  -4.88300 26.64500 26.42300
C  -4.19400 27.30700 25.46900
C  -3.37300 28.30800 26.01000
C  -3.39400 28.08600 27.41600
C  -4.33500 27.05200 27.58300
C  -2.63600 29.33800 25.19600
C  -2.86900 28.45100 28.66400
O  -1.95900 29.21700 28.93100
C  -3.61500 27.63000 29.69400
C  -2.69700 27.02600 30.71300
O  -2.11300 25.98800 30.58000
O  -2.72400 27.69300 31.91800
C  -2.22400 27.06200 33.12300
H  -7.77600 22.14100 29.45300
H  -8.16700 22.84900 23.13900
H  -4.12400 27.71400 23.33300
H  -4.46600 25.12600 31.21300
H  -7.22900 23.96800 31.24000
H  -4.43500 22.77000 31.22000
H  -5.85700 21.74800 30.93700
H  -5.74600 22.68900 32.45200
H  -6.44300 27.38000 31.17400
H  -5.21600 26.71000 32.28700
H  -8.10700 25.85300 32.32000
H  -7.36300 27.21000 33.19300
H  -10.50900 20.50300 27.58400
H  -9.34500 20.82500 28.86700
H  -9.15900 19.55200 27.58900
H  -10.35600 18.90700 23.99000
H  -11.41000 19.95000 25.03800
H  -10.00700 19.05000 25.67100
H  -7.48000 25.14800 21.53000
H  -4.82200 26.11800 21.50500
H  -4.80800 23.89300 21.07600
H  -6.44900 23.50300 20.38000
H  -5.66000 22.81700 21.88500
H  -6.26700 28.22000 22.01500
H  -7.59900 27.24600 21.31800
H  -6.99800 27.74400 19.40100
H  -5.34600 26.98000 19.50100
H  -5.53700 28.65300 19.81400
H  -1.94900 28.74600 24.59200
H  -2.08600 29.96300 25.90000
H  -3.20900 29.92500 24.47900
H  -4.28800 28.31300 30.21200
H  -1.26500 26.54500 33.08500
H  -2.97500 26.33200 33.42700
H  -2.11400 27.77000 33.94500

