158

Mg 26.52400 50.51900 26.44200
C  24.56000 51.85600 29.07700
C  28.92000 49.85500 28.89500
C  28.64300 49.68500 23.94100
C  24.48700 51.97200 24.17100
N  26.57100 50.66500 28.74300
C  25.62700 51.19400 29.56900
C  26.05600 51.07300 31.09300
C  27.60700 50.62300 30.97400
C  27.72300 50.33900 29.44700
C  28.75200 51.57300 31.51700
C  25.11800 50.09800 31.90000
C  24.75600 50.67300 33.23700
H  25.84900 50.75300 34.30800
N  28.35600 49.74200 26.46600
C  29.20700 49.56600 27.55800
C  30.50500 49.09600 27.02300
C  30.50400 49.14900 25.65900
C  29.10000 49.56400 25.32700
C  31.68900 48.67300 27.97300
C  31.72800 48.87800 24.63500
O  31.58100 48.91300 23.38500
C  33.12800 48.62500 25.12900
N  26.49100 50.65400 24.33400
C  27.51100 50.29900 23.53400
C  27.15700 50.61800 22.09700
C  25.74500 51.14700 22.13500
C  25.52600 51.20500 23.62600
C  28.16400 51.71000 21.54700
C  24.62500 50.41500 21.36800
C  24.20500 51.11800 19.99500
N  24.78700 51.60800 26.57200
C  24.02300 52.15100 25.51100
C  22.87200 52.85100 26.10700
C  23.04700 52.72700 27.44200
C  24.25400 52.06600 27.69300
C  21.85000 53.52100 25.28400
C  22.43600 53.06000 28.66100
O  21.36900 53.57800 28.82500
C  23.43100 52.56700 29.85500
C  23.91000 53.66200 30.69500
O  24.87300 54.40300 30.42100
O  23.22600 53.62900 31.85800
C  23.60700 54.52600 32.92800
H  29.68000 49.71700 29.66700
H  29.31100 49.47400 23.10400
H  23.71900 52.30400 23.46900
H  26.12100 52.08400 31.49600
H  27.67100 49.66600 31.49200
H  28.31600 52.40900 32.06300
H  29.28100 52.00600 30.66700
H  29.49800 51.14100 32.18400
H  25.59000 49.14700 32.14900
H  24.27600 49.91500 31.23200
H  23.90500 50.06100 33.53500
H  24.33700 51.67500 33.14100
H  31.44600 49.12700 28.93300
H  32.63700 49.09200 27.63600
H  31.71400 47.59200 28.10800
H  33.01400 47.87300 25.91100
H  33.63600 49.47800 25.57800
H  33.65700 48.17600 24.28900
H  27.23800 49.69500 21.52300
H  25.82900 52.13800 21.69000
H  28.53100 51.32000 20.59800
H  28.98600 51.86200 22.24700
H  27.83200 52.74200 21.43500
H  23.71800 50.24000 21.94700
H  24.97000 49.38300 21.29300
H  23.88800 50.26100 19.40000
H  24.96400 51.71300 19.48700
H  23.33300 51.71000 20.27500
H  22.21700 53.63500 24.26400
H  21.56900 54.52100 25.61500
H  20.92700 52.94200 25.28800
H  22.84200 51.84900 30.42700
H  23.04000 54.24700 33.81600
H  23.51700 55.53900 32.53700
H  24.67300 54.30600 32.98300
Mg -11.78500 17.13900 42.23400
C  -8.62100 15.51200 41.90600
C  -10.18300 19.96200 40.73300
C  -14.79100 18.58500 41.95600
C  -13.20000 14.12200 43.09900
N  -9.64100 17.65000 41.36000
C  -8.53800 16.79600 41.34800
C  -7.29300 17.58700 40.86700
C  -7.82200 18.96400 40.60400
C  -9.26400 18.87100 40.99900
C  -7.04700 20.12400 41.29800
C  -6.72200 16.85500 39.59800
C  -5.28500 16.27400 39.75700
H  -4.78800 15.05000 38.88000
N  -12.37000 19.11400 41.53400
C  -11.58000 20.00800 40.93600
C  -12.45800 21.08700 40.56000
C  -13.76900 20.78400 41.06900
C  -13.68500 19.42700 41.56600
C  -11.91600 22.30300 39.87700
C  -14.90400 21.83800 41.09500
O  -14.77900 22.94100 40.57900
C  -16.19300 21.61700 41.89500
N  -13.69000 16.40100 42.19000
C  -14.83200 17.15900 42.13000
C  -16.13400 16.43400 42.48900
C  -15.51200 15.02900 42.90800
C  -14.05700 15.12800 42.59700
C  -16.84100 17.11900 43.78600
C  -16.13800 13.85500 42.24700
C  -16.45700 12.62000 43.12600
N  -11.18300 15.15200 42.46000
C  -11.79800 14.11100 43.02400
C  -10.84700 13.00100 43.27200
C  -9.59800 13.56600 42.80100
C  -9.85800 14.87000 42.36700
C  -11.25100 11.64900 43.76400
C  -8.25300 13.28100 42.60900
O  -7.60200 12.23600 42.75700
C  -7.52000 14.46200 41.97600
C  -6.40400 14.94300 42.82400
O  -6.43100 15.81900 43.65100
O  -5.29800 14.19100 42.58300
C  -4.02400 14.64800 43.19400
H  -9.73200 20.85100 40.28800
H  -15.76400 19.07200 41.85900
H  -13.63100 13.27200 43.63100
H  -6.53000 17.62000 41.64500
H  -7.70400 19.23800 39.55500
H  -6.40000 20.62200 40.57600
H  -6.46300 19.66600 42.09600
H  -7.69300 20.83000 41.82000
H  -6.60600 17.54100 38.75900
H  -7.36300 16.02000 39.31700
H  -5.05100 16.06000 40.80000
H  -4.64200 17.06000 39.36200
H  -12.65700 22.84700 39.29100
H  -11.19300 22.00000 39.12000
H  -11.53500 22.96400 40.65500
H  -16.63200 22.61500 41.92600
H  -16.05100 21.11400 42.85200
H  -16.77900 20.98400 41.23000
H  -16.70600 16.34400 41.56600
H  -15.61600 14.99700 43.99200
H  -16.81800 16.48100 44.66900
H  -17.85100 17.47200 43.58100
H  -16.22100 17.96100 44.09400
H  -15.49600 13.49000 41.44600
H  -17.14800 14.13100 41.94600
H  -15.54400 12.12700 43.46300
H  -17.12600 11.93800 42.60200
H  -17.00400 12.87800 44.03300
H  -10.86000 10.90000 43.07500
H  -12.32500 11.49800 43.87000
H  -10.73200 11.49000 44.70900
H  -7.14800 14.32100 40.96100
H  -3.96600 15.62900 43.66600
H  -3.32200 14.64100 42.36100
H  -3.70900 13.88200 43.90400

