158

Mg 48.77400 35.79700 27.98600
C  46.64500 34.39800 30.17500
C  49.17500 38.49200 30.00000
C  50.47300 37.39500 25.45200
C  48.22200 33.10300 25.72100
N  48.01700 36.28300 29.92400
C  47.19100 35.54600 30.67000
C  47.24900 36.02600 32.12900
C  47.54200 37.61400 31.81300
C  48.33900 37.49100 30.46200
C  46.28900 38.54100 31.64700
C  48.22700 35.18500 33.08300
C  49.49900 35.92500 33.56200
H  49.45000 36.47700 35.00000
N  49.59200 37.66300 27.70200
C  49.74200 38.60700 28.69100
C  50.50900 39.71100 28.21800
C  50.82100 39.50600 26.85000
C  50.27100 38.11600 26.59000
C  50.83400 40.96500 29.07600
C  51.55500 40.38600 25.84800
O  51.71500 40.06000 24.71400
C  52.11000 41.65300 26.35400
N  49.37700 35.27600 25.90200
C  49.99700 36.15900 25.14000
C  50.34700 35.48100 23.77200
C  49.63800 34.09300 23.90300
C  48.99300 34.09700 25.26600
C  49.83700 36.42900 22.60200
C  50.62400 32.93400 23.54100
C  50.83200 32.79100 22.01800
N  47.70700 34.09000 27.91600
C  47.60300 33.03100 26.98200
C  46.80100 31.95800 27.53200
C  46.28300 32.52200 28.70700
C  46.92100 33.77100 28.89300
C  46.57700 30.56500 26.99700
C  45.47400 32.19300 29.83000
O  44.89700 31.13900 30.10000
C  45.58500 33.45000 30.81500
C  45.90900 32.77500 32.07700
O  46.96800 32.21100 32.35900
O  44.84300 32.88100 32.93800
C  45.20700 32.87700 34.37500
H  49.42500 39.30700 30.68200
H  51.16900 37.76600 24.69600
H  47.89900 32.30300 25.05100
H  46.26800 35.84400 32.56900
H  48.14800 38.01300 32.62700
H  46.36900 39.32900 32.39700
H  45.38600 37.94000 31.74900
H  46.25000 38.96200 30.64200
H  48.53000 34.21500 32.68800
H  47.65700 35.01700 33.99700
H  49.91100 36.62600 32.83600
H  50.29700 35.20600 33.74700
H  51.88200 40.98700 29.37600
H  50.21500 41.16800 29.95000
H  50.55300 41.82700 28.47200
H  51.37400 42.44800 26.48300
H  52.74900 41.96200 25.52600
H  52.85800 41.70900 27.14400
H  51.43500 35.49600 23.70600
H  48.80200 34.04200 23.20500
H  49.05700 35.97500 21.99100
H  50.72700 36.48700 21.97500
H  49.42500 37.34300 23.02900
H  50.21600 32.05100 24.03200
H  51.56500 33.22700 24.00800
H  50.42300 33.60700 21.42200
H  50.57600 31.82100 21.59200
H  51.92200 32.79300 22.00800
H  47.13200 30.39700 26.07400
H  45.50800 30.46400 26.81300
H  46.87500 29.78600 27.70000
H  44.63500 33.98000 30.88600
H  46.22300 33.22600 34.55500
H  44.99000 31.92100 34.85200
H  44.62600 33.70100 34.78700
Mg 1.23200 42.75800 24.91700
C  3.11200 42.43100 27.84300
C  -1.62600 42.05800 26.96600
C  -0.58300 42.36500 22.13000
C  4.24800 42.80600 23.01800
N  0.80900 42.46900 27.25400
C  1.74500 42.32100 28.16500
C  1.12700 42.09600 29.55100
C  -0.38000 41.90000 29.26500
C  -0.44500 42.08500 27.73400
C  -0.97000 40.56000 29.72800
C  1.50200 43.24100 30.50000
C  1.12300 43.07400 31.96100
H  0.87800 41.68600 32.62400
N  -0.77200 42.40100 24.61500
C  -1.78000 42.19100 25.56000
C  -3.05700 42.11700 24.84400
C  -2.74800 42.33400 23.47900
C  -1.32600 42.29100 23.36900
C  -4.42700 42.06500 25.59500
C  -3.72700 42.39900 22.39800
O  -3.45500 42.20800 21.22100
C  -5.23200 42.53500 22.58000
N  1.77900 42.50600 22.86500
C  0.81800 42.34400 21.94300
C  1.32300 42.38100 20.49900
C  2.86900 42.71500 20.77200
C  3.04200 42.74100 22.29500
C  1.05600 41.10200 19.71400
C  3.29200 44.03900 20.10200
C  2.86600 45.33400 20.74900
N  3.25900 42.74600 25.28200
C  4.34500 42.83500 24.42800
C  5.57200 42.86100 25.26300
C  5.12800 42.70200 26.53400
C  3.73400 42.64400 26.54300
C  6.93400 43.11500 24.84300
C  5.48600 42.53000 27.91300
O  6.59200 42.50600 28.38500
C  4.27200 42.40300 28.82100
C  4.22900 41.12700 29.63300
O  4.00500 40.01900 29.11200
O  4.46400 41.30300 30.95400
C  4.76500 40.05300 31.67000
H  -2.56600 41.93300 27.50700
H  -1.09000 42.30600 21.16500
H  5.12500 42.95600 22.38500
H  1.57500 41.19000 29.95800
H  -1.04600 42.65200 29.69000
H  -0.32600 40.03400 30.43400
H  -1.16700 39.95600 28.84300
H  -1.97100 40.67300 30.14300
H  0.93900 44.09000 30.11200
H  2.54700 43.53800 30.58600
H  0.25700 43.69100 32.19900
H  1.95400 43.60500 32.42400
H  -4.66000 43.10900 25.80400
H  -4.30500 41.52800 26.53600
H  -5.26800 41.62800 25.05700
H  -5.75200 41.62800 22.88800
H  -5.72300 42.98000 21.71400
H  -5.32800 43.25500 23.39200
H  0.81200 43.24000 20.06300
H  3.59800 41.96000 20.48000
H  0.16800 40.55900 20.03600
H  1.89400 40.40500 19.74100
H  0.92200 41.46600 18.69500
H  2.83700 43.93100 19.11800
H  4.37600 44.08400 19.99300
H  2.20200 45.08300 21.57600
H  2.37800 46.01300 20.05000
H  3.75100 45.82700 21.15200
H  7.61000 42.36400 25.25300
H  7.11100 44.10600 25.26200
H  7.09800 42.98400 23.77300
H  4.35000 43.24900 29.50300
H  5.51100 39.40300 31.21300
H  3.88000 39.41900 31.72400
H  5.17100 40.18700 32.67300

