158

Mg 1.88800 -1.50600 43.21700
C  5.36600 -1.09300 42.83300
C  1.40100 1.37000 41.25900
C  -1.38600 -2.26500 42.90400
C  2.48200 -4.72700 44.54400
N  3.14000 -0.10100 42.14100
C  4.54000 -0.07800 42.18800
C  5.16200 1.05100 41.45700
C  3.85000 2.08600 41.33900
C  2.70700 1.05900 41.61800
C  3.86700 3.31300 42.29900
C  5.77200 0.71400 40.03200
C  6.69100 1.83800 39.50900
H  6.29400 2.51700 38.17500
N  0.24300 -0.56400 42.32900
C  0.25400 0.58000 41.50200
C  -1.13800 0.83700 41.07800
C  -1.96800 -0.14800 41.61600
C  -1.06200 -1.02800 42.39300
C  -1.60000 1.93400 40.20400
C  -3.46600 -0.19900 41.42300
O  -4.10000 0.65100 40.78800
C  -4.33200 -1.25700 42.08300
N  0.74500 -3.31200 43.61100
C  -0.60000 -3.24800 43.58000
C  -1.23500 -4.54300 43.94100
C  -0.02000 -5.36400 44.52100
C  1.16900 -4.45300 44.11700
C  -2.43900 -4.51300 44.99400
C  0.10300 -6.80600 43.91200
C  0.36100 -7.93200 44.91200
N  3.53500 -2.61800 43.80600
C  3.66800 -3.87600 44.36100
C  5.04200 -4.16600 44.60400
C  5.79500 -3.18100 44.01300
C  4.85200 -2.20100 43.54500
C  5.44100 -5.44400 45.27200
C  7.06200 -2.62400 43.62400
O  8.18400 -3.09100 43.81600
C  6.86100 -1.35900 42.85600
C  7.52300 -0.22200 43.43900
O  7.21900 0.44000 44.42800
O  8.68500 -0.00600 42.70900
C  9.13700 1.35400 42.81200
H  1.32200 2.27900 40.65900
H  -2.42100 -2.61400 42.93100
H  2.57500 -5.73300 44.95800
H  5.91000 1.54200 42.08100
H  3.81700 2.33900 40.27900
H  2.88900 3.49700 42.74400
H  4.04000 4.14700 41.61900
H  4.62300 3.17300 43.07200
H  4.96000 0.61400 39.31100
H  6.25000 -0.26500 40.02200
H  7.70000 1.42400 39.51800
H  6.69400 2.57400 40.31300
H  -0.78600 2.65100 40.10400
H  -2.38400 2.53900 40.65800
H  -1.91200 1.60500 39.21300
H  -5.38800 -1.17900 41.82800
H  -4.09200 -1.15600 43.14200
H  -3.92100 -2.19800 41.71800
H  -1.48900 -5.15200 43.07300
H  -0.08500 -5.32100 45.60800
H  -3.40400 -4.71900 44.53100
H  -2.41300 -3.53300 45.46900
H  -2.29900 -5.37800 45.64200
H  1.05200 -6.83700 43.37600
H  -0.80200 -6.99000 43.33300
H  1.30200 -8.44200 44.70400
H  -0.48000 -8.61500 44.79200
H  0.23300 -7.51700 45.91200
H  6.53000 -5.40400 45.25600
H  5.26900 -6.32200 44.65000
H  5.17400 -5.65300 46.30800
H  7.07200 -1.51900 41.79900
H  10.10100 1.39300 42.30500
H  9.23800 1.70100 43.84100
H  8.43200 2.10700 42.45800
Mg 16.50300 51.97300 24.33600
C  18.37200 50.78900 27.35600
C  14.01100 52.82900 26.72000
C  14.74000 52.74000 21.85100
C  19.00900 50.58300 22.47700
N  16.20500 51.57600 26.83800
C  17.15000 51.35600 27.76400
C  16.64600 51.55200 29.17500
C  15.16900 52.09900 28.91800
C  15.12900 52.18300 27.39100
C  14.08700 51.08500 29.44200
C  17.53500 52.52200 29.94700
C  17.82300 52.26700 31.41400
H  16.91200 51.35300 32.25700
N  14.69200 52.77500 24.23800
C  13.73200 53.02600 25.29600
C  12.57400 53.61800 24.74700
C  12.73100 53.53400 23.30700
C  14.09700 52.98000 23.10500
C  11.46800 54.21400 25.58600
C  11.77600 54.01600 22.20800
O  11.97900 53.90900 20.99400
C  10.42200 54.57100 22.64900
N  16.67300 51.47100 22.41200
C  15.92200 52.02900 21.51300
C  16.36300 51.74700 20.01700
C  17.79600 51.17600 20.26700
C  17.90000 51.21300 21.79700
C  15.32600 50.84800 19.25500
C  18.95900 51.94100 19.57300
C  19.04100 51.81900 18.09100
N  18.35300 50.95900 24.79600
C  19.18400 50.40200 23.83400
C  20.41900 49.96400 24.50600
C  20.08200 50.01700 25.88100
C  18.79900 50.59400 25.99100
C  21.69700 49.45200 23.94100
C  20.58000 49.70100 27.21400
O  21.62400 49.25100 27.58200
C  19.44200 50.12700 28.21000
C  18.97700 48.96100 29.02300
O  18.21600 48.09200 28.69300
O  19.71400 48.99600 30.23800
C  19.33000 47.94200 31.15700
H  13.28600 53.16300 27.46500
H  14.18800 53.06800 20.96800
H  19.72000 50.13100 21.78300
H  16.67000 50.58100 29.67000
H  15.01800 53.10900 29.29900
H  13.54400 50.58400 28.64100
H  13.40400 51.67000 30.05800
H  14.51300 50.30500 30.07300
H  17.15200 53.54200 29.90500
H  18.49900 52.59000 29.44400
H  18.04300 53.23600 31.86200
H  18.77700 51.74500 31.48000
H  11.57100 53.99400 26.64900
H  10.46200 53.96600 25.24800
H  11.63400 55.27600 25.40700
H  10.59200 55.35200 23.39000
H  9.83300 53.75000 23.05600
H  10.10400 54.98100 21.69100
H  16.37400 52.67500 19.44500
H  17.75100 50.11300 20.03000
H  15.01700 51.24200 18.28700
H  14.41600 50.82000 19.85400
H  15.80300 49.88100 19.10100
H  19.82700 51.47000 20.03300
H  19.07500 52.97200 19.90700
H  18.00100 51.65100 17.80800
H  19.67400 50.97100 17.83000
H  19.43800 52.72700 17.63800
H  21.47100 49.26200 22.89100
H  21.91200 48.46500 24.35000
H  22.57200 50.09500 24.03700
H  19.74000 50.94400 28.86700
H  19.94800 48.03700 32.05000
H  19.55700 46.93800 30.79800
H  18.33900 48.13900 31.56600

