158

Mg 17.06200 -2.72000 29.01500
C  15.93200 -0.50200 31.54700
C  18.75600 -4.45500 31.29300
C  18.33400 -4.50300 26.44300
C  15.53600 -0.60400 26.66100
N  17.39900 -2.45100 31.21100
C  16.77200 -1.50400 32.04600
C  17.14300 -1.76800 33.55100
C  18.21000 -2.99300 33.45100
C  18.08100 -3.38800 31.93600
C  19.72300 -2.72100 33.82000
C  15.92400 -2.07800 34.43400
C  16.06700 -1.67000 35.90400
H  17.47200 -1.21800 36.45200
N  18.25800 -4.33100 28.93000
C  18.82400 -4.97600 29.96400
C  19.40100 -6.17700 29.43600
C  19.22600 -6.23100 28.04700
C  18.58200 -4.94400 27.75300
C  19.94400 -7.26800 30.33200
C  19.48500 -7.37400 27.12600
O  19.27700 -7.30900 25.92700
C  19.99300 -8.65400 27.63700
N  16.99700 -2.53400 26.83700
C  17.53500 -3.47100 26.01000
C  17.27000 -3.21800 24.55800
C  16.53200 -1.79100 24.60800
C  16.20800 -1.73000 26.12300
C  18.55600 -3.25600 23.69000
C  15.27600 -1.54700 23.66600
C  15.72500 -1.32300 22.15800
N  15.90200 -0.96500 29.01500
C  15.26200 -0.23200 28.00500
C  14.64000 0.96500 28.59800
C  14.87600 0.76100 29.91900
C  15.68400 -0.31300 30.18000
C  13.93500 2.10300 27.82300
C  14.58100 1.49500 31.14700
O  14.04800 2.57500 31.33700
C  15.13500 0.52500 32.22500
C  16.04500 1.45600 33.05400
O  17.20600 1.78700 32.80400
O  15.42200 1.80900 34.24400
C  16.13700 2.62800 35.15100
H  19.17000 -5.05900 32.10300
H  18.83000 -5.09200 25.67000
H  15.05600 0.08200 25.95900
H  17.68500 -0.89600 33.91700
H  17.82800 -3.84600 34.01200
H  19.86400 -1.74700 34.28900
H  20.37600 -2.81200 32.95200
H  19.95900 -3.44300 34.60200
H  15.72800 -3.15000 34.44500
H  15.03000 -1.52800 34.14100
H  15.80000 -2.56100 36.47300
H  15.30500 -0.91500 36.09400
H  19.13200 -7.98000 30.47600
H  20.20600 -6.90600 31.32700
H  20.90800 -7.64200 29.98700
H  19.35000 -9.11800 28.38600
H  20.99400 -8.49000 28.03600
H  20.03500 -9.29900 26.76000
H  16.51900 -3.96100 24.29200
H  17.22600 -0.98500 24.37000
H  19.40300 -2.80400 24.20600
H  18.27000 -2.52300 22.93600
H  18.76700 -4.23900 23.26900
H  14.66200 -0.69600 23.95800
H  14.65200 -2.44000 23.64200
H  15.14600 -0.47400 21.79400
H  15.50500 -2.20700 21.55900
H  16.78500 -1.07500 22.09900
H  12.87600 1.93800 28.01900
H  14.13400 1.97000 26.76000
H  14.27800 3.06700 28.19900
H  14.41800 0.20400 32.98100
H  17.20700 2.61300 34.94500
H  15.98400 2.30600 36.18100
H  15.86000 3.67500 35.02500
Mg 45.94100 24.71200 28.51600
C  46.51800 27.04100 30.99200
C  44.97100 22.55200 30.86700
C  45.84200 22.17300 26.13600
C  47.20500 26.86100 26.16700
N  45.78000 24.81300 30.76700
C  46.03900 25.86500 31.58100
C  45.75500 25.54400 33.13100
C  45.17100 24.06100 32.92400
C  45.28900 23.75600 31.41700
C  45.84100 22.96700 33.77900
C  44.75600 26.55200 33.77200
C  45.24700 27.10200 35.17700
H  44.21800 26.95200 36.31900
N  45.32200 22.67700 28.45700
C  44.90500 21.96100 29.53900
C  44.57300 20.62300 29.14700
C  44.73900 20.48900 27.74700
C  45.29100 21.81500 27.39700
C  44.16100 19.55000 30.21200
C  44.67700 19.24900 26.85200
O  45.08400 19.21000 25.70600
C  44.00700 17.96300 27.41800
N  46.50200 24.50400 26.46200
C  46.49700 23.35100 25.76300
C  47.08000 23.51300 24.27700
C  47.19600 25.06600 24.29800
C  46.93900 25.54900 25.69300
C  48.39600 22.65500 24.12700
C  46.33400 25.78100 23.23300
C  45.02300 26.56200 23.58500
N  46.82400 26.53700 28.50800
C  47.16100 27.36300 27.45500
C  47.59300 28.65400 27.96700
C  47.32900 28.52100 29.32100
C  46.86700 27.28300 29.64600
C  48.10400 29.79600 27.15700
C  47.46100 29.32300 30.56800
O  47.76800 30.51500 30.67500
C  46.94100 28.38800 31.71300
C  48.09100 28.06200 32.68600
O  48.92300 27.22400 32.41700
O  47.92500 28.66300 33.91400
C  48.79700 28.26100 35.05500
H  44.66800 21.83900 31.63600
H  45.72500 21.54800 25.24800
H  47.41200 27.50000 25.30600
H  46.70000 25.47100 33.67000
H  44.10900 24.07100 33.16900
H  46.59700 23.38900 34.44200
H  46.35400 22.11200 33.33900
H  45.02800 22.64100 34.42700
H  43.76600 26.12800 33.94400
H  44.71400 27.41800 33.11200
H  45.36900 28.16200 34.95100
H  46.20400 26.73800 35.55100
H  43.11900 19.24000 30.14000
H  44.29900 19.89200 31.23800
H  44.85400 18.72000 30.07400
H  44.64200 17.33900 28.04600
H  43.69500 17.44400 26.51100
H  43.12200 18.22900 27.99700
H  46.31500 23.21900 23.55800
H  48.23000 25.32800 24.07200
H  48.58500 22.38800 25.16700
H  49.21800 23.17300 23.63300
H  48.23300 21.78400 23.49400
H  46.11600 25.19100 22.34300
H  46.99800 26.57500 22.89400
H  44.55600 26.03000 24.41300
H  44.35500 26.41900 22.73500
H  45.19000 27.63800 23.62100
H  47.59500 29.82700 26.19400
H  49.12700 29.64500 26.81200
H  48.02700 30.75500 27.67100
H  46.21200 29.01300 32.22900
H  48.78600 27.20200 35.31400
H  48.36100 28.93600 35.79100
H  49.82700 28.61600 35.01100

