158

Mg 16.73800 -2.43100 27.75400
C  15.46800 -0.20900 30.20300
C  18.77400 -3.73100 30.16400
C  18.48800 -3.92300 25.18000
C  15.20300 -0.32500 25.39000
N  17.14200 -1.94300 29.91100
C  16.45300 -1.05400 30.68900
C  16.86100 -1.20700 32.15600
C  18.07600 -2.20100 32.05200
C  18.01500 -2.67800 30.66000
C  19.44200 -1.58300 32.34800
C  15.70100 -1.58100 33.15200
C  15.52900 -0.83400 34.55100
H  16.76800 -0.18700 35.19400
N  18.29800 -3.77900 27.62000
C  18.92400 -4.15200 28.76100
C  19.71700 -5.34900 28.42000
C  19.66000 -5.46600 27.02200
C  18.80700 -4.35500 26.51200
C  20.48800 -6.22700 29.43700
C  20.44200 -6.49300 26.08600
O  20.32200 -6.38900 24.88500
C  21.24800 -7.59800 26.64200
N  16.88000 -2.08100 25.54800
C  17.63900 -2.87600 24.77500
C  17.38000 -2.57000 23.31900
C  16.45300 -1.33300 23.36800
C  16.12600 -1.22800 24.82100
C  18.68500 -2.31900 22.53400
C  15.25700 -1.24500 22.38600
C  15.32100 -0.17700 21.38100
N  15.56600 -0.66300 27.73800
C  14.89800 -0.07900 26.73300
C  13.88700 0.87500 27.20600
C  14.09700 0.84400 28.59000
C  15.12500 -0.13200 28.85000
C  12.97500 1.64900 26.37200
C  13.73900 1.40600 29.86000
O  12.97000 2.30700 30.09100
C  14.57400 0.78000 30.97900
C  15.53000 1.81800 31.62700
O  16.58900 2.19600 31.10500
O  15.03100 2.36100 32.79100
C  15.60200 3.52800 33.31200
H  19.38100 -4.18600 30.94900
H  18.92300 -4.52100 24.37700
H  14.68200 0.27800 24.64300
H  17.38900 -0.28600 32.40100
H  18.02500 -3.10500 32.65900
H  19.78400 -1.88000 33.34000
H  19.39100 -0.49500 32.34600
H  20.32300 -1.80300 31.74600
H  15.74300 -2.61800 33.48500
H  14.77700 -1.39500 32.60400
H  15.13200 -1.57700 35.24300
H  14.72100 -0.16800 34.24800
H  19.92600 -7.15800 29.51600
H  20.55400 -5.74500 30.41200
H  21.52900 -6.39300 29.16200
H  20.73700 -8.30000 27.30100
H  22.13600 -7.24600 27.16600
H  21.42900 -8.21100 25.75900
H  16.86000 -3.46100 22.96500
H  16.95300 -0.38000 23.19400
H  19.51800 -1.98900 23.15500
H  18.48200 -1.56600 21.77300
H  18.94500 -3.26800 22.06500
H  14.22200 -1.35500 22.71100
H  15.44500 -2.11000 21.75000
H  16.27300 -0.07400 20.85900
H  15.24700 0.78500 21.88800
H  14.60800 -0.42500 20.59400
H  12.52000 1.02800 25.60100
H  13.52400 2.47600 25.92200
H  12.25000 2.08400 27.06000
H  13.84900 0.41800 31.70900
H  14.77100 4.21700 33.46200
H  16.26900 4.03500 32.61400
H  16.08600 3.25600 34.25000
Mg 9.83700 47.81600 25.98300
C  7.97600 47.77800 28.90000
C  12.40700 49.17900 27.67300
C  11.59300 47.47800 23.18100
C  6.86500 46.75000 24.27900
N  10.06000 48.55700 27.94200
C  9.23200 48.33900 29.04100
C  9.94500 48.85400 30.38300
C  11.07100 49.75200 29.75700
C  11.23700 49.08700 28.37300
C  10.82800 51.28000 29.54500
C  10.47100 47.76000 31.32600
C  10.13400 47.96000 32.85300
H  10.47300 46.79100 33.79800
N  11.74900 48.20900 25.51600
C  12.65300 48.75500 26.35700
C  13.87000 49.00600 25.60700
C  13.74000 48.36200 24.33200
C  12.27900 48.02500 24.24700
C  15.10900 49.73800 26.16900
C  14.75500 48.18200 23.24100
O  14.45700 47.63300 22.18100
C  16.16600 48.70100 23.40800
N  9.22900 47.29600 23.98100
C  10.23700 47.18200 23.02100
C  9.68500 46.65700 21.68700
C  8.24200 46.24300 22.08400
C  8.07000 46.71600 23.54200
C  9.84400 47.73900 20.52800
C  7.90100 44.75500 21.90400
C  8.74900 43.76400 22.72300
N  7.68500 47.60000 26.37900
C  6.64200 47.14400 25.59300
C  5.45800 47.08500 26.44600
C  5.95800 47.17600 27.76100
C  7.30800 47.48200 27.66600
C  4.10000 46.77600 25.99100
C  5.55300 47.13500 29.14700
O  4.47300 46.88100 29.66700
C  6.88000 47.37700 29.89100
C  7.14500 46.25500 30.80500
O  7.92800 45.37800 30.57300
O  6.46200 46.37900 31.96100
C  6.42400 45.19000 32.84000
H  13.20400 49.64300 28.25800
H  12.17800 47.17000 22.31200
H  6.10400 46.16100 23.76300
H  9.25200 49.44700 30.98000
H  11.98000 49.54900 30.32300
H  9.84000 51.63100 29.84300
H  10.91300 51.44600 28.47100
H  11.60000 51.81000 30.10200
H  11.55500 47.65600 31.35600
H  9.96700 46.88300 30.92100
H  9.05000 48.06500 32.86000
H  10.59100 48.92000 33.09500
H  15.93700 49.02900 26.12800
H  14.90600 50.02400 27.20100
H  15.34700 50.60500 25.55300
H  15.97500 49.77100 23.49100
H  16.74900 48.46000 22.51900
H  16.67900 48.34400 24.30100
H  10.33400 45.91500 21.22200
H  7.54500 46.80800 21.46500
H  10.16200 48.64600 21.04200
H  8.83900 47.91300 20.14400
H  10.59100 47.41100 19.80500
H  8.02700 44.71900 20.82200
H  6.84800 44.52600 22.06200
H  9.39600 44.41400 23.31200
H  9.31000 43.15700 22.01100
H  8.15600 43.03900 23.28100
H  4.12500 46.29300 25.01500
H  3.59000 47.73800 26.04400
H  3.81400 46.14200 26.83000
H  6.63000 48.22200 30.53200
H  6.59300 45.56900 33.84700
H  7.34900 44.61500 32.79000
H  5.49600 44.63300 32.70700

