158

Mg 16.23200 -1.02000 28.14100
C  15.17900 1.01000 30.71000
C  18.50100 -2.54700 30.42900
C  18.00700 -2.19700 25.65000
C  14.41900 0.92700 25.87500
N  16.74800 -0.72200 30.35200
C  16.06300 0.07100 31.18800
C  16.56100 -0.02800 32.63600
C  17.81800 -0.90600 32.48200
C  17.74800 -1.42400 31.01000
C  19.23100 -0.42600 32.75500
C  15.43100 -0.53700 33.69100
C  15.26900 0.03900 35.07000
H  16.42400 0.84600 35.61900
N  17.91400 -2.27200 28.07000
C  18.64200 -2.85200 29.08700
C  19.61100 -3.82600 28.57400
C  19.44400 -3.78100 27.11100
C  18.40700 -2.71000 26.89900
C  20.50300 -4.69300 29.49900
C  20.21100 -4.52600 26.02800
O  20.03900 -4.29900 24.80400
C  21.19000 -5.58900 26.40100
N  16.08700 -0.77500 26.05000
C  16.96600 -1.35100 25.18300
C  16.60600 -1.09300 23.70400
C  15.48800 -0.10700 23.86100
C  15.26300 0.00100 25.33100
C  17.80100 -0.53100 22.88000
C  14.18000 -0.48500 23.19300
C  14.00900 -0.23300 21.65200
N  14.99300 0.57700 28.24500
C  14.26500 1.24800 27.25900
C  13.54600 2.37500 27.79500
C  13.83800 2.26300 29.20100
C  14.78000 1.21000 29.40300
C  12.70300 3.33800 27.09500
C  13.61100 2.88200 30.44300
O  12.92800 3.84300 30.74900
C  14.52300 2.11400 31.53400
C  15.45000 3.15100 32.06000
O  16.30300 3.66800 31.31100
O  15.14800 3.67900 33.34100
C  16.06700 4.83800 33.66000
H  19.18900 -2.93500 31.18200
H  18.37500 -2.76800 24.79500
H  13.79500 1.51300 25.19800
H  16.90800 0.94600 32.98000
H  17.52300 -1.73300 33.12800
H  19.11800 0.64500 32.92300
H  19.77400 -0.40900 31.81000
H  19.75400 -0.92600 33.57100
H  15.54300 -1.62100 33.71600
H  14.49300 -0.26000 33.21100
H  15.11500 -0.82300 35.71900
H  14.38000 0.67000 35.08300
H  21.58300 -4.55500 29.46000
H  20.50500 -5.73500 29.18000
H  20.15200 -4.75000 30.53000
H  21.69600 -5.76600 25.45200
H  20.68100 -6.52400 26.63500
H  21.91300 -5.33800 27.17700
H  16.17800 -2.02200 23.32800
H  15.73200 0.92000 23.58900
H  18.55400 -0.08300 23.52900
H  17.46700 0.14500 22.09300
H  18.38500 -1.26800 22.32900
H  13.32500 0.07400 23.57200
H  14.02000 -1.55400 23.33600
H  14.97500 0.10100 21.27600
H  13.17800 0.46700 21.56500
H  13.75600 -1.20000 21.21600
H  13.19700 3.52300 26.14100
H  12.73300 4.29500 27.61500
H  11.73100 2.85000 27.01800
H  13.94100 1.74100 32.37700
H  15.82900 5.03600 34.70500
H  15.87100 5.72700 33.06100
H  17.09700 4.50800 33.52400
Mg 9.67600 47.47400 26.58200
C  7.60500 47.78200 29.42500
C  12.23500 48.83800 28.38800
C  11.58700 47.52300 23.76100
C  6.73500 47.22600 24.58800
N  9.90000 48.26100 28.63300
C  8.96900 48.17200 29.68700
C  9.59800 48.51900 31.00500
C  10.88800 49.29800 30.53700
C  10.99100 48.81400 29.10900
C  10.77400 50.84200 30.65400
C  10.06200 47.33500 31.92000
C  10.17200 47.55100 33.46900
H  9.74600 46.36600 34.44300
N  11.65800 47.73900 26.26800
C  12.53400 48.30300 27.12700
C  13.82800 48.27400 26.54100
C  13.65200 47.79000 25.22700
C  12.25700 47.66800 25.03000
C  15.12700 48.65900 27.22100
C  14.65000 47.36500 24.16900
O  14.38000 47.04100 23.03700
C  16.07600 47.19700 24.47400
N  9.15400 47.43000 24.41700
C  10.16500 47.32100 23.53600
C  9.61900 46.95800 22.22200
C  8.09600 46.59100 22.49700
C  7.91600 47.12200 23.92400
C  9.86700 48.04100 21.10400
C  7.75700 45.10100 22.48200
C  8.79100 44.15100 23.14300
N  7.54400 47.53300 26.81700
C  6.49900 47.38200 25.90400
C  5.25400 47.24300 26.69000
C  5.71800 47.29500 28.06000
C  7.07800 47.55300 28.11200
C  3.88000 47.04400 26.23700
C  5.28700 47.11700 29.40000
O  4.19800 46.79000 29.79500
C  6.50300 47.48500 30.38600
C  6.74100 46.30400 31.20600
O  7.08400 45.21200 30.73100
O  6.41900 46.52700 32.44400
C  6.46600 45.35900 33.32300
H  13.00900 49.40500 28.90900
H  12.16500 47.44700 22.83800
H  5.79000 47.10900 24.05300
H  8.82100 49.06000 31.54500
H  11.74800 48.97900 31.12600
H  9.83000 51.21800 31.04700
H  10.90600 51.22800 29.64300
H  11.47000 51.26300 31.37900
H  11.03900 47.06300 31.52000
H  9.49500 46.44700 31.64000
H  9.50800 48.37900 33.71700
H  11.17200 47.82500 33.80600
H  14.81100 49.01100 28.20300
H  15.58400 49.51000 26.71700
H  15.83000 47.83800 27.36100
H  16.26500 46.36000 25.14600
H  16.49200 48.17000 24.73500
H  16.49900 46.80800 23.54700
H  10.15300 46.08900 21.83600
H  7.39100 47.10300 21.84200
H  10.68500 47.64500 20.50100
H  10.24600 48.96900 21.53000
H  8.96600 48.14200 20.49900
H  7.55700 44.72900 21.47800
H  6.94100 44.84300 23.15600
H  8.21600 43.63800 23.91400
H  9.67300 44.54700 23.64700
H  9.10700 43.38800 22.43100
H  3.34800 46.56500 27.06000
H  3.88400 46.29600 25.44500
H  3.32000 47.97400 26.13700
H  6.22800 48.28300 31.07600
H  7.06900 44.55700 32.89800
H  5.44000 45.09300 33.57800
H  6.93300 45.62900 34.27100

