158

Mg -0.14500 7.90000 26.58600
C  0.62300 9.81900 29.30500
C  -0.60200 5.23500 28.71000
C  -0.84800 6.07800 23.80900
C  0.48200 10.72900 24.56200
N  -0.19900 7.66100 28.82400
C  0.18200 8.57500 29.79800
C  -0.05400 8.05500 31.19800
C  -0.35100 6.50300 31.02200
C  -0.37500 6.41200 29.43000
C  0.62500 5.48000 31.59800
C  -1.19900 8.78900 31.99500
C  -0.86400 8.93200 33.40100
H  -1.00100 7.67500 34.24200
N  -0.62200 5.90400 26.32300
C  -0.80100 4.99000 27.27900
C  -1.15400 3.76700 26.67400
C  -1.14000 3.87300 25.25400
C  -0.92300 5.35600 25.06800
C  -1.58300 2.47300 27.45600
C  -1.20500 2.88100 24.12400
O  -1.10300 3.20800 22.96300
C  -1.26800 1.37300 24.38100
N  -0.40300 8.39800 24.52700
C  -0.41000 7.41400 23.58200
C  -0.04500 7.95300 22.18900
C  -0.07700 9.46700 22.43800
C  0.01100 9.56700 23.98200
C  1.26800 7.41700 21.65500
C  -1.37300 10.14800 21.92000
C  -1.31600 11.64300 21.44900
N  0.44900 9.89000 26.82000
C  0.70600 10.90500 25.89900
C  1.20000 12.09200 26.55000
C  1.26000 11.68700 27.95100
C  0.70800 10.35100 28.04100
C  1.56100 13.39300 25.95900
C  1.60900 12.16100 29.24300
O  2.04100 13.22300 29.67900
C  1.08100 11.03300 30.18400
C  2.18800 10.72700 31.12500
O  3.05300 9.93200 30.95400
O  1.98200 11.49900 32.28500
C  2.97700 11.45200 33.31800
H  -0.78800 4.42300 29.41600
H  -0.76700 5.39900 22.95800
H  0.81500 11.46800 23.83000
H  0.91300 8.14800 31.69400
H  -1.38300 6.31400 31.32000
H  1.51400 5.89400 32.07300
H  0.95500 4.82200 30.79500
H  0.12800 4.90900 32.38300
H  -2.09800 8.21200 31.77700
H  -1.39500 9.71800 31.46100
H  -1.47600 9.70900 33.85800
H  0.15800 9.30900 33.36200
H  -2.58600 2.13300 27.19700
H  -1.63500 2.69200 28.52200
H  -0.78100 1.73700 27.39600
H  -0.55400 1.09500 25.15600
H  -1.05300 0.94200 23.40400
H  -2.29900 1.18800 24.68300
H  -0.80600 7.58200 21.50300
H  0.73800 10.06900 22.03600
H  1.77000 8.24900 21.16100
H  1.24200 6.55200 20.99200
H  1.86200 7.09000 22.50800
H  -2.09800 10.16500 22.73400
H  -1.77400 9.51800 21.12600
H  -1.55500 11.78500 20.39500
H  -0.34300 12.09400 21.64300
H  -2.04700 12.27500 21.95200
H  2.34300 13.93500 26.49200
H  0.65900 13.99300 26.08200
H  1.85700 13.25300 24.92000
H  0.20900 11.40100 30.72500
H  3.46200 12.42800 33.35300
H  3.70600 10.66700 33.11800
H  2.54500 11.18800 34.28300
Mg 26.98000 50.46700 26.11000
C  24.91200 51.53800 28.82700
C  29.30800 49.55300 28.51400
C  29.11500 49.93300 23.60200
C  24.76500 51.93300 23.94600
N  27.02400 50.52600 28.47000
C  26.08100 50.95900 29.32500
C  26.44900 50.61300 30.80100
C  27.97100 50.19800 30.65000
C  28.18700 50.16600 29.07500
C  29.04000 51.01100 31.42300
C  25.51800 49.54700 31.51600
C  24.97900 49.63000 32.97700
H  25.82300 50.23700 34.13000
N  28.89400 49.64200 26.05700
C  29.67500 49.30600 27.10400
C  30.89800 48.78000 26.56600
C  30.82400 48.92600 25.17900
C  29.61500 49.57400 24.89100
C  31.92000 48.15200 27.46800
C  31.74100 48.33000 24.08800
O  31.75300 48.74300 22.90700
C  32.92400 47.51600 24.55100
N  26.97900 50.89400 24.05100
C  27.93500 50.56700 23.19500
C  27.48000 50.75500 21.76200
C  26.00400 51.31700 21.89000
C  25.89100 51.40400 23.38200
C  28.37600 51.73400 20.95300
C  24.82000 50.52500 21.04000
C  23.86700 51.29800 20.09000
N  25.23800 51.57600 26.32600
C  24.47900 52.11600 25.32300
C  23.38100 52.85500 25.95400
C  23.52600 52.65500 27.33000
C  24.63500 51.79900 27.49400
C  22.30000 53.59900 25.22300
C  22.85200 52.87700 28.54000
O  21.81400 53.44900 28.71800
C  23.79300 52.24200 29.61400
C  24.45600 53.31900 30.39900
O  25.39200 53.98500 30.14000
O  23.79000 53.51600 31.51700
C  24.52000 54.14900 32.65400
H  30.07300 49.29500 29.24900
H  29.74000 49.63200 22.75800
H  23.97700 52.30200 23.28500
H  26.31700 51.51900 31.39200
H  28.10900 49.21000 31.09000
H  29.74000 51.44100 30.70700
H  29.64300 50.29300 31.97900
H  28.65800 51.84800 32.00700
H  25.87300 48.51600 31.52100
H  24.68100 49.39400 30.83400
H  24.92000 48.57900 33.26000
H  23.94800 49.98300 33.01300
H  31.90400 47.09600 27.19900
H  31.69200 48.21700 28.53200
H  32.92900 48.52600 27.29500
H  33.63400 47.42000 23.72900
H  32.64000 46.51800 24.88500
H  33.25800 48.14300 25.37800
H  27.36900 49.77400 21.30000
H  25.88700 52.36900 21.62900
H  29.23100 52.05500 21.54800
H  27.85800 52.63500 20.62600
H  28.68000 51.13800 20.09200
H  24.26400 49.93300 21.76800
H  25.35800 49.81000 20.41800
H  23.37900 52.21900 20.41200
H  23.08400 50.62300 19.74500
H  24.54200 51.44100 19.24700
H  21.80500 53.00800 24.45300
H  22.74100 54.54400 24.90400
H  21.50000 53.77900 25.94100
H  23.43900 51.42700 30.24500
H  24.12800 53.71000 33.57200
H  24.21900 55.19500 32.71800
H  25.60200 54.04600 32.73200

