158

Mg 0.96600 8.07600 26.32400
C  1.71700 10.28400 29.05000
C  1.24500 5.40000 28.68900
C  0.69400 5.99500 23.80600
C  1.02600 10.76200 24.26100
N  1.45100 7.88200 28.60300
C  1.62600 8.95800 29.48700
C  1.76700 8.47500 30.92100
C  1.87200 6.91100 30.75500
C  1.47900 6.70400 29.27100
C  3.30300 6.35900 30.98400
C  0.53400 8.91700 31.74900
C  0.85000 9.27900 33.24100
H  1.96100 8.60900 34.11900
N  0.90300 5.99600 26.24300
C  0.99400 5.07100 27.28800
C  0.82700 3.78400 26.77600
C  0.70700 3.88400 25.38000
C  0.82100 5.34600 25.06500
C  0.73500 2.53000 27.68500
C  0.67900 2.81700 24.31600
O  0.64500 2.99700 23.07000
C  0.74900 1.43300 24.74100
N  0.95700 8.36300 24.31100
C  0.77900 7.32800 23.47200
C  0.82300 7.81700 22.04400
C  0.53200 9.32000 22.22100
C  0.86200 9.51700 23.70400
C  2.22400 7.51400 21.38400
C  -0.91000 9.75200 22.05700
C  -1.21800 10.38600 20.75000
N  1.34400 10.17800 26.53500
C  1.33300 11.13500 25.64000
C  1.65100 12.51800 26.21800
C  1.80100 12.18200 27.58000
C  1.57200 10.77700 27.73700
C  1.64600 13.77000 25.45300
C  2.07500 12.72600 28.83600
O  2.40400 13.87500 29.10000
C  2.00000 11.53300 29.86400
C  3.30900 11.50500 30.61400
O  4.41100 11.29700 30.14400
O  3.00900 11.72500 31.90200
C  4.10800 11.99900 32.83200
H  1.39100 4.60400 29.42100
H  0.67600 5.38900 22.89800
H  0.91000 11.56700 23.53100
H  2.66100 8.97200 31.29800
H  1.05800 6.52200 31.36700
H  3.99300 7.12200 31.34700
H  3.65000 5.83100 30.09600
H  3.15500 5.61600 31.76800
H  -0.24800 8.16200 31.67400
H  0.07700 9.72400 31.17600
H  -0.03600 9.41200 33.86100
H  1.20800 10.30400 33.13800
H  -0.04100 1.79100 27.49000
H  0.59100 2.75900 28.74100
H  1.68000 1.99500 27.78200
H  1.63200 1.31500 25.36900
H  0.91100 0.81200 23.85900
H  -0.15600 1.04600 25.21000
H  -0.08500 7.38900 21.61800
H  1.16100 9.90100 21.54700
H  2.99100 7.59900 22.15400
H  2.41000 8.12600 20.50200
H  2.03000 6.47700 21.10800
H  -1.24500 10.47700 22.79800
H  -1.62300 8.93200 22.14000
H  -0.36200 10.15600 20.11600
H  -1.44600 11.43900 20.91200
H  -2.02600 9.96400 20.15300
H  0.59800 13.90200 25.18300
H  2.32900 13.75200 24.60400
H  1.97400 14.60400 26.07400
H  1.20000 11.82300 30.54400
H  4.86900 12.50100 32.23400
H  4.70000 11.18900 33.25800
H  3.81600 12.70800 33.60700
Mg -0.58000 43.62000 25.88300
C  1.82000 43.25500 28.59100
C  -3.03200 42.79700 28.20500
C  -2.66800 43.73100 23.39700
C  2.20600 43.72900 23.73600
N  -0.55400 42.96800 28.11600
C  0.47300 42.93200 28.99600
C  -0.10500 42.81000 30.44300
C  -1.58000 42.28800 30.21100
C  -1.72400 42.58900 28.70400
C  -1.81900 40.79600 30.65200
C  0.01200 44.14300 31.23600
C  0.50800 43.93800 32.69500
H  0.04800 42.68700 33.53700
N  -2.59400 43.47100 25.82400
C  -3.45900 43.15300 26.86400
C  -4.84400 43.28600 26.45900
C  -4.78500 43.57700 25.04800
C  -3.31800 43.60500 24.66500
C  -6.02800 42.85900 27.31200
C  -5.90000 43.75800 23.98500
O  -5.66200 43.99400 22.81800
C  -7.27600 43.54200 24.44000
N  -0.27900 43.76900 23.85700
C  -1.32300 43.72700 22.99000
C  -0.82400 43.85300 21.55100
C  0.68400 44.11800 21.67700
C  0.92300 43.82700 23.16700
C  -1.07000 42.56800 20.76800
C  1.27800 45.53700 21.23100
C  1.05800 46.70800 22.17600
N  1.50600 43.61400 26.07000
C  2.44000 43.64100 25.11300
C  3.79100 43.63300 25.73900
C  3.58000 43.49600 27.06400
C  2.20900 43.47500 27.24200
C  5.14300 43.64400 25.00600
C  4.31700 43.32500 28.37200
O  5.49300 43.20900 28.63300
C  3.11100 43.31500 29.41400
C  3.31600 42.08600 30.28700
O  2.84300 40.92200 30.12300
O  3.85400 42.44900 31.51100
C  3.98000 41.31300 32.34900
H  -3.78300 42.59000 28.97000
H  -3.36200 43.99900 22.59800
H  3.06700 43.63200 23.07200
H  0.48300 42.09600 31.02100
H  -2.14000 42.95400 30.86800
H  -2.47300 40.81800 31.52400
H  -0.85500 40.35000 30.89700
H  -2.22000 40.14700 29.87400
H  -0.93600 44.66400 31.10000
H  0.83300 44.70800 30.79400
H  0.26200 44.81400 33.29500
H  1.59600 44.00400 32.70000
H  -5.75300 42.43700 28.27800
H  -6.51800 42.04700 26.77300
H  -6.77800 43.64900 27.32800
H  -8.04500 43.68800 23.68000
H  -7.58100 44.22800 25.23000
H  -7.36100 42.50500 24.76300
H  -1.21300 44.76300 21.09300
H  1.25900 43.31600 21.21400
H  -0.29400 41.82000 20.92900
H  -1.19600 42.85500 19.72400
H  -1.96000 42.00400 21.05000
H  0.86300 45.82000 20.26400
H  2.36000 45.41100 21.22200
H  0.41800 46.26900 22.94100
H  0.45900 47.51300 21.75200
H  1.96900 47.15200 22.57700
H  5.04200 43.85700 23.94100
H  5.47700 42.61900 25.16400
H  5.83900 44.30700 25.52000
H  3.15700 44.23800 29.99300
H  4.70200 40.63400 31.89700
H  3.08600 40.78100 32.67500
H  4.47400 41.53200 33.29600

