158

Mg 54.10500 24.16000 44.91500
C  51.66300 26.47300 44.16300
C  52.39800 21.74900 43.17500
C  56.94200 22.18800 44.93200
C  55.93200 26.70000 46.29100
N  52.35400 24.17100 43.65300
C  51.45200 25.20100 43.60300
C  50.19300 24.80700 42.76200
C  50.34300 23.27500 42.83900
C  51.84900 23.03500 43.13500
C  49.50000 22.54100 43.96900
C  50.24000 25.36200 41.27300
C  50.87000 24.64300 40.08000
H  50.98300 25.41300 38.78700
N  54.64400 22.23400 44.28100
C  53.76100 21.42400 43.61400
C  54.30200 20.09200 43.46700
C  55.71300 20.21600 43.88400
C  55.82700 21.58900 44.42000
C  53.64900 18.99100 42.57000
C  56.78100 19.03400 43.72900
O  56.46900 17.98100 43.14600
C  58.22200 19.19100 44.25100
N  56.16900 24.39400 45.48700
C  57.09900 23.45100 45.48900
C  58.27300 23.90600 46.33400
C  57.80200 25.23600 47.01200
C  56.54700 25.51100 46.20300
C  58.72000 22.87800 47.39000
C  58.95000 26.23600 46.93700
C  58.99600 27.11200 45.67700
N  53.81500 26.22700 45.19400
C  54.68700 27.11900 45.78100
C  54.02700 28.42300 45.84700
C  52.80600 28.23800 45.22200
C  52.78800 26.88600 44.82900
C  54.51000 29.65000 46.51400
C  51.50700 28.82300 44.94800
O  51.09400 29.96000 45.25500
C  50.78000 27.69800 44.12600
C  50.44400 28.23000 42.81100
O  51.26300 28.72300 42.06600
O  49.16800 28.18800 42.45900
C  48.75700 28.68900 41.14200
H  51.78000 20.91800 42.83000
H  57.88500 21.63900 44.97600
H  56.49100 27.52100 46.74600
H  49.29200 25.02200 43.33700
H  50.18200 22.76200 41.89000
H  48.89200 23.25100 44.52900
H  50.17500 22.16800 44.73900
H  48.87700 21.78100 43.49900
H  50.89800 26.18200 41.55700
H  49.30400 25.76300 40.88300
H  50.28600 23.74000 39.90700
H  51.83000 24.22500 40.38300
H  54.15500 18.04300 42.74900
H  53.51100 19.21900 41.51300
H  52.65700 18.85800 43.00200
H  58.96600 18.42300 44.04200
H  58.08000 19.44100 45.30300
H  58.52200 20.04500 43.64300
H  59.14700 24.13200 45.72300
H  57.60100 25.19500 48.08300
H  59.80100 23.01300 47.38700
H  58.34100 21.88200 47.16200
H  58.37400 23.13900 48.39000
H  59.85500 25.64100 47.06600
H  58.87800 26.86100 47.82700
H  58.57200 26.58100 44.82500
H  60.02900 27.39400 45.47600
H  58.47200 28.05500 45.84000
H  55.59900 29.67800 46.54000
H  54.26100 29.54300 47.57000
H  54.14800 30.61100 46.14800
H  49.87900 27.53000 44.71700
H  49.52200 28.58800 40.37300
H  48.50400 29.74300 41.26200
H  47.86100 28.15700 40.82100
Mg 26.70900 50.19700 26.36800
C  24.61300 51.17500 29.02400
C  29.24500 49.71400 28.66200
C  28.67700 49.51500 23.84200
C  24.26600 51.57300 24.11300
N  26.91500 50.53600 28.58500
C  25.92800 50.81800 29.48600
C  26.39900 50.70800 30.96500
C  27.94500 50.43300 30.81500
C  28.07900 50.14500 29.28700
C  28.86300 51.53800 31.30100
C  25.72900 49.63100 31.91200
C  24.88600 50.15400 33.04000
H  24.54000 49.30000 34.26200
N  28.69300 49.73900 26.29100
C  29.53800 49.54200 27.29200
C  30.81600 49.01700 26.78600
C  30.71600 49.09300 25.36100
C  29.35200 49.47000 25.10000
C  31.91000 48.50700 27.63700
C  31.74400 48.85400 24.34500
O  31.48900 49.01400 23.22000
C  33.21700 48.58100 24.70300
N  26.53400 50.50400 24.29800
C  27.43100 49.91900 23.44600
C  26.89900 50.01700 22.04100
C  25.48800 50.65500 22.13800
C  25.40700 50.96500 23.59900
C  28.04100 50.85000 21.22200
C  24.33700 49.84800 21.52500
C  23.31600 50.62100 20.66600
N  24.85000 51.16800 26.43500
C  23.99200 51.65800 25.47300
C  22.82400 52.16600 26.10400
C  22.98600 52.02300 27.46500
C  24.26500 51.41100 27.68000
C  21.60200 52.72900 25.37200
C  22.44300 52.23600 28.81500
O  21.36800 52.74600 29.16000
C  23.49500 51.69600 29.83600
C  23.92700 52.83000 30.77500
O  24.79300 53.69900 30.47100
O  23.09200 52.84600 31.80700
C  23.34200 53.77200 32.90900
H  30.02900 49.51700 29.39600
H  29.28200 49.28300 22.96400
H  23.52700 51.98100 23.42000
H  26.33000 51.67900 31.45700
H  28.22900 49.45800 31.21100
H  28.30200 52.41100 31.63300
H  29.32400 51.91300 30.38700
H  29.52500 51.10300 32.05000
H  26.46200 48.98800 32.39900
H  25.15800 48.99300 31.23800
H  23.93900 50.32700 32.53000
H  25.10500 51.19400 33.28200
H  31.88100 47.41900 27.68400
H  31.76000 48.77000 28.68500
H  32.93600 48.78200 27.39300
H  33.30300 47.81400 25.47300
H  33.84200 49.39700 25.06400
H  33.59400 48.31100 23.71700
H  26.85700 49.01000 21.62600
H  25.64700 51.66300 21.75400
H  28.53100 50.13700 20.56000
H  28.75500 51.28500 21.92200
H  27.76700 51.77900 20.72300
H  23.94000 49.15400 22.26600
H  24.72400 49.16000 20.77300
H  22.41100 50.49200 21.26000
H  23.16300 50.29000 19.63900
H  23.53700 51.68800 20.64100
H  21.02400 51.91800 24.92900
H  21.88300 53.42300 24.58000
H  20.93800 53.12300 26.14100
H  22.90500 50.95000 30.36800
H  23.73200 54.72700 32.55800
H  24.09200 53.28300 33.53000
H  22.46800 53.98700 33.52300

