158

Mg 42.47800 41.63200 25.61900
C  41.65800 44.17900 27.92500
C  43.80500 39.85600 28.22800
C  43.20900 39.25200 23.44600
C  41.60400 43.76800 23.14300
N  42.85700 42.11900 27.88300
C  42.20400 43.06600 28.54600
C  42.14400 42.66600 30.07700
C  42.97400 41.40900 30.21300
C  43.22900 41.07700 28.68400
C  44.32700 41.51700 31.04200
C  40.74600 42.52400 30.74400
C  40.47400 43.10400 32.18100
H  41.41800 43.12300 33.34900
N  43.23000 39.76400 25.83900
C  43.68300 39.16400 26.98700
C  44.10900 37.76300 26.68400
C  43.92800 37.60200 25.33500
C  43.54500 38.91500 24.80700
C  44.68600 36.83200 27.70500
C  44.05200 36.34400 24.39600
O  43.92900 36.44700 23.20900
C  44.54600 35.08200 24.92700
N  42.40900 41.51600 23.64500
C  42.68400 40.41700 22.93000
C  42.51200 40.65500 21.36700
C  41.79500 42.01000 21.29400
C  41.89200 42.45000 22.77000
C  43.89700 40.66900 20.62400
C  40.26600 42.02800 20.76600
C  39.14200 41.48600 21.66100
N  41.96100 43.67900 25.45000
C  41.71700 44.44600 24.39700
C  41.33300 45.77500 24.79700
C  41.21200 45.68700 26.20200
C  41.61700 44.38600 26.58700
C  40.91900 46.97400 24.00700
C  40.80700 46.37000 27.43200
O  40.20100 47.43000 27.63200
C  41.08700 45.34900 28.61100
C  41.86700 46.05100 29.74500
O  43.03300 46.44000 29.59400
O  41.18700 46.09700 30.96000
C  41.99900 46.52100 32.10300
H  44.16700 39.27400 29.07800
H  43.28600 38.53500 22.62600
H  41.38900 44.28700 22.20700
H  42.72300 43.42000 30.61000
H  42.34400 40.60500 30.59600
H  44.33900 42.41300 31.66200
H  45.20200 41.54300 30.39200
H  44.40100 40.67500 31.72900
H  40.61500 41.44400 30.80900
H  39.94100 42.84500 30.08300
H  39.50800 42.61300 32.30100
H  40.23700 44.14800 31.97600
H  44.84300 37.32800 28.66300
H  45.68100 36.45800 27.46600
H  44.03600 36.01100 28.00800
H  43.83100 34.70700 25.65900
H  45.42800 35.29600 25.53000
H  44.90300 34.36700 24.18600
H  41.82600 39.91700 20.94900
H  42.38100 42.72000 20.70900
H  44.11500 41.60200 20.10400
H  43.93300 39.84900 19.90700
H  44.73700 40.52200 21.30400
H  40.25000 41.55900 19.78200
H  40.17000 43.11200 20.69700
H  39.70500 41.18300 22.54400
H  38.63000 40.65600 21.17500
H  38.31200 42.10100 22.00800
H  40.24700 47.59800 24.59700
H  40.48600 46.59000 23.08400
H  41.76000 47.63000 23.78500
H  40.12400 44.99100 28.97600
H  42.56200 47.44100 31.94800
H  42.71400 45.70900 32.23800
H  41.54900 46.47800 33.09500
Mg 9.94000 47.42300 26.76800
C  7.90100 47.47900 29.62100
C  12.33100 49.08900 28.41500
C  11.66300 47.17400 23.97000
C  6.96800 46.61900 24.86400
N  9.99500 48.27400 28.75200
C  9.21300 48.04700 29.82600
C  9.84600 48.44000 31.20400
C  11.05300 49.30100 30.61800
C  11.18900 48.81200 29.18500
C  10.84800 50.83400 30.80300
C  10.30900 47.17200 31.94800
C  9.86300 47.09100 33.38800
H  9.87300 45.81900 34.15300
N  11.77700 47.96900 26.31600
C  12.70300 48.67600 27.12100
C  13.95900 48.68800 26.45200
C  13.81600 47.94000 25.25000
C  12.34300 47.72600 25.13200
C  15.26700 49.12100 27.09100
C  14.81800 47.51900 24.17300
O  14.54600 47.02900 23.08700
C  16.24100 47.78200 24.45600
N  9.32700 47.17100 24.68700
C  10.29200 46.94100 23.77500
C  9.73100 46.44100 22.48900
C  8.17500 46.34200 22.64900
C  8.09600 46.72900 24.20100
C  10.07300 47.28600 21.20200
C  7.63000 44.98200 22.35200
C  6.11400 44.88800 21.90800
N  7.80900 47.14800 27.08300
C  6.76800 46.76500 26.27200
C  5.55900 46.60300 27.03700
C  6.00900 46.71100 28.42400
C  7.34800 47.17800 28.37500
C  4.21900 46.22200 26.47300
C  5.55100 46.64500 29.77800
O  4.42800 46.39600 30.23100
C  6.83200 47.04000 30.64100
C  7.14100 45.81600 31.48200
O  7.99700 44.99700 31.17100
O  6.36100 45.76000 32.62900
C  6.47800 44.64800 33.49900
H  13.03100 49.72200 28.96400
H  12.23700 47.09100 23.04400
H  6.06600 46.45200 24.27300
H  9.18700 49.02400 31.84600
H  12.00700 49.09500 31.10400
H  10.13700 51.20600 31.54100
H  10.66300 51.29700 29.83300
H  11.81300 51.18000 31.17200
H  11.39900 47.20800 31.92300
H  10.04900 46.27600 31.38500
H  8.80600 47.28500 33.20400
H  10.23200 47.97000 33.91600
H  15.69000 48.18000 27.44200
H  14.95500 49.77700 27.90400
H  16.03500 49.68400 26.56100
H  16.78900 47.66000 23.52200
H  16.56900 47.14900 25.28000
H  16.40300 48.81700 24.75700
H  10.16700 45.44600 22.40500
H  7.70400 47.14200 22.07700
H  10.81000 48.02300 21.52100
H  9.23400 47.82000 20.75400
H  10.59700 46.69700 20.44900
H  7.78800 44.43800 23.28300
H  8.31100 44.51200 21.64300
H  5.59500 44.47800 22.77500
H  5.98800 44.18800 21.08300
H  5.59000 45.80800 21.64700
H  3.63300 47.09400 26.18300
H  3.66500 45.77700 27.30000
H  4.36100 45.59900 25.59000
H  6.60800 47.76900 31.42000
H  7.43700 44.13300 33.43800
H  5.72100 43.87400 33.37500
H  6.45000 45.15400 34.46300

