158

Mg 55.45700 23.93000 45.02100
C  53.05200 26.42600 44.41400
C  53.39300 21.57800 43.68600
C  58.07800 21.86400 44.81700
C  57.59100 26.46000 46.18100
N  53.56200 24.09900 43.96200
C  52.69200 25.12300 43.92900
C  51.33400 24.69000 43.39000
C  51.36400 23.18700 43.69800
C  52.87400 22.87900 43.74900
C  50.70900 22.80800 45.09200
C  51.00900 25.01600 41.96100
C  49.61100 24.63400 41.48900
H  49.38600 24.52600 39.95400
N  55.71900 21.92200 44.26900
C  54.69900 21.20300 43.78700
C  55.22100 19.87300 43.52100
C  56.66300 19.91300 43.72500
C  56.91000 21.26400 44.30800
C  54.35100 18.82700 43.01600
C  57.65900 18.81600 43.45000
O  57.37200 17.68600 43.08700
C  59.14900 19.04000 43.60700
N  57.55600 24.22400 45.31700
C  58.34900 23.10500 45.36100
C  59.81600 23.44100 45.90700
C  59.66100 24.90800 46.26600
C  58.18400 25.22900 45.88700
C  60.33600 22.46200 47.08100
C  60.66000 25.96300 45.72100
C  61.75100 26.48900 46.66100
N  55.34800 26.02400 45.34200
C  56.30100 26.92400 45.84700
C  55.76500 28.28300 45.89400
C  54.44900 28.06100 45.35500
C  54.25900 26.72000 44.98100
C  56.31200 29.53900 46.32400
C  53.14800 28.78700 45.11300
O  52.87100 29.97100 45.24000
C  52.22000 27.72400 44.47800
C  51.68000 28.22500 43.15900
O  52.30500 28.48600 42.18000
O  50.34400 28.38000 43.28900
C  49.52700 28.57300 42.05600
H  52.72500 20.79300 43.32600
H  58.96100 21.22500 44.75200
H  58.26300 27.21300 46.59800
H  50.49200 25.12000 43.93300
H  50.82800 22.60400 42.94900
H  50.04900 23.58700 45.47400
H  51.44900 22.46300 45.81400
H  49.90900 22.09300 44.89900
H  51.68800 24.40300 41.36700
H  51.29000 26.03800 41.71000
H  48.99800 25.38600 41.98600
H  49.18200 23.74200 41.94600
H  55.00100 17.95300 42.96800
H  53.98800 19.02700 42.00800
H  53.49300 18.54500 43.62600
H  59.40700 19.97200 43.10300
H  59.73200 18.15100 43.36600
H  59.24300 19.20700 44.68000
H  60.35800 23.33300 44.96700
H  59.58600 25.14300 47.32800
H  60.76400 22.97100 47.94600
H  61.19000 21.95200 46.63500
H  59.55300 21.74100 47.31300
H  60.12800 26.78400 45.24000
H  61.26500 25.46600 44.96400
H  62.66600 26.42200 46.07200
H  61.70800 25.86200 47.55100
H  61.58500 27.56200 46.76000
H  56.67300 30.19600 45.53300
H  57.19800 29.28500 46.90400
H  55.57700 30.05400 46.94400
H  51.36700 27.60900 45.14700
H  48.90400 29.43800 42.28500
H  48.97200 27.63500 42.02800
H  50.13900 28.82500 41.19000
Mg -0.35700 44.12200 25.12000
C  1.42100 43.56100 28.22000
C  -3.17900 43.25200 26.71800
C  -1.66600 43.67300 22.05400
C  2.96000 44.36300 23.54600
N  -0.80500 43.39300 27.24700
C  0.02300 43.37900 28.36200
C  -0.83500 43.32900 29.64700
C  -2.20600 42.88900 29.06500
C  -2.09600 43.31500 27.56200
C  -2.69100 41.39500 29.25400
C  -0.80700 44.61100 30.59600
C  -0.49100 44.46600 32.08900
H  -0.82500 43.15200 32.82000
N  -2.16800 43.61800 24.43700
C  -3.19700 43.33000 25.29600
C  -4.41800 43.25700 24.48000
C  -4.03800 43.43100 23.14100
C  -2.57800 43.60200 23.14400
C  -5.77800 43.00000 25.20600
C  -4.81500 43.31100 21.90400
O  -4.32300 43.49400 20.83500
C  -6.29400 43.04000 22.04700
N  0.55100 43.82400 23.09200
C  -0.26500 43.79000 22.03800
C  0.49500 43.83500 20.74200
C  1.95300 44.15200 21.19900
C  1.86800 44.08100 22.71200
C  0.30300 42.54900 19.88800
C  2.52300 45.54400 20.74400
C  1.68500 46.74600 21.21000
N  1.70400 44.24100 25.71900
C  2.87700 44.46100 24.98800
C  3.99600 44.60500 25.88700
C  3.44500 44.23100 27.11200
C  2.07500 43.94400 26.98700
C  5.47100 44.83400 25.55300
C  3.85200 44.10100 28.49200
O  4.91000 44.21500 29.13800
C  2.54900 43.65100 29.28400
C  2.86800 42.41400 30.05900
O  3.04900 41.31300 29.61000
O  2.91900 42.71200 31.44600
C  3.03300 41.53600 32.41300
H  -4.15700 43.01000 27.14000
H  -2.09900 43.81400 21.06100
H  3.87400 44.57400 22.98700
H  -0.36400 42.51000 30.19100
H  -2.88600 43.60900 29.52000
H  -1.85800 40.86200 29.71200
H  -2.93600 40.82900 28.35500
H  -3.47700 41.32700 30.00600
H  -1.77900 45.09500 30.49300
H  -0.05700 45.26500 30.15200
H  -1.13500 45.25100 32.48400
H  0.52600 44.78600 32.31800
H  -6.03700 43.78900 25.91200
H  -5.55000 42.10600 25.78500
H  -6.58600 42.71800 24.53100
H  -6.46600 42.00900 22.35500
H  -6.71200 43.19400 21.05200
H  -6.80700 43.87100 22.53000
H  0.12800 44.65400 20.12300
H  2.60900 43.37000 20.81600
H  -0.04600 41.86000 20.65600
H  1.23200 42.20400 19.43200
H  -0.41500 42.72900 19.08800
H  2.33500 45.55800 19.67000
H  3.56800 45.69600 21.01200
H  1.10900 47.13000 20.36800
H  2.47200 47.45600 21.46800
H  1.02300 46.60800 22.06500
H  5.68900 44.44000 24.56100
H  6.12700 44.31700 26.25400
H  5.69300 45.90100 25.54900
H  2.32800 44.43400 30.00900
H  4.04500 41.17300 32.23500
H  2.31900 40.74200 32.19300
H  2.87900 42.00500 33.38500

