158

Mg 2.05800 -2.26100 44.28300
C  5.35900 -1.35800 43.59900
C  0.94000 0.31400 42.32600
C  -0.99400 -3.71700 44.48600
C  3.38000 -5.37900 45.55200
N  3.12700 -0.80200 42.87000
C  4.43800 -0.46100 42.99400
C  4.74800 0.85000 42.32500
C  3.26100 1.45000 42.14300
C  2.36000 0.25600 42.40200
C  3.05000 2.62300 43.15300
C  5.60600 0.66400 41.04800
C  6.89400 1.52600 40.96000
H  7.29700 2.19900 39.58800
N  0.20800 -1.69400 43.57600
C  -0.09200 -0.57500 42.78400
C  -1.52900 -0.46500 42.54000
C  -2.10200 -1.60100 43.30700
C  -0.93200 -2.37800 43.89900
C  -2.27900 0.61900 41.87700
C  -3.61500 -1.87300 43.46500
O  -4.47700 -1.21100 42.85500
C  -4.11500 -3.04000 44.26300
N  1.26500 -4.23900 45.08500
C  -0.02800 -4.56800 45.02500
C  -0.24900 -6.10100 45.18800
C  1.16600 -6.65200 45.35000
C  2.01300 -5.31200 45.35100
C  -1.39400 -6.50500 46.25700
C  1.70800 -7.61000 44.26300
C  1.06700 -8.96400 44.20000
N  3.98200 -3.12800 44.86100
C  4.30600 -4.33800 45.35500
C  5.78300 -4.31300 45.54400
C  6.23100 -3.14700 44.99000
C  5.11500 -2.51500 44.43300
C  6.61000 -5.38700 46.22400
C  7.34200 -2.31100 44.74300
O  8.53700 -2.46000 45.02600
C  6.90800 -1.25100 43.70000
C  7.34000 0.07700 44.31200
O  6.96600 0.57700 45.34700
O  8.32900 0.59600 43.54200
C  8.81200 1.92800 43.93700
H  0.45000 1.18100 41.88000
H  -1.92500 -4.28700 44.44200
H  3.82400 -6.36600 45.70100
H  5.35200 1.39000 43.05400
H  3.01800 1.86500 41.16500
H  3.95300 3.19800 43.35900
H  2.74300 2.26700 44.13600
H  2.30600 3.27000 42.68800
H  4.92900 0.94600 40.24200
H  5.82200 -0.40500 41.02100
H  7.68900 0.82100 41.20500
H  6.88300 2.29700 41.73000
H  -2.74200 0.24500 40.96400
H  -1.60200 1.42800 41.60300
H  -3.07600 0.94400 42.54600
H  -5.17400 -2.96500 44.51000
H  -3.54400 -2.88700 45.17900
H  -3.99900 -3.90700 43.61200
H  -0.57600 -6.57800 44.26400
H  1.19100 -7.20300 46.29000
H  -2.11300 -5.69000 46.34200
H  -1.00300 -6.71600 47.25200
H  -2.00700 -7.24400 45.74100
H  2.74600 -7.81500 44.52600
H  1.59200 -7.07500 43.32100
H  0.65500 -8.93600 43.19100
H  0.19400 -9.02800 44.85000
H  1.77600 -9.77000 44.38700
H  5.95000 -5.70900 47.02900
H  7.52800 -4.98800 46.65600
H  6.69200 -6.17200 45.47200
H  7.45600 -1.59300 42.82200
H  9.86800 2.02400 43.68100
H  8.66900 2.27200 44.96100
H  8.35900 2.65800 43.26700
Mg 30.50000 57.98400 40.43800
C  27.79900 55.99900 39.18500
C  32.69400 55.49800 39.28400
C  33.03400 60.15000 40.87800
C  28.19200 60.57700 40.95000
N  30.23900 55.98300 39.31600
C  29.08300 55.36200 39.09200
C  29.38200 53.92400 38.46700
C  30.87700 53.72500 38.80400
C  31.33200 55.16400 39.19100
C  31.24500 52.73400 39.85100
C  29.12700 53.80500 36.86800
C  28.08700 52.92200 36.34700
H  27.06600 53.61400 35.43100
N  32.54100 57.87000 40.08900
C  33.29200 56.76600 39.64300
C  34.76400 57.10500 39.64400
C  34.83600 58.43600 40.18100
C  33.40100 58.90600 40.35600
C  35.89300 56.18800 39.24800
C  36.16700 59.16100 40.48600
O  37.17800 58.62600 40.13900
C  36.27100 60.31100 41.34500
N  30.62500 60.09900 40.91500
C  31.78900 60.71800 41.03800
C  31.61400 62.25100 41.27400
C  30.04200 62.37200 41.27600
C  29.58700 60.93300 41.10500
C  32.31300 62.76800 42.53200
C  29.43600 63.41300 40.22900
C  29.21900 64.80200 40.71400
N  28.38700 58.28200 40.21000
C  27.59400 59.40100 40.47800
C  26.17700 59.07200 40.25400
C  26.21000 57.75600 39.75100
C  27.58700 57.35500 39.72000
C  24.92800 59.86500 40.58000
C  25.39700 56.61600 39.34000
O  24.19400 56.48200 39.34100
C  26.37300 55.44100 39.07100
C  26.14800 54.30500 40.03300
O  26.45700 54.35500 41.24500
O  25.60800 53.23800 39.42700
C  25.37800 52.09400 40.35600
H  33.46900 54.73700 39.17500
H  33.77400 60.95200 40.90600
H  27.53200 61.44000 41.05600
H  28.70100 53.23400 38.96500
H  31.45800 53.45100 37.92400
H  30.30500 52.25700 40.12700
H  31.68500 53.06200 40.79300
H  31.91600 51.94000 39.52500
H  29.99800 53.30200 36.44700
H  29.05600 54.82700 36.49500
H  27.45500 52.52900 37.14400
H  28.53200 52.04400 35.87800
H  36.69600 55.98600 39.95600
H  36.33200 56.51400 38.30500
H  35.47900 55.19900 39.05400
H  35.40400 60.24600 42.00200
H  36.31300 61.22500 40.75300
H  37.10200 60.25700 42.04800
H  31.95200 62.84400 40.42400
H  29.72500 62.69800 42.26600
H  31.53900 63.21900 43.15200
H  33.20800 63.37800 42.40900
H  32.72500 61.89500 43.03900
H  28.48900 63.03700 39.84100
H  30.06800 63.46500 39.34300
H  30.03200 65.44100 40.37100
H  29.20400 64.87500 41.80100
H  28.39200 65.30900 40.21600
H  25.23000 60.65500 41.26700
H  24.11700 59.28300 41.01800
H  24.53900 60.39800 39.71200
H  26.14200 55.05700 38.07800
H  26.17300 51.91800 41.08100
H  25.38100 51.27700 39.63400
H  24.46600 52.14000 40.95100

