158

Mg -12.32300 37.99800 41.91500
C  -10.23300 35.40700 40.83300
C  -10.28000 40.21000 40.15200
C  -14.52800 40.41600 42.50500
C  -14.24700 35.69700 43.44200
N  -10.59400 37.73800 40.58100
C  -9.88900 36.61300 40.29400
C  -8.83800 36.86100 39.19400
C  -8.71200 38.43300 39.33900
C  -10.02200 38.87000 40.03900
C  -7.44200 38.84700 40.21300
C  -9.03200 36.23500 37.76900
C  -7.78800 35.47900 37.17200
H  -6.78600 36.37600 36.30500
N  -12.34400 40.12600 41.50000
C  -11.41300 40.76800 40.81600
C  -11.84800 42.16800 40.81200
C  -13.16400 42.30400 41.44800
C  -13.39000 40.91000 41.88800
C  -11.02900 43.14800 40.16700
C  -13.94200 43.54800 41.73400
O  -13.51800 44.66000 41.44000
C  -15.30800 43.54400 42.34900
N  -14.14100 38.05400 42.69100
C  -14.89200 39.14600 42.88500
C  -16.21100 38.80500 43.72600
C  -16.12800 37.24700 43.94200
C  -14.77700 36.98500 43.29900
C  -16.19100 39.64400 44.94000
C  -17.21300 36.39200 43.26900
C  -17.91500 35.33600 44.09200
N  -12.32400 35.90600 42.06900
C  -13.07800 35.13500 42.93000
C  -12.53600 33.76800 43.09600
C  -11.32600 33.80600 42.32200
C  -11.31800 35.10200 41.67900
C  -12.99700 32.64900 43.99600
C  -10.15500 33.17500 41.81800
O  -9.73400 32.03900 42.01700
C  -9.55300 34.07800 40.65400
C  -8.03000 34.14600 40.77100
O  -7.24200 34.79600 41.46200
O  -7.57000 33.17300 39.90800
C  -6.11900 33.07600 39.83200
H  -9.58200 40.87300 39.63700
H  -15.32200 41.15000 42.65400
H  -14.81400 34.91200 43.94600
H  -7.88000 36.49500 39.56300
H  -8.67000 38.93800 38.37400
H  -6.81200 38.05200 40.61300
H  -7.82300 39.39200 41.07600
H  -6.81500 39.55200 39.66700
H  -9.26100 36.93300 36.96300
H  -9.78500 35.44900 37.81400
H  -8.14200 34.64700 36.56300
H  -7.24100 35.01200 37.99100
H  -11.66200 43.98600 39.87600
H  -10.48000 42.86700 39.26800
H  -10.29700 43.40000 40.93400
H  -15.97600 42.91200 41.76300
H  -15.66400 44.56000 42.52300
H  -15.26400 43.09400 43.34000
H  -17.09500 39.08000 43.15100
H  -16.07200 37.05700 45.01300
H  -15.13000 39.75300 45.16900
H  -16.60100 39.05900 45.76300
H  -16.73200 40.58900 44.89600
H  -16.74200 35.80900 42.47700
H  -17.88900 37.08800 42.77300
H  -17.96100 35.52200 45.16500
H  -17.61700 34.28900 44.03000
H  -18.91000 35.25700 43.65500
H  -12.36200 31.77100 43.87500
H  -14.03600 32.39800 43.78400
H  -13.11400 32.98200 45.02700
H  -9.95400 33.66500 39.72900
H  -5.69800 32.67400 40.75400
H  -5.74500 34.08400 39.65300
H  -5.87300 32.29100 39.11700
Mg -6.75400 26.00000 25.71000
C  -4.88200 27.47000 28.38900
C  -7.94000 23.72200 28.01600
C  -8.18500 24.55300 23.27800
C  -5.18800 28.38600 23.58300
N  -6.41200 25.66100 27.92400
C  -5.68900 26.41500 28.83400
C  -5.87100 26.11700 30.31600
C  -6.77100 24.79900 30.14200
C  -7.04300 24.64400 28.59600
C  -6.28800 23.51100 30.81200
C  -6.66900 27.31600 30.93600
C  -6.58300 27.47500 32.47800
H  -6.08000 26.35000 33.35800
N  -7.90100 24.37700 25.63900
C  -8.38300 23.56500 26.66900
C  -9.36000 22.66300 26.20000
C  -9.56600 22.91200 24.73900
C  -8.44800 23.98400 24.48900
C  -10.13700 21.75500 27.10300
C  -10.60800 22.55000 23.80200
O  -10.65500 22.88100 22.65400
C  -11.70900 21.69800 24.26600
N  -6.68800 26.36200 23.74000
C  -7.43200 25.62100 22.87400
C  -7.41200 26.16500 21.41600
C  -6.40000 27.37700 21.53300
C  -6.03700 27.44800 23.05300
C  -6.99600 25.08500 20.38500
C  -6.81500 28.77000 20.93900
C  -6.29100 29.33000 19.53700
N  -5.29100 27.67700 25.90400
C  -4.85900 28.57800 24.95000
C  -3.91900 29.48200 25.56000
C  -3.86800 29.10100 26.95600
C  -4.73600 27.96900 27.08300
C  -2.98100 30.43700 24.87600
C  -3.27100 29.36000 28.22300
O  -2.43600 30.20800 28.61000
C  -3.94800 28.37500 29.20000
C  -2.80600 27.58700 29.84300
O  -1.86900 27.20000 29.25400
O  -3.00800 27.47400 31.16500
C  -2.18700 26.38700 31.72300
H  -8.48800 23.18300 28.79100
H  -8.83200 24.28900 22.43900
H  -4.50800 28.81800 22.84500
H  -4.91200 25.89400 30.78500
H  -7.73700 24.97900 30.61400
H  -6.37700 22.67600 30.11700
H  -6.92500 23.38300 31.68700
H  -5.23500 23.45500 31.08600
H  -7.72300 27.16400 30.70400
H  -6.44000 28.24600 30.41700
H  -7.61700 27.65900 32.77000
H  -5.88500 28.31200 32.51700
H  -10.25100 20.77400 26.64300
H  -11.12300 22.17500 27.30200
H  -9.63200 21.55000 28.04700
H  -12.02600 22.13400 25.21300
H  -11.26500 20.70300 24.30200
H  -12.41100 21.74400 23.43300
H  -8.35400 26.60400 21.08500
H  -5.51100 27.03900 21.00100
H  -7.70400 25.08500 19.55600
H  -6.79900 24.13400 20.87900
H  -6.03800 25.38700 19.96300
H  -6.70700 29.59100 21.64800
H  -7.90400 28.77300 20.90100
H  -7.04300 29.07500 18.79000
H  -5.39500 28.77500 19.25500
H  -6.12600 30.40700 19.52900
H  -2.97300 31.40600 25.37600
H  -3.33700 30.73400 23.88900
H  -1.95900 30.07100 24.77800
H  -4.42000 28.96300 29.98700
H  -2.53900 25.46900 31.25200
H  -2.42100 26.34700 32.78700
H  -1.11800 26.59400 31.66600

