158

Mg 48.62100 45.19500 43.94100
C  45.50500 45.79700 42.49000
C  48.83000 42.09800 42.44100
C  52.05600 45.27400 44.28300
C  48.60600 48.59500 44.96000
N  47.24100 44.07400 42.69300
C  46.02600 44.53600 42.23000
C  45.39100 43.39000 41.47500
C  46.28100 42.13300 41.86100
C  47.55400 42.79700 42.37300
C  45.64200 41.32000 43.00500
C  45.31600 43.71500 39.90300
C  43.82000 43.66600 39.34500
H  43.69200 42.83800 38.07100
N  50.19800 43.79800 43.65300
C  50.04900 42.59900 42.94300
C  51.31600 41.84300 42.97300
C  52.22200 42.75500 43.55200
C  51.46400 44.03300 43.90100
C  51.46900 40.41600 42.33100
C  53.73800 42.54200 43.67200
O  54.20500 41.48100 43.24900
C  54.77000 43.49300 44.28900
N  50.16400 46.70100 44.65500
C  51.48300 46.49800 44.58800
C  52.25300 47.69300 45.08700
C  51.06200 48.59200 45.71800
C  49.86600 47.94900 45.11900
C  53.47500 47.39800 46.07100
C  51.19800 50.06500 45.28200
C  51.10300 51.08400 46.38400
N  47.30900 46.89800 43.76600
C  47.46800 48.18100 44.28300
C  46.28700 48.96500 44.01100
C  45.36900 48.02400 43.36000
C  46.12700 46.81800 43.22100
C  46.04200 50.38200 44.20000
C  44.07500 47.83400 42.78000
O  43.18200 48.57800 42.61500
C  44.09700 46.34000 42.20200
C  43.05500 45.55500 42.89000
O  43.23600 44.78900 43.84500
O  41.81400 45.67100 42.25800
C  40.78900 44.74700 42.73900
H  48.98600 41.11700 41.98700
H  53.14500 45.31700 44.33700
H  48.54200 49.61400 45.34600
H  44.37800 43.34100 41.87300
H  46.52000 41.46600 41.03300
H  45.80000 40.27200 42.75000
H  44.59000 41.54400 43.18300
H  46.07100 41.42100 44.00100
H  45.92700 42.94500 39.43100
H  45.79000 44.65100 39.60800
H  43.62600 44.70100 39.06200
H  43.15300 43.20300 40.07300
H  51.81900 40.42300 41.29900
H  50.63600 39.72700 42.46500
H  52.20900 39.84000 42.88700
H  55.61100 42.89200 44.63500
H  54.33400 43.85300 45.22100
H  54.99500 44.27700 43.56500
H  52.64900 48.22400 44.22100
H  51.06200 48.42200 46.79500
H  53.34500 46.38100 46.44200
H  53.54800 48.02800 46.95800
H  54.41800 47.62300 45.57400
H  50.57500 50.31100 44.42200
H  52.14800 50.25100 44.78200
H  51.54900 52.02700 46.06600
H  51.63500 50.77100 47.28300
H  50.06400 51.31100 46.62300
H  46.28500 50.91300 43.28000
H  46.70600 50.83600 44.93600
H  44.97900 50.46200 44.42500
H  43.86800 46.37700 41.13700
H  39.93700 45.32800 43.09300
H  41.07600 44.05500 43.53100
H  40.39900 44.19900 41.88100
Mg -5.12800 25.07400 26.30600
C  -3.59600 26.28000 29.23700
C  -7.13400 23.10400 28.31200
C  -6.23000 23.51000 23.53900
C  -2.87700 26.90700 24.41800
N  -5.35100 24.76000 28.55800
C  -4.63600 25.45300 29.54300
C  -5.17400 25.00300 30.91200
C  -6.23500 23.90000 30.56600
C  -6.25500 23.91100 29.07000
C  -5.90300 22.40200 31.07700
C  -5.82700 26.15400 31.71800
C  -5.95900 26.12700 33.23000
H  -5.19600 24.92800 33.96000
N  -6.48800 23.54700 25.96300
C  -7.28400 22.85700 26.89500
C  -8.05400 21.84000 26.22300
C  -7.77500 21.89900 24.86200
C  -6.76800 23.01800 24.71700
C  -8.93100 20.90700 26.95600
C  -8.35600 21.09400 23.76700
O  -8.15100 21.27300 22.58200
C  -9.27700 19.96900 24.15000
N  -4.61800 25.15900 24.28800
C  -5.28900 24.46800 23.28800
C  -4.62400 24.78800 21.89900
C  -3.83500 26.07500 22.25900
C  -3.73900 26.04700 23.75000
C  -3.79200 23.57700 21.36400
C  -4.50500 27.37100 21.75200
C  -3.40100 28.29500 21.07100
N  -3.64200 26.30000 26.68700
C  -2.76600 26.99000 25.83800
C  -1.82300 27.81500 26.53200
C  -2.16100 27.56400 27.85000
C  -3.21600 26.64000 27.94900
C  -0.75000 28.64200 25.72000
C  -1.78300 28.02700 29.15900
O  -0.94200 28.82600 29.51700
C  -2.71700 27.16100 30.16000
C  -1.89100 26.43200 31.15000
O  -1.23000 25.40900 30.99100
O  -1.97600 27.09900 32.35600
C  -1.27800 26.36000 33.46200
H  -7.68000 22.39600 28.94000
H  -6.44100 22.94200 22.63100
H  -2.20000 27.55800 23.86100
H  -4.30600 24.56500 31.40500
H  -7.20800 24.17000 30.97600
H  -5.26100 22.35900 31.95700
H  -5.37400 21.81600 30.32500
H  -6.82600 21.83900 31.21300
H  -6.86000 26.23200 31.37800
H  -5.34000 27.08400 31.42500
H  -6.99200 25.99200 33.55000
H  -5.62000 27.09600 33.59700
H  -8.55900 19.89000 26.83000
H  -9.94900 21.01700 26.58100
H  -8.83100 21.10800 28.02300
H  -8.76500 19.22000 24.75300
H  -9.44300 19.39400 23.23900
H  -10.26200 20.21100 24.55000
H  -5.39800 25.01900 21.16700
H  -2.82600 26.00000 21.85200
H  -2.79000 23.78200 20.98700
H  -4.27700 23.09500 20.51500
H  -3.66000 22.81400 22.13100
H  -5.00300 27.92700 22.54700
H  -5.29900 27.22300 21.02100
H  -2.79700 27.75400 20.34300
H  -2.65800 28.65900 21.78000
H  -3.87000 29.11000 20.51900
H  -0.18200 27.93200 25.12000
H  -0.02800 29.11300 26.38800
H  -1.12800 29.53200 25.21600
H  -3.25300 27.95800 30.67500
H  -0.81000 25.38700 33.31300
H  -1.87200 26.22300 34.36600
H  -0.50300 27.06400 33.76400

