158

Mg 2.02200 -1.75400 44.66800
C  5.38900 -0.98200 44.11900
C  1.15900 0.70300 42.37100
C  -1.00200 -3.17900 44.61300
C  3.25500 -4.85300 46.13600
N  3.20600 -0.29700 43.35500
C  4.57500 -0.22200 43.27900
C  4.88100 0.99100 42.27200
C  3.51500 1.64500 42.00400
C  2.57800 0.64000 42.65100
C  3.35300 3.11900 42.40500
C  5.66300 0.43200 41.05100
C  7.07500 1.02200 40.89000
H  7.58400 1.33300 39.41400
N  0.32000 -1.24300 43.71700
C  0.12700 -0.16600 42.87500
C  -1.30100 -0.06900 42.65000
C  -1.97800 -1.20800 43.33500
C  -0.87100 -1.88700 43.96100
C  -1.82600 1.08200 41.78500
C  -3.40700 -1.41400 43.39100
O  -4.21100 -0.70700 42.73900
C  -4.13200 -2.40400 44.34500
N  1.28400 -3.66800 45.38700
C  -0.03600 -3.99100 45.20500
C  -0.40300 -5.41300 45.69000
C  0.99400 -6.01600 46.06500
C  1.91700 -4.78900 45.91100
C  -1.41600 -5.50100 46.91900
C  1.37600 -7.19500 45.14100
C  2.19000 -8.43700 45.76500
N  3.90000 -2.61400 45.35200
C  4.21800 -3.84200 45.92500
C  5.58300 -3.84800 46.20400
C  6.13500 -2.71100 45.57200
C  5.02300 -2.04700 44.99000
C  6.42500 -4.88000 46.89000
C  7.35900 -2.04700 45.25500
O  8.46200 -2.34300 45.56600
C  6.86700 -0.86800 44.26100
C  7.26100 0.43400 44.98400
O  6.92000 0.76100 46.14200
O  8.05600 1.17600 44.14900
C  8.19500 2.53600 44.60900
H  0.84600 1.51600 41.71300
H  -1.95600 -3.67300 44.41600
H  3.63900 -5.78900 46.54600
H  5.52300 1.49900 42.99200
H  3.32400 1.61100 40.93200
H  3.12000 3.70800 41.51800
H  4.32900 3.38900 42.80800
H  2.57700 3.19800 43.16700
H  5.09000 0.74100 40.17700
H  5.65500 -0.65100 41.17200
H  7.71300 0.23300 41.28900
H  7.23800 1.94800 41.44100
H  -1.19800 1.46200 40.98000
H  -2.11000 1.96700 42.35600
H  -2.75500 0.87700 41.25300
H  -4.19000 -3.33000 43.77300
H  -5.07000 -1.88900 44.55300
H  -3.59600 -2.56800 45.28000
H  -0.93800 -5.87400 44.86000
H  1.07700 -6.27300 47.12100
H  -1.01000 -5.68100 47.91500
H  -2.17600 -6.26700 46.76600
H  -2.00600 -4.59200 47.03100
H  1.81900 -6.81300 44.22200
H  0.37700 -7.57700 44.92700
H  2.52200 -8.21400 46.77900
H  3.09100 -8.69300 45.20800
H  1.47100 -9.25700 45.76700
H  6.50400 -5.66500 46.13800
H  5.81700 -5.25900 47.71100
H  7.39500 -4.49200 47.20100
H  7.36600 -0.98300 43.29900
H  7.21900 3.02200 44.58600
H  8.74500 3.16400 43.90700
H  8.75500 2.69500 45.53000
Mg 24.01300 -4.88900 45.69100
C  25.88200 -2.46800 44.14900
C  21.32400 -3.71800 43.84000
C  22.35400 -7.61100 46.72700
C  26.85900 -6.02600 47.41000
N  23.67300 -3.44400 43.95800
C  24.62800 -2.50400 43.60600
C  23.92800 -1.43200 42.64100
C  22.45200 -1.62700 43.04500
C  22.43600 -3.05800 43.63900
C  21.99800 -0.59400 44.13400
C  24.30600 -1.74000 41.17200
C  24.87900 -0.64600 40.27400
H  24.95000 -0.97900 38.76200
N  22.12800 -5.57400 45.33900
C  21.11100 -4.98700 44.45500
C  19.93800 -5.83600 44.48600
C  20.27200 -6.90100 45.40100
C  21.65800 -6.74800 45.85300
C  18.69400 -5.47500 43.61600
C  19.26000 -8.01200 45.94200
O  18.10900 -8.06100 45.53600
C  19.57900 -8.90400 47.11400
N  24.55100 -6.52900 47.09100
C  23.62800 -7.52000 47.29100
C  24.29500 -8.68200 48.09700
C  25.68700 -8.10300 48.45300
C  25.75200 -6.81600 47.59900
C  23.47700 -9.23400 49.31400
C  26.83700 -9.04600 48.02300
C  28.20500 -8.99100 48.91800
N  25.97200 -4.44000 45.78000
C  27.00500 -4.89400 46.55600
C  28.17600 -4.07900 46.35500
C  27.78900 -3.15100 45.41100
C  26.41900 -3.32500 45.10800
C  29.48900 -4.20600 47.07200
C  28.25500 -1.97200 44.66500
O  29.34800 -1.49800 44.57500
C  27.02700 -1.54800 43.74600
C  26.73400 -0.13700 44.08700
O  25.90900 0.16100 44.97100
O  27.51100 0.76000 43.23700
C  27.22800 2.10000 43.46100
H  20.36900 -3.30700 43.50600
H  21.86000 -8.56400 46.92800
H  27.78600 -6.38200 47.86300
H  24.24000 -0.41300 42.87000
H  21.75900 -1.54000 42.20800
H  22.84000 -0.05500 44.57000
H  21.46400 -1.17500 44.88600
H  21.26000 -0.00700 43.58900
H  23.37100 -2.06000 40.71300
H  25.07300 -2.51100 41.23900
H  25.87400 -0.45600 40.67600
H  24.39800 0.31800 40.44100
H  18.95400 -5.14200 42.61100
H  18.14900 -4.59300 43.95100
H  18.15000 -6.41900 43.58200
H  18.61200 -9.15800 47.54800
H  20.20900 -8.42100 47.86100
H  19.98700 -9.83900 46.72900
H  24.45500 -9.47200 47.36400
H  25.88700 -7.86700 49.49800
H  23.39700 -10.29600 49.08000
H  22.44700 -8.88200 49.37100
H  23.95300 -8.94900 50.25200
H  27.01600 -8.91400 46.95600
H  26.52700 -10.07700 48.19200
H  28.47900 -9.97900 49.28800
H  28.17600 -8.22700 49.69600
H  29.04800 -8.66900 48.30600
H  30.42600 -3.94000 46.58200
H  29.56400 -5.25900 47.34200
H  29.45200 -3.76500 48.06800
H  27.22300 -1.67800 42.68200
H  27.01500 2.60400 42.51800
H  28.15400 2.59400 43.75700
H  26.48400 2.34100 44.22000

