158

Mg -1.52300 17.38500 26.93700
C  -2.18400 15.07000 29.43400
C  -1.89900 19.90800 28.98000
C  -1.17900 19.46300 24.25600
C  -1.48100 14.64600 24.59600
N  -2.02800 17.39900 28.95800
C  -2.14500 16.36400 29.88900
C  -2.23100 16.95400 31.39200
C  -2.15500 18.57300 31.18900
C  -2.07400 18.68600 29.61400
C  -3.33100 19.31900 31.94900
C  -1.16600 16.28700 32.35300
C  -0.97500 16.89200 33.74600
H  -1.03800 15.96900 35.09600
N  -1.52000 19.43800 26.65300
C  -1.80400 20.29100 27.65800
C  -1.80000 21.61200 27.14000
C  -1.59400 21.49300 25.73400
C  -1.36700 20.09800 25.51200
C  -2.05500 22.85000 27.89200
C  -1.62300 22.63100 24.66400
O  -1.55500 22.38800 23.47400
C  -1.98500 23.99500 25.05300
N  -1.44600 17.00000 24.75600
C  -1.14200 18.08100 23.98100
C  -1.04200 17.62800 22.48700
C  -0.86500 15.99700 22.64700
C  -1.28400 15.86900 24.09600
C  -2.18800 18.08900 21.56000
C  0.59500 15.56400 22.36000
C  1.80900 16.34500 22.84100
N  -1.84000 15.22700 26.95300
C  -1.75800 14.23700 25.93600
C  -1.93700 12.95900 26.52800
C  -1.99200 13.23500 27.95100
C  -2.02000 14.65100 28.11700
C  -1.89200 11.62200 25.88600
C  -2.13500 12.57300 29.19100
O  -2.18300 11.39000 29.51900
C  -2.18000 13.69400 30.23900
C  -0.87800 13.60300 30.88800
O  0.23000 14.02800 30.51200
O  -1.07100 13.08300 32.09700
C  0.12200 12.94500 32.99300
H  -2.03300 20.61800 29.79900
H  -1.07600 20.05500 23.34400
H  -1.36700 13.86000 23.84600
H  -3.21200 16.61800 31.73000
H  -1.20400 18.77800 31.68100
H  -4.02800 19.65800 31.18300
H  -2.88900 20.19900 32.41700
H  -3.89400 18.67000 32.61900
H  -0.23400 16.18700 31.79700
H  -1.51600 15.29200 32.62700
H  -1.67500 17.71300 33.90300
H  0.01200 17.35300 33.75800
H  -1.28600 23.61100 27.76500
H  -2.02600 22.64200 28.96200
H  -2.99200 23.31700 27.58900
H  -1.90600 24.57500 24.13300
H  -1.20900 24.47300 25.65000
H  -2.95100 24.05000 25.55500
H  -0.10800 18.04500 22.11000
H  -1.58000 15.45000 22.03300
H  -2.25800 19.13300 21.25300
H  -3.10500 17.65500 21.95800
H  -2.30500 17.50400 20.64800
H  0.68800 15.69100 21.28100
H  0.81100 14.51100 22.53500
H  1.55200 17.13000 23.55200
H  2.35300 16.86000 22.04900
H  2.38700 15.75000 23.54800
H  -1.44700 11.63600 24.89200
H  -2.92600 11.27700 25.91400
H  -1.26900 10.96400 26.49200
H  -2.97900 13.56500 30.96900
H  0.62900 13.88400 33.21200
H  0.93600 12.30000 32.66000
H  -0.09800 12.41700 33.92100
Mg 1.19900 42.42300 25.70800
C  1.91200 42.74100 29.15600
C  -1.99300 41.26100 26.59100
C  0.66900 41.84500 22.49300
C  4.39500 43.77400 24.97900
N  -0.01000 42.15100 27.69600
C  0.57100 42.26200 28.99400
C  -0.49500 41.92900 30.05200
C  -1.65200 41.26100 29.15700
C  -1.22300 41.55900 27.74300
C  -1.92600 39.80300 29.50000
C  -1.02900 43.24600 30.76100
C  -1.09800 43.11900 32.32500
H  -1.42600 41.80800 33.06700
N  -0.43000 41.73100 24.69300
C  -1.68300 41.27400 25.17000
C  -2.49100 40.86800 24.07900
C  -1.74200 41.10300 22.88700
C  -0.51900 41.61000 23.28600
C  -3.94900 40.58800 24.19000
C  -2.21500 40.78700 21.47700
O  -1.56700 41.10100 20.53000
C  -3.39100 39.92500 21.20800
N  2.42100 42.83400 24.00600
C  1.93900 42.37500 22.83100
C  2.98100 42.61600 21.75500
C  3.98300 43.67500 22.38300
C  3.62700 43.43700 23.90000
C  3.75700 41.40700 21.34300
C  3.69700 45.15700 21.96700
C  4.16700 45.59800 20.59700
N  2.85700 42.94400 26.78700
C  4.13300 43.44200 26.36100
C  4.96500 43.66200 27.51700
C  4.11600 43.46200 28.61400
C  2.85600 42.96100 28.13200
C  6.42200 44.25200 27.44600
C  3.96900 43.58100 30.03400
O  4.64800 44.07900 30.89100
C  2.64100 42.87800 30.42200
C  2.82600 41.58100 30.97900
O  3.38800 40.63900 30.44000
O  2.13600 41.46800 32.12600
C  2.39100 40.24000 32.86800
H  -2.92900 40.76900 26.86300
H  0.60400 41.79400 21.40400
H  5.26900 44.40700 24.81500
H  -0.01000 41.32200 30.81600
H  -2.57400 41.77400 29.43000
H  -1.76500 39.14700 28.64400
H  -2.92300 39.58500 29.88100
H  -1.21200 39.45100 30.24500
H  -2.08500 43.41200 30.54500
H  -0.50300 44.14300 30.43400
H  -1.78600 43.83700 32.77200
H  -0.08000 43.38300 32.61000
H  -4.34600 40.75700 25.19100
H  -4.13800 39.55900 23.88500
H  -4.44300 41.27300 23.50100
H  -3.31600 39.55500 20.18600
H  -4.28300 40.50100 21.45300
H  -3.37400 39.05600 21.86600
H  2.44100 42.97800 20.88000
H  5.04100 43.43700 22.27600
H  3.73500 40.73500 22.20200
H  4.73400 41.63100 20.91600
H  3.21900 40.98500 20.49400
H  4.28500 45.82700 22.59300
H  2.63100 45.37500 22.04100
H  3.26600 45.66500 19.98700
H  4.93200 45.01000 20.09000
H  4.56400 46.60400 20.73600
H  7.11000 43.61400 27.99900
H  6.43800 45.29400 27.76600
H  6.77200 44.11800 26.42300
H  2.12200 43.55400 31.10100
H  1.69000 39.43400 32.65100
H  2.28500 40.45300 33.93200
H  3.42500 39.89900 32.82300

