158

Mg 42.16500 41.43500 27.03700
C  41.44600 43.73800 29.53200
C  43.01600 39.14200 29.54000
C  43.42800 39.42100 24.59800
C  41.92500 44.08200 24.66800
N  42.16200 41.43800 29.21200
C  41.68600 42.40200 29.96600
C  41.54600 41.96700 31.49400
C  42.23800 40.59300 31.46400
C  42.51200 40.34300 29.99500
C  43.52300 40.40500 32.35000
C  40.07700 41.99200 32.02100
C  39.72100 43.15300 32.98100
H  38.90200 42.75400 34.26100
N  42.95100 39.43800 27.05300
C  43.18100 38.63900 28.16300
C  43.51900 37.28100 27.69900
C  43.49500 37.34300 26.26400
C  43.25600 38.76500 25.93900
C  43.76600 36.16700 28.65100
C  43.67300 36.21900 25.24500
O  43.70000 36.35200 24.01900
C  43.73600 34.70500 25.72000
N  42.76100 41.72900 25.02900
C  43.20300 40.76400 24.21500
C  43.56800 41.29200 22.82800
C  42.57200 42.49100 22.84100
C  42.39800 42.83200 24.27000
C  45.03300 41.63200 22.49400
C  41.22000 42.18600 22.13900
C  40.36200 40.95000 22.54400
N  41.81900 43.52800 27.05200
C  41.68100 44.42100 26.02000
C  41.41800 45.68600 26.60600
C  41.36700 45.50900 27.98600
C  41.57600 44.15900 28.20400
C  41.18400 46.93100 25.89700
C  41.17300 46.15500 29.23900
O  40.97700 47.31900 29.60700
C  41.11500 45.00200 30.25500
C  42.05000 45.47700 31.30100
O  43.25600 45.54400 31.07500
O  41.48500 45.90100 32.47300
C  42.47800 46.45500 33.45200
H  43.27400 38.45600 30.34800
H  43.88200 38.78900 23.83200
H  41.72500 44.86400 23.93100
H  42.24400 42.66900 31.95100
H  41.52600 39.83500 31.79000
H  44.10900 39.60000 31.90500
H  43.16800 40.22300 33.36400
H  44.14100 41.29800 32.44800
H  39.83100 41.11100 32.61400
H  39.34800 42.00500 31.21100
H  39.01900 43.94400 32.71700
H  40.64000 43.58900 33.37300
H  44.58800 35.56100 28.27000
H  42.87500 35.54100 28.64400
H  44.01000 36.52400 29.65200
H  44.67600 34.59800 26.26100
H  43.71800 34.04000 24.85600
H  42.91600 34.46900 26.39800
H  43.14400 40.63900 22.06500
H  43.03800 43.34100 22.34300
H  45.31700 42.64400 22.78300
H  45.12100 41.48700 21.41700
H  45.78400 40.95700 22.90400
H  41.54100 42.08800 21.10200
H  40.59200 43.07400 22.21300
H  40.29900 40.29100 21.67800
H  39.45700 41.44800 22.88900
H  40.87700 40.47200 23.37800
H  40.14600 47.26300 25.92800
H  41.54000 46.81100 24.87300
H  41.74700 47.77100 26.30200
H  40.12700 44.92500 30.71000
H  43.37800 46.88000 33.00800
H  42.69300 45.65400 34.16000
H  42.08700 47.29800 34.02100
Mg 10.05000 47.62700 26.28300
C  8.22300 47.76000 29.21500
C  12.81800 48.96900 27.92200
C  11.66900 47.25000 23.50600
C  7.08200 46.38500 24.77100
N  10.46600 48.35500 28.28700
C  9.57600 48.21100 29.40300
C  10.34100 48.70900 30.64200
C  11.57700 49.49800 30.08400
C  11.67500 48.88000 28.67300
C  11.43300 51.05700 30.00800
C  10.63900 47.55600 31.68100
C  9.88500 47.64300 33.03900
H  9.95400 46.41400 33.90000
N  12.00100 48.11400 25.75200
C  13.01300 48.58400 26.52800
C  14.17000 48.67600 25.72100
C  13.83500 48.28400 24.42100
C  12.44600 47.81100 24.51200
C  15.55800 49.15200 26.24900
C  14.56000 48.35400 23.13200
O  13.96500 48.17600 22.08800
C  15.96500 48.77400 23.03100
N  9.49200 47.06000 24.44900
C  10.34600 46.85600 23.44500
C  9.74800 46.16100 22.15100
C  8.30000 45.95600 22.56700
C  8.26500 46.49700 24.03200
C  9.96900 47.01700 20.85300
C  7.86000 44.43700 22.47200
C  8.55500 43.63600 23.63700
N  7.94900 47.26800 26.81500
C  6.86400 46.80100 26.07900
C  5.72200 46.86400 26.89800
C  6.20200 47.24200 28.20300
C  7.56900 47.35700 28.07400
C  4.34400 46.50700 26.51400
C  5.83400 47.54800 29.57200
O  4.71400 47.56300 30.13100
C  7.25900 47.72900 30.29500
C  7.32800 46.45700 31.14600
O  7.89900 45.43200 30.86700
O  6.49400 46.71100 32.23500
C  6.35000 45.65800 33.25400
H  13.73700 49.24600 28.44200
H  12.17300 47.03300 22.56200
H  6.27100 45.86000 24.26200
H  9.62900 49.42400 31.05500
H  12.46900 49.26600 30.66600
H  10.56900 51.33300 30.61300
H  11.32400 51.38500 28.97400
H  12.24800 51.57600 30.51200
H  11.70500 47.63400 31.89400
H  10.34500 46.54800 31.38900
H  8.82700 47.86800 32.90500
H  10.39000 48.50600 33.47300
H  16.28000 48.40000 25.93200
H  15.48600 49.29300 27.32700
H  15.87600 49.99900 25.64100
H  16.02200 49.78500 23.43600
H  16.26100 48.73400 21.98300
H  16.46400 47.95500 23.54900
H  10.33200 45.25700 21.97800
H  7.57400 46.48200 21.94700
H  10.71100 46.53500 20.21700
H  10.28900 48.01000 21.16700
H  9.01700 47.12100 20.33200
H  8.11800 44.11100 21.46400
H  6.78100 44.31900 22.56800
H  7.82100 43.38700 24.40300
H  9.42800 43.95100 24.20900
H  8.85600 42.71600 23.13600
H  4.27300 45.45500 26.23700
H  4.13500 47.09600 25.62100
H  3.69700 46.75100 27.35700
H  7.15500 48.69600 30.78600
H  6.36400 46.17600 34.21300
H  7.13600 44.90300 33.22800
H  5.37300 45.22000 33.04700

