158

Mg 40.28200 9.71300 29.44400
C  42.17600 10.48400 32.08900
C  37.90100 8.27000 31.67400
C  38.24500 8.62000 26.80300
C  42.78400 10.38900 27.19200
N  40.05800 9.40500 31.67500
C  40.91200 10.08800 32.50200
C  40.39600 9.86000 33.89500
C  39.03100 9.13100 33.81400
C  39.01700 8.79100 32.31000
C  38.79900 8.00500 34.83400
C  40.36700 11.19900 34.74100
C  41.36100 11.37000 35.86400
H  40.87600 11.87100 37.22400
N  38.31000 8.65400 29.24400
C  37.58000 8.15800 30.30000
C  36.33400 7.71500 29.75000
C  36.41100 7.74600 28.35300
C  37.73100 8.39000 28.04700
C  35.29700 7.18400 30.65100
C  35.43700 7.19200 27.36500
O  35.66900 7.16600 26.12700
C  34.06400 6.73000 27.83500
N  40.51000 9.53000 27.21900
C  39.50100 9.06600 26.41000
C  39.94100 9.14200 24.90100
C  41.40500 9.68900 25.00900
C  41.62000 9.85100 26.55400
C  39.75000 7.68300 24.29600
C  41.63100 11.08000 24.32400
C  41.23500 12.30200 25.20400
N  42.08400 10.40600 29.57000
C  43.04400 10.59900 28.58400
C  44.28900 11.07100 29.22400
C  43.94900 11.09300 30.58300
C  42.63100 10.59200 30.72500
C  45.57500 11.29400 28.53200
C  44.48300 11.41400 31.89200
O  45.56400 11.93300 32.13700
C  43.29600 11.05100 32.94000
C  43.94600 10.07200 33.90500
O  43.86200 8.87300 33.77200
O  44.55000 10.72000 34.96300
C  44.98100 9.78800 35.96100
H  37.02800 8.11300 32.31100
H  37.66600 8.24300 25.95700
H  43.72900 10.32100 26.64900
H  41.14200 9.16400 34.27900
H  38.25100 9.81200 34.15400
H  37.91200 8.34100 35.37100
H  39.64100 8.03900 35.52500
H  38.76400 7.00700 34.39600
H  39.40900 11.35700 35.23700
H  40.55600 12.03800 34.07100
H  42.07600 12.12800 35.54500
H  41.85500 10.42100 36.07600
H  35.18800 6.10200 30.58500
H  34.29900 7.60900 30.55000
H  35.57100 7.18800 31.70700
H  33.98900 5.69600 28.16900
H  33.32000 6.81000 27.04300
H  33.68800 7.45900 28.55300
H  39.29800 9.80300 24.31900
H  42.14700 9.00800 24.59500
H  39.57100 6.91900 25.05300
H  40.66600 7.27500 23.86800
H  39.04700 7.65700 23.46400
H  41.06100 11.19000 23.40100
H  42.69100 11.09000 24.07100
H  40.33300 12.11800 25.78800
H  40.98300 13.09400 24.49900
H  42.10500 12.57400 25.80300
H  45.78900 10.49700 27.81900
H  46.44400 11.53700 29.14300
H  45.43300 12.23200 27.99500
H  42.93900 11.92100 33.49100
H  45.67400 10.31200 36.62000
H  45.35400 8.79900 35.69700
H  44.09600 9.58600 36.56500
Mg 17.46200 50.58000 26.28300
C  19.11900 49.33400 29.17900
C  14.99000 51.56100 28.39600
C  15.95600 51.48600 23.63300
C  19.96700 48.97600 24.39300
N  17.07100 50.46300 28.60900
C  17.98300 50.00600 29.55500
C  17.52400 50.27600 30.95200
C  16.06900 50.70100 30.71600
C  15.99300 50.93500 29.20300
C  15.01400 49.74000 31.24800
C  18.48100 51.27100 31.61300
C  18.86900 51.13900 33.06000
H  17.79200 50.47900 33.99100
N  15.77600 51.49400 25.99800
C  14.87300 51.81000 27.01100
C  13.74600 52.48400 26.39200
C  14.05400 52.56600 24.95400
C  15.25400 51.82900 24.80100
C  12.56400 52.96300 27.15600
C  13.21700 53.17900 23.80500
O  13.61100 53.12800 22.61900
C  11.92100 53.83000 24.06400
N  17.90300 50.24500 24.24100
C  17.04800 50.67500 23.26500
C  17.57200 50.34400 21.85300
C  18.95800 49.60400 22.19400
C  18.94700 49.57300 23.68900
C  16.69700 49.33500 21.11900
C  20.16100 50.31300 21.52400
C  20.68300 51.58800 22.18200
N  19.24700 49.42200 26.65100
C  20.10000 48.88500 25.76100
C  21.27000 48.31900 26.54500
C  20.91400 48.50700 27.89300
C  19.67200 49.14000 27.85100
C  22.45900 47.72200 25.91500
C  21.30600 48.21200 29.27000
O  22.32900 47.73500 29.68800
C  20.27100 48.73400 30.12300
C  19.81200 47.58300 30.95400
O  18.97900 46.78700 30.61300
O  20.38500 47.65700 32.21500
C  19.88900 46.77400 33.32800
H  14.24000 51.95300 29.08600
H  15.43600 51.76700 22.71500
H  20.66200 48.44700 23.73700
H  17.61500 49.40100 31.59600
H  15.86800 51.67400 31.16400
H  15.37900 48.87000 31.79400
H  14.43300 49.42100 30.38300
H  14.49100 50.39900 31.94000
H  18.04300 52.26400 31.51600
H  19.43800 51.27000 31.09200
H  19.16100 52.05900 33.56500
H  19.71800 50.45700 33.09200
H  12.44700 52.39800 28.08100
H  11.72500 52.67400 26.52400
H  12.57400 54.03900 27.33000
H  12.00200 54.67600 24.74600
H  11.20700 53.08100 24.40700
H  11.38300 54.17800 23.18300
H  17.70800 51.29700 21.34200
H  18.98500 48.59100 21.79400
H  16.39800 48.67000 21.92900
H  17.13600 48.66100 20.38400
H  15.84800 49.88400 20.71100
H  19.92300 50.44200 20.46800
H  20.97700 49.60800 21.36900
H  19.88300 52.03400 22.77200
H  21.00100 52.32100 21.44000
H  21.55000 51.35500 22.80000
H  22.68900 48.21100 24.96700
H  22.34900 46.66500 25.67400
H  23.30500 47.79700 26.59700
H  20.69900 49.47600 30.79700
H  19.68900 47.50000 34.11700
H  20.68900 46.09700 33.62800
H  18.97000 46.26300 33.04200

