158

Mg 0.89500 8.06500 25.44100
C  1.87000 9.89800 28.25000
C  1.15000 5.31000 27.36500
C  0.58600 6.23300 22.56500
C  1.08300 10.89000 23.50200
N  1.57900 7.62000 27.54900
C  1.66900 8.57100 28.50200
C  1.79300 7.90600 29.91700
C  1.67200 6.34800 29.67500
C  1.40600 6.41000 28.12300
C  2.88100 5.49500 30.00800
C  0.73300 8.40800 30.90100
C  1.19900 8.35000 32.36400
H  2.40000 7.33900 32.85600
N  0.88500 6.01400 25.05000
C  0.92500 5.01400 25.98700
C  0.82200 3.76900 25.36000
C  0.62600 4.00500 23.94800
C  0.68200 5.48100 23.75000
C  0.88800 2.51500 26.21300
C  0.47300 2.98000 22.75700
O  0.29100 3.33300 21.58600
C  0.58500 1.50000 22.97700
N  0.75300 8.52200 23.38400
C  0.57400 7.58200 22.39300
C  0.51800 8.26400 21.04400
C  0.23500 9.74200 21.37900
C  0.71200 9.69500 22.76600
C  1.91300 8.05000 20.32100
C  -1.30900 10.09300 21.29100
C  -1.66200 11.28500 20.28500
N  1.43100 10.02500 25.73500
C  1.46000 11.08200 24.83400
C  1.83400 12.30400 25.60300
C  2.06800 11.91100 26.97500
C  1.79600 10.48500 26.97000
C  1.95600 13.68900 24.97400
C  2.34200 12.40000 28.31100
O  2.53000 13.55800 28.69100
C  2.18700 11.10700 29.21800
C  3.36300 11.03300 30.16000
O  4.40800 10.41800 29.98400
O  3.09000 11.79200 31.36100
C  4.14800 11.86800 32.35100
H  1.03700 4.42000 27.98700
H  0.55500 5.59400 21.68000
H  1.02300 11.84500 22.97400
H  2.80700 8.10100 30.26600
H  0.74200 5.95400 30.08500
H  3.49800 5.98600 30.76000
H  3.50800 5.24400 29.15200
H  2.52100 4.58900 30.49400
H  -0.05600 7.65800 30.85500
H  0.38600 9.37400 30.53100
H  0.34500 8.38300 33.04100
H  1.54200 9.38100 32.45900
H  1.23100 1.74300 25.52400
H  0.00600 2.19900 26.77100
H  1.53200 2.44700 27.08900
H  1.52400 1.19900 23.44100
H  0.52700 0.99700 22.01200
H  -0.24000 1.10500 23.56900
H  -0.20400 7.72300 20.43200
H  0.90800 10.38100 20.80700
H  2.66500 7.82200 21.07700
H  2.20300 9.01700 19.91000
H  1.92400 7.23800 19.59300
H  -1.80900 10.19500 22.25500
H  -1.78700 9.24200 20.80600
H  -0.77200 11.66400 19.78200
H  -2.05300 12.21700 20.69200
H  -2.41700 10.95600 19.57000
H  1.40500 13.71800 24.03400
H  2.97500 13.93400 24.67800
H  1.62200 14.47100 25.65700
H  1.30900 11.44400 29.77000
H  4.60600 10.88700 32.47200
H  3.65400 12.22900 33.25300
H  4.97500 12.49100 32.00900
Mg 43.56300 4.29500 47.44400
C  41.32400 7.02100 47.08800
C  40.70800 2.27900 47.35700
C  45.52000 1.50400 47.22400
C  46.22700 6.34800 47.08200
N  41.31400 4.67100 47.28900
C  40.61700 5.85800 47.18400
C  39.05900 5.71300 47.32100
C  38.94500 4.22000 47.70600
C  40.39300 3.64800 47.45000
C  38.21200 3.83700 49.08500
C  38.21100 6.09700 46.04700
C  38.77700 5.62900 44.67300
H  39.14900 6.63100 43.55100
N  43.14200 2.17200 47.41700
C  41.93400 1.60100 47.23200
C  42.11200 0.19400 47.05500
C  43.50100 -0.14300 47.22800
C  44.10700 1.18000 47.24200
C  40.99900 -0.76700 46.84300
C  44.15500 -1.57900 47.32300
O  43.46500 -2.55800 47.31100
C  45.62600 -1.74900 47.48100
N  45.60700 3.94300 47.22200
C  46.19700 2.75300 47.23900
C  47.74600 2.81300 47.31700
C  47.91800 4.37200 47.24000
C  46.50300 4.95000 47.12300
C  48.41300 2.00100 48.48400
C  48.83200 4.94100 46.12900
C  50.12900 5.40400 46.63100
N  43.78100 6.31600 47.19000
C  44.92900 7.09600 47.09400
C  44.61600 8.52400 47.00400
C  43.25100 8.56100 47.05200
C  42.73900 7.19600 47.15400
C  45.61100 9.64300 46.84700
C  42.10400 9.49000 46.96500
O  42.04000 10.70400 47.03400
C  40.78100 8.50000 47.01900
C  40.00400 8.73500 48.21000
O  40.46000 8.60700 49.34400
O  38.70300 9.13400 47.84000
C  37.88900 9.57300 49.01600
H  39.82500 1.64400 47.44700
H  46.23800 0.69700 47.06200
H  47.06500 7.04300 46.99400
H  38.77700 6.36900 48.14400
H  38.34500 3.60900 47.03100
H  37.57000 4.70500 49.23300
H  38.90600 3.57900 49.88500
H  37.64600 2.91000 48.99500
H  38.19500 7.18600 46.02400
H  37.19400 5.77500 46.27200
H  38.00200 4.99400 44.24400
H  39.60600 4.93800 44.82500
H  40.74100 -1.24100 47.79000
H  41.38400 -1.61300 46.27300
H  40.21600 -0.22000 46.31700
H  46.06300 -1.09300 48.23300
H  46.00200 -1.70700 46.45800
H  45.75700 -2.78200 47.80400
H  48.13500 2.44200 46.36900
H  48.15700 4.77600 48.22400
H  47.84500 1.08300 48.63500
H  48.50900 2.55700 49.41700
H  49.35800 1.60700 48.10900
H  48.32400 5.78900 45.66900
H  49.03600 4.21100 45.34500
H  50.87800 5.53500 45.85000
H  50.62100 4.78900 47.38400
H  49.86400 6.39700 46.99500
H  46.50700 9.30800 46.32400
H  45.95200 10.13300 47.75900
H  45.23600 10.39400 46.15100
H  40.17400 8.74800 46.14800
H  38.41000 10.47600 49.33500
H  37.78700 8.93900 49.89700
H  36.87900 9.72800 48.63800

