158

Mg 24.37400 -5.60100 46.14700
C  26.56800 -3.27900 44.68600
C  21.96000 -4.48000 44.23800
C  22.89600 -8.42000 47.03400
C  27.35400 -6.84200 47.88900
N  24.38700 -4.25500 44.27800
C  25.37600 -3.32900 43.95700
C  24.76900 -2.28700 42.97600
C  23.27800 -2.50500 43.05000
C  23.18600 -3.83100 43.91800
C  22.37000 -1.42100 43.55600
C  25.39600 -2.42100 41.54800
C  25.38700 -1.13400 40.62900
H  24.39800 -1.14600 39.48000
N  22.68200 -6.26100 45.82700
C  21.76300 -5.68400 45.01500
C  20.57600 -6.57800 45.02200
C  20.78200 -7.70800 45.82300
C  22.18700 -7.54800 46.26900
C  19.30700 -6.10800 44.24300
C  19.81000 -8.75200 46.07300
O  18.70600 -8.64400 45.54100
C  20.07800 -9.94900 46.81300
N  25.07000 -7.36700 47.28800
C  24.19100 -8.39300 47.53700
C  24.88300 -9.58300 48.21900
C  26.11600 -8.89300 48.81600
C  26.25400 -7.67700 47.83300
C  23.97200 -10.28800 49.29100
C  27.39200 -9.73000 48.83700
C  28.31500 -9.56900 50.10000
N  26.57900 -5.08100 46.39000
C  27.58900 -5.65200 47.13300
C  28.77500 -4.86900 47.08100
C  28.39600 -3.83200 46.14200
C  27.05500 -4.09200 45.70600
C  30.02100 -5.26000 47.75200
C  28.89100 -2.78700 45.36100
O  30.02600 -2.34400 45.26900
C  27.77300 -2.41900 44.36900
C  27.43200 -0.99800 44.35400
O  26.71100 -0.43900 45.14900
O  27.95400 -0.33300 43.30300
C  27.65100 1.09700 43.21200
H  21.09900 -4.07500 43.70300
H  22.39400 -9.34100 47.33800
H  28.16300 -7.32600 48.44100
H  25.09800 -1.32800 43.37600
H  22.90700 -2.73500 42.05100
H  23.06400 -0.88800 44.20600
H  21.53700 -1.76400 44.17000
H  22.05300 -0.77500 42.73700
H  24.78700 -3.15500 41.02000
H  26.38600 -2.86400 41.65500
H  26.38700 -0.95200 40.23500
H  25.14500 -0.22900 41.18500
H  19.12000 -6.71100 43.35400
H  19.46800 -5.12000 43.81200
H  18.35600 -5.96300 44.75700
H  19.17800 -10.42900 47.19800
H  20.54600 -9.64900 47.75100
H  20.60700 -10.76000 46.31200
H  25.17200 -10.29400 47.44500
H  25.95700 -8.50000 49.82000
H  23.85000 -11.35300 49.09300
H  22.99500 -9.81200 49.37500
H  24.50800 -10.28100 50.24000
H  27.92300 -9.39100 47.94700
H  27.12000 -10.78300 48.76400
H  27.72300 -9.41400 51.00300
H  29.02400 -8.75900 49.93100
H  28.81400 -10.52300 50.27300
H  30.15800 -4.78700 48.72500
H  30.83800 -4.93100 47.10900
H  30.07700 -6.32900 47.95500
H  28.24000 -2.65200 43.41100
H  26.82600 1.20700 42.50700
H  28.50400 1.60800 42.76400
H  27.51900 1.60300 44.16800
Mg -11.88800 38.57800 42.26000
C  -9.92000 35.84100 41.33000
C  -9.71900 40.57700 40.15900
C  -13.89000 41.16000 42.62600
C  -14.33900 36.43300 43.31500
N  -10.14500 38.23800 40.91100
C  -9.39900 36.98400 40.81900
C  -8.20800 37.15200 39.82700
C  -8.15800 38.71500 39.53900
C  -9.40300 39.22600 40.25500
C  -6.91000 39.57900 39.92300
C  -8.20000 36.17100 38.52200
C  -6.94600 35.27500 38.32200
H  -6.16000 35.22200 37.08100
N  -11.72400 40.68000 41.63200
C  -10.70300 41.28000 40.82800
C  -11.03000 42.70200 40.80100
C  -12.27800 42.93700 41.46200
C  -12.70700 41.57700 42.00200
C  -10.22900 43.67800 40.09600
C  -12.89700 44.36400 41.65000
O  -12.47900 45.39800 41.01600
C  -14.08600 44.57000 42.53200
N  -13.85100 38.79600 42.79500
C  -14.48300 39.94000 42.90900
C  -15.94300 39.80100 43.39900
C  -16.14000 38.30000 43.40200
C  -14.67600 37.79500 43.20300
C  -16.28300 40.59300 44.61200
C  -17.03000 37.85800 42.09500
C  -17.89000 36.69700 42.19200
N  -12.07800 36.52800 42.48900
C  -13.02800 35.76200 43.08700
C  -12.62200 34.43300 43.24500
C  -11.36500 34.35300 42.55700
C  -11.07100 35.68500 42.12400
C  -13.47500 33.34800 43.87000
C  -10.26100 33.49800 42.09500
O  -10.07500 32.28600 42.29600
C  -9.25300 34.40800 41.37300
C  -7.89000 34.27300 42.05200
O  -7.30700 33.21400 42.19500
O  -7.36200 35.45400 42.44200
C  -6.06000 35.55500 43.14600
H  -9.08400 41.24400 39.57200
H  -14.65300 41.93100 42.75500
H  -15.14200 35.82000 43.73000
H  -7.26600 36.92500 40.32600
H  -8.35200 38.91800 38.48600
H  -6.15100 38.89700 40.30600
H  -7.06000 40.36000 40.66900
H  -6.50900 40.03900 39.01900
H  -8.47200 36.79700 37.67200
H  -8.99600 35.44300 38.67800
H  -7.12200 34.28400 38.74000
H  -6.13600 35.67200 38.93500
H  -9.21400 43.31800 39.92600
H  -10.12600 44.49700 40.80700
H  -10.71000 44.02600 39.18200
H  -13.89900 44.20800 43.54300
H  -14.97200 44.06500 42.14900
H  -14.25500 45.63800 42.66900
H  -16.50600 40.28900 42.60300
H  -16.63200 37.97000 44.31700
H  -17.20000 41.17900 44.55000
H  -15.48000 41.32100 44.73400
H  -16.39600 40.06000 45.55600
H  -16.32100 37.63100 41.29900
H  -17.66000 38.68100 41.75800
H  -17.77200 36.04600 41.32600
H  -18.92800 37.01200 42.29800
H  -17.70600 36.16600 43.12700
H  -13.26600 33.50000 44.92900
H  -13.16900 32.31000 43.74000
H  -14.52600 33.56900 43.68200
H  -9.13500 33.93700 40.39800
H  -5.41600 36.28500 42.65600
H  -5.50900 34.63200 43.32900
H  -6.14700 36.10600 44.08200

