158

Mg 35.31100 3.07000 30.43800
C  33.11700 3.88900 33.05600
C  37.76200 2.90300 32.88400
C  37.44900 2.14500 27.97600
C  32.80000 3.27000 28.14200
N  35.42600 3.46700 32.74200
C  34.35000 3.65900 33.55300
C  34.78400 3.59400 35.03000
C  36.35200 3.47200 34.97300
C  36.51200 3.21900 33.46400
C  36.97800 4.75800 35.55500
C  34.21400 2.39800 35.78800
C  33.77500 2.63200 37.26100
H  34.75900 3.24600 38.30900
N  37.27500 2.56200 30.50500
C  38.18800 2.54500 31.57300
C  39.50000 2.15500 31.14500
C  39.35700 1.74700 29.77300
C  37.97700 2.14000 29.34400
C  40.77100 2.16700 31.99800
C  40.43200 1.14200 28.83900
O  40.21700 0.95300 27.66500
C  41.86100 0.91400 29.32500
N  35.20900 2.76800 28.33000
C  36.15700 2.33300 27.53400
C  35.71100 2.12800 26.12500
C  34.18500 2.56300 26.24100
C  34.01700 2.85700 27.68600
C  36.35500 2.99800 25.03600
C  33.14500 1.61100 25.62400
C  32.99900 0.30800 26.39600
N  33.41900 3.52100 30.52900
C  32.47400 3.61400 29.51900
C  31.20200 3.93200 30.01100
C  31.39600 3.98400 31.37700
C  32.74100 3.76200 31.67900
C  29.91200 4.09300 29.26000
C  30.74600 4.30700 32.64500
O  29.61000 4.73400 32.89500
C  31.86000 4.08700 33.80400
C  31.72300 5.21100 34.76700
O  32.11700 6.33400 34.61800
O  31.14500 4.72000 35.93700
C  30.79500 5.76900 36.90600
H  38.63100 2.92300 33.54600
H  38.06900 1.77000 27.15900
H  31.94400 3.43500 27.48400
H  34.60000 4.51900 35.57600
H  36.81400 2.66500 35.54100
H  36.29600 5.34300 36.17200
H  37.25500 5.40000 34.71800
H  37.78100 4.42800 36.21400
H  34.99500 1.65400 35.94100
H  33.39200 1.86000 35.31600
H  33.50800 1.61100 37.53100
H  32.86700 3.23500 37.27600
H  41.30400 1.22600 32.13600
H  40.52900 2.58700 32.97400
H  41.53900 2.72700 31.46500
H  42.37900 0.11700 28.79200
H  41.76500 0.36200 30.26000
H  42.52600 1.77500 29.38200
H  35.89500 1.13700 25.71200
H  34.02500 3.55000 25.80700
H  36.68100 3.93800 25.48200
H  35.62400 3.26100 24.27200
H  37.24800 2.49700 24.66100
H  33.53800 1.25200 24.67200
H  32.20500 2.13900 25.46600
H  32.57700 -0.44300 25.72900
H  32.20000 0.35500 27.13600
H  33.94100 -0.01700 26.83800
H  29.90900 5.00000 28.65600
H  29.02800 4.13700 29.89600
H  29.81300 3.30200 28.51700
H  31.70700 3.12200 34.28700
H  31.23100 5.31400 37.79500
H  29.71100 5.76600 37.01800
H  31.12900 6.80300 36.82700
Mg 42.74700 41.92000 25.97000
C  41.83400 44.21300 28.43500
C  43.82700 39.82700 28.29700
C  43.43400 39.83500 23.44500
C  42.05600 44.42400 23.65400
N  42.74400 42.09200 28.15000
C  42.22900 42.99300 28.94100
C  42.37700 42.68800 30.43400
C  43.27900 41.39400 30.35200
C  43.26800 41.03000 28.86100
C  44.73400 41.64600 30.87200
C  41.01100 42.34300 31.14000
C  41.13400 41.86300 32.63000
H  40.36000 42.54900 33.76200
N  43.47100 40.06200 25.88400
C  43.86500 39.31000 26.93900
C  44.31600 38.02400 26.56600
C  44.07700 37.90000 25.13600
C  43.61500 39.29500 24.73100
C  44.73400 36.98000 27.60600
C  44.21200 36.74500 24.20900
O  44.08200 36.76000 22.95300
C  44.50100 35.37100 24.82600
N  42.77700 42.10700 23.81200
C  43.07600 41.11200 22.95600
C  42.85700 41.40200 21.44900
C  42.14800 42.80400 21.63700
C  42.36800 43.18500 23.09600
C  44.18000 41.33100 20.57700
C  40.67100 42.72200 21.17500
C  39.73600 41.71900 21.87000
N  42.25300 44.00900 25.97500
C  41.99300 44.83200 24.94000
C  41.48200 46.05400 25.39600
C  41.42800 45.89600 26.79000
C  41.80500 44.60400 27.09500
C  41.06700 47.24400 24.52500
C  41.00100 46.53800 28.06000
O  40.53700 47.60400 28.30900
C  41.24500 45.43700 29.17300
C  42.20800 45.96900 30.18600
O  43.41800 45.77600 30.29200
O  41.48600 46.67200 31.08400
C  41.80900 46.34200 32.44800
H  44.26000 39.20600 29.08400
H  43.60400 39.14300 22.61800
H  41.86700 45.12800 22.84000
H  42.76200 43.55500 30.97100
H  42.91600 40.61700 31.02500
H  44.90700 42.72200 30.89000
H  45.54100 41.26600 30.24600
H  44.83700 41.31500 31.90500
H  40.47300 41.55600 30.61100
H  40.48700 43.29700 31.17600
H  42.14800 41.74900 33.01300
H  40.71100 40.86600 32.50800
H  44.08000 36.11400 27.50500
H  44.62300 37.36200 28.62100
H  45.77800 36.66800 27.64500
H  45.20400 35.53600 25.64300
H  44.98200 34.70700 24.10700
H  43.55700 34.97300 25.19800
H  42.09300 40.72200 21.07300
H  42.66600 43.53700 21.01900
H  45.07000 41.15900 21.18100
H  44.33900 42.29200 20.08600
H  44.07600 40.68300 19.70600
H  40.71900 42.34600 20.15200
H  40.32200 43.75400 21.17100
H  38.94400 42.20600 22.44000
H  40.30000 41.03200 22.50100
H  39.30600 41.10500 21.07900
H  40.45000 46.93100 23.68400
H  42.00700 47.69300 24.20300
H  40.61700 47.98900 25.18100
H  40.28900 45.23500 29.65600
H  40.93500 45.80600 32.82000
H  41.86700 47.27600 33.00700
H  42.75700 45.81300 32.54200

