158

Mg 2.20700 -1.74800 43.53900
C  5.59600 -1.14600 42.69600
C  1.56900 1.37000 42.15000
C  -0.97700 -2.67800 43.25200
C  3.12500 -5.07800 44.42300
N  3.40100 -0.04400 42.50500
C  4.70500 -0.18900 42.14100
C  5.12900 1.06200 41.26800
C  3.85900 1.96100 41.09500
C  2.92700 1.11100 41.97000
C  3.85700 3.50300 41.49500
C  5.78600 0.62500 39.89500
C  7.00100 1.51900 39.50900
H  6.83200 2.08200 38.06200
N  0.46800 -0.70500 43.09500
C  0.49300 0.54900 42.58800
C  -0.83000 0.92000 42.26200
C  -1.62000 -0.28700 42.33800
C  -0.76500 -1.32100 42.87600
C  -1.22700 2.26100 41.80900
C  -3.07000 -0.43300 41.92300
O  -3.78700 0.53300 41.57800
C  -3.77900 -1.67200 42.09900
N  1.23300 -3.60800 43.87800
C  -0.10000 -3.70100 43.75200
C  -0.62700 -5.09400 44.18300
C  0.63900 -5.86400 44.59100
C  1.77000 -4.78000 44.29800
C  -1.70400 -4.89100 45.35000
C  0.86700 -7.29800 44.02500
C  1.56200 -7.23900 42.63800
N  4.06600 -2.93200 43.78000
C  4.26200 -4.26700 44.19300
C  5.69000 -4.57600 44.17500
C  6.24100 -3.32500 43.65400
C  5.23100 -2.30600 43.39200
C  6.32600 -5.91500 44.48900
C  7.52600 -2.71100 43.25900
O  8.65900 -3.13500 43.30100
C  7.11900 -1.27700 42.62100
C  7.79400 -0.07300 43.28600
O  8.39100 0.76400 42.63200
O  7.68100 -0.01400 44.60400
C  8.33200 1.13000 45.29100
H  1.40000 2.37500 41.75800
H  -1.98900 -3.08700 43.29100
H  3.42000 -6.11300 44.60800
H  5.92200 1.58400 41.80500
H  3.47600 2.06100 40.07900
H  3.11300 3.74900 42.25300
H  3.64700 4.15200 40.64500
H  4.81500 3.82600 41.90100
H  5.07900 0.83300 39.09200
H  5.99300 -0.44300 39.95800
H  7.89200 0.90400 39.38600
H  7.21000 2.30300 40.23600
H  -0.56900 3.06400 42.14000
H  -2.27800 2.50100 41.96800
H  -1.04900 2.10900 40.74500
H  -4.62200 -1.74000 41.41100
H  -3.95200 -1.72000 43.17400
H  -3.15200 -2.52000 41.82300
H  -1.15700 -5.62300 43.39100
H  0.71700 -6.07400 45.65700
H  -2.05000 -3.86500 45.47600
H  -1.27100 -5.15300 46.31600
H  -2.51800 -5.58500 45.13600
H  -0.04000 -7.90200 43.99400
H  1.39100 -7.89300 44.77400
H  1.06000 -7.95600 41.98800
H  2.61500 -7.51600 42.68100
H  1.65000 -6.19200 42.34900
H  6.02000 -6.60500 43.70300
H  6.02600 -6.30400 45.46300
H  7.39800 -5.71500 44.47800
H  7.53800 -1.25400 41.61500
H  9.40200 0.92700 45.34000
H  7.84600 1.16300 46.26600
H  8.31800 2.08800 44.77100
Mg -2.01100 35.36500 26.40900
C  -3.11300 33.62100 29.27300
C  -0.53700 37.74100 28.37500
C  -1.11100 37.04300 23.65000
C  -3.68900 32.91800 24.44400
N  -1.91600 35.64500 28.57800
C  -2.38700 34.80500 29.61800
C  -1.85500 35.27700 30.97900
C  -1.18900 36.71100 30.70800
C  -1.17300 36.72500 29.12700
C  -1.94900 37.95500 31.35000
C  -0.98200 34.25900 31.70900
C  -1.36800 33.78600 33.14400
H  -0.29500 33.70000 34.29300
N  -1.06800 37.20800 26.05600
C  -0.56900 38.00900 27.02700
C  0.00700 39.11400 26.43600
C  -0.05100 38.95200 25.02200
C  -0.72500 37.64100 24.81700
C  0.67500 40.24500 27.24700
C  0.38900 39.93000 23.87100
O  0.20900 39.59500 22.72000
C  1.00600 41.27000 24.10000
N  -2.42500 35.11300 24.31300
C  -1.88400 35.88500 23.40300
C  -1.91300 35.25400 22.05000
C  -2.73700 33.91100 22.21500
C  -2.97900 33.94300 23.77200
C  -2.46700 36.04900 20.82400
C  -2.04300 32.73700 21.53300
C  -1.04600 31.93800 22.39000
N  -3.15900 33.61000 26.71200
C  -3.80500 32.76500 25.80800
C  -4.53000 31.79400 26.55100
C  -4.23400 32.08200 27.89200
C  -3.34100 33.10900 27.93700
C  -5.41200 30.77500 25.92100
C  -4.54200 31.65900 29.21300
O  -5.31200 30.81600 29.63600
C  -3.70600 32.54000 30.19000
C  -4.61000 33.00700 31.22200
O  -5.54200 33.76900 31.03100
O  -4.21300 32.45500 32.49500
C  -5.12800 32.77300 33.62900
H  0.02400 38.42700 29.01300
H  -0.86100 37.50200 22.69100
H  -4.26500 32.16900 23.89500
H  -2.72200 35.42700 31.62200
H  -0.17200 36.88800 31.05700
H  -2.61500 37.57800 32.12700
H  -2.57300 38.40500 30.57800
H  -1.33300 38.82500 31.57500
H  -0.02000 34.74900 31.86000
H  -0.88900 33.34600 31.12100
H  -1.61500 32.74300 32.94200
H  -2.26600 34.34300 33.41000
H  1.75100 40.20200 27.07800
H  0.58800 40.25500 28.33300
H  0.38000 41.17500 26.76100
H  1.57100 41.66400 23.25500
H  1.72900 41.24000 24.91600
H  0.15200 41.89600 24.35600
H  -0.85100 35.01200 22.01200
H  -3.66400 34.07100 21.66400
H  -1.84300 36.06300 19.93000
H  -2.47400 37.10900 21.07700
H  -3.49500 35.80300 20.55600
H  -1.64900 33.07800 20.57500
H  -2.85600 32.02000 21.41400
H  -1.38300 30.91300 22.54800
H  -0.94000 32.42300 23.36000
H  -0.09000 31.90000 21.86800
H  -5.28300 30.44300 24.89100
H  -6.38900 31.25700 25.94200
H  -5.42400 29.90900 26.58300
H  -3.02400 31.78000 30.56900
H  -6.05800 33.26400 33.34400
H  -4.57800 33.36200 34.36300
H  -5.40000 31.79900 34.03700

