158

Mg 16.73400 51.60200 26.57600
C  18.63900 50.25000 29.20900
C  14.12700 52.12100 28.94600
C  14.85400 52.89500 24.18300
C  19.02100 50.50800 24.27800
N  16.55700 51.24800 28.83300
C  17.45900 50.81500 29.71700
C  17.02000 51.00400 31.17200
C  15.43200 51.19300 30.92900
C  15.39300 51.59800 29.44000
C  14.45600 50.03900 31.20300
C  17.75700 52.24100 31.73100
C  17.47800 52.74100 33.15100
H  16.76900 51.69800 34.06300
N  14.84800 52.50000 26.59200
C  13.85200 52.51100 27.58100
C  12.69300 53.33500 27.17000
C  12.95900 53.75800 25.82000
C  14.27600 53.06000 25.47100
C  11.56200 53.71100 28.05400
C  12.28900 54.75900 24.83700
O  12.72600 55.00400 23.73200
C  11.00500 55.44300 25.14800
N  16.80500 51.44700 24.45900
C  15.98100 52.21500 23.71300
C  16.46000 52.17000 22.21900
C  17.80900 51.43900 22.25800
C  17.89100 51.11700 23.74100
C  15.48500 51.60100 21.06500
C  18.99200 52.11300 21.54000
C  19.75300 53.21700 22.26400
N  18.46400 50.43800 26.63600
C  19.34900 50.07200 25.55700
C  20.48000 49.46100 26.20400
C  20.22300 49.40800 27.60800
C  19.01800 50.12100 27.83100
C  21.59100 48.86600 25.37000
C  20.71900 48.90000 28.90000
O  21.65300 48.19000 29.18300
C  19.82300 49.55900 29.96900
C  19.29500 48.53900 30.93000
O  18.42100 47.71100 30.55600
O  19.80400 48.76100 32.17900
C  19.14800 48.05100 33.26500
H  13.30100 52.31700 29.63300
H  14.30800 53.26400 23.31300
H  19.83600 50.29600 23.58300
H  17.14700 50.14300 31.82900
H  15.09000 52.02000 31.55000
H  13.52700 50.42000 31.62800
H  14.86900 49.29600 31.88400
H  14.17400 49.40500 30.36300
H  17.37600 53.03100 31.08400
H  18.80000 52.05900 31.47100
H  16.84900 53.62800 33.07900
H  18.41500 53.05200 33.61300
H  11.62300 53.41200 29.10100
H  10.67500 53.31400 27.56100
H  11.35200 54.78000 28.09600
H  10.44900 55.66400 24.23700
H  11.03400 56.33800 25.76900
H  10.45700 54.74400 25.78000
H  16.63700 53.19700 21.89900
H  17.75700 50.46400 21.77400
H  14.67400 51.16200 21.64600
H  15.85500 50.81400 20.40800
H  14.99700 52.38700 20.48800
H  18.55800 52.41900 20.58800
H  19.61100 51.22400 21.41800
H  20.67300 52.67400 22.47800
H  19.20800 53.44000 23.18100
H  19.96200 54.11500 21.68200
H  21.86400 49.31100 24.41200
H  21.20200 47.86800 25.16800
H  22.48900 48.84000 25.98700
H  20.45400 50.26000 30.51500
H  19.25100 46.97100 33.15900
H  18.07700 48.16500 33.09300
H  19.46600 48.46900 34.22000
Mg -11.58700 38.02400 42.85700
C  -8.99600 35.58000 42.17000
C  -9.29600 40.43400 41.89300
C  -14.18100 40.10200 42.68400
C  -13.72900 35.28800 43.70300
N  -9.40600 37.93900 41.99900
C  -8.50600 36.91800 41.88800
C  -7.05100 37.37100 41.47100
C  -7.20100 38.93600 41.77300
C  -8.72400 39.10500 41.90900
C  -6.54000 39.57900 42.99400
C  -6.72300 36.93700 39.99600
C  -5.63500 35.88400 39.74300
H  -6.07300 34.82600 38.81000
N  -11.69200 40.04500 42.37000
C  -10.64200 40.84900 42.01200
C  -11.06900 42.22500 42.04000
C  -12.50800 42.20300 42.26600
C  -12.89400 40.75400 42.49900
C  -10.26600 43.42300 41.88000
C  -13.46200 43.35300 42.20700
O  -13.17300 44.50300 41.87600
C  -14.81400 43.17500 42.68700
N  -13.67700 37.69500 43.08200
C  -14.51800 38.77700 43.07700
C  -15.87700 38.34800 43.58500
C  -15.75900 36.82100 43.72300
C  -14.28300 36.57500 43.57800
C  -16.16400 39.11200 44.95000
C  -16.71900 36.12900 42.72600
C  -16.07000 35.81400 41.36500
N  -11.42300 35.85600 43.02600
C  -12.34600 34.87600 43.47400
C  -11.69000 33.58700 43.50600
C  -10.42900 33.81600 43.02100
C  -10.29000 35.22700 42.69400
C  -12.18800 32.26600 43.99300
C  -9.20500 33.21700 42.78600
O  -8.76300 32.07200 43.04200
C  -8.17800 34.33200 42.25000
C  -7.15300 34.32500 43.27600
O  -7.05900 34.90300 44.34200
O  -6.18500 33.49300 42.79600
C  -4.95500 33.36300 43.60000
H  -8.58000 41.23900 41.71400
H  -15.07200 40.73200 42.64100
H  -14.44600 34.55400 44.07700
H  -6.30300 36.88800 42.09900
H  -7.02300 39.52700 40.87500
H  -6.01400 38.79200 43.53400
H  -7.26900 39.94200 43.71900
H  -5.74000 40.23500 42.65200
H  -6.31200 37.88400 39.64700
H  -7.59700 36.78600 39.36300
H  -5.38300 35.37600 40.67400
H  -4.71700 36.34400 39.37700
H  -9.95800 43.66400 40.86200
H  -9.34300 43.14800 42.39100
H  -10.63300 44.26000 42.47300
H  -15.39800 42.72400 41.88400
H  -15.22100 44.14200 42.98300
H  -14.83100 42.44600 43.49600
H  -16.58700 38.61700 42.80300
H  -16.14300 36.47100 44.68100
H  -15.95700 38.41500 45.76200
H  -17.14500 39.58200 45.00900
H  -15.53400 39.99300 45.07400
H  -17.61000 36.74700 42.61800
H  -17.17100 35.25900 43.20300
H  -16.79900 36.03200 40.58400
H  -15.79000 34.76400 41.44100
H  -15.19500 36.44300 41.20500
H  -12.45200 32.31500 45.04900
H  -11.47300 31.45700 43.84700
H  -13.03500 31.94500 43.38700
H  -7.67400 34.09900 41.31200
H  -4.37700 34.25700 43.36500
H  -4.43700 32.42100 43.42000
H  -5.19900 33.42300 44.66100

