158

Mg -8.33700 39.23000 39.49400
C  -7.62400 35.87500 38.70100
C  -5.18100 40.12600 38.47700
C  -9.46300 42.35200 39.31700
C  -11.77200 38.18500 39.81000
N  -6.65300 38.07100 38.50100
C  -6.50300 36.75800 38.51500
C  -5.02200 36.37400 38.30300
C  -4.30100 37.75600 38.57200
C  -5.44600 38.72200 38.55300
C  -3.51500 37.97100 39.84100
C  -4.90400 35.74900 36.93200
C  -5.45300 36.46300 35.70400
H  -6.57500 35.88800 34.89800
N  -7.44100 40.97300 39.03300
C  -6.09200 41.17900 38.62600
C  -5.80600 42.49800 38.39800
C  -7.02400 43.24800 38.64300
C  -8.03400 42.19700 38.97900
C  -4.42400 43.01300 37.89800
C  -7.21600 44.76800 38.44100
O  -6.29700 45.40200 37.92100
C  -8.54500 45.45700 38.75300
N  -10.37300 40.15100 39.48600
C  -10.53000 41.47800 39.39900
C  -11.98900 41.90200 39.78000
C  -12.63400 40.54700 39.95200
C  -11.56700 39.53500 39.68200
C  -12.21400 42.79600 41.01100
C  -13.91400 40.36400 38.98400
C  -15.20200 39.69200 39.54600
N  -9.51600 37.40500 39.34400
C  -10.82300 37.13600 39.58700
C  -11.06000 35.71200 39.48000
C  -9.81700 35.16400 39.13600
C  -8.94100 36.24900 38.99800
C  -12.35800 34.97000 39.57500
C  -9.11700 33.93800 38.97700
O  -9.49900 32.82000 38.99200
C  -7.61900 34.35300 38.75900
C  -6.68900 33.75000 39.67900
O  -6.69700 33.70400 40.90200
O  -5.79100 33.05600 38.90000
C  -4.80700 32.30900 39.67800
H  -4.11100 40.31600 38.37100
H  -9.74300 43.39000 39.50800
H  -12.79900 37.85200 39.97300
H  -4.65700 35.61000 38.99000
H  -3.85000 38.01200 37.61300
H  -4.08100 38.41100 40.66200
H  -2.75200 38.71500 39.61200
H  -3.22600 36.96600 40.14700
H  -5.29000 34.73600 37.04100
H  -3.83400 35.61800 36.77000
H  -4.62400 36.43500 34.99600
H  -5.79200 37.46600 35.96500
H  -3.77900 42.23900 37.48000
H  -3.91500 43.46000 38.75200
H  -4.69900 43.69300 37.09200
H  -8.70300 45.43600 39.83100
H  -9.40300 44.98600 38.27300
H  -8.44400 46.50600 38.47500
H  -12.32600 42.47400 38.91600
H  -12.94000 40.23800 40.95100
H  -12.84900 43.58500 40.60700
H  -11.29700 43.19900 41.44100
H  -12.75800 42.21800 41.75700
H  -13.57500 39.71800 38.17300
H  -14.17100 41.27000 38.43500
H  -15.40900 40.14200 40.51700
H  -15.08600 38.61000 39.60100
H  -15.95000 39.88600 38.77800
H  -13.21100 35.64700 39.61100
H  -12.31500 34.21600 40.36100
H  -12.51800 34.36900 38.67900
H  -7.42400 33.96600 37.75900
H  -5.24300 31.82300 40.55100
H  -3.99900 32.95100 40.02800
H  -4.32900 31.57500 39.02900
Mg 0.93300 43.54200 25.76700
C  3.08900 43.36500 28.43200
C  -1.68300 43.52700 28.02800
C  -1.04600 42.73900 23.32200
C  3.57600 43.96300 23.65700
N  0.73200 43.41900 27.97200
C  1.75700 43.31000 28.85000
C  1.29300 43.39200 30.29700
C  -0.30400 43.23700 30.16600
C  -0.38100 43.45300 28.64200
C  -0.94600 41.79900 30.50700
C  1.67900 44.66700 31.08300
C  1.76000 44.68200 32.65900
H  1.27100 43.46700 33.39200
N  -1.07000 43.31500 25.64300
C  -1.99600 43.38600 26.64100
C  -3.29700 43.16000 26.11400
C  -3.23700 42.77600 24.71400
C  -1.76600 42.92400 24.48300
C  -4.50100 43.12200 27.05800
C  -4.32800 42.22900 23.82400
O  -4.06700 41.79700 22.71700
C  -5.75000 42.06300 24.29500
N  1.22900 43.16300 23.67500
C  0.22400 42.89800 22.85900
C  0.81000 42.76800 21.40000
C  2.13000 43.66800 21.59900
C  2.35000 43.60700 23.07300
C  1.12100 41.24100 20.96800
C  2.02900 45.12000 21.23100
C  3.31000 45.72800 20.48100
N  2.92200 43.59000 25.95700
C  3.94300 43.85300 25.05100
C  5.26700 43.78900 25.65000
C  4.91400 43.49900 26.97500
C  3.57000 43.45500 27.11800
C  6.59800 43.89600 24.92900
C  5.49700 43.29800 28.26800
O  6.65000 43.10600 28.64900
C  4.25300 43.39200 29.31500
C  4.39000 42.17600 30.19500
O  4.06700 41.04700 29.82200
O  5.01000 42.43900 31.38400
C  5.07300 41.26900 32.24400
H  -2.43900 43.70200 28.79600
H  -1.67800 42.44000 22.48300
H  4.42800 44.19800 23.01600
H  1.83500 42.57400 30.77300
H  -0.86400 44.02000 30.67800
H  -1.56400 41.42900 29.68900
H  -1.63500 41.89200 31.34700
H  -0.08800 41.15600 30.70300
H  0.95100 45.45700 30.90000
H  2.68600 44.95600 30.78100
H  1.36300 45.60600 33.07800
H  2.79600 44.76100 32.98800
H  -5.24400 43.74000 26.55400
H  -4.36100 43.60100 28.02700
H  -4.89100 42.11100 27.17400
H  -5.79200 41.31000 25.08200
H  -6.27500 41.67800 23.42100
H  -6.10600 43.00900 24.70500
H  0.15400 43.23200 20.66400
H  2.91000 43.18400 21.01100
H  2.18700 41.11000 20.78300
H  0.48500 41.02600 20.10900
H  0.88700 40.52500 21.75600
H  1.65800 45.69900 22.07700
H  1.29100 45.21900 20.43600
H  3.24500 46.78900 20.72100
H  3.41500 45.49600 19.42100
H  4.19000 45.30200 20.96300
H  7.42100 43.56900 25.56500
H  6.69100 44.90700 24.53400
H  6.53900 43.27800 24.03300
H  4.50300 44.24000 29.95200
H  5.65600 40.54000 31.68200
H  4.04500 40.96100 32.43200
H  5.62500 41.61800 33.11700

