158

Mg 1.80700 -1.81700 43.58400
C  5.23500 -0.80200 43.94700
C  1.37500 0.97400 41.62000
C  -1.19900 -2.97800 43.00700
C  2.80300 -4.99400 44.91400
N  3.14600 -0.07000 42.84000
C  4.45300 0.02500 43.15200
C  5.04400 1.26700 42.46000
C  3.81100 1.94300 41.75400
C  2.70500 0.93100 42.03600
C  3.45300 3.35800 42.36200
C  6.21800 1.08700 41.45200
C  6.33500 -0.18700 40.59300
H  6.40800 0.18400 39.08000
N  0.18700 -1.06500 42.56700
C  0.21200 0.09600 41.81700
C  -1.14400 0.34000 41.35400
C  -1.94200 -0.77400 41.66100
C  -1.03100 -1.71900 42.41300
C  -1.46900 1.57200 40.56700
C  -3.42500 -0.98700 41.39900
O  -4.08400 -0.23400 40.70900
C  -4.15600 -2.18200 41.95700
N  0.99200 -3.81100 43.58000
C  -0.33900 -3.93000 43.56200
C  -0.80400 -5.23200 44.22200
C  0.51600 -5.93800 44.50700
C  1.48100 -4.81400 44.38600
C  -1.71500 -4.93400 45.48200
C  0.93500 -7.11600 43.62600
C  0.73700 -8.45900 44.38500
N  3.60600 -2.75700 44.35200
C  3.88100 -4.05300 44.79200
C  5.32200 -4.13700 45.25900
C  5.87800 -2.87200 44.94500
C  4.83400 -2.10100 44.33900
C  5.91000 -5.19100 46.08600
C  7.01900 -1.92400 45.07300
O  8.08900 -2.04600 45.62800
C  6.71400 -0.71400 44.26300
C  6.99000 0.52900 45.01500
O  6.52000 0.77300 46.08400
O  7.78200 1.43100 44.33100
C  7.81700 2.79700 44.89900
H  1.19600 1.86800 41.01800
H  -2.23600 -3.31700 42.95700
H  2.99700 -5.89500 45.49900
H  5.52700 1.88900 43.21400
H  3.96400 2.02500 40.67800
H  4.35000 3.85100 42.73600
H  2.63900 3.40300 43.08600
H  3.18700 4.02100 41.53900
H  7.17300 1.28300 41.94100
H  6.21300 1.89100 40.71700
H  5.46800 -0.81600 40.79500
H  7.24500 -0.64400 40.98200
H  -0.70600 1.77800 39.81700
H  -1.46100 2.43000 41.24000
H  -2.41500 1.41000 40.05000
H  -5.22600 -2.15900 41.75000
H  -4.09300 -2.06100 43.03800
H  -3.69800 -3.09900 41.58500
H  -1.45000 -5.77000 43.52800
H  0.43500 -6.24700 45.54900
H  -1.47700 -5.54700 46.35100
H  -2.72900 -5.22400 45.20500
H  -1.60500 -3.87200 45.70200
H  2.00000 -7.05000 43.40300
H  0.51200 -7.15000 42.62200
H  -0.02800 -8.38000 45.15700
H  1.70100 -8.70700 44.82800
H  0.44200 -9.32400 43.79200
H  6.28500 -5.98200 45.43700
H  5.11000 -5.57800 46.71800
H  6.79500 -4.88000 46.64100
H  7.45100 -0.77500 43.46200
H  6.84800 3.26300 44.72300
H  8.62400 3.36600 44.43600
H  8.07800 2.74200 45.95600
Mg 16.74900 -1.87500 27.92200
C  15.81200 0.08400 30.71200
C  19.28200 -3.16600 29.89500
C  18.17000 -3.20300 25.18600
C  14.56500 0.05900 25.87900
N  17.46500 -1.48500 30.00500
C  16.85800 -0.80200 30.98700
C  17.28000 -1.18000 32.45700
C  18.59400 -2.01600 32.12000
C  18.50100 -2.21100 30.58000
C  19.85500 -1.27600 32.45400
C  16.14000 -1.73500 33.35900
C  16.07200 -1.17200 34.72300
H  17.31600 -0.46500 35.41100
N  18.35600 -3.06600 27.61100
C  19.20500 -3.62500 28.57000
C  20.14000 -4.57500 27.90400
C  19.80800 -4.57400 26.55600
C  18.73800 -3.58800 26.42900
C  21.19800 -5.34300 28.67700
C  20.46700 -5.27800 25.38500
O  20.16800 -5.09500 24.24400
C  21.56500 -6.31000 25.69700
N  16.41700 -1.56500 25.83100
C  17.10400 -2.33100 24.89300
C  16.68300 -1.93200 23.45300
C  15.33100 -1.10000 23.72600
C  15.41500 -0.86500 25.24700
C  17.66100 -1.16800 22.50600
C  14.00900 -1.87800 23.45500
C  13.57400 -1.72100 21.99900
N  15.39900 -0.34000 28.19400
C  14.60600 0.37700 27.26400
C  13.84800 1.39600 27.98300
C  14.28900 1.30300 29.32800
C  15.24600 0.27400 29.40600
C  12.83100 2.34700 27.43900
C  14.02200 1.86600 30.63600
O  13.16700 2.73600 31.00300
C  15.02500 1.03700 31.63800
C  15.81300 1.98900 32.44900
O  16.91800 2.53000 32.14100
O  15.14700 2.28300 33.62300
C  15.73400 3.25800 34.51700
H  20.11800 -3.56100 30.47600
H  18.37700 -3.70500 24.23900
H  13.99800 0.76000 25.26400
H  17.57200 -0.21700 32.87800
H  18.59800 -3.01100 32.56500
H  19.57900 -0.68700 33.32900
H  20.13000 -0.60400 31.64100
H  20.67500 -1.93800 32.73400
H  16.32700 -2.80700 33.42800
H  15.18900 -1.69800 32.82800
H  15.77100 -2.01300 35.34800
H  15.16300 -0.57700 34.80300
H  20.89600 -6.38800 28.60200
H  21.12300 -5.34900 29.76500
H  22.17300 -5.04500 28.29200
H  21.32800 -6.88500 26.59300
H  22.44500 -5.67300 25.78000
H  21.57200 -6.93600 24.80500
H  16.35400 -2.87500 23.01600
H  15.31800 -0.14900 23.19300
H  17.99300 -1.70100 21.61600
H  18.55600 -1.07600 23.12100
H  17.25800 -0.18700 22.25100
H  13.28400 -1.69400 24.24800
H  14.28100 -2.93200 23.50200
H  12.49900 -1.56300 21.91500
H  13.70500 -2.64900 21.44100
H  14.01800 -0.81000 21.59700
H  12.84400 3.25500 28.04200
H  11.89400 1.81300 27.59400
H  13.14900 2.62700 26.43400
H  14.34600 0.38200 32.18400
H  15.48300 4.25800 34.16400
H  16.79000 3.11900 34.74700
H  15.18800 3.03200 35.43300

