158

Mg 16.49300 -2.12500 28.30200
C  15.59300 0.22300 30.87800
C  18.19500 -3.83500 30.61500
C  17.63900 -3.96500 25.75600
C  14.43900 -0.19500 26.08500
N  16.96000 -1.64800 30.49000
C  16.37700 -0.78500 31.35100
C  16.76400 -1.03800 32.80100
C  17.76700 -2.31400 32.66700
C  17.63000 -2.65900 31.15900
C  19.20900 -2.08100 33.16900
C  15.56800 -1.52000 33.68800
C  15.51000 -0.83400 35.07800
H  16.70800 -0.10100 35.70100
N  17.74800 -3.73500 28.23900
C  18.36500 -4.33400 29.29300
C  19.14000 -5.44100 28.85700
C  18.97200 -5.52400 27.43800
C  18.11400 -4.36700 27.07200
C  19.87400 -6.29900 29.87600
C  19.53500 -6.53600 26.40700
O  19.38900 -6.40400 25.22200
C  20.29400 -7.78200 26.94600
N  15.99900 -2.09200 26.23000
C  16.70800 -2.94400 25.39500
C  16.52300 -2.52500 23.87100
C  15.25900 -1.56000 24.02100
C  15.15500 -1.25000 25.51400
C  17.71000 -1.78100 23.32800
C  13.89300 -2.12700 23.46400
C  13.07700 -1.22300 22.56300
N  15.33300 -0.27100 28.39400
C  14.59400 0.33900 27.40800
C  13.84300 1.47600 27.99400
C  14.22000 1.44000 29.37300
C  15.09800 0.35400 29.55900
C  12.78900 2.29700 27.33800
C  13.94500 2.05500 30.67400
O  13.18400 3.01400 30.92900
C  14.74300 1.23300 31.74600
C  15.62800 2.16300 32.43200
O  16.74300 2.61900 32.18900
O  15.05900 2.42300 33.66600
C  15.59700 3.62300 34.36100
H  18.70900 -4.47400 31.33600
H  18.05800 -4.41300 24.85300
H  13.78900 0.33300 25.38400
H  17.20200 -0.17200 33.29800
H  17.45200 -3.25200 33.12400
H  19.33200 -2.64800 34.09200
H  19.26000 -0.99900 33.29700
H  19.92800 -2.43200 32.42900
H  15.72900 -2.57900 33.89000
H  14.67500 -1.48700 33.06300
H  15.22500 -1.66900 35.71800
H  14.66200 -0.15300 35.00900
H  19.14100 -6.93700 30.37000
H  20.30400 -5.62100 30.61300
H  20.69200 -6.92100 29.51200
H  21.17500 -7.47400 27.51000
H  20.59400 -8.43200 26.12400
H  19.60600 -8.35400 27.56900
H  16.35100 -3.44000 23.30500
H  15.43700 -0.66100 23.43000
H  18.44100 -1.71800 24.13500
H  17.43900 -0.83300 22.86400
H  18.19900 -2.31300 22.51200
H  13.34600 -2.47900 24.33900
H  14.15400 -3.07100 22.98700
H  12.87500 -1.72600 21.61700
H  13.70200 -0.42500 22.16100
H  12.25500 -0.69800 23.05000
H  11.95100 2.41000 28.02500
H  12.39300 1.93900 26.38700
H  13.14000 3.30000 27.09500
H  14.03100 0.68500 32.36400
H  15.59800 4.47900 33.68700
H  16.60900 3.48000 34.74100
H  15.03900 3.79600 35.28100
Mg 0.91300 42.91600 26.93600
C  2.44500 43.16300 30.02500
C  -1.89600 41.80900 28.45800
C  -0.17900 42.29500 23.88700
C  4.03800 43.94700 25.39200
N  0.41300 42.46600 29.07700
C  1.19000 42.73800 30.19700
C  0.39300 42.48000 31.47200
C  -0.99200 41.88400 30.96800
C  -0.83600 42.08300 29.41200
C  -1.29300 40.47400 31.48400
C  0.26500 43.70900 32.52100
C  0.34300 43.25100 34.07100
H  -0.84800 43.34500 35.00700
N  -0.78200 42.17300 26.26900
C  -1.84200 41.70400 27.03200
C  -2.92800 41.29000 26.24400
C  -2.54500 41.62100 24.87600
C  -1.02400 41.95000 24.95300
C  -4.25400 40.76100 26.79700
C  -3.32300 41.59900 23.59000
O  -2.92500 41.93400 22.50300
C  -4.69400 41.09700 23.64900
N  1.82200 43.35000 24.89800
C  1.10600 42.85000 23.80200
C  1.82300 43.09000 22.52200
C  3.09200 43.81700 23.04700
C  3.02300 43.71900 24.51800
C  2.14000 41.66800 21.82800
C  3.31700 45.21800 22.37900
C  3.75700 45.27200 20.91200
N  2.89700 43.42400 27.50500
C  4.00700 43.79500 26.78700
C  5.11100 43.91400 27.73800
C  4.57500 43.58100 29.01300
C  3.17200 43.39200 28.85800
C  6.61700 44.18600 27.49200
C  4.86500 43.41900 30.38500
O  5.92900 43.45200 31.01200
C  3.51500 43.21900 31.16600
C  3.56200 42.00100 31.97200
O  3.43600 40.83100 31.61300
O  4.01300 42.37100 33.16000
C  4.36100 41.34000 34.14600
H  -2.71000 41.31900 28.99500
H  -0.59700 42.08200 22.90100
H  4.92600 44.17900 24.80100
H  0.81600 41.72500 32.13500
H  -1.79000 42.58400 31.21600
H  -1.73200 39.89100 30.67400
H  -2.06400 40.60000 32.24400
H  -0.43600 39.95800 31.91700
H  -0.70800 44.16000 32.32500
H  0.97600 44.48900 32.25100
H  1.16400 43.82500 34.50100
H  0.82300 42.28600 34.23500
H  -4.32000 40.51700 27.85700
H  -4.51700 39.81900 26.31500
H  -5.03300 41.50900 26.65200
H  -5.38400 41.69700 24.24400
H  -4.67700 40.06800 24.00800
H  -5.08400 40.94100 22.64300
H  1.41900 43.74400 21.74900
H  3.90200 43.18400 22.68500
H  2.36500 41.00500 22.66400
H  3.02500 41.72600 21.19500
H  1.31100 41.23500 21.26900
H  3.96700 45.85500 22.98000
H  2.31400 45.61800 22.52700
H  4.72700 45.77000 20.92800
H  3.00500 45.84700 20.37100
H  3.80100 44.24500 20.55000
H  6.73400 45.14400 27.99800
H  6.79600 44.33200 26.42600
H  7.14100 43.24700 27.67100
H  3.31900 44.15300 31.69300
H  5.40400 41.02800 34.20400
H  3.68300 40.48800 34.16900
H  4.18400 41.72300 35.15100

