158

Mg -2.41300 17.05200 26.07700
C  -2.90200 14.76500 28.83900
C  -2.90300 19.57500 28.26800
C  -2.48700 18.92200 23.41400
C  -2.65600 14.06200 23.98900
N  -2.97600 17.14700 28.30600
C  -2.97300 16.15300 29.25200
C  -3.13900 16.73600 30.66600
C  -3.18000 18.27100 30.45000
C  -3.01800 18.38100 28.89700
C  -4.55400 18.87800 30.87600
C  -1.96800 16.45800 31.68300
C  -1.81000 17.24000 33.01100
H  -2.00100 16.49500 34.26000
N  -2.55900 18.97900 25.89400
C  -2.67600 19.88500 26.87800
C  -2.53800 21.22400 26.29100
C  -2.44800 21.06200 24.92800
C  -2.45300 19.59700 24.68300
C  -2.52600 22.51500 27.16200
C  -2.21500 22.09600 23.75000
O  -2.19900 21.93200 22.56400
C  -2.08400 23.47300 24.21800
N  -2.44000 16.58100 23.97200
C  -2.38900 17.55300 23.07500
C  -2.32500 16.95900 21.67800
C  -2.20900 15.47700 21.92400
C  -2.42700 15.33900 23.42500
C  -3.57900 17.35400 20.79600
C  -0.89800 14.84400 21.38300
C  0.33700 14.98900 22.26200
N  -2.73700 14.80100 26.22800
C  -2.87400 13.80300 25.29600
C  -2.99600 12.52000 26.04200
C  -3.02400 12.80900 27.40100
C  -2.82300 14.20700 27.48900
C  -2.98900 11.10600 25.39800
C  -3.12900 12.25000 28.72600
O  -3.19700 11.10500 29.10600
C  -3.03800 13.51100 29.72800
C  -1.86900 13.26900 30.61900
O  -0.76700 13.77200 30.37700
O  -2.28800 12.49800 31.65100
C  -1.33700 12.11500 32.68700
H  -3.05500 20.46400 28.88500
H  -2.48200 19.48100 22.47600
H  -2.77200 13.19400 23.33700
H  -4.12500 16.47600 31.05000
H  -2.32200 18.80700 30.85400
H  -4.23300 19.71900 31.49000
H  -5.22300 18.26200 31.47700
H  -5.20300 19.28000 30.09800
H  -1.05200 16.64000 31.12200
H  -2.08300 15.41400 31.97600
H  -2.52400 18.06200 32.96500
H  -0.82700 17.69800 32.90600
H  -2.41700 22.26200 28.21700
H  -3.42300 23.08000 26.91200
H  -1.62000 23.08800 26.96400
H  -2.89000 23.75400 24.89600
H  -2.16300 24.13100 23.35200
H  -1.11600 23.54300 24.71300
H  -1.44400 17.33900 21.16200
H  -3.00100 14.87800 21.47400
H  -4.16900 18.20800 21.12900
H  -4.40400 16.64900 20.89800
H  -3.16900 17.35400 19.78600
H  -0.59400 15.31600 20.44900
H  -1.10400 13.78200 21.25100
H  0.00200 15.30700 23.24900
H  1.02700 15.74500 21.88700
H  0.84300 14.03300 22.39000
H  -4.01800 10.88500 25.11500
H  -2.63600 10.40100 26.15000
H  -2.21300 11.08100 24.63300
H  -3.94000 13.54300 30.33800
H  -1.66700 11.24500 33.25300
H  -1.11900 12.92000 33.38900
H  -0.35200 11.80100 32.34100
Mg 8.88100 47.87200 26.68200
C  6.95200 47.27700 29.52700
C  11.61100 48.29400 28.76800
C  10.58500 48.53400 24.08600
C  5.97100 47.48100 24.70800
N  9.22100 47.88400 28.87000
C  8.26200 47.60100 29.87100
C  8.86400 47.76600 31.24400
C  10.26900 48.43100 30.97300
C  10.37300 48.21000 29.42500
C  10.43200 49.99800 31.17900
C  8.77000 46.60600 32.22900
C  9.70000 46.57300 33.47300
H  9.25900 45.77200 34.70500
N  10.88400 48.15500 26.48200
C  11.85000 48.30100 27.42700
C  13.10600 48.51800 26.75200
C  12.83100 48.48700 25.31500
C  11.37100 48.33400 25.25100
C  14.38300 48.48600 27.47500
C  13.83700 48.66800 24.25400
O  13.46500 48.59600 23.10100
C  15.33300 48.94400 24.57800
N  8.28100 47.99300 24.70300
C  9.23000 48.35000 23.80400
C  8.65600 48.49600 22.36300
C  7.16300 48.06400 22.58100
C  7.08800 47.83500 24.01600
C  8.82700 49.92200 21.80200
C  6.81400 46.85100 21.73300
C  6.16700 47.09700 20.42100
N  6.90800 47.50700 26.99200
C  5.85600 47.36700 26.17100
C  4.67500 47.02400 26.82400
C  5.04600 46.98200 28.14100
C  6.37200 47.28000 28.20300
C  3.35100 46.74400 26.24300
C  4.60600 46.81500 29.49700
O  3.47400 46.53000 29.83300
C  5.77700 46.92000 30.44600
C  5.99900 45.63900 31.19200
O  6.68500 44.70500 30.85300
O  5.30700 45.67100 32.41000
C  5.43000 44.52800 33.26000
H  12.41700 48.54700 29.46000
H  11.12100 48.73800 23.15700
H  5.11400 47.37400 24.04000
H  8.16600 48.50600 31.63700
H  11.14900 47.94900 31.40100
H  10.18100 50.56600 30.28300
H  11.45500 50.22300 31.48200
H  9.79800 50.33500 31.99900
H  8.87600 45.66700 31.68500
H  7.76300 46.75100 32.62000
H  9.96500 47.58700 33.77300
H  10.65000 46.12400 33.18300
H  14.92900 47.66900 27.00400
H  14.31800 48.22200 28.53100
H  14.95100 49.40500 27.32400
H  15.78800 49.23800 23.63100
H  15.80100 47.99000 24.82000
H  15.41500 49.76100 25.29500
H  9.24200 47.86700 21.69300
H  6.52100 48.89600 22.29200
H  9.87800 50.20200 21.73900
H  8.32200 50.65100 22.43600
H  8.40300 50.01400 20.80200
H  6.19900 46.14300 22.28800
H  7.75700 46.34700 21.51900
H  6.07200 48.15000 20.15400
H  5.11900 46.80100 20.46800
H  6.75500 46.53400 19.69600
H  2.90400 45.92700 26.80900
H  3.52500 46.41000 25.22000
H  2.71900 47.61700 26.07800
H  5.59100 47.62200 31.25900
H  4.52100 43.95400 33.08400
H  5.43800 44.94400 34.26700
H  6.33600 43.92900 33.16600

