158

Mg 16.94200 -2.24000 28.32700
C  15.99300 -0.39600 31.01300
C  18.90400 -4.27100 30.50400
C  18.55500 -3.67700 25.68600
C  15.66600 0.06700 26.08700
N  17.35500 -2.34000 30.54900
C  16.87100 -1.43000 31.45000
C  17.36900 -1.73600 32.88700
C  18.39600 -2.91700 32.67100
C  18.23000 -3.22200 31.13600
C  19.92400 -2.55400 33.00800
C  16.13300 -2.19500 33.80400
C  16.35400 -2.18200 35.27700
H  17.62100 -1.52700 35.90800
N  18.30500 -3.85100 28.13100
C  18.97800 -4.52000 29.13100
C  19.61300 -5.68200 28.59800
C  19.58400 -5.53000 27.15400
C  18.84400 -4.30300 26.97000
C  20.30400 -6.86200 29.40300
C  20.11800 -6.42400 26.02500
O  19.96000 -6.25000 24.82800
C  20.65900 -7.75700 26.42800
N  17.15300 -1.81300 26.08700
C  17.78400 -2.56800 25.27000
C  17.52000 -2.25600 23.80600
C  16.38700 -1.17800 23.97400
C  16.36500 -0.96800 25.50400
C  18.78200 -1.72700 23.12000
C  15.05000 -1.62100 23.16800
C  13.71000 -1.76900 23.97100
N  15.87200 -0.64300 28.43600
C  15.45900 0.25000 27.45400
C  14.73000 1.24700 28.12800
C  14.94800 1.06500 29.54300
C  15.65000 -0.15900 29.66800
C  13.94600 2.45400 27.39100
C  14.71100 1.65500 30.81600
O  14.18500 2.70200 31.08800
C  15.35500 0.72300 31.81900
C  16.34200 1.52600 32.55900
O  17.47100 1.77100 32.22000
O  15.79900 1.90900 33.74500
C  16.65400 2.74500 34.51400
H  19.43900 -4.95000 31.17000
H  18.96700 -4.11300 24.77400
H  15.09400 0.61300 25.33300
H  17.79900 -0.78700 33.20700
H  18.01100 -3.75200 33.25600
H  20.36000 -3.17100 33.79400
H  20.03900 -1.56700 33.45600
H  20.50900 -2.55400 32.08800
H  15.84100 -3.16400 33.39900
H  15.29700 -1.51100 33.65500
H  16.27900 -3.18300 35.70300
H  15.43900 -1.69700 35.61500
H  19.75300 -7.74300 29.07500
H  20.10000 -6.79300 30.47200
H  21.35400 -7.06200 29.18700
H  21.51300 -7.51300 27.06100
H  21.03600 -8.43800 25.66500
H  19.93200 -8.39000 26.93600
H  17.19100 -3.10400 23.20500
H  16.70600 -0.28700 23.43200
H  18.60900 -0.91900 22.40900
H  19.23400 -2.57500 22.60600
H  19.54700 -1.39600 23.82200
H  15.33400 -2.52100 22.62300
H  14.82200 -0.82300 22.46200
H  13.92500 -1.72300 25.03800
H  13.25400 -2.74000 23.77900
H  13.14200 -0.91100 23.61200
H  13.49500 3.09100 28.15200
H  13.13300 2.01900 26.80900
H  14.49800 2.94200 26.58800
H  14.58400 0.46600 32.54500
H  16.33100 2.98300 35.52700
H  16.67600 3.70400 33.99600
H  17.65600 2.31800 34.56200
Mg 47.77800 14.94500 28.18800
C  45.79600 15.00700 31.03500
C  49.89500 17.25900 29.82900
C  49.55200 15.08700 25.33800
C  45.63300 12.82500 26.63000
N  47.82300 16.15300 30.14700
C  47.03800 15.74600 31.21100
C  47.41700 16.34900 32.59200
C  48.56900 17.29600 32.14100
C  48.76900 16.93900 30.60400
C  48.42100 18.81500 32.38700
C  47.82900 15.29900 33.69000
C  46.93700 15.19500 34.89800
H  47.37400 15.95000 36.16000
N  49.49500 16.03600 27.67500
C  50.26800 16.86100 28.49500
C  51.47200 17.24300 27.73800
C  51.33700 16.67200 26.42600
C  50.07400 15.91100 26.40500
C  52.54700 18.07000 28.35800
C  52.30100 16.81200 25.15800
O  52.11600 16.26000 24.06000
C  53.61800 17.57500 25.29500
N  47.56100 14.22500 26.21100
C  48.44900 14.34700 25.19900
C  48.01300 13.43400 24.00700
C  46.85300 12.52800 24.51100
C  46.69100 13.21200 25.87800
C  47.79400 14.21600 22.65900
C  47.19500 10.98100 24.47500
C  48.23000 10.37700 25.48400
N  45.93000 14.25900 28.52600
C  45.21000 13.31900 27.84300
C  43.96100 13.08700 28.56500
C  44.17700 13.74700 29.80800
C  45.40500 14.35700 29.76600
C  42.80500 12.26400 28.04700
C  43.51500 13.95100 31.09000
O  42.48600 13.56200 31.58400
C  44.66600 14.68800 31.93900
C  43.98200 15.91200 32.45300
O  44.13500 17.02600 32.01200
O  43.39400 15.59300 33.68000
C  42.78400 16.64600 34.44900
H  50.54600 17.99600 30.30400
H  50.15000 15.01300 24.42700
H  44.94100 12.02600 26.35800
H  46.56400 16.88500 33.00900
H  49.49900 17.11000 32.67800
H  48.09800 19.34200 31.49000
H  49.36800 19.21000 32.75700
H  47.56400 18.99400 33.03700
H  48.87600 15.41300 33.97000
H  47.75300 14.38600 33.10000
H  46.90200 14.16000 35.23700
H  45.88600 15.35600 34.66000
H  53.53100 17.76200 28.00600
H  52.48100 18.00800 29.44500
H  52.38500 19.09900 28.03600
H  53.32900 18.60500 25.50300
H  54.04200 17.44600 24.29900
H  54.36900 17.11000 25.93400
H  48.89600 12.81400 23.85700
H  46.00300 12.68200 23.84700
H  48.08700 15.26100 22.76700
H  46.75800 14.16400 22.32600
H  48.35900 13.86400 21.79600
H  47.66100 10.67800 23.53800
H  46.26100 10.43100 24.59900
H  47.79900 9.44500 25.85100
H  48.48400 11.04400 26.30800
H  49.16900 10.02600 25.05600
H  43.16100 11.24200 27.91200
H  42.41800 12.63400 27.09800
H  41.89900 12.38600 28.64100
H  45.06700 14.10600 32.77000
H  43.28100 16.68700 35.41800
H  41.73200 16.36900 34.52500
H  42.86900 17.65400 34.04400

