158

Mg 26.63300 0.39900 30.06400
C  28.77600 -0.04200 32.81100
C  24.09100 0.85500 32.04500
C  24.59300 0.48200 27.23300
C  29.35800 -0.59400 28.10100
N  26.43500 0.37700 32.13300
C  27.42900 0.33600 33.07600
C  26.83000 0.73300 34.48300
C  25.26700 0.84600 34.27700
C  25.22000 0.59900 32.70800
C  24.36200 -0.03900 35.08100
C  27.52600 2.04300 35.08700
C  27.63300 1.85900 36.62500
H  27.25900 3.04300 37.52700
N  24.60200 0.76100 29.65200
C  23.72000 0.93200 30.64800
C  22.37100 1.10300 30.06300
C  22.51300 1.06200 28.62400
C  23.96800 0.76000 28.46100
C  21.12300 1.37100 30.87900
C  21.52700 1.39400 27.47400
O  21.84200 1.45200 26.29900
C  20.18300 1.85100 27.89400
N  26.92400 -0.03200 28.03700
C  25.96000 0.07000 27.03200
C  26.47600 -0.38200 25.67100
C  28.09000 -0.11500 25.88100
C  28.14600 -0.27600 27.42800
C  26.18900 -1.88500 25.39300
C  28.77800 1.13800 25.25900
C  30.30700 0.96000 24.89600
N  28.60600 -0.32100 30.30000
C  29.55000 -0.68700 29.44600
C  30.71000 -1.08300 30.13000
C  30.54100 -0.74800 31.46900
C  29.18200 -0.35100 31.51200
C  32.01900 -1.71000 29.51000
C  31.17100 -0.66500 32.75000
O  32.33100 -0.84700 33.11200
C  30.00300 -0.19600 33.73600
C  29.82300 -1.10300 34.95000
O  29.27200 -2.22500 34.89100
O  30.43400 -0.55000 36.05000
C  30.18400 -1.35000 37.24700
H  23.31100 1.06200 32.78100
H  23.91500 0.36600 26.38500
H  30.20700 -0.89600 27.48400
H  27.05100 -0.14200 35.09500
H  24.91800 1.87800 34.32000
H  23.68600 -0.72600 34.57200
H  23.76900 0.62600 35.70900
H  24.81400 -0.69200 35.82800
H  26.83400 2.87600 34.96200
H  28.48100 2.10000 34.56500
H  28.67800 1.71400 36.89800
H  27.02100 1.02300 36.96300
H  20.72200 2.34200 30.58900
H  21.45800 1.46500 31.91200
H  20.35500 0.64200 30.62100
H  19.79600 1.07600 28.55500
H  19.49400 1.93200 27.05300
H  20.27300 2.73300 28.52900
H  26.06800 0.19700 24.84300
H  28.71200 -0.97000 25.61600
H  25.54700 -2.06400 24.53000
H  25.65100 -2.15500 26.30100
H  27.13000 -2.42700 25.30300
H  28.55200 1.89100 26.01400
H  28.26200 1.49100 24.36600
H  30.60700 1.61300 24.07600
H  30.53600 -0.07800 24.65500
H  30.91900 1.37800 25.69500
H  32.03500 -1.71900 28.42100
H  32.04700 -2.73000 29.89300
H  32.91200 -1.22700 29.90800
H  30.26500 0.76900 34.17000
H  29.13700 -1.32200 37.55100
H  30.93700 -0.97200 37.93900
H  30.48200 -2.39400 37.15300
Mg 25.90400 50.23400 27.10600
C  24.00400 51.78200 29.45100
C  28.34000 49.41300 29.48900
C  27.91200 49.27700 24.59300
C  23.65400 51.32700 24.60400
N  26.09000 50.45500 29.21600
C  25.09600 51.01800 30.03100
C  25.43800 50.83700 31.51100
C  26.93500 50.26000 31.51600
C  27.14000 49.98700 30.00200
C  27.95600 51.24300 32.06900
C  24.42600 50.00300 32.33500
C  24.05100 50.64100 33.69100
H  24.00700 49.62000 34.82900
N  27.86500 49.46700 27.04000
C  28.69000 49.15500 28.12700
C  29.86800 48.46500 27.61600
C  29.80000 48.55500 26.19300
C  28.49300 49.07500 25.87300
C  30.84800 47.86000 28.52400
C  30.81100 48.05700 25.19300
O  30.62400 48.10300 23.95000
C  32.13600 47.32100 25.66900
N  25.86000 50.42200 24.89600
C  26.67400 49.78100 24.14100
C  26.32000 49.82200 22.67100
C  24.89700 50.48200 22.70000
C  24.79100 50.76200 24.11900
C  27.24700 50.57300 21.66000
C  23.81900 49.54700 22.14000
C  23.29500 48.38600 23.02600
N  24.16500 51.38600 27.03000
C  23.31000 51.60100 25.91000
C  22.11900 52.25300 26.45800
C  22.37100 52.40600 27.86600
C  23.59500 51.85700 28.10800
C  21.05400 52.81900 25.62100
C  21.88300 52.95700 29.06300
O  20.88100 53.60600 29.28400
C  22.85200 52.40100 30.23400
C  23.16600 53.34800 31.33500
O  23.96100 54.24100 31.27100
O  22.26700 53.08900 32.29500
C  22.44600 53.85400 33.53400
H  29.02200 49.14900 30.30000
H  28.60000 48.97200 23.80200
H  22.90900 51.51700 23.82800
H  25.55000 51.80200 32.00600
H  26.99100 49.37900 32.15500
H  28.50100 51.71500 31.25200
H  28.71300 50.63600 32.56600
H  27.53300 51.95900 32.77400
H  24.81500 49.01400 32.57800
H  23.50900 49.96700 31.74700
H  23.07200 51.11000 33.58900
H  24.67700 51.51900 33.85100
H  30.95300 46.79700 28.30700
H  30.43000 47.83700 29.53000
H  31.86000 48.25800 28.59000
H  32.80800 48.01900 26.16800
H  32.53400 46.85300 24.76800
H  31.87800 46.60100 26.44600
H  26.26000 48.77800 22.36600
H  24.96100 51.41000 22.13200
H  26.63600 51.09000 20.92000
H  27.78900 49.79400 21.12400
H  27.93200 51.26500 22.15000
H  24.16600 49.06700 21.22500
H  23.01500 50.21400 21.83100
H  22.21200 48.37200 22.90200
H  23.57700 48.54100 24.06700
H  23.68000 47.48800 22.54100
H  21.44300 53.62600 25.00000
H  20.19500 53.16400 26.19600
H  20.82300 52.02000 24.91700
H  22.37000 51.47400 30.54600
H  23.48300 53.87600 33.87000
H  21.87000 53.22100 34.20900
H  22.06100 54.87200 33.47600

