158

Mg 2.30100 -0.82500 43.56600
C  5.56800 0.46000 43.65200
C  1.26900 2.23600 42.40000
C  -0.46600 -2.22900 42.67500
C  3.70100 -3.95400 44.29000
N  3.30300 1.00800 42.99800
C  4.62300 1.30900 43.18000
C  4.86500 2.84300 42.95800
C  3.41300 3.41400 42.81100
C  2.56200 2.13100 42.73800
C  2.99400 4.35700 43.96800
C  5.88600 3.26900 41.84700
C  6.09100 2.48900 40.52900
H  5.68100 3.24200 39.24800
N  0.54800 -0.09600 42.73500
C  0.31300 1.19200 42.37500
C  -1.08200 1.27400 42.04600
C  -1.70600 0.01200 42.06500
C  -0.50300 -0.87300 42.46800
C  -1.66000 2.64500 41.89200
C  -3.16100 -0.26600 41.62400
O  -3.96500 0.59700 41.39400
C  -3.60900 -1.70800 41.54100
N  1.81000 -2.95500 43.16400
C  0.53200 -3.15500 43.06000
C  0.13400 -4.61800 43.41400
C  1.57700 -5.19000 43.81600
C  2.42200 -3.97800 43.73400
C  -0.95000 -4.64000 44.56900
C  2.08200 -6.36900 42.92800
C  1.66500 -7.76100 43.47000
N  4.25000 -1.67200 43.97600
C  4.71200 -2.89900 44.27200
C  6.08900 -2.88500 44.63100
C  6.44200 -1.55700 44.42600
C  5.32800 -0.87500 43.95800
C  6.93100 -4.04100 44.93900
C  7.56600 -0.59200 44.43800
O  8.77400 -0.77000 44.68800
C  7.03200 0.77500 44.00800
C  7.29800 1.76000 45.09900
O  8.15000 2.58000 44.99600
O  6.34900 1.70200 46.08500
C  6.48100 2.67500 47.15300
H  1.01000 3.18100 41.91800
H  -1.45000 -2.67100 42.50500
H  4.01200 -4.88100 44.77600
H  5.44800 3.09600 43.84400
H  3.27700 3.91500 41.85300
H  3.78300 4.30900 44.71900
H  2.03400 4.10500 44.42000
H  2.87400 5.39900 43.67200
H  6.82000 3.48000 42.36700
H  5.55200 4.27900 41.60700
H  5.33700 1.70200 40.53900
H  7.14300 2.22700 40.41300
H  -2.70100 2.74100 42.20000
H  -1.53200 2.89200 40.83800
H  -1.12700 3.36700 42.51200
H  -4.66700 -1.67000 41.27900
H  -3.58300 -2.17800 42.52400
H  -3.04800 -2.28400 40.80500
H  -0.36900 -5.25400 42.68600
H  1.64000 -5.36900 44.88900
H  -1.85700 -5.16300 44.26500
H  -1.15400 -3.65400 44.98700
H  -0.55900 -5.31700 45.32800
H  3.17000 -6.42400 42.96000
H  1.88200 -6.34000 41.85700
H  1.26000 -8.37700 42.66700
H  0.93700 -7.75600 44.28100
H  2.59200 -8.24900 43.76900
H  6.53900 -4.69700 45.71600
H  7.89500 -3.59100 45.17800
H  7.17300 -4.66500 44.08000
H  7.68800 1.01200 43.17000
H  6.30500 3.67900 46.76600
H  7.44200 2.65700 47.66600
H  5.69600 2.58000 47.90400
Mg -8.35700 40.26400 42.87700
C  -7.35700 36.88700 41.62500
C  -5.92700 41.55700 40.83300
C  -9.70500 43.29900 43.31700
C  -11.22500 38.75100 44.05000
N  -6.94600 39.29400 41.34700
C  -6.61700 37.93300 41.04600
C  -5.36500 37.79900 40.17500
C  -5.09100 39.32100 39.79600
C  -6.01400 40.14200 40.76500
C  -3.58200 39.79300 39.74400
C  -5.68300 36.82000 39.04700
C  -4.75200 35.60800 38.83700
H  -3.82000 35.59800 37.64400
N  -7.63800 42.21500 42.46100
C  -6.64500 42.46300 41.58400
C  -6.44300 43.93700 41.46700
C  -7.49400 44.47900 42.33500
C  -8.33900 43.31500 42.82500
C  -5.27400 44.56200 40.73900
C  -7.71900 45.91900 42.68900
O  -6.95800 46.69500 42.16000
C  -8.67700 46.41100 43.61800
N  -10.16000 40.99200 43.72800
C  -10.50200 42.28100 43.80800
C  -11.91400 42.53700 44.41100
C  -12.45200 41.03300 44.61900
C  -11.25200 40.22000 44.05500
C  -12.09100 43.58500 45.57500
C  -13.76200 40.57700 43.92300
C  -14.66700 39.72400 44.80300
N  -9.16300 38.20700 42.93500
C  -10.29900 37.76600 43.54200
C  -10.30400 36.42600 43.64100
C  -9.15000 36.07200 42.95500
C  -8.52400 37.16800 42.46800
C  -11.45000 35.51700 44.17700
C  -8.35100 34.92300 42.61800
O  -8.50300 33.74200 42.85500
C  -7.23000 35.39500 41.63800
C  -5.94800 34.94500 42.24800
O  -5.32300 35.47200 43.17300
O  -5.50300 33.79200 41.53000
C  -4.23200 33.22400 42.06600
H  -5.14700 41.98500 40.19900
H  -10.16200 44.29000 43.33000
H  -12.03500 38.23800 44.57200
H  -4.60100 37.52700 40.90400
H  -5.43800 39.49700 38.77800
H  -2.88200 38.98200 39.54300
H  -3.29400 40.26400 40.68400
H  -3.50800 40.43800 38.86800
H  -5.48000 37.46900 38.19500
H  -6.74400 36.58100 39.12000
H  -5.41900 34.75200 38.73100
H  -4.18300 35.49000 39.76000
H  -5.59400 44.72600 39.71000
H  -4.48400 43.82500 40.59000
H  -4.74400 45.40900 41.17400
H  -8.41700 47.43200 43.89900
H  -8.70100 45.72500 44.46400
H  -9.67900 46.54600 43.21200
H  -12.50300 42.94700 43.59100
H  -12.49100 40.84300 45.69200
H  -11.11700 44.07500 45.56700
H  -12.36100 43.08000 46.50200
H  -12.75700 44.41800 45.35400
H  -13.41800 40.00900 43.05800
H  -14.28400 41.49200 43.64300
H  -15.64700 40.19500 44.87900
H  -14.30800 39.93700 45.81000
H  -14.54200 38.67100 44.55000
H  -12.18400 35.41400 43.37800
H  -11.99700 35.80700 45.07400
H  -10.87500 34.59200 44.23400
H  -7.41100 34.94200 40.66400
H  -3.73100 32.76300 41.21500
H  -4.33600 32.45300 42.83000
H  -3.52700 33.95900 42.45300

