158

Mg 47.05700 45.13800 43.06100
C  43.66700 44.12000 43.23900
C  47.76200 41.69800 42.45000
C  50.12600 45.99000 42.61200
C  46.00400 48.51200 43.40800
N  45.78100 43.14700 42.81200
C  44.49000 43.01400 43.01300
C  44.02300 41.52500 42.71800
C  45.40000 40.81000 42.85900
C  46.38700 41.96700 42.70000
C  45.55300 39.79800 44.03000
C  43.20000 41.23100 41.51800
C  43.62300 42.01200 40.30700
H  43.19800 41.50700 38.93700
N  48.73600 43.96900 42.42800
C  48.84500 42.54900 42.23300
C  50.21200 42.21300 41.91700
C  50.89900 43.49300 41.85700
C  49.97700 44.57100 42.33100
C  50.72800 40.86400 41.59900
C  52.40700 43.60100 41.53400
O  53.09900 42.65500 41.23200
C  53.06600 44.95700 41.53600
N  47.95500 47.05400 42.95500
C  49.27500 47.09800 42.92900
C  49.73300 48.54100 43.05700
C  48.47200 49.36300 43.35300
C  47.37600 48.28400 43.27100
C  50.96800 48.81600 43.95900
C  48.14600 50.51900 42.29100
C  47.64700 51.73800 42.99000
N  45.23400 46.12900 43.32300
C  44.99800 47.47300 43.42400
C  43.54500 47.70000 43.62000
C  42.98700 46.37800 43.50800
C  44.09000 45.51900 43.30700
C  42.76700 49.04800 43.83100
C  41.73500 45.63800 43.30800
O  40.62000 46.07200 43.13000
C  42.12800 44.15700 43.40600
C  41.80500 43.66400 44.81700
O  42.31900 44.15200 45.76900
O  41.09100 42.50600 44.77600
C  40.87400 41.87900 46.08900
H  47.98300 40.62900 42.44100
H  51.18400 46.25300 42.65700
H  45.78800 49.57300 43.55100
H  43.41300 41.23200 43.57200
H  45.56200 40.21700 41.95900
H  45.97400 38.89500 43.58800
H  44.61400 39.61100 44.55100
H  46.30500 40.23900 44.68500
H  42.12700 41.34400 41.67400
H  43.34900 40.15200 41.48500
H  44.71100 42.05200 40.26000
H  43.30400 43.04200 40.46800
H  49.80900 40.32300 41.37600
H  51.12400 40.36600 42.48400
H  51.30600 40.95900 40.68000
H  52.47400 45.78500 41.14900
H  53.92800 44.78700 40.89100
H  53.36200 45.12700 42.57100
H  50.06300 48.79000 42.04900
H  48.53700 49.72100 44.38100
H  51.08600 47.96700 44.63200
H  50.83500 49.77700 44.45700
H  51.83500 48.91200 43.30600
H  47.39700 50.14000 41.59600
H  49.09200 50.72300 41.78900
H  48.43600 52.48900 42.96100
H  47.33900 51.60400 44.02600
H  46.83100 52.14900 42.39700
H  41.68400 49.05900 43.71100
H  43.13400 49.75500 43.08700
H  43.03800 49.60100 44.73000
H  41.53600 43.53200 42.73800
H  41.86400 41.70400 46.51100
H  40.48600 40.87700 45.90500
H  40.36600 42.65400 46.66200
Mg 0.27900 43.67000 26.30300
C  2.39400 43.09400 29.08700
C  -2.26800 42.35300 28.12800
C  -1.60400 43.67700 23.48000
C  3.14000 44.25200 24.40100
N  0.10100 42.89500 28.37100
C  1.03500 42.90300 29.41100
C  0.29700 42.82100 30.77000
C  -1.03700 42.08800 30.41000
C  -1.11200 42.46500 28.85300
C  -0.98600 40.50300 30.69400
C  0.19200 44.22200 31.30900
C  -0.20100 44.34200 32.75300
H  -0.54900 43.07300 33.60000
N  -1.75000 43.18800 25.89000
C  -2.63800 42.74900 26.83200
C  -3.93800 42.59900 26.14700
C  -3.76500 42.99800 24.78600
C  -2.34000 43.29400 24.67800
C  -5.11500 42.19800 26.97000
C  -4.71600 42.95000 23.65600
O  -4.46000 43.27100 22.52500
C  -6.14100 42.35400 23.82500
N  0.62800 43.81300 24.22000
C  -0.30500 43.96100 23.26100
C  0.27800 44.44100 21.95100
C  1.76200 44.74900 22.30000
C  1.87000 44.30300 23.75100
C  0.01200 43.42300 20.77700
C  2.24800 46.16900 22.01000
C  2.14600 47.16700 23.22900
N  2.37400 43.64600 26.61000
C  3.40700 43.84000 25.71500
C  4.66000 43.67900 26.42600
C  4.29900 43.42300 27.73800
C  2.89800 43.31900 27.78300
C  6.06900 43.77000 25.82800
C  4.84200 43.15400 29.04000
O  5.97300 42.98700 29.36000
C  3.63000 43.10400 29.95300
C  3.72400 41.97000 30.86200
O  3.75800 40.80500 30.55400
O  3.86400 42.44900 32.08500
C  3.88500 41.47600 33.16800
H  -3.10600 41.92000 28.67800
H  -2.09000 43.75400 22.50400
H  3.96200 44.56200 23.75300
H  0.89500 42.21300 31.44900
H  -1.97400 42.47700 30.80900
H  -0.12700 40.23100 31.30700
H  -0.85000 40.07800 29.69900
H  -1.91300 40.10800 31.10800
H  -0.51700 44.75400 30.67500
H  1.19500 44.64200 31.22900
H  -1.07600 44.98900 32.69200
H  0.56100 44.88400 33.31300
H  -5.06900 42.40200 28.04000
H  -5.24200 41.12900 26.80000
H  -5.97800 42.71200 26.54600
H  -6.77200 43.07100 24.35200
H  -5.94400 41.52600 24.50500
H  -6.52600 41.99000 22.87300
H  -0.23300 45.31000 21.53500
H  2.27600 44.09500 21.59600
H  -0.42000 42.49600 21.15300
H  0.86800 43.17400 20.15000
H  -0.66500 43.85100 20.03800
H  1.55600 46.61300 21.29400
H  3.29300 46.17600 21.70000
H  2.58900 46.75300 24.13400
H  1.12300 47.45900 23.46600
H  2.80900 48.02100 23.09000
H  6.70700 43.60100 26.69600
H  5.85600 44.82300 25.64100
H  6.33000 43.26800 24.89600
H  3.68200 44.03600 30.51600
H  3.23500 41.97200 33.88900
H  4.92600 41.46100 33.49100
H  3.54100 40.45700 32.98700

