158

Mg 46.89700 16.31900 28.25400
C  45.03100 15.85200 31.16800
C  49.23800 17.99200 30.02200
C  48.30600 17.26500 25.30400
C  44.37900 14.69300 26.58200
N  46.99400 16.94400 30.34300
C  46.24800 16.51500 31.38700
C  46.89900 16.82900 32.76100
C  48.18200 17.71600 32.33700
C  48.14100 17.48800 30.82300
C  48.02400 19.18900 32.74500
C  47.15100 15.52600 33.60900
C  46.75300 15.53200 35.16900
H  46.34300 16.84600 35.85300
N  48.51100 17.48500 27.71500
C  49.43600 18.01400 28.62800
C  50.56300 18.59800 27.92800
C  50.30700 18.47900 26.58500
C  48.98200 17.73800 26.46900
C  51.61100 19.38000 28.72900
C  51.23100 18.88300 25.38700
O  50.92900 18.61400 24.20700
C  52.60100 19.52900 25.59200
N  46.39200 16.10100 26.26600
C  47.16000 16.53300 25.17600
C  46.64700 15.91200 23.86000
C  45.29500 15.34800 24.30900
C  45.38900 15.32200 25.82800
C  46.61100 16.92300 22.66400
C  44.96100 13.97500 23.75100
C  45.65100 12.72400 24.22100
N  45.09100 15.34200 28.71900
C  44.19000 14.68400 27.92800
C  43.04900 14.27500 28.70400
C  43.39900 14.64800 30.00500
C  44.59800 15.33400 29.96300
C  41.93400 13.60200 28.24900
C  42.93300 14.64800 31.36200
O  41.82500 14.22400 31.72900
C  43.98600 15.41300 32.13100
C  43.36600 16.54500 32.85900
O  43.36700 17.69100 32.46000
O  42.95100 16.14100 34.09800
C  42.29900 17.16500 34.96700
H  50.11700 18.26700 30.60900
H  48.76700 17.33400 24.31600
H  43.61500 14.17900 25.99500
H  46.12900 17.44800 33.22100
H  49.10700 17.35300 32.78600
H  46.99800 19.42000 33.03500
H  48.32700 19.93900 32.01400
H  48.70000 19.35000 33.58500
H  48.21300 15.29100 33.54400
H  46.65000 14.70700 33.09200
H  47.57400 15.05400 35.70300
H  45.86400 14.92500 35.34000
H  52.36600 19.85500 28.10200
H  52.08800 18.71300 29.44700
H  51.08300 20.19400 29.22600
H  53.28200 18.88200 26.14500
H  52.62800 20.40000 26.24700
H  53.02000 19.71000 24.60200
H  47.30000 15.09400 23.55300
H  44.50300 16.05500 24.06100
H  47.48600 16.67600 22.06300
H  46.69400 17.97500 22.93700
H  45.66600 16.75900 22.14600
H  45.03400 14.02800 22.66500
H  43.90300 13.85600 23.98300
H  45.35300 12.44600 25.23200
H  46.72600 12.90100 24.23600
H  45.46300 11.95700 23.46900
H  41.84700 13.79000 27.17900
H  41.07700 14.08400 28.71900
H  41.97000 12.57100 28.60100
H  44.37400 14.70500 32.86300
H  42.78000 18.14200 34.92100
H  42.04300 16.75400 35.94300
H  41.36300 17.31600 34.42900
Mg -11.51900 38.62300 41.97400
C  -9.38200 35.95600 40.89500
C  -9.51400 40.71100 40.20900
C  -13.75000 41.03100 42.40600
C  -13.74300 36.16800 42.96100
N  -9.74300 38.30500 40.61300
C  -8.96900 37.20300 40.48500
C  -7.70100 37.57500 39.64600
C  -7.66600 39.08900 39.57700
C  -9.01300 39.45300 40.18600
C  -6.48200 39.85400 40.29600
C  -7.67600 36.89500 38.22400
C  -6.45000 35.97600 37.93900
H  -5.48400 36.61100 36.94500
N  -11.57700 40.67400 41.54000
C  -10.62300 41.32300 40.76200
C  -11.06400 42.71000 40.60200
C  -12.24300 42.90800 41.38100
C  -12.58200 41.55000 41.88500
C  -10.37500 43.75200 39.78700
C  -12.95500 44.20900 41.47800
O  -12.54300 45.29900 41.02300
C  -14.16600 44.25100 42.37100
N  -13.63800 38.49700 42.38400
C  -14.20800 39.71800 42.71300
C  -15.60500 39.46300 43.30300
C  -15.63000 37.89600 43.40800
C  -14.26100 37.46000 42.89300
C  -15.93800 40.30100 44.60300
C  -16.81300 37.21400 42.61600
C  -17.97100 36.72200 43.52300
N  -11.56500 36.45300 41.94800
C  -12.51600 35.67200 42.55800
C  -12.02300 34.24000 42.63500
C  -10.83300 34.37500 41.90100
C  -10.61700 35.65900 41.52300
C  -12.58100 33.09300 43.41900
C  -9.64800 33.63200 41.43300
O  -9.39500 32.42100 41.56900
C  -8.70700 34.63700 40.71200
C  -7.45700 34.44800 41.42900
O  -7.28800 34.72300 42.63800
O  -6.43200 33.91700 40.75200
C  -5.08600 33.68900 41.30200
H  -8.94800 41.39600 39.57400
H  -14.58800 41.73100 42.38900
H  -14.33200 35.47300 43.56200
H  -6.88400 37.18400 40.25300
H  -7.58700 39.46900 38.55800
H  -5.61400 39.19400 40.30200
H  -6.77500 39.97800 41.33800
H  -6.17500 40.82500 39.90800
H  -7.83400 37.67400 37.47800
H  -8.47700 36.16000 38.14600
H  -6.75300 34.97200 37.64200
H  -5.71600 35.82500 38.73100
H  -11.12200 44.37100 39.29000
H  -9.80500 43.17600 39.05800
H  -9.82600 44.39700 40.47300
H  -14.99300 43.68500 41.94300
H  -14.62400 45.24000 42.35300
H  -13.96100 43.91800 43.38800
H  -16.40900 39.78900 42.64300
H  -15.73000 37.65300 44.46600
H  -15.05800 40.32600 45.24500
H  -16.69100 39.75000 45.16600
H  -16.04400 41.35500 44.34600
H  -16.51300 36.36200 42.00500
H  -17.29000 37.90500 41.92100
H  -18.73500 37.45500 43.78200
H  -17.58800 36.31100 44.45700
H  -18.54900 35.90800 43.08500
H  -13.64500 33.24700 43.59800
H  -12.06400 32.75800 44.31800
H  -12.53800 32.27500 42.69900
H  -8.69200 34.22700 39.70200
H  -4.78800 34.41800 42.05600
H  -4.35300 33.63400 40.49700
H  -5.02900 32.72200 41.80300

