158

Mg 23.90700 -5.31400 45.61900
C  26.12900 -3.07600 44.06000
C  21.54700 -4.16400 43.61900
C  22.25900 -8.19800 46.17600
C  26.83100 -6.70800 47.18400
N  23.97600 -3.97800 43.83400
C  24.83700 -3.03600 43.54900
C  24.29100 -1.99000 42.58300
C  22.73100 -2.03800 42.87700
C  22.73500 -3.47200 43.52200
C  22.17000 -0.90800 43.81700
C  24.59400 -2.23800 41.12300
C  25.58400 -1.29800 40.44400
H  25.46000 -1.31000 38.94300
N  22.01200 -6.03200 45.11000
C  21.13700 -5.43000 44.23500
C  19.93600 -6.19700 44.19000
C  20.09500 -7.28700 45.04300
C  21.46900 -7.25100 45.49900
C  18.72700 -5.67700 43.48900
C  18.91900 -8.25400 45.40700
O  17.79200 -8.15100 44.93000
C  19.05000 -9.40600 46.32900
N  24.48500 -7.17600 46.49000
C  23.63300 -8.23200 46.63500
C  24.17800 -9.32900 47.46800
C  25.59000 -8.77600 47.90000
C  25.66500 -7.45900 47.14000
C  23.22100 -9.77600 48.59400
C  26.74900 -9.83300 47.73700
C  27.42800 -10.39100 49.10700
N  26.02700 -4.89100 45.82500
C  27.06500 -5.50600 46.50000
C  28.34800 -4.75100 46.31500
C  28.03100 -3.81400 45.34500
C  26.62600 -3.89000 45.16900
C  29.69600 -5.01100 46.90100
C  28.47200 -2.77300 44.48400
O  29.60600 -2.40200 44.33500
C  27.28700 -2.25900 43.66600
C  27.09500 -0.83700 43.86800
O  26.49200 -0.28000 44.77800
O  27.73600 -0.13000 42.94900
C  27.71300 1.37600 42.85400
H  20.70000 -3.78800 43.04200
H  21.68500 -9.12200 46.27600
H  27.69000 -7.16800 47.67700
H  24.58900 -0.96800 42.81800
H  22.16800 -2.02400 41.94400
H  23.06100 -0.55000 44.33200
H  21.43000 -1.38700 44.45700
H  21.67400 -0.14900 43.21100
H  23.71100 -2.27800 40.48500
H  25.12000 -3.19200 41.12700
H  26.64400 -1.48100 40.61700
H  25.43900 -0.34000 40.94400
H  18.18600 -6.49400 43.01200
H  18.85900 -4.98300 42.65900
H  18.10400 -5.23200 44.26500
H  18.02800 -9.68800 46.58200
H  19.61800 -9.19400 47.23400
H  19.51100 -10.18000 45.71400
H  24.32900 -10.11800 46.73100
H  25.47700 -8.34700 48.89600
H  22.68800 -8.93600 49.04000
H  23.74700 -10.29900 49.39300
H  22.53000 -10.44900 48.08800
H  27.42600 -9.36200 47.02500
H  26.30100 -10.67900 47.21600
H  26.85100 -10.02600 49.95700
H  28.51100 -10.28900 49.18600
H  27.22000 -11.45600 49.20700
H  29.76600 -4.61900 47.91600
H  30.40500 -4.36900 46.38000
H  29.89200 -6.07900 46.80700
H  27.59400 -2.33000 42.62200
H  28.23100 1.81800 43.70500
H  26.65200 1.62300 42.83200
H  28.22300 1.65700 41.93200
Mg 47.34100 17.03400 27.84000
C  45.66800 16.87900 30.92400
C  49.66700 19.15700 29.41400
C  48.54800 17.94900 24.82600
C  44.66000 15.39500 26.30000
N  47.57700 17.92400 29.99800
C  46.84000 17.63400 31.06700
C  47.43700 18.20800 32.32000
C  48.55500 19.12300 31.75700
C  48.63900 18.75400 30.27700
C  48.30200 20.67400 31.95900
C  48.09000 17.11500 33.24400
C  47.83400 17.29700 34.74400
H  47.58800 18.72100 35.27000
N  49.02600 18.18200 27.24300
C  49.90200 18.86600 28.01300
C  50.93600 19.52300 27.13000
C  50.63200 19.13000 25.78300
C  49.37200 18.37500 25.91400
C  51.97700 20.42000 27.71100
C  51.37400 19.56100 24.48000
O  50.81100 19.31900 23.45600
C  52.69900 20.26300 24.61600
N  46.72400 16.67300 25.87000
C  47.38800 17.10000 24.82500
C  46.94700 16.48800 23.49500
C  45.70500 15.56600 24.00200
C  45.63600 15.89100 25.45400
C  46.59800 17.54500 22.39500
C  45.91400 14.03100 23.74000
C  46.65700 13.18900 24.72200
N  45.61200 16.13600 28.47300
C  44.61200 15.55400 27.71000
C  43.60700 15.07000 28.62700
C  43.94900 15.59300 29.88200
C  45.15500 16.28400 29.71600
C  42.44200 14.25100 28.33500
C  43.57400 15.56700 31.24100
O  42.63900 15.04500 31.79100
C  44.62100 16.52500 31.93000
C  43.83400 17.70900 32.42300
O  43.44800 18.61300 31.81000
O  43.72800 17.58700 33.76500
C  43.25200 18.85000 34.42400
H  50.21400 19.91500 29.97800
H  48.84400 18.23100 23.81300
H  43.80300 14.88800 25.85200
H  46.66600 18.74700 32.87100
H  49.46200 18.82600 32.28300
H  48.24000 21.16900 30.99000
H  49.10800 21.08200 32.56900
H  47.36500 20.91900 32.45900
H  49.17600 17.06600 33.17200
H  47.71200 16.15200 32.90100
H  48.73400 16.93200 35.23800
H  47.12800 16.55400 35.11400
H  52.10600 20.47800 28.79200
H  51.78700 21.40600 27.28600
H  52.91200 19.98100 27.36500
H  52.72600 21.27900 25.01200
H  53.17600 20.29100 23.63600
H  53.37400 19.64700 25.20900
H  47.73400 15.84500 23.10200
H  44.78500 15.91800 23.53400
H  45.61600 17.40600 21.94100
H  47.25300 17.47800 21.52600
H  46.57700 18.57300 22.75800
H  46.57700 14.00200 22.87500
H  45.01600 13.46100 23.50200
H  47.55000 12.93900 24.14800
H  45.99000 12.35800 24.95200
H  47.00000 13.74600 25.59300
H  41.96300 13.89000 29.24500
H  42.87000 13.42100 27.77300
H  41.83700 14.87700 27.67900
H  45.05700 16.02600 32.79600
H  42.22400 19.07200 34.13800
H  43.84800 19.73500 34.19900
H  43.27300 18.86500 35.51400

