158

Mg 26.11600 52.03800 25.59900
C  23.91500 52.95400 28.21000
C  28.41600 51.43100 28.20600
C  28.37300 51.77200 23.32200
C  23.72800 53.19700 23.34000
N  26.19400 52.23600 27.89800
C  25.11400 52.45800 28.69600
C  25.44700 52.15200 30.21100
C  26.93500 51.85900 30.20300
C  27.26200 51.91400 28.69900
C  27.83600 52.73000 31.11300
C  24.52200 51.02800 30.79900
C  24.07300 51.39800 32.26000
H  24.41900 50.62600 33.52700
N  28.06300 51.49200 25.79300
C  28.88200 51.27800 26.86900
C  30.18600 50.92700 26.46000
C  30.17500 50.86900 25.04100
C  28.83700 51.35100 24.63100
C  31.22600 50.73000 27.49200
C  31.36500 50.56700 24.12100
O  31.25900 50.59000 22.88700
C  32.70100 50.21900 24.61900
N  26.05200 52.52400 23.66300
C  27.13600 52.21200 22.88100
C  26.94300 52.57000 21.37800
C  25.40200 52.85200 21.40600
C  25.00700 52.80500 22.89900
C  27.76500 53.91200 21.01000
C  24.51500 51.83900 20.50900
C  23.68300 52.44200 19.34800
N  24.21500 52.92300 25.68800
C  23.31600 53.25200 24.69800
C  22.08500 53.69600 25.26800
C  22.23800 53.54800 26.67700
C  23.54900 53.04300 26.84000
C  20.79700 54.12100 24.68700
C  21.60000 53.69200 27.95800
O  20.45400 54.02400 28.26900
C  22.68300 53.30800 29.03400
C  22.75000 54.25100 30.18100
O  23.27900 55.35700 30.08200
O  21.99200 53.82600 31.20500
C  21.85400 54.79200 32.29800
H  29.07800 51.07700 28.99900
H  29.05500 51.60000 22.48600
H  23.03900 53.40200 22.51700
H  25.31900 53.03600 30.83500
H  27.08700 50.85600 30.60200
H  27.18800 53.17400 31.86900
H  28.32600 53.49000 30.50500
H  28.60600 52.20000 31.67300
H  25.18400 50.18700 31.00500
H  23.67600 50.81300 30.14600
H  22.99700 51.55300 32.34400
H  24.41100 52.39000 32.56000
H  30.94700 51.23100 28.41900
H  32.20600 51.09000 27.18100
H  31.39200 49.65800 27.59400
H  32.64900 49.64100 25.54200
H  33.23400 51.16900 24.61600
H  33.26700 49.63300 23.89500
H  27.31600 51.79800 20.70500
H  25.18400 53.85100 21.02800
H  28.62700 53.61200 20.41300
H  28.19200 54.46200 21.84800
H  27.13700 54.62400 20.47500
H  23.86900 51.26900 21.17700
H  25.14500 51.02300 20.15600
H  23.02700 53.25900 19.64900
H  23.03500 51.66800 18.93700
H  24.37400 52.70700 18.54800
H  20.92100 54.27400 23.61400
H  20.58500 55.04200 25.22900
H  19.99700 53.38700 24.77900
H  22.25100 52.39600 29.44600
H  22.67100 54.56600 32.98300
H  20.93700 54.75500 32.88500
H  22.07500 55.82700 32.03600
Mg 0.44100 42.86900 25.87700
C  2.88800 42.49900 28.69000
C  -1.99800 42.22000 28.21300
C  -1.73000 42.82800 23.42200
C  3.16500 43.22000 23.76400
N  0.48900 42.33100 28.14500
C  1.50700 42.34700 29.05800
C  0.96300 42.20200 30.47700
C  -0.44300 41.52700 30.24000
C  -0.69900 42.05200 28.77200
C  -0.30700 39.99400 30.39400
C  0.79900 43.48100 31.23500
C  0.99800 43.42700 32.73900
H  1.03200 42.10200 33.53400
N  -1.60900 42.60600 25.79300
C  -2.41200 42.40100 26.81800
C  -3.76300 42.46100 26.39300
C  -3.73900 42.51300 25.01200
C  -2.33500 42.66200 24.68500
C  -4.92600 42.46600 27.39700
C  -4.89800 42.58800 24.02300
O  -4.80200 42.83200 22.79300
C  -6.27200 42.14900 24.57300
N  0.69300 43.03100 23.92100
C  -0.36500 43.00000 23.06200
C  0.11800 42.99700 21.59700
C  1.69000 43.15400 21.73600
C  1.87100 43.16700 23.22100
C  -0.24300 41.61800 20.91400
C  2.37900 44.41500 21.15300
C  2.09700 45.75700 21.90800
N  2.58200 42.88000 26.07800
C  3.51200 43.12700 25.13600
C  4.81300 43.03300 25.72600
C  4.66600 42.81000 27.12100
C  3.29200 42.77800 27.31200
C  6.11000 43.22500 24.97300
C  5.36800 42.60800 28.38700
O  6.52600 42.56100 28.74200
C  4.16300 42.42400 29.46500
C  4.29400 41.24100 30.35700
O  4.00300 40.05800 30.10700
O  4.92400 41.57800 31.54200
C  5.30000 40.52900 32.46700
H  -2.75700 42.07000 28.98400
H  -2.37800 42.78200 22.54500
H  4.09300 43.35100 23.20300
H  1.69900 41.54200 30.93600
H  -1.32400 41.83400 30.80400
H  -1.02600 39.62300 31.12400
H  0.69900 39.67800 30.67200
H  -0.56200 39.48000 29.46800
H  -0.22200 43.78400 31.00100
H  1.40800 44.21800 30.71200
H  0.26400 44.07000 33.22500
H  1.92700 43.95500 32.95100
H  -5.58900 43.30600 27.18700
H  -4.50800 42.76600 28.35800
H  -5.53700 41.57600 27.55000
H  -6.66800 42.87200 25.28600
H  -6.12800 41.18400 25.05900
H  -6.93500 42.11400 23.70800
H  -0.37300 43.75300 20.98400
H  2.20000 42.31800 21.25900
H  -0.67300 41.00600 21.70700
H  0.50700 41.00300 20.41600
H  -0.95800 41.92700 20.15200
H  1.90100 44.52800 20.18000
H  3.40300 44.14200 20.89500
H  2.13700 46.55800 21.17000
H  2.93100 45.94900 22.58300
H  1.13300 45.77700 22.41600
H  6.43900 44.26500 24.96900
H  6.02300 42.70500 24.02000
H  6.88100 42.70600 25.54200
H  4.29500 43.23500 30.18200
H  6.35000 40.52400 32.76200
H  5.02800 39.49400 32.26000
H  4.78300 40.88200 33.35900

