158

Mg -0.07300 6.87700 25.65400
C  1.05300 9.06400 28.09000
C  -0.01400 4.34100 27.94700
C  -0.89800 4.77000 23.27700
C  0.35200 9.50100 23.37700
N  0.57400 6.65900 27.76000
C  0.82700 7.74300 28.57700
C  0.95300 7.33500 30.02800
C  0.99500 5.74400 29.95300
C  0.42800 5.55600 28.52100
C  2.30000 5.07600 30.25100
C  -0.12200 7.98600 31.04500
C  -0.07300 7.51500 32.46800
H  1.22900 7.50500 33.18600
N  -0.47400 4.84400 25.63000
C  -0.43400 3.98600 26.66000
C  -0.99600 2.70000 26.21300
C  -1.38300 2.79000 24.82000
C  -0.86400 4.17600 24.52900
C  -1.14200 1.52800 27.20100
C  -2.02600 1.81500 23.83500
O  -2.37800 2.17500 22.70600
C  -2.12900 0.46700 24.23800
N  -0.17300 7.14000 23.65700
C  -0.48900 6.09600 22.84200
C  -0.86200 6.54300 21.43000
C  -0.52000 8.04400 21.49100
C  -0.04900 8.27300 22.92100
C  -0.09100 5.77200 20.31400
C  -1.63200 9.00200 21.11700
C  -1.05900 10.19600 20.31800
N  0.56900 8.88600 25.72900
C  0.64500 9.83500 24.69100
C  1.14700 11.07500 25.18600
C  1.22000 10.84500 26.57100
C  0.90300 9.50800 26.83000
C  1.38100 12.25300 24.35500
C  1.50900 11.47900 27.86300
O  1.81700 12.66200 28.16000
C  1.28400 10.33100 28.90400
C  2.32100 10.30300 29.95800
O  3.46200 9.84100 29.82300
O  1.84000 10.90000 31.16100
C  2.98000 11.00300 32.04100
H  0.15800 3.57300 28.70400
H  -1.17800 4.20200 22.38700
H  0.47100 10.29000 22.63200
H  1.91100 7.75100 30.34300
H  0.26900 5.29100 30.62800
H  2.68800 4.69200 29.30700
H  2.19900 4.30100 31.01100
H  3.00500 5.79300 30.67000
H  -1.12400 7.92200 30.62000
H  0.10900 9.05100 31.04800
H  -0.53100 6.53100 32.56500
H  -0.83700 8.16700 32.89300
H  -1.92600 1.50800 27.95800
H  -0.14600 1.57400 27.64100
H  -1.03300 0.58700 26.66200
H  -2.81500 0.48500 25.08600
H  -1.10300 0.18400 24.47100
H  -2.53300 -0.25200 23.52500
H  -1.93600 6.38200 21.34000
H  0.27800 8.26700 20.78200
H  0.45300 4.87900 20.62200
H  0.57200 6.46800 19.80100
H  -0.83300 5.41100 19.60100
H  -2.16600 9.31500 22.01400
H  -2.40800 8.54000 20.50700
H  -1.51900 10.22800 19.33100
H  0.02500 10.29400 20.24700
H  -1.36700 11.04300 20.93200
H  2.16000 11.83600 23.71700
H  1.77200 13.10000 24.91900
H  0.53500 12.42300 23.68900
H  0.33700 10.75400 29.23800
H  3.82000 11.52100 31.57700
H  3.44700 10.15400 32.53900
H  2.56500 11.60200 32.85200
Mg 54.41300 24.69100 45.30900
C  51.92000 26.64600 43.84000
C  53.43500 22.07100 43.58900
C  57.34500 23.06900 46.32300
C  55.86900 27.66500 46.59100
N  52.92600 24.44000 43.93200
C  52.02700 25.34100 43.33300
C  51.03100 24.65800 42.34900
C  51.47700 23.18300 42.37400
C  52.68400 23.23200 43.30800
C  50.39100 22.19300 42.81900
C  50.92800 25.31500 40.92700
C  50.76000 24.46600 39.62700
H  51.83700 24.83000 38.60200
N  55.25500 22.80500 45.00000
C  54.64200 21.87800 44.30700
C  55.37100 20.65400 44.50200
C  56.53400 20.86200 45.22900
C  56.43300 22.31400 45.56000
C  54.83300 19.40800 43.97400
C  57.63300 19.88900 45.46500
O  57.64600 18.79900 44.93400
C  58.80600 20.11200 46.50300
N  56.43600 25.31700 46.14300
C  57.39300 24.42900 46.54400
C  58.48300 25.20400 47.39500
C  58.09200 26.67100 47.01300
C  56.64500 26.50000 46.64200
C  58.58100 24.79700 48.84600
C  58.95600 27.50800 45.96100
C  59.51500 28.85100 46.43300
N  54.01100 26.72100 45.31100
C  54.60300 27.80300 45.96300
C  53.74900 28.94500 45.97400
C  52.68500 28.48500 45.19800
C  52.90400 27.19100 44.73600
C  53.93800 30.10900 46.84900
C  51.41700 28.88000 44.68500
O  50.80100 29.90200 44.79900
C  50.89600 27.71600 43.80400
C  50.56700 28.30400 42.49700
O  51.30900 28.57000 41.54100
O  49.15900 28.36400 42.45800
C  48.55500 28.67200 41.14800
H  53.13900 21.17100 43.04600
H  58.21000 22.58700 46.78200
H  56.24600 28.62400 46.95200
H  50.00600 24.70900 42.71800
H  51.99600 22.78200 41.50400
H  50.34800 21.76600 43.82100
H  50.71300 21.32700 42.24100
H  49.45300 22.66400 42.52300
H  51.76000 26.00700 40.79800
H  50.07800 25.99700 40.92700
H  49.73100 24.57700 39.28700
H  50.83800 23.41600 39.91000
H  53.81600 19.20800 44.31100
H  55.31300 18.46900 44.25400
H  54.70800 19.56900 42.90400
H  59.09900 19.13700 46.89200
H  58.32700 20.56700 47.37000
H  59.67800 20.62600 46.09700
H  59.42800 24.91500 46.93300
H  58.13300 27.14400 47.99400
H  58.89700 25.66600 49.42300
H  59.36900 24.07100 49.04900
H  57.62900 24.46900 49.26500
H  58.32900 27.75300 45.10400
H  59.79200 26.88300 45.64800
H  59.17700 29.71300 45.85800
H  60.60300 28.79300 46.45300
H  59.18700 29.03400 47.45700
H  53.03300 30.26800 47.43400
H  54.07800 30.89800 46.11100
H  54.77500 29.98700 47.53700
H  49.93500 27.29500 44.10000
H  48.51900 29.75500 41.02900
H  47.52300 28.32500 41.09600
H  49.02600 28.10200 40.34800

