158

Mg 31.08500 58.37700 40.31800
C  28.15700 56.51600 39.14800
C  32.99800 55.65200 39.20700
C  33.67100 60.43300 40.56200
C  28.90700 61.11000 40.80800
N  30.62800 56.32700 39.19200
C  29.39800 55.79100 38.88500
C  29.60800 54.40900 38.18100
C  31.06300 54.02800 38.68800
C  31.62000 55.43300 39.05300
C  31.10200 53.10600 39.99700
C  29.40000 54.65700 36.67500
C  28.59600 53.50700 36.00900
H  28.29000 53.69400 34.50500
N  33.10600 58.08400 39.90800
C  33.70200 56.88700 39.48600
C  35.09300 57.22400 39.24500
C  35.35400 58.53400 39.66700
C  34.00000 59.09200 40.05700
C  36.03100 56.19700 38.77100
C  36.70400 59.21900 39.69100
O  37.71100 58.59900 39.39200
C  36.84200 60.67700 40.10700
N  31.23600 60.48700 40.66000
C  32.46500 61.02900 40.80700
C  32.35000 62.60000 41.18500
C  30.75900 62.76800 41.19700
C  30.23700 61.37800 40.92100
C  33.17100 63.14400 42.39000
C  30.22500 63.84800 40.11500
C  29.28500 64.90600 40.52000
N  28.97700 58.68300 40.24600
C  28.26300 59.88200 40.34400
C  26.86000 59.72200 40.15500
C  26.80300 58.38600 39.61200
C  28.08000 57.81000 39.70300
C  25.75300 60.67400 40.30700
C  25.88000 57.36200 39.09100
O  24.66400 57.38800 39.00100
C  26.68900 56.08300 38.89000
C  26.22200 55.01900 39.82900
O  26.96000 54.58800 40.69800
O  24.94600 54.71500 39.56800
C  24.31000 53.64600 40.36200
H  33.59700 54.80200 38.87100
H  34.45400 61.17200 40.74300
H  28.16700 61.91300 40.81100
H  29.01900 53.58900 38.59200
H  31.67000 53.57000 37.90700
H  30.16400 52.55900 40.09600
H  31.06500 53.74600 40.87900
H  32.04700 52.56600 39.93100
H  30.40500 54.81800 36.28700
H  28.85100 55.58600 36.52000
H  27.60400 53.42300 36.45300
H  29.08900 52.55100 36.18700
H  37.01400 56.37900 39.20600
H  36.14700 56.33000 37.69500
H  35.60200 55.21700 38.97800
H  36.16900 61.24000 39.46100
H  37.88000 61.01000 40.06900
H  36.57900 60.70600 41.16500
H  32.64100 63.22600 40.34100
H  30.45500 63.18500 42.15800
H  32.60200 63.55300 43.22400
H  34.10000 63.58200 42.02600
H  33.55700 62.21900 42.82100
H  29.83300 63.38400 39.21000
H  31.06100 64.48600 39.82900
H  29.67100 65.90800 40.33700
H  29.39100 64.92500 41.60500
H  28.25900 64.68400 40.22600
H  25.70800 61.17100 39.33800
H  25.89000 61.28800 41.19700
H  24.81600 60.13300 40.44100
H  26.49800 55.81700 37.85000
H  23.95800 52.84400 39.71300
H  23.46200 54.04900 40.91600
H  24.90300 53.18000 41.14900
Mg -6.12300 26.05300 26.66000
C  -4.30700 27.57300 29.22000
C  -7.71600 24.14300 28.83500
C  -7.59100 24.57800 24.03700
C  -3.90100 27.69900 24.36200
N  -5.96400 25.88900 28.74300
C  -5.22100 26.60900 29.68300
C  -5.77700 26.37100 31.10500
C  -6.44000 24.99100 30.96700
C  -6.78800 25.07600 29.44900
C  -5.53100 23.78200 31.37500
C  -6.65500 27.63000 31.51500
C  -6.97800 27.83600 33.02100
H  -6.51500 26.73800 33.98500
N  -7.50800 24.53800 26.45900
C  -8.09800 23.87400 27.49000
C  -9.15200 23.04700 26.98600
C  -9.12800 23.12700 25.56700
C  -8.02800 24.09500 25.26500
C  -10.06300 22.25600 27.96800
C  -9.83700 22.33200 24.55900
O  -9.73700 22.52600 23.38600
C  -10.73100 21.21800 25.00300
N  -5.75900 26.09900 24.49300
C  -6.54200 25.40500 23.67200
C  -6.05500 25.47700 22.16200
C  -4.95000 26.59600 22.27000
C  -4.82400 26.88000 23.74500
C  -5.61600 24.11300 21.54000
C  -5.35700 27.84700 21.45000
C  -4.27200 28.39200 20.34000
N  -4.47600 27.46700 26.73300
C  -3.72400 28.04200 25.73800
C  -2.78600 28.95700 26.30700
C  -2.98200 28.79100 27.72900
C  -4.00700 27.91400 27.88800
C  -2.09000 29.89000 25.46500
C  -2.58900 29.23000 29.06200
O  -1.83600 30.08800 29.41400
C  -3.49100 28.43600 30.07000
C  -2.69300 27.73900 31.08200
O  -2.01000 26.69700 30.88300
O  -2.83600 28.40800 32.25300
C  -1.98300 27.90100 33.35500
H  -8.34900 23.65900 29.58100
H  -8.09100 24.25500 23.12200
H  -3.27300 28.21700 23.63400
H  -4.90100 26.27300 31.74800
H  -7.39400 24.98800 31.49400
H  -5.33400 23.13100 30.52300
H  -6.00400 23.30900 32.23500
H  -4.60900 24.21200 31.76700
H  -7.57300 27.61700 30.92600
H  -6.06600 28.47000 31.14900
H  -8.05600 27.94300 33.14200
H  -6.51600 28.76200 33.36500
H  -11.06200 22.21800 27.53300
H  -10.10200 22.58300 29.00700
H  -9.66300 21.25100 28.10400
H  -10.10600 20.46000 25.47700
H  -11.14900 20.68900 24.14600
H  -11.56500 21.55300 25.61900
H  -6.90400 25.93300 21.65400
H  -3.98700 26.18200 21.97300
H  -6.55900 23.56800 21.57700
H  -4.88100 23.69900 22.23000
H  -5.30000 24.23700 20.50400
H  -5.36800 28.73800 22.07700
H  -6.38000 27.81400 21.07500
H  -3.51500 27.69100 19.98900
H  -3.69900 29.04500 20.99800
H  -4.70800 29.03600 19.57600
H  -1.68600 30.80000 25.90800
H  -2.75900 30.30500 24.71200
H  -1.32200 29.34900 24.91100
H  -4.16300 29.20500 30.45100
H  -2.22500 26.85300 33.53300
H  -2.08800 28.41400 34.31100
H  -0.92500 28.02500 33.12300

