158

Mg 48.79200 45.20700 43.72700
C  45.26000 45.35700 42.61300
C  48.81000 41.90400 42.53800
C  52.19200 45.11200 43.51400
C  48.79900 48.58000 43.81800
N  47.17300 43.88900 42.56900
C  45.87100 44.08600 42.34600
C  45.30800 42.92200 41.54200
C  46.40300 41.77700 41.68600
C  47.54100 42.51300 42.35900
C  46.00000 40.50400 42.49600
C  44.90300 43.34600 40.07200
C  45.77200 44.30700 39.26000
H  45.31200 44.43600 37.81800
N  50.25600 43.71700 43.44300
C  50.01100 42.44000 43.06700
C  51.19900 41.67300 43.14600
C  52.26500 42.54800 43.28600
C  51.62500 43.85400 43.39600
C  51.34400 40.19000 42.66800
C  53.73900 42.21500 43.47000
O  54.11600 41.03400 43.48300
C  54.75200 43.27500 43.79700
N  50.33800 46.65000 43.75600
C  51.69600 46.41600 43.72300
C  52.47300 47.74400 43.76600
C  51.41800 48.76200 44.00000
C  50.08600 47.96400 43.88500
C  53.55900 47.78000 44.89800
C  51.48400 49.88800 42.96900
C  50.83800 51.23300 43.33500
N  47.34400 46.68300 43.53600
C  47.52100 48.07300 43.53800
C  46.22700 48.74500 43.34500
C  45.34100 47.69300 43.00700
C  46.06900 46.44900 43.13300
C  46.00400 50.29400 43.32700
C  43.95100 47.45300 42.67400
O  42.97200 48.13900 42.59800
C  43.93200 45.96600 42.28100
C  42.69400 45.34600 42.94300
O  41.81500 44.63000 42.45600
O  42.64400 45.64000 44.29300
C  41.34600 45.54400 44.91000
H  48.85600 40.83600 42.31300
H  53.26000 45.13800 43.29100
H  48.90200 49.66700 43.79900
H  44.32800 42.71800 41.97400
H  46.69800 41.43500 40.69400
H  45.87800 39.53000 42.02200
H  45.00900 40.75100 42.87600
H  46.58400 40.33400 43.40000
H  43.97000 43.85100 40.32200
H  44.66200 42.52000 39.40300
H  46.81100 43.98400 39.18200
H  45.61600 45.31200 39.65000
H  51.60200 39.49800 43.47000
H  52.07700 40.25800 41.86500
H  50.48800 39.69400 42.21000
H  55.60800 42.68500 44.12500
H  54.38000 43.81600 44.66600
H  55.07600 43.95600 43.01100
H  53.00800 47.85500 42.82300
H  51.46200 49.20000 44.99700
H  53.72700 46.75800 45.23700
H  53.49900 48.51100 45.70500
H  54.49800 48.05000 44.41600
H  51.02000 49.47400 42.07400
H  52.46700 50.19100 42.60800
H  51.67700 51.92900 43.34100
H  50.49600 51.24300 44.37000
H  50.07400 51.54800 42.62400
H  45.94900 50.55900 44.38300
H  45.07900 50.51300 42.79300
H  46.78800 50.95600 42.96200
H  43.82900 45.91400 41.19700
H  41.27000 44.59100 45.43300
H  40.47500 45.70100 44.27400
H  41.15500 46.30400 45.66700
Mg -11.63200 38.07700 42.34900
C  -9.35300 35.48700 41.37500
C  -9.54200 40.28400 40.60000
C  -13.92100 40.40400 42.57000
C  -13.90200 35.58300 43.14700
N  -9.75200 37.83500 41.15900
C  -8.96600 36.71700 40.91000
C  -7.70900 37.04700 40.11100
C  -7.66100 38.60900 40.20700
C  -9.07200 38.93800 40.67100
C  -6.56200 39.19000 41.10300
C  -7.67900 36.39200 38.68000
C  -6.50400 35.49300 38.36300
H  -5.51000 36.00100 37.24900
N  -11.74800 40.10100 41.71500
C  -10.79000 40.85800 41.04000
C  -11.14500 42.24800 41.00800
C  -12.43000 42.26300 41.53200
C  -12.76000 40.91800 41.99600
C  -10.34400 43.31700 40.32200
C  -13.30500 43.55000 41.62900
O  -12.85200 44.56500 41.34400
C  -14.79500 43.46300 41.93600
N  -13.66300 37.91800 42.63500
C  -14.33300 39.08400 42.92000
C  -15.72100 38.73800 43.47300
C  -15.83300 37.20100 43.61400
C  -14.41600 36.85300 43.01800
C  -16.15700 39.57200 44.70400
C  -16.94300 36.61800 42.76100
C  -17.50500 35.27800 43.17100
N  -11.55500 35.98300 42.50600
C  -12.51500 35.09900 42.89000
C  -12.03900 33.69300 42.82100
C  -10.71900 33.84300 42.35900
C  -10.51700 35.23700 42.04700
C  -12.80200 32.50000 43.20400
C  -9.54500 33.16000 42.00300
O  -9.28100 31.94200 42.00300
C  -8.56100 34.21500 41.45800
C  -7.39300 34.17200 42.30300
O  -7.31900 34.63900 43.38900
O  -6.42100 33.47600 41.65500
C  -5.35500 33.19800 42.61800
H  -8.73100 40.91700 40.23200
H  -14.56000 41.23800 42.86700
H  -14.59300 34.82200 43.51500
H  -6.86600 36.67500 40.69400
H  -7.47000 39.07100 39.23800
H  -6.02600 38.38200 41.60100
H  -7.06600 39.90000 41.75800
H  -5.80100 39.83400 40.66200
H  -7.76100 37.25200 38.01500
H  -8.69600 36.01100 38.58700
H  -6.87800 34.53800 37.99300
H  -5.97800 35.30200 39.29800
H  -9.29300 43.02700 40.30700
H  -10.50000 44.22700 40.90300
H  -10.81900 43.45100 39.35100
H  -15.10500 42.60800 41.33500
H  -15.31800 44.37500 41.64600
H  -14.93900 43.27900 43.00000
H  -16.38100 39.13000 42.69900
H  -15.84100 36.89400 44.65900
H  -16.55500 38.99300 45.53700
H  -16.84100 40.37800 44.43900
H  -15.24900 40.07100 45.04400
H  -16.66200 36.44700 41.72100
H  -17.78400 37.31000 42.80500
H  -18.58800 35.38500 43.24200
H  -17.25600 35.01300 44.19900
H  -17.24000 34.55800 42.39800
H  -12.64800 31.74400 42.43300
H  -13.84300 32.62800 43.50000
H  -12.18600 32.10600 44.01200
H  -8.26400 33.84700 40.47500
H  -4.83400 34.11800 42.88400
H  -4.62000 32.49800 42.22100
H  -5.79200 32.79100 43.53000

