158

Mg 47.98400 15.44700 28.18700
C  45.81000 15.38900 30.87100
C  50.03700 17.50000 29.79700
C  49.86600 15.53900 25.29900
C  45.42900 13.89800 26.16200
N  47.87300 16.36700 30.09100
C  46.96400 16.16700 31.09100
C  47.50400 16.74300 32.42000
C  48.50600 17.79200 31.89500
C  48.84200 17.26500 30.49700
C  47.99300 19.29700 31.88500
C  48.02300 15.73700 33.46400
C  47.81100 15.98000 35.03000
H  49.09800 16.12200 35.80400
N  49.79000 16.27000 27.68800
C  50.49700 17.11600 28.47100
C  51.68800 17.43300 27.80700
C  51.67900 16.82500 26.52600
C  50.44000 16.08600 26.44600
C  52.68600 18.38300 28.40900
C  52.79100 16.82500 25.41700
O  52.63700 16.17600 24.35200
C  54.10400 17.55000 25.65200
N  47.63000 14.98900 25.91400
C  48.66600 14.95100 25.04100
C  48.31100 14.25100 23.70900
C  46.81500 13.85300 24.00100
C  46.59100 14.24300 25.44200
C  48.41200 15.16800 22.46000
C  46.51700 12.33800 23.61500
C  46.92600 11.29700 24.64300
N  46.06800 14.71400 28.33200
C  45.18400 14.08300 27.49200
C  43.94900 13.79800 28.28200
C  44.19000 14.27500 29.57200
C  45.48300 14.85800 29.58800
C  42.72700 13.07900 27.75100
C  43.56600 14.40300 30.87200
O  42.48800 14.09400 31.27800
C  44.65000 15.10200 31.80700
C  44.01000 16.22800 32.50000
O  43.46200 17.15200 31.91200
O  43.85600 15.86700 33.76900
C  42.98100 16.74100 34.60800
H  50.63600 18.12800 30.46000
H  50.52100 15.49900 24.42600
H  44.73300 13.19300 25.70300
H  46.65500 17.27900 32.84400
H  49.40300 17.79700 32.51400
H  48.02300 19.62500 30.84600
H  48.74100 19.90500 32.39500
H  46.96300 19.37100 32.23500
H  49.08700 15.51700 33.37700
H  47.56500 14.77700 33.22400
H  47.17800 15.19500 35.44400
H  47.20900 16.85800 35.26500
H  52.51500 18.36800 29.48500
H  52.67600 19.32300 27.85900
H  53.70500 18.05500 28.20200
H  53.98900 18.59400 25.94300
H  54.57100 17.56200 24.66700
H  54.65800 17.00000 26.41300
H  48.90300 13.37900 23.43100
H  46.09100 14.39300 23.39000
H  48.77000 16.14900 22.77400
H  47.45500 15.22000 21.94100
H  49.15100 14.73200 21.78700
H  46.83200 12.06700 22.60700
H  45.43100 12.27500 23.55400
H  47.67400 11.72600 25.31100
H  47.42000 10.46700 24.13800
H  46.09500 11.03300 25.29600
H  42.59800 13.06100 26.66800
H  41.91900 13.49500 28.35300
H  42.70600 12.02400 28.02600
H  45.04100 14.36500 32.50800
H  42.53500 16.05700 35.33000
H  42.15000 17.20800 34.07900
H  43.46100 17.50000 35.22600
Mg 25.86700 50.01100 27.18500
C  23.71200 50.87800 29.87500
C  28.07600 48.92200 29.50800
C  27.96300 49.69600 24.71800
C  23.39700 51.45300 25.01000
N  25.94300 49.96900 29.37500
C  24.96900 50.35400 30.25800
C  25.34200 49.92100 31.77400
C  26.82100 49.48700 31.59800
C  26.95000 49.44600 30.04500
C  27.77700 50.39500 32.38500
C  24.36800 48.86100 32.44500
C  23.60300 49.09100 33.80100
H  24.23300 49.96000 34.91200
N  27.73800 49.32500 27.10000
C  28.53400 48.87700 28.14300
C  29.78100 48.36200 27.65600
C  29.80400 48.60600 26.24800
C  28.46100 49.24600 25.97500
C  30.80100 47.86800 28.56200
C  30.81900 48.39900 25.26500
O  30.81800 49.03700 24.21700
C  31.96700 47.55800 25.66800
N  25.69300 50.57400 25.20500
C  26.72400 50.31400 24.36600
C  26.33600 50.59400 22.95200
C  24.83300 50.95100 23.00600
C  24.63900 50.97000 24.50400
C  27.09500 51.75000 22.20700
C  24.02200 49.83600 22.24100
C  24.23600 48.31400 22.56200
N  23.87900 50.84100 27.34200
C  23.10600 51.46000 26.38200
C  21.89800 51.84300 27.05600
C  22.07700 51.66100 28.42300
C  23.32200 51.00900 28.54500
C  20.67700 52.37100 26.46100
C  21.53400 51.93500 29.72000
O  20.46600 52.49700 30.01700
C  22.63100 51.51800 30.76700
C  23.04500 52.76500 31.52100
O  23.54500 53.77000 31.07200
O  22.69300 52.52400 32.77300
C  22.95200 53.47500 33.80000
H  28.65100 48.45700 30.31100
H  28.61000 49.42600 23.88100
H  22.60800 51.72400 24.30500
H  25.19200 50.91400 32.19700
H  26.88700 48.46000 31.95800
H  28.10300 49.97100 33.33500
H  27.30500 51.34500 32.63500
H  28.59200 50.64800 31.70600
H  24.88900 47.92100 32.62800
H  23.60300 48.55600 31.73200
H  23.42900 48.09700 34.21300
H  22.64100 49.55600 33.58500
H  30.77100 46.77800 28.54800
H  30.53500 48.02400 29.60800
H  31.80400 48.27700 28.44500
H  31.61800 46.60200 26.05700
H  32.63300 47.99500 26.41300
H  32.43200 47.37600 24.69900
H  26.52200 49.70100 22.35500
H  24.51600 51.93200 22.65400
H  26.49900 52.42900 21.59800
H  27.86900 51.29700 21.58700
H  27.55500 52.33000 23.00700
H  24.35000 49.93700 21.20600
H  22.96900 50.12000 22.26200
H  23.27300 47.82400 22.70700
H  24.77800 48.10700 23.48500
H  24.82700 47.80000 21.80400
H  20.40100 51.81500 25.56600
H  20.69900 53.40700 26.12400
H  19.83900 52.25500 27.14900
H  22.22900 50.80700 31.48900
H  22.06200 53.81500 34.32900
H  23.58100 54.23100 33.33000
H  23.54500 52.94500 34.54500

