158

Mg 47.58800 25.23200 29.67600
C  48.18400 27.68800 32.07000
C  46.14900 23.22200 31.97300
C  46.95800 23.03900 27.20800
C  49.32100 27.24600 27.36000
N  47.24600 25.48200 31.80500
C  47.49900 26.55600 32.57300
C  47.01500 26.31700 34.03500
C  46.65800 24.79300 33.96600
C  46.67100 24.45900 32.49000
C  47.51700 23.87400 34.86200
C  45.80700 27.26700 34.34600
C  45.03700 27.05800 35.63100
H  45.74000 26.96900 37.02100
N  46.70100 23.44500 29.62600
C  46.23400 22.70500 30.64900
C  45.67800 21.43100 30.20500
C  45.91800 21.36800 28.78800
C  46.52400 22.66200 28.47100
C  45.08700 20.46800 31.10500
C  45.56800 20.26700 27.86500
O  45.85200 20.23100 26.67700
C  44.74800 19.16900 28.29100
N  48.13600 25.08000 27.54900
C  47.58900 24.16900 26.75100
C  47.99500 24.40000 25.28000
C  48.62300 25.85600 25.36600
C  48.66600 26.14900 26.86700
C  49.06300 23.35100 24.82000
C  47.77100 26.88500 24.49400
C  48.57400 27.71800 23.54000
N  48.45200 27.11600 29.62400
C  49.21400 27.76500 28.63300
C  49.66500 29.04200 29.10200
C  49.30600 29.04000 30.52000
C  48.61200 27.84500 30.72000
C  50.46900 30.08600 28.30100
C  49.29000 29.79600 31.75300
O  49.70500 30.94000 31.93800
C  48.54900 28.99400 32.83600
C  49.38400 28.71400 34.05200
O  50.46000 28.21000 34.02500
O  48.84000 29.43300 35.03500
C  49.67000 29.68000 36.26600
H  45.80900 22.66800 32.85100
H  46.72200 22.30500 26.43500
H  49.80600 27.90800 26.64000
H  47.86600 26.43800 34.70500
H  45.65200 24.66300 34.36400
H  47.91400 24.42200 35.71700
H  48.20500 23.29000 34.25100
H  46.84900 23.12200 35.28200
H  45.13900 27.11000 33.49900
H  46.07700 28.31400 34.21300
H  44.50800 26.12300 35.44600
H  44.21600 27.75700 35.79200
H  44.02400 20.25300 31.00400
H  45.20800 20.71000 32.16000
H  45.60500 19.51200 31.03000
H  45.27500 18.41000 28.87000
H  44.30500 18.66100 27.43400
H  43.95800 19.62300 28.88900
H  47.11200 24.51000 24.64900
H  49.66200 25.83600 25.03700
H  50.00700 23.65700 25.27200
H  49.17000 23.27900 23.73800
H  48.86200 22.32100 25.11400
H  47.28800 27.49000 25.26200
H  46.98100 26.31500 24.00600
H  48.06000 27.79600 22.58200
H  49.61200 27.39300 23.47500
H  48.71500 28.68600 24.02200
H  51.30100 29.67300 27.73100
H  50.80700 30.82100 29.03200
H  49.76300 30.50300 27.58300
H  47.71700 29.61000 33.17700
H  50.73600 29.46500 36.19800
H  49.26100 29.22500 37.16900
H  49.59500 30.76400 36.34900
Mg 48.75100 45.31500 42.62800
C  45.34200 45.52700 42.13700
C  48.65600 42.00700 42.35200
C  52.15700 45.45700 42.70400
C  48.74100 48.84100 42.91900
N  47.23600 43.96700 42.20400
C  45.88700 44.21600 42.10500
C  45.10300 42.94400 41.70800
C  46.07500 41.86600 42.22200
C  47.42600 42.64100 42.24600
C  45.75400 41.00200 43.49100
C  44.56800 42.84200 40.23800
C  45.33800 43.48700 39.15400
H  45.19100 43.06000 37.60500
N  50.19800 43.90100 42.58600
C  49.97400 42.57200 42.44300
C  51.28800 41.89600 42.47100
C  52.29400 42.88100 42.41800
C  51.58600 44.15500 42.64900
C  51.50500 40.35600 42.39900
C  53.82100 42.61900 42.38700
O  54.18600 41.43600 42.35400
C  54.89300 43.72800 42.46300
N  50.27800 46.95300 42.47600
C  51.59500 46.72400 42.61100
C  52.44400 48.00700 42.85000
C  51.26100 49.10100 42.88200
C  49.99100 48.25800 42.77800
C  53.53900 47.96500 43.99600
C  51.22100 50.17300 41.69000
C  51.35800 51.61600 42.18200
N  47.35000 46.94000 42.67800
C  47.45400 48.26100 42.77900
C  46.21600 48.87600 42.58500
C  45.30500 47.86700 42.33600
C  46.04200 46.69600 42.44200
C  46.01300 50.35700 42.54800
C  43.95400 47.56500 42.04000
O  42.99900 48.25000 41.84300
C  43.87900 45.99900 41.86700
C  42.82400 45.35700 42.76200
O  42.07000 44.46300 42.39800
O  42.75500 46.05500 43.91500
C  41.55600 45.87500 44.72800
H  48.70600 40.91600 42.34600
H  53.22700 45.65600 42.79500
H  48.83600 49.90900 43.12600
H  44.21600 42.92500 42.34100
H  46.08700 41.17300 41.38100
H  44.91200 41.55900 43.90300
H  46.58100 40.84000 44.18200
H  45.31800 40.04400 43.20700
H  43.58600 43.30400 40.34600
H  44.44000 41.77900 40.03600
H  46.35700 43.26400 39.46900
H  45.25000 44.57300 39.13000
H  51.70900 40.00200 41.38800
H  50.55500 39.84600 42.55800
H  52.25600 39.93700 43.06900
H  54.64600 44.14800 43.43800
H  54.76900 44.35200 41.57800
H  55.88700 43.28300 42.51400
H  52.93500 48.14500 41.88700
H  51.27600 49.55300 43.87300
H  54.52500 48.11700 43.55700
H  53.47100 46.96100 44.41500
H  53.36300 48.77000 44.70900
H  50.32600 50.04700 41.08100
H  52.15100 49.98000 41.15500
H  50.87800 52.36700 41.55500
H  52.39000 51.91200 42.37100
H  50.89400 51.75600 43.15800
H  46.87400 50.83300 42.07900
H  46.11800 50.58400 43.60900
H  45.02100 50.64300 42.20000
H  43.49800 45.72400 40.88300
H  41.14200 46.86900 44.89400
H  41.95600 45.45700 45.65200
H  40.72400 45.27900 44.35500

