158

Mg -1.35800 17.78700 27.40700
C  -1.88000 15.59000 29.92100
C  -2.25200 20.39400 29.50200
C  -1.61100 20.00400 24.80700
C  -1.18000 15.14200 25.14600
N  -1.92400 17.89000 29.47400
C  -2.09400 16.88300 30.32500
C  -2.32500 17.36400 31.75700
C  -2.94500 18.84500 31.43800
C  -2.34200 19.05200 30.04800
C  -4.44400 19.01100 31.51100
C  -1.03500 17.32100 32.61800
C  -1.23700 16.67100 33.95300
H  -0.06100 16.41600 34.96300
N  -1.51000 19.94100 27.26100
C  -1.92300 20.83700 28.20400
C  -2.05900 22.17600 27.60900
C  -1.68000 22.06100 26.27000
C  -1.60300 20.62200 26.04900
C  -2.35900 23.47700 28.39400
C  -1.38800 23.12600 25.34000
O  -0.89100 22.94900 24.26900
C  -1.61500 24.61700 25.66800
N  -1.45000 17.60500 25.40500
C  -1.65100 18.65700 24.51200
C  -1.99400 18.08700 23.03000
C  -1.22300 16.68800 23.13800
C  -1.39800 16.44800 24.65800
C  -3.49800 18.00500 22.72800
C  0.27200 16.78600 22.56900
C  1.52100 16.51100 23.47300
N  -1.22900 15.74000 27.53300
C  -1.16100 14.80500 26.51300
C  -1.19300 13.46000 27.11100
C  -1.47800 13.73600 28.45000
C  -1.50600 15.11300 28.61400
C  -1.28600 12.10700 26.42200
C  -1.79900 13.11900 29.73300
O  -1.87100 11.92400 29.99700
C  -1.87300 14.33000 30.75200
C  -0.67300 14.06900 31.61500
O  0.39200 14.54400 31.35300
O  -0.91100 13.27000 32.68000
C  0.21200 12.94600 33.53500
H  -2.67100 21.20200 30.10400
H  -1.76900 20.69000 23.97200
H  -1.08300 14.35500 24.39500
H  -3.07500 16.68500 32.16200
H  -2.54700 19.50400 32.20900
H  -4.75200 19.11500 32.55200
H  -4.90600 18.07700 31.19100
H  -4.80000 19.71800 30.76200
H  -0.78700 18.38100 32.65500
H  -0.29600 16.68100 32.13600
H  -1.70000 15.70500 33.75500
H  -1.94000 17.34600 34.44000
H  -2.74600 23.27800 29.39400
H  -3.20400 24.03000 27.98500
H  -1.48800 24.09800 28.60300
H  -1.02300 24.83800 26.55600
H  -2.68200 24.53200 25.87300
H  -1.35300 25.29900 24.85900
H  -1.60400 18.75300 22.26000
H  -1.74500 15.93600 22.54600
H  -3.76300 18.53800 21.81400
H  -4.07000 18.33200 23.59500
H  -3.82900 16.98300 22.54500
H  0.49000 17.76100 22.13200
H  0.43700 16.09200 21.74500
H  2.19000 17.36400 23.35900
H  2.04900 15.64300 23.07800
H  1.22600 16.36400 24.51200
H  -0.44900 11.53600 26.82400
H  -1.22700 12.22200 25.33900
H  -2.24100 11.61200 26.59600
H  -2.73000 14.32800 31.42500
H  -0.16100 13.28200 34.50200
H  1.03400 13.64900 33.40100
H  0.50200 11.89500 33.54400
Mg 45.06800 3.03000 46.96300
C  42.67900 5.81800 46.60700
C  42.42900 0.90200 46.69600
C  47.28300 0.65900 46.97400
C  47.61100 5.50600 46.91600
N  42.88600 3.41100 46.81200
C  42.18700 4.55000 46.45000
C  40.75600 4.12900 46.11800
C  40.64700 2.66800 46.69100
C  42.08400 2.29300 46.81000
C  39.87200 2.56400 48.03000
C  40.38700 4.28500 44.56500
C  39.25400 5.21600 44.15400
H  39.62600 6.13100 43.02300
N  44.84100 1.01000 46.83700
C  43.66800 0.34800 46.70300
C  44.04000 -1.07600 46.53600
C  45.45600 -1.18100 46.63200
C  45.88100 0.17700 46.82800
C  42.98700 -2.15400 46.28700
C  46.25900 -2.48200 46.58800
O  45.66000 -3.51200 46.31900
C  47.75000 -2.66700 46.87500
N  47.16100 3.04500 46.65600
C  47.83300 1.91900 47.06800
C  49.30700 2.19200 47.42400
C  49.46000 3.74700 47.14200
C  47.96600 4.13500 46.93400
C  49.73000 1.60500 48.81800
C  50.35400 4.08900 45.87700
C  51.63100 4.90700 46.20300
N  45.13300 5.24500 46.79800
C  46.26900 6.07200 46.90800
C  45.93500 7.46700 46.87100
C  44.48200 7.44700 46.81600
C  44.05800 6.05000 46.80000
C  46.90900 8.64300 46.79400
C  43.28800 8.25200 46.77600
O  43.18000 9.44400 46.64000
C  42.05700 7.23600 46.69900
C  41.39800 7.32500 48.01500
O  41.61900 6.70700 49.04500
O  40.46200 8.36800 47.77100
C  39.53900 8.58100 48.92400
H  41.53500 0.27500 46.67900
H  47.90600 -0.20100 47.22900
H  48.45400 6.15600 47.15800
H  40.13300 4.83500 46.66600
H  40.03600 2.00200 46.08100
H  40.51200 2.20300 48.83500
H  39.09100 1.81700 47.88800
H  39.30200 3.43200 48.36000
H  40.13300 3.27800 44.23400
H  41.26100 4.59200 43.99100
H  38.97500 5.66900 45.10500
H  38.42200 4.58800 43.83700
H  42.08000 -1.75500 45.83400
H  42.70200 -2.72500 47.17000
H  43.34600 -2.88500 45.56200
H  47.97500 -3.73000 46.95600
H  48.15000 -2.27500 47.81000
H  48.34900 -2.20800 46.08800
H  49.96900 1.72400 46.69500
H  49.85100 4.25300 48.02500
H  50.41900 0.76600 48.72700
H  48.81800 1.37500 49.36800
H  50.26600 2.33900 49.42000
H  49.86400 4.66100 45.08900
H  50.54400 3.16800 45.32500
H  52.41300 4.45500 45.59300
H  51.96500 4.77300 47.23200
H  51.62000 5.97400 45.97900
H  47.49200 8.42500 47.68900
H  46.45700 9.63200 46.86900
H  47.70300 8.60400 46.04900
H  41.31700 7.42900 45.92300
H  38.79900 7.78400 48.86400
H  38.95800 9.49700 48.80900
H  40.11200 8.49200 49.84700

