158

Mg 46.90600 24.80300 28.79700
C  47.62400 26.88800 31.47500
C  45.98200 22.39200 30.97700
C  46.98000 22.67300 26.27900
C  48.07100 27.24700 26.67700
N  46.60600 24.79100 30.85400
C  47.04900 25.67200 31.83900
C  46.67300 25.27100 33.24700
C  46.41100 23.80100 33.00500
C  46.23100 23.69700 31.52600
C  47.54400 22.85000 33.59000
C  45.57100 26.08500 33.94000
C  45.79900 26.60500 35.39100
H  44.62600 26.41300 36.35100
N  46.49400 22.80900 28.68100
C  46.05300 21.96300 29.63000
C  45.78900 20.67600 29.11500
C  46.31900 20.66100 27.76400
C  46.66100 22.09000 27.50500
C  45.01900 19.55300 29.87100
C  46.33100 19.57600 26.67100
O  46.69900 19.86900 25.52400
C  45.95900 18.16000 26.94400
N  47.21900 25.00600 26.73500
C  47.28700 23.94600 25.91600
C  47.41500 24.36600 24.42100
C  47.47800 25.92500 24.52500
C  47.52300 26.09700 26.01600
C  48.45900 23.70900 23.51900
C  46.27600 26.67900 23.86200
C  44.81600 26.38500 24.37300
N  47.60300 26.77300 28.96700
C  48.04700 27.61800 28.04400
C  48.39800 28.91400 28.58400
C  48.28400 28.64700 29.95500
C  47.77600 27.36900 30.13800
C  49.00100 30.05800 27.88200
C  48.58000 29.15900 31.27200
O  49.11300 30.26800 31.56400
C  48.21600 28.01200 32.40300
C  49.44500 27.61500 33.09500
O  50.57100 27.62700 32.55400
O  49.25800 27.51700 34.49100
C  50.45100 27.34600 35.28100
H  45.85900 21.61400 31.73400
H  47.04300 22.06500 25.37400
H  48.37400 28.00500 25.95100
H  47.51200 25.40000 33.93000
H  45.49100 23.47900 33.49200
H  48.21200 23.35000 34.29200
H  48.16700 22.50000 32.76600
H  47.02000 22.04000 34.09900
H  44.74200 25.39400 34.09200
H  45.32000 26.92300 33.28900
H  46.07100 27.65900 35.33000
H  46.58600 26.06700 35.92100
H  45.51100 18.58300 29.94300
H  44.15300 19.28400 29.26600
H  44.65400 19.81200 30.86500
H  44.93500 18.24600 27.30800
H  46.60200 17.84000 27.76500
H  46.14800 17.60300 26.02600
H  46.47100 24.18700 23.90500
H  48.46300 26.27700 24.21900
H  47.96600 23.63900 22.54900
H  48.76200 22.75500 23.95100
H  49.37100 24.30500 23.56700
H  46.26800 26.38300 22.81300
H  46.49300 27.73800 24.00500
H  44.29900 25.97900 23.50400
H  44.32100 27.28900 24.72600
H  44.87700 25.64700 25.17300
H  49.50200 30.67800 28.62500
H  48.14000 30.65000 27.57100
H  49.60200 29.69800 27.04700
H  47.48600 28.33000 33.14800
H  51.41900 27.40900 34.78500
H  50.33400 26.35400 35.71800
H  50.48100 28.16100 36.00300
Mg 26.11700 51.26000 25.55400
C  23.78700 52.13200 27.98800
C  28.35000 50.61600 27.89000
C  28.45400 50.93800 23.11400
C  23.83400 52.32300 23.04000
N  26.11600 51.49600 27.72200
C  24.99400 51.80100 28.55100
C  25.31500 51.49600 29.98500
C  26.88300 51.20100 29.92000
C  27.17500 51.04900 28.45100
C  27.87000 52.23200 30.47000
C  24.42100 50.37700 30.60500
C  23.61300 50.79900 31.83400
H  23.92900 50.11000 33.13900
N  28.02100 50.68400 25.48300
C  28.74700 50.42600 26.57100
C  30.11300 50.05800 26.15800
C  30.17400 50.18100 24.76900
C  28.84300 50.60500 24.40300
C  31.19000 49.69800 27.08400
C  31.35500 49.96000 23.79900
O  31.35100 50.02800 22.54500
C  32.68700 49.41900 24.33000
N  26.22200 51.75400 23.40100
C  27.23700 51.37800 22.64100
C  27.11500 51.97400 21.25400
C  25.57200 52.09500 21.11500
C  25.18900 52.18900 22.60000
C  28.03000 53.17800 20.99900
C  24.82900 50.90400 20.46500
C  24.15400 51.20500 19.10400
N  24.22600 52.03600 25.43800
C  23.37100 52.30700 24.35900
C  22.05900 52.78300 24.84800
C  22.24600 52.77900 26.23000
C  23.48900 52.21100 26.58200
C  20.95400 53.28200 24.00200
C  21.49600 53.00500 27.38400
O  20.37700 53.51400 27.59800
C  22.51600 52.55900 28.56900
C  22.67600 53.65500 29.57500
O  23.26500 54.71900 29.45500
O  22.04200 53.37900 30.71300
C  21.88000 54.42600 31.75200
H  29.08400 50.36500 28.65900
H  29.23100 50.72800 22.37600
H  23.17400 52.41600 22.17500
H  25.30100 52.42500 30.55600
H  27.02300 50.24700 30.42900
H  27.50000 53.25000 30.34300
H  28.88900 52.19600 30.08600
H  27.73200 52.06300 31.53800
H  25.11500 49.56900 30.83500
H  23.68600 50.03000 29.87900
H  22.56400 50.69900 31.55500
H  23.83900 51.85800 31.96400
H  31.33600 48.61900 27.13800
H  30.99400 49.98200 28.11800
H  32.14700 50.17700 26.87600
H  32.49400 48.49100 24.86900
H  32.99900 50.30700 24.88000
H  33.37600 49.31200 23.49300
H  27.37100 51.15300 20.58500
H  25.37400 53.02000 20.57400
H  27.45500 54.05500 20.70500
H  28.66400 52.88000 20.16400
H  28.64200 53.49200 21.84500
H  24.07800 50.48400 21.13500
H  25.48000 50.03200 20.40300
H  23.25400 50.59300 19.03600
H  24.84900 51.01000 18.28700
H  23.79500 52.22000 19.26700
H  20.73800 52.56700 23.20800
H  21.35000 54.12500 23.43500
H  20.06600 53.56100 24.56900
H  22.10800 51.71600 29.12700
H  22.44900 54.13200 32.63400
H  20.81300 54.51400 31.95700
H  22.21500 55.42000 31.45600

