158

Mg 44.59600 3.13900 47.32400
C  42.53600 6.08600 46.82400
C  41.99700 1.15800 46.70200
C  46.73200 0.71600 46.96200
C  47.35100 5.52600 47.30400
N  42.51400 3.62500 46.79400
C  41.87000 4.90400 46.59300
C  40.41000 4.69800 46.25200
C  40.14700 3.12600 46.53300
C  41.66000 2.55900 46.70400
C  39.30200 2.84400 47.78600
C  40.28600 5.03600 44.77600
C  39.19200 6.10100 44.48300
H  39.42300 7.04400 43.23500
N  44.38000 1.17200 46.97900
C  43.22000 0.48200 46.83700
C  43.53700 -0.96000 46.65200
C  44.93300 -1.10300 46.67100
C  45.37700 0.25200 46.95700
C  42.50400 -2.07800 46.38100
C  45.70900 -2.42700 46.42800
O  45.10900 -3.50100 46.04500
C  47.22000 -2.62900 46.49500
N  46.77000 3.16900 47.12400
C  47.35800 1.93900 47.08100
C  48.93200 2.08500 46.88100
C  49.08900 3.63700 47.21500
C  47.67000 4.15800 47.19900
C  49.87800 1.09700 47.60400
C  50.10300 4.41400 46.28700
C  51.39900 4.96900 46.85800
N  44.92800 5.35300 47.27200
C  46.08800 6.08900 47.29100
C  45.84700 7.49100 47.12000
C  44.41400 7.51300 47.05200
C  43.91200 6.24400 47.15100
C  46.82100 8.55300 46.94600
C  43.30800 8.34300 46.77100
O  43.24900 9.55200 46.70500
C  42.01700 7.47800 46.62400
C  41.06600 7.91100 47.70100
O  41.21300 7.68400 48.91900
O  40.09400 8.63500 47.20200
C  39.10600 9.30400 48.08400
H  41.14400 0.50000 46.52000
H  47.43700 -0.11600 46.91800
H  48.22700 6.17800 47.29500
H  39.75200 5.31200 46.86700
H  39.62000 2.48600 45.82600
H  38.89700 3.81300 48.07800
H  39.99400 2.49000 48.55100
H  38.52200 2.11500 47.56500
H  39.99900 4.10200 44.29100
H  41.24900 5.35800 44.37900
H  38.85600 6.68700 45.33900
H  38.42300 5.35500 44.28200
H  42.51500 -2.22500 45.30100
H  41.52700 -1.60100 46.45400
H  42.63100 -3.01600 46.92200
H  47.80700 -2.17200 45.69700
H  47.44900 -3.69300 46.54700
H  47.58600 -2.20200 47.42900
H  49.06000 1.81800 45.83200
H  49.35800 3.87400 48.24500
H  50.46200 0.49000 46.91300
H  49.31100 0.47200 48.29400
H  50.58400 1.68200 48.19400
H  49.58100 5.25400 45.83000
H  50.46800 3.75800 45.49600
H  51.31600 6.04600 47.00900
H  52.23000 4.59100 46.26300
H  51.64100 4.39600 47.75300
H  46.63000 9.19700 47.80500
H  46.57300 9.23000 46.12800
H  47.89600 8.37300 46.96800
H  41.69700 7.75500 45.62000
H  38.91400 10.26600 47.60800
H  39.54000 9.56400 49.05000
H  38.14300 8.80400 48.19500
Mg 26.41800 50.77400 26.41700
C  24.03400 51.72500 28.97700
C  28.44200 49.72000 29.04600
C  28.80800 50.24600 24.21500
C  24.37200 52.29900 24.16700
N  26.18700 50.62500 28.69900
C  25.11600 51.06200 29.54100
C  25.43500 50.80700 31.07100
C  26.91300 50.22100 31.04900
C  27.17700 50.07300 29.54700
C  27.89500 51.17100 31.83500
C  24.45300 49.82300 31.68800
C  24.04700 50.07000 33.20700
H  24.99000 50.75800 34.22800
N  28.38200 50.12400 26.56300
C  28.96900 49.67600 27.71300
C  30.22900 48.99700 27.38200
C  30.43900 49.33600 26.01400
C  29.18100 49.94200 25.54000
C  31.04800 48.16900 28.34500
C  31.70900 49.09300 25.14100
O  31.86800 49.43800 24.00200
C  32.90200 48.36600 25.81700
N  26.56200 51.35700 24.53900
C  27.57300 50.80600 23.76100
C  27.24500 51.02500 22.26000
C  25.71400 51.38600 22.26900
C  25.53600 51.72000 23.72300
C  28.09500 52.15600 21.59700
C  24.65900 50.36800 21.86200
C  23.58600 50.65900 20.82000
N  24.58800 51.80000 26.48000
C  23.89400 52.31700 25.48400
C  22.61000 52.91600 25.91700
C  22.61300 52.67100 27.30200
C  23.84900 51.97800 27.59100
C  21.54900 53.62000 25.05000
C  21.90700 52.91000 28.50700
O  20.86800 53.51000 28.69800
C  22.81000 52.32300 29.62400
C  23.27800 53.50100 30.45800
O  24.10700 54.32600 30.13600
O  22.75300 53.35500 31.76900
C  23.00200 54.55000 32.61100
H  29.05100 49.35500 29.87600
H  29.40600 49.97000 23.34400
H  23.61200 52.53700 23.41900
H  25.36200 51.80600 31.50200
H  26.95300 49.25700 31.55500
H  28.76100 51.50200 31.26200
H  28.13100 50.54200 32.69300
H  27.36500 52.02600 32.25400
H  24.83100 48.80400 31.76200
H  23.59100 49.73900 31.02700
H  23.70800 49.11700 33.61300
H  23.14100 50.67500 33.16700
H  30.63700 48.23400 29.35200
H  32.04600 48.59800 28.43400
H  31.12200 47.13300 28.01600
H  33.75600 48.31800 25.14100
H  32.69600 47.30900 25.98400
H  33.20900 48.85900 26.73900
H  27.34600 50.11400 21.66900
H  25.52500 52.34300 21.78300
H  28.98700 52.38100 22.18000
H  27.53500 53.09000 21.53700
H  28.40400 51.84100 20.60000
H  24.14000 49.90700 22.70200
H  25.32300 49.58200 21.50200
H  23.77600 50.26200 19.82300
H  23.46200 51.74100 20.79900
H  22.73200 50.08200 21.17800
H  20.64100 53.04900 25.24500
H  21.90400 53.73300 24.02500
H  21.44300 54.65600 25.37100
H  22.28400 51.59300 30.23900
H  23.10900 55.47000 32.03500
H  23.84100 54.43300 33.29800
H  22.08100 54.62200 33.19000

