158

Mg 44.92300 3.44500 47.94600
C  42.78800 6.13300 47.14200
C  42.13700 1.31800 47.22900
C  46.92100 0.85300 48.04500
C  47.67200 5.63900 47.48900
N  42.76400 3.66600 47.43000
C  42.16900 4.83200 47.16800
C  40.66900 4.70000 46.68700
C  40.34400 3.16400 47.06600
C  41.83200 2.67200 47.25600
C  39.40600 2.88000 48.28600
C  40.63100 4.98400 45.17900
C  39.59000 5.99900 44.53500
H  38.83900 5.46300 43.30500
N  44.56800 1.36900 47.82900
C  43.38300 0.72700 47.61000
C  43.61400 -0.71000 47.79100
C  44.96100 -0.89800 47.96500
C  45.54900 0.48100 47.96600
C  42.70500 -1.87600 47.55100
C  45.70400 -2.20700 48.12800
O  45.06700 -3.25600 48.39300
C  47.17400 -2.30400 48.30100
N  46.94100 3.32100 47.66800
C  47.54100 2.07500 47.93600
C  49.04500 2.22500 48.19400
C  49.34000 3.70200 47.69000
C  47.94100 4.28300 47.71200
C  49.48200 1.96900 49.66600
C  50.23600 3.85200 46.37100
C  51.18500 5.01300 46.29800
N  45.24100 5.52800 47.53100
C  46.39700 6.25200 47.41500
C  46.02900 7.65600 47.09100
C  44.63600 7.66500 46.99600
C  44.18200 6.37100 47.30100
C  46.96600 8.77700 46.84100
C  43.44000 8.38800 46.71500
O  43.40600 9.56000 46.27300
C  42.19600 7.39600 46.81000
C  41.40200 7.92700 47.84000
O  41.44900 7.51100 48.99500
O  40.60900 8.93600 47.37900
C  39.73400 9.66900 48.34000
H  41.23600 0.72200 47.06600
H  47.70900 0.10800 48.16900
H  48.56400 6.26800 47.45500
H  40.07800 5.47700 47.17300
H  39.92100 2.67300 46.19000
H  38.81000 3.72700 48.62500
H  39.96900 2.45200 49.11500
H  38.79300 2.03300 47.97400
H  40.67500 4.06300 44.59700
H  41.56400 5.46000 44.87600
H  40.15500 6.86900 44.19900
H  38.85600 6.29200 45.28700
H  42.60900 -2.46300 48.46400
H  43.02800 -2.58100 46.78500
H  41.72400 -1.64300 47.13500
H  47.57200 -1.69200 47.49200
H  47.71900 -3.23900 48.43700
H  47.38700 -1.75100 49.21600
H  49.73100 1.60400 47.61800
H  49.81900 4.28000 48.48000
H  50.40300 2.47800 49.95000
H  49.73500 0.92200 49.83000
H  48.57500 2.12000 50.25200
H  49.47300 3.95100 45.59900
H  50.83800 2.98300 46.10500
H  51.10600 5.41100 45.28700
H  52.20600 4.68400 46.49000
H  51.05600 5.81200 47.02800
H  47.97300 8.36100 46.80700
H  46.93800 9.57800 47.57900
H  46.92900 9.28100 45.87500
H  41.68400 7.55400 45.86000
H  39.64800 10.70200 48.00400
H  40.13600 9.64700 49.35300
H  38.79100 9.12300 48.35000
Mg 16.46400 52.25800 24.75100
C  18.02400 51.03500 27.69600
C  13.79400 53.04800 26.67600
C  15.08400 53.25700 21.97800
C  19.10200 50.71800 23.02300
N  15.95600 52.09200 26.99400
C  16.76000 51.59200 28.03300
C  16.20800 51.99100 29.38500
C  14.76100 52.51900 29.02400
C  14.86500 52.51600 27.43600
C  13.64100 51.68700 29.68500
C  17.19500 52.93500 30.16200
C  17.71800 52.43800 31.53300
H  16.83500 51.47900 32.39700
N  14.68300 53.06100 24.36800
C  13.69600 53.33700 25.25300
C  12.60100 53.95100 24.51700
C  12.91400 54.09000 23.15600
C  14.29200 53.47700 23.11800
C  11.34700 54.29300 25.29500
C  12.09900 54.76100 22.06000
O  12.54100 54.84100 20.91600
C  10.80200 55.33900 22.29100
N  17.00000 52.13400 22.83800
C  16.31500 52.59700 21.81300
C  16.56900 51.80000 20.54600
C  17.91400 51.09000 20.80400
C  18.04300 51.33100 22.31300
C  15.27700 50.87200 20.28500
C  19.16500 51.68300 19.97200
C  19.64700 50.92000 18.80900
N  18.20500 51.14700 25.22600
C  19.25100 50.63100 24.40200
C  20.31800 50.00600 25.15100
C  19.84100 50.11200 26.44600
C  18.54600 50.77000 26.43100
C  21.58000 49.40800 24.68300
C  20.17900 49.81200 27.80500
O  21.12600 49.19600 28.18900
C  19.08800 50.47400 28.69600
C  18.52000 49.39900 29.64000
O  17.53600 48.76800 29.37500
O  19.31400 49.20800 30.75500
C  18.87500 48.16500 31.62900
H  13.03000 53.47700 27.32800
H  14.63500 53.55900 21.03000
H  19.74700 50.04000 22.46000
H  16.15800 51.02600 29.88900
H  14.58000 53.52800 29.39400
H  14.10000 50.89700 30.27900
H  13.06900 51.22900 28.87900
H  13.04600 52.27800 30.38200
H  16.76100 53.93000 30.25300
H  18.12400 53.04900 29.60400
H  17.83900 53.31100 32.17400
H  18.66300 51.94700 31.30000
H  11.35200 53.70400 26.21200
H  10.50000 53.96900 24.69000
H  11.18100 55.31500 25.63600
H  10.67100 56.29500 22.79700
H  10.06900 54.63100 22.67800
H  10.40600 55.63200 21.31900
H  16.51300 52.37100 19.62000
H  17.84200 50.04300 20.51000
H  14.86700 51.25500 19.35000
H  14.61100 50.94500 21.14500
H  15.52300 49.83000 20.08000
H  19.99600 51.88400 20.64900
H  18.73700 52.64100 19.67500
H  19.24500 51.31700 17.87700
H  19.37100 49.86600 18.84000
H  20.73300 50.96100 18.72500
H  22.31100 50.17300 24.94400
H  21.55000 49.30500 23.59800
H  21.67900 48.44500 25.18300
H  19.52800 51.28100 29.28300
H  19.46300 48.28100 32.53900
H  19.02200 47.19900 31.14400
H  17.87400 48.26100 32.04900

