158

Mg 16.62800 53.20500 26.10800
C  19.02000 51.78300 28.23600
C  14.42400 53.39600 28.65900
C  14.28400 54.26600 23.97700
C  18.78400 52.50700 23.34100
N  16.74800 52.73300 28.16200
C  17.87900 52.29100 28.86000
C  17.69200 52.41300 30.35800
C  16.15800 52.63200 30.43700
C  15.70300 52.94800 29.01900
C  15.45200 51.23700 30.91100
C  18.60900 53.54400 30.93500
C  18.80800 53.60300 32.44300
H  18.03800 52.66900 33.36900
N  14.68400 53.92900 26.40200
C  13.91600 53.88400 27.47700
C  12.58600 54.36800 27.25000
C  12.49800 54.60400 25.86400
C  13.81100 54.18400 25.33700
C  11.56300 54.52100 28.29400
C  11.38600 55.08700 25.00300
O  11.50000 55.12300 23.78700
C  10.01400 55.50900 25.60100
N  16.59400 53.47400 24.08700
C  15.48300 53.89600 23.40100
C  15.75700 53.99800 21.87800
C  17.20900 53.53500 21.67300
C  17.62200 53.24600 23.13000
C  14.76300 53.23700 20.97000
C  18.18200 54.63900 21.19000
C  19.00500 54.31100 19.99800
N  18.40800 52.14000 25.79600
C  19.18600 52.00300 24.60300
C  20.45000 51.31300 24.89800
C  20.40800 51.21100 26.36800
C  19.19400 51.75800 26.82700
C  21.48800 50.95800 23.88900
C  21.19800 50.76200 27.54900
O  22.28600 50.24100 27.72600
C  20.36100 51.20600 28.80600
C  19.99300 50.00600 29.58400
O  19.87000 48.84500 29.17100
O  20.07400 50.25200 30.89600
C  19.88200 49.15100 31.83000
H  13.74700 53.39400 29.51600
H  13.68800 54.87300 23.29200
H  19.49200 52.26900 22.54400
H  17.95500 51.50400 30.89900
H  15.92100 53.41000 31.16200
H  14.49000 51.46200 31.37200
H  16.20200 50.66000 31.45200
H  15.47800 50.82500 29.90200
H  18.35600 54.53700 30.56200
H  19.59100 53.43500 30.47500
H  18.65200 54.59500 32.86800
H  19.86300 53.36300 32.58100
H  10.68800 53.95100 27.98300
H  11.22600 55.53600 28.50200
H  11.88500 54.06200 29.22800
H  9.39000 54.74500 26.06500
H  9.46900 55.95700 24.77000
H  10.16400 56.32400 26.30900
H  15.54500 55.01700 21.55600
H  17.32500 52.55100 21.22000
H  14.21800 52.48500 21.54100
H  15.34400 52.76100 20.18000
H  14.03200 53.88500 20.48700
H  18.88300 54.89100 21.98600
H  17.59900 55.51200 20.89400
H  18.57900 54.91000 19.19400
H  19.10800 53.26700 19.70200
H  19.97900 54.76700 20.18000
H  22.38200 50.65400 24.43200
H  21.92200 51.71800 23.23900
H  21.22400 50.05400 23.33900
H  20.90800 51.88700 29.45700
H  20.64300 48.41000 31.58800
H  18.86200 48.77400 31.75400
H  19.97700 49.56600 32.83300
Mg 1.88600 41.97100 25.44300
C  2.85400 42.23300 28.81400
C  -1.21600 40.95600 26.55400
C  1.17400 41.17000 22.32000
C  5.17700 42.86800 24.52700
N  0.97600 41.62400 27.52600
C  1.51800 41.99500 28.69700
C  0.36200 41.95700 29.77000
C  -0.82500 41.32800 29.07200
C  -0.36300 41.30200 27.61200
C  -1.09100 39.89700 29.58500
C  0.01900 43.26500 30.42300
C  -1.09300 43.22800 31.48300
H  -1.10400 42.11600 32.46700
N  0.12900 41.28500 24.55200
C  -0.99700 40.83300 25.18100
C  -1.94100 40.35700 24.19200
C  -1.26900 40.51100 22.89500
C  0.10500 40.98100 23.20700
C  -3.33300 39.77000 24.50900
C  -1.83700 40.18200 21.43100
O  -1.18200 40.32300 20.40200
C  -3.23900 39.72300 21.27900
N  3.07200 41.97300 23.67600
C  2.47400 41.66600 22.49900
C  3.39800 41.99600 21.29700
C  4.60400 42.77700 21.92500
C  4.30200 42.54400 23.46600
C  3.76100 40.72600 20.45900
C  4.60500 44.30000 21.53200
C  5.18200 44.82500 20.27000
N  3.73800 42.43400 26.40700
C  5.00700 42.70700 25.93100
C  5.86000 43.07600 27.08300
C  5.05700 42.87800 28.23500
C  3.78700 42.49900 27.76300
C  7.29600 43.43600 27.03300
C  5.08800 42.84800 29.61600
O  6.02400 43.08400 30.40500
C  3.64900 42.50100 30.12200
C  3.97700 41.25500 30.87900
O  4.20600 40.12100 30.44900
O  3.98300 41.66600 32.18600
C  4.14600 40.60800 33.11200
H  -2.20900 40.65300 26.89400
H  0.77600 41.03600 21.31200
H  6.18300 43.20100 24.26400
H  0.90000 41.34400 30.49400
H  -1.72700 41.94100 29.07200
H  -0.50500 39.78200 30.49700
H  -0.79800 39.18800 28.81000
H  -2.10500 39.73500 29.95100
H  -0.24500 43.99900 29.66100
H  0.95800 43.54100 30.90300
H  -2.05600 43.20700 30.97100
H  -0.95800 44.20000 31.95700
H  -3.55800 38.83800 23.99000
H  -4.21600 40.30900 24.16400
H  -3.39100 39.57200 25.57900
H  -3.43400 38.78100 21.79100
H  -3.57700 39.54200 20.25800
H  -3.76300 40.53600 21.78100
H  2.77600 42.60700 20.64400
H  5.54900 42.27200 21.72500
H  4.03600 39.93400 21.15600
H  4.68600 40.99400 19.94900
H  3.02700 40.41500 19.71700
H  4.88800 44.82200 22.44600
H  3.52700 44.45700 21.56900
H  4.35800 44.93000 19.56400
H  5.93200 44.17000 19.82600
H  5.64700 45.80100 20.41100
H  7.37600 44.52000 26.94700
H  7.85000 42.97500 26.21600
H  7.63300 43.06400 28.00000
H  3.13200 43.25900 30.71000
H  4.50600 41.02600 34.05200
H  4.80200 39.75800 32.92500
H  3.20000 40.12200 33.35000

