158

Mg 46.80900 15.93000 28.40600
C  44.46200 15.61100 30.96900
C  48.81800 17.68300 30.53300
C  48.57100 16.73800 25.83500
C  44.42600 14.48100 26.20200
N  46.51700 16.81300 30.43400
C  45.63200 16.27300 31.37500
C  45.96600 16.86600 32.80300
C  47.18100 17.76200 32.55300
C  47.52100 17.47500 31.03200
C  46.78000 19.27000 32.73100
C  46.18200 15.66800 33.75900
C  45.52500 15.73500 35.13200
H  45.32200 17.11600 35.77100
N  48.62100 16.95900 28.23100
C  49.30500 17.56900 29.23500
C  50.59500 17.93900 28.76600
C  50.60900 17.62700 27.37600
C  49.27900 17.02700 27.07600
C  51.72900 18.45000 29.68300
C  51.62200 17.89400 26.22700
O  51.40100 17.62200 25.08500
C  53.05400 18.45400 26.58400
N  46.34800 15.90300 26.28000
C  47.36200 16.27300 25.46100
C  46.85400 16.17700 23.94500
C  45.65400 15.23400 24.17400
C  45.44500 15.15100 25.64300
C  46.56000 17.50700 23.27100
C  45.75400 13.79300 23.54100
C  44.46400 13.43200 22.84300
N  44.90000 14.99400 28.52500
C  44.08100 14.39800 27.58600
C  42.83300 14.04000 28.25200
C  42.97200 14.44500 29.57900
C  44.24100 15.06100 29.70800
C  41.64800 13.26000 27.59700
C  42.39300 14.38300 30.80400
O  41.29900 13.93200 31.08500
C  43.33100 15.15300 31.83600
C  42.49900 16.16100 32.47300
O  42.42200 17.33900 32.06700
O  42.10000 15.74000 33.66600
C  41.25400 16.71300 34.40900
H  49.55700 17.99500 31.27500
H  49.14300 17.00300 24.94300
H  43.69600 13.96300 25.57700
H  45.07400 17.39200 33.14400
H  48.06500 17.51600 33.14100
H  45.71500 19.43000 32.89900
H  46.94600 19.70700 31.74600
H  47.34300 19.80900 33.49300
H  47.24900 15.46400 33.84700
H  45.82100 14.72800 33.34100
H  46.11900 15.23200 35.89500
H  44.57500 15.21400 35.01700
H  51.61600 19.51500 29.88400
H  52.73600 18.27800 29.30400
H  51.64100 18.02100 30.68100
H  52.97800 19.38900 27.13800
H  53.60600 18.64300 25.66300
H  53.57400 17.68400 27.15400
H  47.60600 15.70000 23.31500
H  44.74400 15.73200 23.84200
H  46.74100 18.33600 23.95500
H  45.51600 17.41900 22.97000
H  47.07800 17.65800 22.32400
H  45.95600 13.12900 24.38200
H  46.48800 13.77900 22.73600
H  44.62400 13.25600 21.78000
H  43.65300 14.14100 23.01100
H  44.06600 12.51000 23.26700
H  42.14600 12.46500 27.04100
H  41.18300 14.01900 26.96800
H  40.97000 12.76500 28.29200
H  43.64200 14.43700 32.59600
H  40.32500 17.03000 33.93600
H  41.87900 17.55400 34.70800
H  41.04100 16.24600 35.37100
Mg 27.10500 50.23800 26.66500
C  25.12800 51.29600 29.23200
C  29.58300 49.57200 28.88800
C  29.16100 49.57600 23.99900
C  24.73900 51.46900 24.39500
N  27.30600 50.30300 28.83300
C  26.36200 50.74700 29.64800
C  26.79100 50.55800 31.18000
C  28.31800 50.24400 31.10800
C  28.45300 50.02700 29.59300
C  29.16300 51.40500 31.75100
C  25.90700 49.46500 31.90300
C  25.17900 50.01200 33.15900
H  24.99400 49.05500 34.38000
N  29.00100 49.50200 26.48700
C  29.84400 49.30000 27.53000
C  31.01300 48.60900 26.99900
C  30.97200 48.71700 25.61400
C  29.69900 49.26600 25.29100
C  31.99000 47.91700 27.93200
C  32.04800 48.34500 24.59500
O  32.00200 48.75000 23.44100
C  33.30700 47.70900 25.09300
N  26.91400 50.37800 24.53700
C  27.88000 50.10400 23.63400
C  27.35500 50.19700 22.16400
C  25.86700 50.57400 22.33800
C  25.81000 50.84100 23.83700
C  28.21100 50.97500 21.15200
C  24.78600 49.57500 21.78800
C  24.08700 49.99800 20.47400
N  25.42600 51.34200 26.72800
C  24.53700 51.68400 25.75100
C  23.34700 52.31800 26.33500
C  23.52800 52.18400 27.69800
C  24.84800 51.58200 27.91300
C  22.10600 52.80700 25.55600
C  22.94200 52.35500 28.98800
O  21.85900 52.86000 29.30900
C  23.89100 51.83700 30.05300
C  24.34800 52.96500 30.94400
O  25.36300 53.63500 30.74300
O  23.46900 53.04200 32.04300
C  23.77400 54.20000 32.97100
H  30.40400 49.30800 29.55800
H  29.71000 49.30400 23.09500
H  23.88100 51.75600 23.78400
H  26.68700 51.52300 31.67500
H  28.42200 49.37500 31.75700
H  29.74600 50.97000 32.56300
H  28.55400 52.24700 32.07600
H  29.94500 51.61000 31.01900
H  26.49000 48.62800 32.28500
H  25.06900 49.17800 31.26700
H  24.21400 50.40700 32.84100
H  25.68500 50.88900 33.56200
H  32.98100 48.36900 27.89200
H  32.23500 46.88300 27.68600
H  31.70400 47.95500 28.98300
H  33.89800 47.45000 24.21500
H  33.04500 46.82200 25.67100
H  33.81700 48.40800 25.75600
H  27.49200 49.14900 21.89800
H  25.81300 51.49800 21.76200
H  29.04100 51.48900 21.63700
H  27.76800 51.74300 20.51800
H  28.51400 50.26200 20.38400
H  24.08800 49.33700 22.59100
H  25.31600 48.67100 21.48600
H  23.98700 49.18200 19.75800
H  24.53100 50.85900 19.97500
H  23.08800 50.33900 20.74600
H  22.02700 53.88100 25.72500
H  21.15300 52.35400 25.82900
H  22.18800 52.65200 24.48100
H  23.50600 51.00200 30.63900
H  23.57900 53.85100 33.98500
H  23.20600 55.09500 32.71900
H  24.83600 54.44200 33.01800

