158

Mg 34.95200 2.86400 30.11000
C  32.89200 3.89000 32.47000
C  37.49100 2.72500 32.24500
C  36.88500 2.04900 27.44600
C  32.36000 3.51100 27.64700
N  35.21000 3.34400 32.12200
C  34.18300 3.62800 32.96500
C  34.65800 3.71300 34.41200
C  36.19500 3.48100 34.32200
C  36.36400 3.23800 32.80800
C  37.10100 4.70700 34.70100
C  33.89600 2.79400 35.47400
C  33.22000 3.67200 36.64400
H  33.97700 4.78900 37.14700
N  36.91000 2.41900 29.92300
C  37.82300 2.33100 30.93300
C  39.14700 2.07800 30.33500
C  38.85500 1.80700 28.95500
C  37.46300 2.09400 28.71900
C  40.39700 2.00300 31.12800
C  39.94700 1.37200 27.93200
O  39.69000 1.19600 26.74400
C  41.39800 1.08500 28.37200
N  34.69900 2.88800 27.77700
C  35.58000 2.32600 26.95700
C  35.13100 2.27300 25.49300
C  33.66700 2.69700 25.62700
C  33.53400 3.07800 27.11800
C  36.08300 3.13000 24.64400
C  32.48600 1.83400 25.13500
C  32.35900 0.47900 25.86300
N  33.04300 3.58600 30.01800
C  32.07000 3.76600 29.02600
C  30.81300 3.95400 29.63900
C  31.03200 4.08900 30.97400
C  32.45800 3.83100 31.15400
C  29.55300 4.04700 28.87300
C  30.40300 4.40400 32.26900
O  29.24400 4.58600 32.54400
C  31.59700 4.36500 33.23800
C  31.63700 5.70200 33.85500
O  32.29800 6.61700 33.47400
O  30.79700 5.87300 34.93400
C  30.94700 7.07500 35.80700
H  38.28500 2.72400 32.99500
H  37.51300 1.77100 26.59800
H  31.56900 3.68900 26.91500
H  34.46500 4.74200 34.71900
H  36.48600 2.58200 34.86500
H  37.53700 4.46900 35.67100
H  36.48200 5.58400 34.88800
H  37.81300 4.81400 33.88300
H  34.54100 2.11300 36.03000
H  33.06700 2.23500 35.04200
H  32.99700 2.95000 37.42900
H  32.28700 4.01500 36.19700
H  41.23900 2.34600 30.52600
H  40.60200 0.95300 31.33500
H  40.36200 2.58900 32.04700
H  42.00700 1.95100 28.63300
H  41.88000 0.74500 27.45600
H  41.40800 0.28400 29.11100
H  35.19300 1.24300 25.14100
H  33.50300 3.57000 24.99600
H  37.01200 3.51500 25.06600
H  35.53100 3.98400 24.25100
H  36.37500 2.42700 23.86400
H  32.63500 1.61700 24.07700
H  31.54800 2.39000 25.15300
H  31.32500 0.14000 25.79600
H  32.69800 0.46300 26.89900
H  32.91300 -0.24000 25.25900
H  29.60900 4.85800 28.14700
H  28.68600 4.21600 29.51100
H  29.51700 3.06100 28.40900
H  31.40600 3.62300 34.01300
H  30.79800 6.74700 36.83600
H  30.27000 7.89100 35.55300
H  31.94700 7.50700 35.81100
Mg 40.23500 9.84500 29.07600
C  42.23800 11.05100 31.78400
C  38.07800 8.58700 31.38200
C  38.45100 8.75600 26.42200
C  42.84200 10.63700 26.88800
N  40.23000 9.74200 31.35600
C  41.06900 10.42600 32.24500
C  40.51800 10.28000 33.67100
C  39.17000 9.50900 33.52700
C  39.18600 9.25100 32.03100
C  39.00600 8.17800 34.34900
C  40.45000 11.67100 34.42300
C  39.49400 11.85100 35.66400
H  40.30600 12.42800 36.94700
N  38.47500 8.89200 28.92900
C  37.76900 8.36300 29.99600
C  36.56400 7.66000 29.49800
C  36.50400 7.82900 28.06300
C  37.81900 8.54000 27.73700
C  35.56600 7.00600 30.35800
C  35.55700 7.27800 27.02100
O  35.67000 7.52800 25.82800
C  34.40100 6.45900 27.60100
N  40.65000 9.54400 26.95300
C  39.71400 9.21000 26.08300
C  40.19700 9.39000 24.58700
C  41.61000 9.99300 24.84000
C  41.70900 10.09800 26.32500
C  40.07300 8.15200 23.72400
C  42.00500 11.34700 24.06400
C  41.52800 12.66500 24.62900
N  42.14600 10.54600 29.24200
C  43.06500 10.93700 28.25300
C  44.09700 11.77000 28.84900
C  43.76800 11.81200 30.14100
C  42.61200 11.04900 30.38000
C  45.30800 12.32300 28.27100
C  44.30500 12.31200 31.42600
O  45.38900 12.75400 31.68900
C  43.25400 11.93200 32.52200
C  43.92900 11.19600 33.58100
O  44.40100 10.08500 33.51100
O  44.02800 12.01700 34.66700
C  44.55900 11.39500 35.86800
H  37.25600 8.30900 32.04400
H  37.73400 8.62700 25.60900
H  43.59000 10.82700 26.11500
H  41.23900 9.59800 34.12100
H  38.33100 10.17500 33.72900
H  38.23600 8.27100 35.11500
H  39.95600 8.00900 34.85700
H  38.98500 7.26600 33.75200
H  40.06900 12.45000 33.76300
H  41.47000 12.02600 34.57400
H  39.03100 10.89400 35.90100
H  38.64200 12.49400 35.44100
H  34.54500 7.38700 30.37400
H  35.78600 7.08400 31.42200
H  35.55500 5.94300 30.11600
H  33.70500 6.97600 28.26200
H  34.85200 5.61300 28.12100
H  33.76900 6.10100 26.78900
H  39.49900 10.13200 24.20000
H  42.37800 9.27100 24.56200
H  41.06400 7.89000 23.35200
H  39.50300 8.34600 22.81600
H  39.72100 7.33400 24.35200
H  41.58200 11.26100 23.06300
H  43.09500 11.32500 24.08600
H  40.95300 12.51700 25.54300
H  40.96400 13.24700 23.90000
H  42.43800 13.23900 24.80400
H  45.52700 13.28700 28.73000
H  45.35000 12.38100 27.18400
H  46.10800 11.67700 28.63100
H  42.90600 12.92800 32.79700
H  44.32800 10.33900 36.00500
H  44.29900 11.99700 36.73900
H  45.64300 11.48600 35.79600

