158

Mg -2.21000 17.01200 26.14300
C  -2.65000 14.91200 28.88600
C  -2.60200 19.72400 28.24200
C  -1.90100 19.08000 23.55800
C  -2.03500 14.23400 24.01700
N  -2.59900 17.27400 28.35200
C  -2.69500 16.24300 29.27700
C  -2.87700 16.79700 30.69000
C  -3.02100 18.30000 30.41500
C  -2.70500 18.45900 28.90700
C  -4.43200 18.84600 30.74000
C  -1.68700 16.56800 31.69300
C  -1.63800 17.27900 33.00700
H  -1.06100 16.44200 34.12500
N  -2.41000 19.08900 25.91100
C  -2.38600 20.00500 26.90800
C  -2.35600 21.29900 26.27400
C  -2.25700 21.18400 24.90100
C  -2.14200 19.73100 24.75900
C  -2.44400 22.60800 27.03900
C  -2.15900 22.15300 23.76400
O  -2.08600 21.71500 22.65300
C  -2.12700 23.70900 23.96500
N  -2.06100 16.73800 24.02500
C  -1.84900 17.73900 23.21200
C  -1.48700 17.21600 21.74700
C  -1.30400 15.64600 22.01400
C  -1.83600 15.52000 23.46400
C  -2.57500 17.48200 20.65400
C  0.11900 15.18300 22.03900
C  0.74100 15.39500 20.63400
N  -2.26000 14.96100 26.34400
C  -2.29400 13.97700 25.39500
C  -2.48900 12.71700 26.05000
C  -2.59300 13.07200 27.41000
C  -2.48900 14.42700 27.53900
C  -2.56200 11.41000 25.40800
C  -2.68000 12.50600 28.68700
O  -2.72100 11.31600 29.08200
C  -2.82800 13.68000 29.70900
C  -1.79700 13.43300 30.73100
O  -0.57900 13.58500 30.60500
O  -2.39800 12.86300 31.82400
C  -1.45200 12.28900 32.85400
H  -2.68100 20.54800 28.95300
H  -1.83500 19.61300 22.60800
H  -2.00000 13.43400 23.27400
H  -3.79600 16.44000 31.15500
H  -2.29100 18.90500 30.95300
H  -4.34900 19.45500 31.64000
H  -5.20600 18.09400 30.89100
H  -4.86800 19.34200 29.87300
H  -0.80600 16.74400 31.07600
H  -1.77600 15.49300 31.84900
H  -2.66500 17.58300 33.21100
H  -0.94200 18.11600 32.95400
H  -3.06700 23.26600 26.43300
H  -1.45600 23.06700 27.07700
H  -2.76100 22.65300 28.08000
H  -1.43800 24.01200 24.75300
H  -3.08400 24.17700 24.19600
H  -1.74500 23.99900 22.98600
H  -0.54400 17.60700 21.36500
H  -1.86000 15.03400 21.30400
H  -2.31200 18.16200 19.84400
H  -3.41200 17.89100 21.22000
H  -2.84900 16.52000 20.22100
H  0.13100 14.12900 22.32000
H  0.70200 15.64200 22.83700
H  0.59600 16.35200 20.13200
H  0.29400 14.69400 19.92900
H  1.80700 15.17900 20.69800
H  -3.07100 11.52900 24.45200
H  -3.07900 10.67600 26.02600
H  -1.59100 10.95200 25.22300
H  -3.80100 13.59100 30.19100
H  -0.84600 11.42800 32.57000
H  -2.08100 12.09100 33.72200
H  -0.74600 13.06800 33.14100
Mg 9.04800 3.83800 27.58800
C  10.60400 2.29600 30.39100
C  7.10900 5.66100 29.88500
C  7.27900 4.98700 25.03100
C  10.61900 1.50200 25.59600
N  8.70900 3.79200 29.88600
C  9.68100 3.30100 30.80900
C  9.31000 3.69300 32.28600
C  8.06100 4.67600 31.98700
C  7.91400 4.71100 30.44400
C  6.77800 4.29900 32.75800
C  10.64400 4.27400 32.94900
C  11.14300 3.59300 34.25400
H  11.28000 4.37700 35.56900
N  7.53500 5.21300 27.43200
C  6.86700 5.85700 28.45300
C  5.98200 6.80500 27.85300
C  6.11000 6.70300 26.46000
C  7.02100 5.61000 26.23900
C  5.24200 7.72400 28.83400
C  5.54100 7.52400 25.29100
O  5.69900 7.44300 24.10100
C  4.62100 8.56700 25.76600
N  8.94300 3.26500 25.58300
C  8.16000 3.95400 24.68500
C  8.42600 3.36200 23.28400
C  9.51300 2.25600 23.44000
C  9.73200 2.33700 24.92500
C  7.07400 2.79700 22.67400
C  10.77500 2.57700 22.63300
C  11.64800 1.41300 22.09100
N  10.42900 2.23300 27.89500
C  10.96300 1.38500 26.95300
C  11.91300 0.51100 27.60300
C  11.86500 0.87400 28.90400
C  10.92700 1.87800 29.08900
C  12.68600 -0.56600 26.99100
C  12.34700 0.51900 30.20900
O  13.00500 -0.45000 30.54300
C  11.56800 1.50700 31.25000
C  10.85400 0.76000 32.27600
O  9.65500 0.40500 32.21800
O  11.66600 0.48700 33.33800
C  11.14600 -0.01600 34.61700
H  6.54600 6.37700 30.48700
H  6.67200 5.23900 24.15900
H  11.24200 0.76800 25.08100
H  8.96800 2.78300 32.77900
H  8.34200 5.68700 32.28100
H  5.98000 4.09300 32.04500
H  6.40400 5.11000 33.38200
H  6.82900 3.36600 33.31900
H  10.30000 5.29300 33.12400
H  11.42100 4.21400 32.18600
H  12.15700 3.28100 34.00400
H  10.58700 2.67900 34.46400
H  4.88600 7.12000 29.66900
H  4.41200 8.23500 28.34500
H  5.95400 8.46600 29.19600
H  5.18600 9.16800 26.47900
H  3.70400 8.12000 26.14900
H  4.26800 9.11200 24.89100
H  8.79600 4.17500 22.66000
H  9.13100 1.31900 23.03400
H  6.57300 3.42100 21.93400
H  6.43700 2.69000 23.55200
H  7.31500 1.83400 22.22300
H  11.38500 3.25100 23.23400
H  10.58400 3.38700 21.92900
H  11.60400 1.39400 21.00200
H  11.22500 0.53700 22.58300
H  12.66300 1.66500 22.39700
H  13.32400 -0.22900 26.17300
H  12.06700 -1.45600 26.87500
H  13.40500 -0.86400 27.75400
H  12.35300 2.15700 31.63600
H  11.19700 0.76400 35.37600
H  11.82000 -0.78800 34.99000
H  10.18800 -0.52800 34.52400

