158

Mg 40.62400 41.75600 26.51300
C  39.94600 43.85400 29.39200
C  41.70000 39.32500 28.80600
C  41.49000 39.67600 23.90800
C  40.00200 44.34500 24.46000
N  40.85400 41.70400 28.83900
C  40.38900 42.55700 29.81300
C  40.38700 42.05600 31.24300
C  40.98400 40.60100 31.05600
C  41.18500 40.52900 29.46700
C  42.32100 40.44900 31.79200
C  38.96400 42.02900 31.88900
C  38.81300 41.19400 33.12500
H  38.10500 41.88400 34.32200
N  41.55100 39.85600 26.40800
C  41.84500 39.03700 27.46600
C  42.21300 37.71400 26.99300
C  42.17900 37.72800 25.54600
C  41.81100 39.13700 25.20900
C  42.55300 36.51300 27.94100
C  42.52300 36.69600 24.53700
O  42.69600 36.93500 23.30800
C  42.73400 35.23400 25.06500
N  40.69100 41.98900 24.48700
C  40.98700 40.96800 23.56400
C  41.11800 41.53400 22.14200
C  40.35000 42.91300 22.33900
C  40.43700 43.15600 23.87900
C  42.61500 41.64700 21.78300
C  38.90500 42.77000 21.93600
C  38.27600 44.07800 21.33800
N  39.96500 43.63300 26.77800
C  39.67800 44.60700 25.84100
C  39.20000 45.83800 26.47300
C  39.26800 45.59500 27.85900
C  39.67800 44.25800 28.01900
C  38.96800 47.13500 25.72000
C  39.06200 46.19000 29.18900
O  38.81300 47.34200 29.54100
C  39.34300 45.01100 30.16000
C  40.33700 45.47700 31.12900
O  41.47800 45.72000 30.91800
O  39.68900 45.85000 32.30100
C  40.52800 46.43400 33.36200
H  41.64700 38.57000 29.59300
H  41.62200 38.94400 23.10800
H  39.72200 45.12800 23.75100
H  41.06300 42.62900 31.87800
H  40.49000 39.72000 31.46500
H  43.09100 40.27100 31.04000
H  42.15900 39.60000 32.45600
H  42.58900 41.16000 32.57300
H  38.28800 41.60900 31.14400
H  38.70800 43.04500 32.18900
H  39.77000 40.78500 33.44800
H  38.21000 40.32200 32.87000
H  43.53100 36.17000 27.60100
H  41.85900 35.67300 27.95000
H  42.61600 36.78800 28.99400
H  41.87700 34.89300 25.64600
H  43.68500 35.16800 25.59200
H  42.84100 34.61900 24.17100
H  40.57500 40.86900 21.47000
H  40.81300 43.75900 21.83000
H  43.17500 41.08800 22.53200
H  42.94800 42.68400 21.79500
H  42.83900 41.11900 20.85600
H  38.40300 42.42100 22.83800
H  38.67000 42.05100 21.15200
H  37.60000 43.69700 20.57200
H  39.00200 44.82700 21.02400
H  37.60500 44.52800 22.06900
H  38.99100 48.04500 26.31900
H  37.98500 47.16500 25.25000
H  39.79200 47.24700 25.01400
H  38.50300 44.64100 30.74800
H  41.42800 45.83200 33.48300
H  39.96800 46.48600 34.29600
H  40.74100 47.48900 33.18900
Mg -5.82700 24.51200 27.30000
C  -3.98300 26.30900 29.66400
C  -6.85500 22.39800 29.84700
C  -7.59100 22.77500 25.05300
C  -4.66600 26.58300 24.80200
N  -5.38200 24.35500 29.48600
C  -4.71600 25.26000 30.21300
C  -5.03000 25.15400 31.69200
C  -5.71200 23.73300 31.83900
C  -6.03700 23.48000 30.30000
C  -4.86800 22.62000 32.47800
C  -5.99600 26.31600 32.11800
C  -5.54000 26.92800 33.48200
H  -6.23100 26.29900 34.78000
N  -6.98600 22.82300 27.44200
C  -7.29400 22.09600 28.56200
C  -8.18600 21.02700 28.20600
C  -8.44600 21.08000 26.83900
C  -7.70300 22.28200 26.42500
C  -8.73400 20.04100 29.24500
C  -9.34400 20.21400 25.95600
O  -9.50200 20.44500 24.76000
C  -10.01900 19.08400 26.62400
N  -6.00700 24.61400 25.20800
C  -6.91500 23.87800 24.56200
C  -6.79800 24.22800 23.05600
C  -5.87600 25.45600 23.00800
C  -5.60200 25.63900 24.48000
C  -6.28900 23.16800 22.00900
C  -6.55400 26.74200 22.34000
C  -5.75600 27.38200 21.16300
N  -4.45300 26.05100 27.23800
C  -4.11600 26.78100 26.12000
C  -3.23800 27.85900 26.59800
C  -3.09000 27.70400 27.90700
C  -3.87100 26.60300 28.29400
C  -2.61200 28.88500 25.70400
C  -2.47500 28.18000 29.14400
O  -1.76700 29.13600 29.19800
C  -3.12400 27.32900 30.36300
C  -1.87600 26.88400 31.11400
O  -1.03900 26.08700 30.70700
O  -1.89300 27.54200 32.34900
C  -0.87400 27.00000 33.28900
H  -7.23300 21.86500 30.72200
H  -8.11200 22.24900 24.25000
H  -4.33000 27.35400 24.10500
H  -4.01300 25.10900 32.08000
H  -6.64500 23.75100 32.40300
H  -5.61700 22.11600 33.09000
H  -4.10400 22.98700 33.16300
H  -4.44600 21.86800 31.81200
H  -6.97900 25.85700 32.22500
H  -6.18100 27.04900 31.33300
H  -5.76200 27.99200 33.39900
H  -4.48400 26.84000 33.73600
H  -9.82200 19.99500 29.19700
H  -8.38600 20.19100 30.26700
H  -8.33700 19.05500 29.00200
H  -10.47700 18.46600 25.85200
H  -10.76600 19.49200 27.30500
H  -9.34000 18.44900 27.19300
H  -7.82700 24.50200 22.82300
H  -4.92500 25.32200 22.49200
H  -7.03500 22.70800 21.36100
H  -5.77100 22.29600 22.40800
H  -5.53600 23.66500 21.39600
H  -6.69400 27.47900 23.13100
H  -7.61600 26.63100 22.12000
H  -5.05100 26.65600 20.75700
H  -5.33300 28.34700 21.44300
H  -6.40800 27.64900 20.33100
H  -1.92600 28.41800 24.99700
H  -1.91500 29.37300 26.38500
H  -3.43000 29.49600 25.32100
H  -3.67100 28.01500 31.01000
H  0.09800 26.63000 32.96100
H  -1.31100 26.01700 33.47000
H  -0.83100 27.37100 34.31200

