158

Mg 49.18400 44.90200 43.12900
C  45.83100 45.43900 42.20500
C  48.92900 41.67900 41.79800
C  52.57400 44.58100 43.48600
C  49.33400 48.09700 44.36800
N  47.51900 43.71400 41.91200
C  46.25600 44.10400 41.81400
C  45.50800 42.90700 41.34600
C  46.44700 41.69700 41.46300
C  47.71100 42.37600 41.77900
C  45.95000 40.70700 42.45000
C  44.88200 43.16200 39.94500
C  43.48600 42.72100 39.55000
H  43.25900 41.87400 38.28600
N  50.53800 43.39300 42.69000
C  50.25600 42.13600 42.16500
C  51.42900 41.44100 41.92400
C  52.53800 42.26200 42.38300
C  51.91500 43.44100 42.98200
C  51.39700 40.05700 41.20000
C  53.99100 41.88900 42.19500
O  54.35900 40.81000 41.79800
C  55.11500 42.74700 42.73600
N  50.85400 46.28600 43.70400
C  52.11700 45.84500 43.94600
C  52.95700 47.04300 44.46100
C  51.82700 48.01800 44.98800
C  50.59000 47.43700 44.31100
C  54.04300 46.66700 45.46400
C  52.13300 49.48000 44.79500
C  51.67200 50.39900 46.00900
N  47.83700 46.49300 43.33500
C  48.08100 47.73500 43.78400
C  46.83600 48.47700 43.75800
C  45.90400 47.64900 43.13100
C  46.58000 46.45900 42.87600
C  46.60800 49.88400 44.08200
C  44.56700 47.49900 42.57500
O  43.62400 48.28500 42.52100
C  44.47200 46.11400 41.95600
C  43.25000 45.40100 42.37100
O  42.14600 45.49400 41.78500
O  43.46400 44.54200 43.43600
C  42.33600 43.66500 43.77100
H  48.93700 40.64600 41.44300
H  53.65400 44.56600 43.64200
H  49.28900 49.10100 44.79300
H  44.62300 42.77600 41.96800
H  46.57800 41.18300 40.51100
H  45.47200 39.82300 42.02900
H  45.26300 41.06000 43.21800
H  46.73500 40.21700 43.02600
H  45.48100 42.51500 39.30500
H  45.03200 44.19800 39.64000
H  42.92500 43.63800 39.37000
H  42.93600 42.12700 40.28100
H  52.36500 39.57600 41.06000
H  50.88000 40.15300 40.24500
H  50.65200 39.37000 41.59900
H  54.98800 42.77500 43.81800
H  55.16500 43.70200 42.21300
H  56.08200 42.32300 42.46400
H  53.40300 47.54200 43.60000
H  51.45700 47.92700 46.00900
H  55.07200 46.92100 45.20800
H  54.04500 45.65100 45.85700
H  53.83700 47.39800 46.24600
H  51.80600 49.81800 43.81200
H  53.20200 49.67400 44.88000
H  50.92500 51.12100 45.67800
H  52.52800 50.97400 46.36200
H  51.42600 49.81200 46.89400
H  47.07700 50.10700 45.04000
H  45.54500 50.11400 44.00800
H  47.10400 50.48500 43.31900
H  44.47100 46.12600 40.86700
H  41.79400 44.27900 44.49000
H  42.75300 42.70600 44.07700
H  41.69400 43.35800 42.94400
Mg 16.57800 52.85600 26.53100
C  18.46400 51.12300 28.83100
C  14.28600 53.54400 28.92500
C  14.88000 54.46800 24.14700
C  18.93300 51.83000 24.06900
N  16.33400 52.34300 28.65400
C  17.31500 51.71000 29.36600
C  17.07200 51.87400 30.84000
C  15.55600 52.34900 30.90000
C  15.28400 52.70600 29.42200
C  14.61300 51.24600 31.44300
C  18.14900 52.85000 31.38000
C  18.49900 52.56400 32.86600
H  17.40300 51.97000 33.76800
N  14.88300 53.90900 26.51800
C  14.08600 54.04600 27.62600
C  13.03400 54.94100 27.25800
C  13.13500 55.24400 25.91500
C  14.36900 54.55700 25.46400
C  11.89000 55.43800 28.23900
C  12.25500 56.04900 24.98900
O  12.52000 56.17700 23.82900
C  10.91700 56.70700 25.46800
N  16.94600 53.23700 24.41400
C  16.06100 53.93000 23.69200
C  16.51600 54.02800 22.27800
C  17.86400 53.29300 22.20700
C  17.94900 52.73400 23.64400
C  15.45300 53.50300 21.20800
C  19.18600 54.13100 21.77700
C  19.03600 55.66800 21.46100
N  18.32900 51.73400 26.38700
C  19.17800 51.41100 25.32300
C  20.28500 50.60900 25.79800
C  19.96300 50.41400 27.22100
C  18.81800 51.14300 27.50300
C  21.32800 49.92600 24.98700
C  20.46600 49.76700 28.41000
O  21.43800 49.10400 28.58400
C  19.57600 50.39000 29.59300
C  19.11300 49.15500 30.31600
O  18.60300 48.20800 29.80300
O  19.41100 49.35200 31.64300
C  19.01500 48.23800 32.53600
H  13.49600 53.84600 29.61600
H  14.42300 54.99300 23.30600
H  19.61200 51.49100 23.28400
H  17.10200 50.84000 31.18400
H  15.40500 53.29400 31.42100
H  13.78800 51.76300 31.93400
H  15.13500 50.60300 32.15200
H  14.13000 50.61800 30.69400
H  17.56700 53.76800 31.46400
H  19.00700 52.95600 30.71600
H  18.75900 53.54400 33.26500
H  19.45800 52.04500 32.86100
H  12.01600 56.52000 28.27100
H  11.82200 55.05500 29.25700
H  10.87100 55.21200 27.92400
H  11.05100 57.32900 26.35400
H  10.18100 55.91200 25.58800
H  10.59900 57.33500 24.63600
H  16.62900 55.07300 21.98800
H  17.76300 52.38700 21.61000
H  15.63100 54.23000 20.41500
H  14.43500 53.60200 21.58500
H  15.72800 52.49200 20.90800
H  19.56400 53.63900 20.88000
H  19.85800 54.09000 22.63400
H  19.96800 55.97400 20.98500
H  18.98900 56.19300 22.41500
H  18.19400 55.89700 20.80700
H  21.20200 48.84400 25.01700
H  22.25600 50.13300 25.52000
H  21.47600 50.31900 23.98100
H  20.21300 50.97100 30.26100
H  17.93500 48.16100 32.41400
H  19.13700 48.58700 33.56200
H  19.58300 47.39000 32.15400

