158

Mg 45.80400 3.88700 47.94600
C  43.80100 6.68800 47.05200
C  43.15900 1.94700 47.17900
C  47.97800 1.30500 47.83000
C  48.63200 6.17500 48.10400
N  43.68500 4.27800 47.04600
C  43.03500 5.46100 47.01400
C  41.62800 5.34800 46.53700
C  41.35100 3.78900 46.75400
C  42.82500 3.31600 47.02200
C  40.22100 3.47300 47.70300
C  41.42100 5.66700 45.00700
C  40.26000 6.58600 44.68100
H  40.47400 7.54600 43.47600
N  45.57900 1.85900 47.67700
C  44.35000 1.24300 47.46000
C  44.51000 -0.12100 47.54200
C  45.90100 -0.38200 47.75500
C  46.56900 0.93100 47.77600
C  43.43900 -1.03700 47.20200
C  46.59300 -1.76000 47.86900
O  45.90000 -2.74500 47.91800
C  48.04000 -1.94400 48.16200
N  47.99500 3.79800 47.89300
C  48.58400 2.55100 47.99000
C  50.11500 2.67500 48.15200
C  50.29300 4.27000 48.19000
C  48.89600 4.81800 48.07500
C  50.68400 2.02300 49.37400
C  51.15900 4.76000 47.08200
C  52.28900 5.68000 47.58800
N  46.18700 5.96300 47.65800
C  47.33900 6.77200 47.84200
C  47.00900 8.17600 47.66300
C  45.62500 8.09800 47.36800
C  45.18900 6.80600 47.40800
C  47.85600 9.34400 47.66100
C  44.54200 9.02100 47.06200
O  44.65200 10.21400 46.87000
C  43.29800 8.09500 46.93800
C  42.35800 8.44800 48.00000
O  42.14100 7.82500 49.03300
O  41.67100 9.55200 47.54500
C  40.59100 10.08100 48.37900
H  42.26300 1.35600 46.98200
H  48.75300 0.54100 47.92300
H  49.41200 6.93700 48.16100
H  40.99500 5.93400 47.20200
H  41.10900 3.20200 45.86800
H  40.27400 4.07900 48.60800
H  40.19700 2.41800 47.97300
H  39.24900 3.66500 47.25000
H  41.06400 4.70300 44.64600
H  42.36400 6.00500 44.57700
H  40.13400 7.32900 45.46800
H  39.42300 5.93900 44.41600
H  42.50200 -0.59100 46.86700
H  43.29500 -1.70800 48.04900
H  43.74000 -1.59000 46.31200
H  48.29700 -2.93600 48.53400
H  48.28100 -1.25800 48.97400
H  48.68100 -1.71700 47.31000
H  50.50200 2.22700 47.23700
H  50.58100 4.70100 49.14900
H  49.80300 1.76300 49.96000
H  51.40100 2.63700 49.91900
H  51.26300 1.21400 48.92800
H  50.59600 5.45500 46.45800
H  51.61200 3.95300 46.50700
H  52.45700 6.57200 46.98400
H  53.15600 5.02500 47.49800
H  52.13600 5.86100 48.65200
H  47.29600 10.17200 47.22600
H  48.66600 9.34900 46.93200
H  48.33700 9.48500 48.62900
H  42.73800 8.26800 46.01800
H  39.59800 9.92000 47.95800
H  40.66500 11.16200 48.49700
H  40.52400 9.73000 49.40900
Mg 48.81000 45.17200 42.12200
C  45.28700 45.22200 41.50300
C  48.81600 41.95100 41.19300
C  52.10900 45.52000 42.00000
C  48.49900 48.77000 42.68800
N  47.22600 43.78700 41.39300
C  45.89300 43.95900 41.30700
C  45.13600 42.74200 40.84200
C  46.19700 41.63200 41.07200
C  47.50200 42.48000 41.22500
C  45.94300 40.65500 42.23900
C  44.59600 42.91600 39.35100
C  43.13200 42.44000 39.07500
H  42.84600 41.79800 37.72200
N  50.29800 43.89600 41.51600
C  50.07300 42.55200 41.26500
C  51.37100 41.98100 40.86200
C  52.32800 42.94400 41.12800
C  51.59200 44.17600 41.56900
C  51.50100 40.54000 40.34400
C  53.79500 42.67100 40.99600
O  54.19900 41.57100 40.58200
C  54.91100 43.68400 41.39200
N  50.15400 47.07100 42.02800
C  51.48400 46.74100 42.27500
C  52.21100 48.08400 42.50500
C  51.04100 49.09500 42.88500
C  49.85000 48.27000 42.53700
C  53.33300 47.98900 43.59300
C  51.21100 50.34700 42.00000
C  50.99200 51.61400 42.77400
N  47.25300 46.74500 42.12700
C  47.29300 48.09300 42.48400
C  45.96500 48.61300 42.56000
C  45.15000 47.54400 42.05500
C  45.96500 46.43800 41.91100
C  45.56100 49.97700 43.03900
C  43.73100 47.21300 41.86700
O  42.73600 47.85100 41.99400
C  43.84900 45.61800 41.39600
C  42.99300 44.88600 42.33500
O  41.95800 44.41900 41.94000
O  43.54100 44.73300 43.64300
C  42.81500 43.97500 44.67500
H  48.77400 40.90000 40.89800
H  53.19500 45.61200 42.06400
H  48.35400 49.81400 42.97500
H  44.34100 42.61100 41.57600
H  46.18200 40.92300 40.24400
H  45.69100 41.24400 43.12100
H  46.86900 40.14700 42.51200
H  45.20300 39.87600 42.05700
H  45.26300 42.31000 38.73800
H  44.63400 43.96800 39.06800
H  42.54100 43.35600 39.05100
H  42.61800 41.84700 39.83200
H  51.64800 40.49700 39.26400
H  50.62100 39.91900 40.50400
H  52.35600 40.11400 40.87000
H  54.77000 43.93100 42.44400
H  54.80600 44.59200 40.79700
H  55.91700 43.31100 41.19700
H  52.70600 48.30100 41.55800
H  51.17700 49.51400 43.88200
H  53.28500 46.97100 43.97800
H  53.25200 48.72600 44.39200
H  54.32800 48.08300 43.15800
H  50.58900 50.30300 41.10700
H  52.20000 50.37000 41.54200
H  51.94500 51.89900 43.21800
H  50.22100 51.68500 43.54200
H  50.66500 52.27700 41.97300
H  44.48000 50.10200 43.09700
H  45.90600 50.72100 42.32100
H  45.82000 50.24200 44.06400
H  43.44800 45.49400 40.39000
H  43.58900 43.60500 45.34700
H  42.33700 43.09100 44.25200
H  42.08000 44.60700 45.17300

