158

Mg 36.63000 50.28900 26.19000
C  36.96700 47.96800 28.91800
C  35.56100 52.63400 28.47200
C  36.01600 52.25800 23.51800
C  37.58000 47.66700 24.01400
N  36.15400 50.16200 28.46100
C  36.57800 49.23400 29.37500
C  36.44400 49.66300 30.84300
C  35.73400 51.13200 30.63700
C  35.75400 51.30500 29.08800
C  34.29900 51.37500 31.16800
C  37.83800 49.79900 31.63600
C  37.84500 48.90000 32.95200
H  36.66100 49.19900 33.95000
N  36.04100 52.21200 26.04500
C  35.59000 53.04000 27.08800
C  35.24800 54.30000 26.54200
C  35.30900 54.23800 25.07200
C  35.80800 52.80500 24.80300
C  34.89900 55.47900 27.45700
C  34.95100 55.23800 23.94900
O  35.13400 55.07300 22.75600
C  34.38000 56.57700 24.33700
N  36.76800 50.02700 24.10600
C  36.48700 50.95500 23.24200
C  36.81000 50.51200 21.80200
C  37.39400 49.09300 21.95400
C  37.24300 48.90300 23.45900
C  35.57100 50.68600 20.86600
C  38.90400 48.90000 21.50800
C  39.92500 49.75200 22.31100
N  37.14400 48.23500 26.36100
C  37.58700 47.37400 25.40900
C  37.87200 46.07900 26.07800
C  37.67600 46.29500 27.42900
C  37.18900 47.62300 27.57200
C  38.38700 44.87800 25.41900
C  37.73900 45.62700 28.77900
O  37.97100 44.48800 29.07900
C  37.28200 46.76600 29.72100
C  36.15100 46.29200 30.48900
O  34.98200 46.42500 30.18900
O  36.43300 45.77300 31.74200
C  35.45300 45.35100 32.72100
H  35.29900 53.39800 29.20700
H  35.74200 52.79700 22.60900
H  38.12200 47.00100 23.33900
H  35.85100 48.87700 31.31000
H  36.30900 51.94500 31.08100
H  34.36200 52.19500 31.88400
H  33.81800 50.50400 31.61300
H  33.55100 51.57700 30.40200
H  37.78100 50.82200 32.00900
H  38.72300 49.68500 31.01000
H  38.77200 48.94100 33.52500
H  37.65100 47.91900 32.51900
H  35.60100 56.24000 27.11300
H  35.11600 55.21700 28.49200
H  33.82900 55.68200 27.41400
H  33.48700 56.44500 24.94800
H  34.04500 57.08800 23.43400
H  35.20900 57.02400 24.88500
H  37.61700 51.15500 21.45200
H  36.76500 48.33300 21.49100
H  34.66000 50.88600 21.43100
H  35.47600 49.69600 20.41900
H  35.64000 51.35600 20.00900
H  39.03800 49.35600 20.52800
H  39.22300 47.88400 21.27400
H  40.79000 50.08900 21.73800
H  40.30100 49.16900 23.15200
H  39.59400 50.71200 22.70800
H  38.54100 44.08500 26.15000
H  39.36800 45.13000 25.01400
H  37.81000 44.53000 24.56300
H  38.09800 47.04300 30.38800
H  35.45800 44.27000 32.58100
H  34.39200 45.56400 32.59000
H  35.63100 45.68600 33.74300
Mg -11.79000 37.28400 41.79200
C  -9.72100 34.70600 40.76900
C  -9.54400 39.55100 40.60800
C  -14.25200 39.56800 42.03200
C  -14.14200 34.84600 42.95600
N  -9.98200 37.10500 40.58900
C  -9.24100 35.96600 40.38100
C  -7.91800 36.19900 39.57100
C  -7.82400 37.76200 39.84800
C  -9.18200 38.23500 40.38600
C  -6.62000 38.40600 40.68500
C  -7.99700 35.75100 38.04400
C  -6.82500 34.92300 37.41300
H  -6.24600 35.53600 36.17800
N  -11.83400 39.34100 41.34500
C  -10.73900 40.06900 40.95700
C  -11.21800 41.51100 40.93300
C  -12.66100 41.49600 41.25700
C  -12.97000 40.09400 41.60200
C  -10.33400 42.66800 40.60500
C  -13.56300 42.72300 41.35400
O  -13.11800 43.82100 41.06800
C  -15.01900 42.75400 41.85000
N  -13.93800 37.14100 42.29600
C  -14.70200 38.33800 42.31800
C  -16.23300 37.98800 42.65800
C  -16.12800 36.52400 43.13000
C  -14.64700 36.11600 42.80400
C  -16.94400 38.84200 43.69200
C  -17.23800 35.56200 42.43600
C  -18.22400 34.96400 43.48400
N  -11.95800 35.20100 41.84200
C  -12.88500 34.33400 42.48600
C  -12.30900 33.03000 42.52800
C  -11.00100 33.10600 41.94500
C  -10.90400 34.39800 41.42100
C  -12.97700 31.74100 43.07600
C  -9.75000 32.38000 41.70100
O  -9.38800 31.28700 42.06300
C  -8.90400 33.38000 40.74400
C  -7.59900 33.60500 41.25300
O  -7.29300 34.00300 42.32900
O  -6.70900 33.29200 40.29000
C  -5.33100 33.39700 40.80100
H  -8.74700 40.21800 40.27300
H  -15.03800 40.32600 42.04300
H  -14.89800 34.22500 43.44100
H  -7.08800 35.74500 40.11100
H  -7.65300 38.24300 38.88500
H  -6.08100 39.08600 40.02600
H  -5.86100 37.64000 40.84400
H  -6.99100 38.97600 41.53700
H  -8.16900 36.62300 37.41300
H  -8.90000 35.16300 37.87800
H  -7.26800 33.93900 37.26100
H  -6.04700 34.77700 38.16200
H  -10.67300 43.34400 39.82000
H  -9.35800 42.21600 40.42900
H  -10.13900 43.22200 41.52300
H  -15.70700 42.43000 41.06900
H  -15.18200 43.79900 42.11200
H  -15.17500 42.17900 42.76200
H  -16.82900 38.14600 41.75900
H  -16.24700 36.49800 44.21300
H  -17.65200 39.49300 43.17800
H  -16.29200 39.53200 44.22700
H  -17.57500 38.24900 44.35400
H  -16.72700 34.82900 41.81200
H  -17.77000 36.11400 41.66200
H  -17.86500 33.96400 43.72600
H  -19.24200 34.96800 43.09400
H  -18.29000 35.66300 44.31800
H  -12.29200 31.23300 43.75500
H  -13.04900 31.07500 42.21700
H  -13.89700 31.95900 43.61900
H  -8.85400 33.13400 39.68300
H  -4.99800 34.43400 40.78200
H  -4.66900 32.84800 40.13100
H  -5.05300 33.09200 41.81000

