158

Mg 2.84100 -2.09700 44.96800
C  5.71600 -0.30200 43.85400
C  0.91800 -0.39300 42.75400
C  0.48600 -4.33300 45.36900
C  5.13000 -4.21700 46.72700
N  3.30000 -0.64500 43.49800
C  4.49200 0.06300 43.27200
C  4.27600 1.03400 42.20200
C  2.72800 1.08900 41.92000
C  2.28300 -0.01300 42.84100
C  2.05100 2.53000 42.08300
C  5.06400 0.65500 40.89300
C  5.78200 1.86100 40.24500
H  6.37200 1.49400 38.88700
N  0.87500 -2.29100 44.32100
C  0.25000 -1.36200 43.51400
C  -1.11000 -1.65300 43.46100
C  -1.30300 -2.91400 44.03900
C  0.04100 -3.21200 44.65600
C  -2.15600 -0.84100 42.82200
C  -2.56400 -3.86600 44.01000
O  -3.48600 -3.48400 43.25700
C  -2.69900 -5.10300 44.76800
N  2.82300 -3.97200 46.00400
C  1.65700 -4.72600 46.00200
C  1.75400 -5.97300 46.84700
C  3.28500 -6.02300 47.20000
C  3.83400 -4.69200 46.53300
C  0.82300 -5.96700 48.17700
C  4.01400 -7.32800 46.89200
C  3.83400 -8.00000 45.50800
N  4.97000 -2.25400 45.29400
C  5.72000 -3.06800 46.14000
C  7.14600 -2.56400 46.25300
C  7.17900 -1.54700 45.25500
C  5.86600 -1.42700 44.70300
C  8.29700 -3.11700 47.10300
C  8.07500 -0.54500 44.64500
O  9.24000 -0.34000 44.76200
C  7.12000 0.29100 43.73500
C  7.14900 1.60400 44.26100
O  7.10300 1.84800 45.45000
O  7.37400 2.55200 43.26600
C  7.51600 3.93300 43.76400
H  0.23000 0.15300 42.10500
H  -0.33100 -5.05100 45.47100
H  5.89500 -4.80100 47.24300
H  4.63200 1.98300 42.60300
H  2.44400 0.66400 40.95700
H  1.65600 2.83500 41.11400
H  2.83400 3.28400 42.17000
H  1.37000 2.50400 42.93400
H  4.39100 0.18200 40.17700
H  5.83100 -0.07600 41.14800
H  6.70100 2.03700 40.80300
H  5.13400 2.72900 40.12300
H  -2.90900 -0.73300 43.60200
H  -2.45300 -1.35900 41.91000
H  -1.71900 0.15300 42.73000
H  -2.50900 -4.80700 45.80000
H  -1.89600 -5.69300 44.32500
H  -3.61400 -5.67900 44.63300
H  1.47600 -6.89300 46.33300
H  3.22700 -5.83500 48.27200
H  -0.22300 -5.90300 47.87700
H  0.93600 -5.10100 48.82800
H  1.07100 -6.85100 48.76600
H  3.63800 -8.04800 47.61900
H  5.07600 -7.11600 47.01900
H  3.47500 -7.13700 44.94700
H  3.20400 -8.88900 45.50400
H  4.84200 -8.23900 45.16600
H  8.59400 -4.03600 46.59600
H  7.86800 -3.19300 48.10200
H  9.14000 -2.43200 47.18100
H  7.54100 0.28700 42.72900
H  8.57500 4.19000 43.75800
H  6.92500 4.07800 44.66900
H  7.00100 4.49000 42.98100
Mg 25.64400 1.46200 29.74200
C  27.58800 1.00300 32.64600
C  22.84900 1.52500 31.72100
C  23.69800 1.11100 26.94400
C  28.46300 0.67400 27.80200
N  25.19900 1.15600 31.95300
C  26.19100 1.09600 32.92000
C  25.56700 1.14200 34.33300
C  24.07400 1.51200 33.97700
C  23.99400 1.35600 32.49000
C  22.97900 0.83000 34.79300
C  26.27500 2.18600 35.28600
C  25.39000 3.03400 36.10300
H  25.91200 3.25700 37.62300
N  23.58700 1.51700 29.38200
C  22.57800 1.62800 30.35400
C  21.28300 1.79200 29.72300
C  21.51300 1.64500 28.37300
C  22.97400 1.40600 28.15000
C  20.00400 1.98800 30.55500
C  20.44900 1.75000 27.30100
O  20.62000 1.42600 26.09900
C  19.07300 2.30900 27.65300
N  26.02400 1.01100 27.69100
C  25.07500 0.94400 26.79300
C  25.77400 0.97500 25.37800
C  27.27900 0.83900 25.59400
C  27.22500 0.84400 27.14200
C  25.27800 0.05500 24.18500
C  28.06200 1.95200 25.01500
C  29.51500 1.67700 24.73500
N  27.62200 0.93000 30.11100
C  28.65800 0.64200 29.21500
C  29.82300 0.25100 29.90300
C  29.50300 0.48300 31.24900
C  28.13500 0.87500 31.29900
C  31.03400 -0.32700 29.29800
C  30.03000 0.39500 32.60300
O  31.15000 0.06100 33.00200
C  28.81700 0.67500 33.59000
C  28.60600 -0.54500 34.54000
O  27.86200 -1.49300 34.33100
O  29.18000 -0.31200 35.76100
C  29.14200 -1.54500 36.61900
H  22.06100 1.78000 32.43400
H  23.14700 0.97300 26.01200
H  29.30900 0.41200 27.16400
H  25.47100 0.19500 34.86300
H  23.82300 2.56700 34.09100
H  22.17100 1.54200 34.96300
H  23.37000 0.47700 35.74700
H  22.56900 0.03600 34.16900
H  26.68800 2.92600 34.60200
H  27.01600 1.70300 35.92400
H  24.42000 2.57100 36.28200
H  25.24000 3.97900 35.58100
H  20.25900 2.12800 31.60600
H  19.48500 1.03500 30.45700
H  19.30500 2.72200 30.15400
H  18.40800 1.98400 26.85300
H  19.14200 3.38500 27.81300
H  18.53400 1.79200 28.44600
H  25.56500 1.96100 24.96200
H  27.67800 -0.16700 25.46000
H  24.63100 -0.69400 24.64300
H  26.12800 -0.40200 23.67900
H  24.66800 0.70100 23.55300
H  27.95700 2.76300 25.73600
H  27.72300 2.30700 24.04200
H  30.10700 2.29100 25.41300
H  29.79900 1.84800 23.69600
H  29.65600 0.64300 25.04900
H  31.53600 0.59500 29.00400
H  30.97400 -0.82900 28.33200
H  31.60900 -0.96300 29.97100
H  29.10400 1.53300 34.19900
H  29.15700 -2.49600 36.08600
H  28.26800 -1.55800 37.27100
H  30.00600 -1.40300 37.26800

