158

Mg 48.71800 35.15700 27.18700
C  46.99200 33.66900 29.93100
C  48.99900 37.92200 29.01000
C  50.29100 36.56900 24.55800
C  47.98600 32.35100 25.15300
N  48.23200 35.57800 29.41500
C  47.62900 34.84300 30.35500
C  47.66500 35.62400 31.66500
C  47.84800 37.10500 31.15600
C  48.31300 36.87400 29.73700
C  46.47000 37.86700 31.03000
C  48.71300 35.10800 32.64500
C  48.49500 35.30700 34.17300
H  47.52500 36.45700 34.47800
N  49.61700 37.02600 26.87000
C  49.62600 38.04900 27.76400
C  50.37700 39.12700 27.20400
C  50.82900 38.73500 25.86000
C  50.23000 37.36700 25.68500
C  50.65800 40.37100 27.95800
C  51.67100 39.50800 24.83200
O  52.08900 38.92400 23.83100
C  51.98800 41.00300 25.22100
N  49.01400 34.59900 25.04500
C  49.81600 35.27700 24.24300
C  49.81300 34.67600 22.86100
C  49.22800 33.23500 23.05600
C  48.67200 33.37800 24.49900
C  49.11100 35.61700 21.81900
C  50.23900 32.11300 22.89400
C  50.39300 31.49400 21.53800
N  47.73200 33.38900 27.40900
C  47.48900 32.32600 26.53600
C  46.68600 31.37500 27.25400
C  46.45000 31.86600 28.54700
C  47.09100 33.09900 28.61200
C  46.15200 30.13800 26.63600
C  45.72600 31.53300 29.78100
O  44.89700 30.67000 30.02900
C  45.97700 32.84100 30.68000
C  46.36900 32.36800 32.08700
O  47.42100 31.82900 32.43500
O  45.30800 32.62700 32.95200
C  45.68600 32.16400 34.35200
H  48.98500 38.86800 29.55500
H  50.74500 36.91900 23.62900
H  47.89800 31.44200 24.55500
H  46.66700 35.49100 32.08400
H  48.48900 37.68500 31.82100
H  45.60400 37.28300 31.34400
H  46.18300 38.10500 30.00600
H  46.62300 38.81300 31.54900
H  49.64100 35.56600 32.30200
H  48.99200 34.08000 32.41300
H  49.49500 35.50100 34.56200
H  48.09300 34.34500 34.48900
H  49.90900 40.48800 28.74200
H  50.55400 41.18500 27.24100
H  51.66800 40.37400 28.36800
H  52.61000 41.12100 26.10900
H  51.06700 41.58300 25.25100
H  52.60500 41.47200 24.45500
H  50.85500 34.66100 22.54100
H  48.44300 32.87400 22.39000
H  48.28400 35.04800 21.39500
H  49.82900 35.83300 21.02800
H  48.76500 36.53800 22.28800
H  50.07400 31.25800 23.54900
H  51.24000 32.51200 23.06100
H  49.55100 31.80300 20.91900
H  50.30400 30.40900 21.47300
H  51.35700 31.72600 21.08500
H  46.99900 29.49800 26.38700
H  45.58000 30.46800 25.76900
H  45.51000 29.70700 27.40400
H  45.04500 33.39800 30.77500
H  44.75000 31.87700 34.83200
H  46.16800 32.96400 34.91300
H  46.24500 31.23400 34.45600
Mg 16.89800 52.97800 26.85200
C  18.72000 51.21800 29.32700
C  14.65500 53.70400 29.26400
C  14.92700 54.20700 24.50500
C  18.99400 51.51000 24.35100
N  16.80400 52.66300 28.99900
C  17.67100 51.95500 29.81600
C  17.25500 51.92800 31.28100
C  15.75800 52.28600 31.09300
C  15.77700 52.98000 29.72300
C  14.95600 50.97700 31.30000
C  18.08900 53.01700 31.98800
C  18.47600 52.81400 33.43700
H  17.40700 52.08900 34.26700
N  15.08900 53.97700 26.87300
C  14.36200 54.25200 27.99200
C  13.22700 55.01800 27.63100
C  13.16900 54.99100 26.22900
C  14.45300 54.40100 25.77700
C  12.28700 55.55700 28.68500
C  11.98900 55.45700 25.28200
O  12.22500 55.53800 24.08900
C  10.60200 55.92200 25.81700
N  17.09700 53.02900 24.73400
C  16.05700 53.60800 24.01000
C  16.26100 53.34700 22.49600
C  17.62100 52.57500 22.49800
C  17.93700 52.44400 23.97000
C  15.11400 52.58500 21.90900
C  18.69700 53.14800 21.54800
C  19.71300 54.19700 22.04300
N  18.53300 51.59200 26.77500
C  19.30100 51.16000 25.73900
C  20.41700 50.43800 26.30800
C  20.26900 50.43900 27.69500
C  19.05500 51.05600 27.92400
C  21.56400 49.90900 25.49000
C  20.83700 50.13200 28.97000
O  21.95000 49.74100 29.26900
C  19.84500 50.61700 30.04700
C  19.46400 49.44900 30.95400
O  18.83400 48.49400 30.51400
O  19.78500 49.63200 32.29600
C  19.24200 48.68500 33.27700
H  13.97900 53.94600 30.08700
H  14.48200 54.75300 23.67100
H  19.50200 50.93500 23.57400
H  17.60900 51.06100 31.83900
H  15.38200 52.90800 31.90600
H  15.09700 50.27000 30.48200
H  13.87600 51.02700 31.43400
H  15.36600 50.50900 32.19500
H  17.55200 53.96500 32.00900
H  19.01800 53.19100 31.44600
H  18.71800 53.79300 33.85100
H  19.41300 52.25900 33.40000
H  11.96400 56.56000 28.40700
H  12.72600 55.48000 29.68000
H  11.35200 54.99800 28.70900
H  10.00100 55.16000 26.31300
H  9.92800 56.34200 25.07100
H  10.82200 56.80500 26.41700
H  16.37500 54.30000 21.98100
H  17.42800 51.55400 22.17000
H  14.57700 53.17400 21.16500
H  14.49500 52.11600 22.67400
H  15.57700 51.73400 21.41100
H  18.21100 53.88100 20.90300
H  19.17800 52.35800 20.97200
H  19.41500 54.50900 23.04400
H  19.67200 55.09000 21.42000
H  20.73300 53.81800 22.10000
H  21.97500 50.62900 24.78200
H  21.08400 49.17400 24.84200
H  22.36700 49.37700 25.99900
H  20.35200 51.28700 30.74200
H  19.61500 47.69100 33.03000
H  18.15800 48.58500 33.20900
H  19.63100 49.07400 34.21800

