158

Mg 40.27500 9.39100 29.28100
C  42.25200 10.28800 32.09100
C  37.91000 8.15800 31.39000
C  38.87300 7.83100 26.55300
C  42.98700 10.25500 27.31300
N  40.13700 9.11000 31.52200
C  41.05200 9.64600 32.40500
C  40.43400 9.58200 33.82400
C  39.12400 8.74300 33.62500
C  38.99500 8.73700 32.11500
C  39.06800 7.32300 34.23000
C  40.16500 10.95800 34.49100
C  39.62900 10.86300 35.95200
H  40.49800 11.52000 37.06600
N  38.70300 8.16700 29.02600
C  37.76600 7.88200 30.01400
C  36.75400 7.00300 29.45500
C  37.01900 6.92800 28.04400
C  38.21400 7.68600 27.80800
C  35.67200 6.39300 30.35200
C  36.26700 6.11700 27.01800
O  36.69300 5.80000 25.92900
C  35.04300 5.47000 27.51500
N  40.94200 8.92000 27.25700
C  40.08900 8.50100 26.29300
C  40.66600 8.73500 24.91500
C  41.84900 9.76600 25.14900
C  41.98800 9.60500 26.68200
C  41.19700 7.36100 24.24500
C  41.58700 11.17600 24.59300
C  40.96800 12.25100 25.43300
N  42.12600 10.26900 29.56900
C  43.13600 10.54800 28.64700
C  44.23300 11.18100 29.36800
C  43.86100 11.19800 30.68000
C  42.64000 10.51300 30.78300
C  45.40900 11.83200 28.68000
C  44.27000 11.60900 32.01600
O  45.24400 12.21600 32.34600
C  43.22900 11.01800 32.98300
C  43.91600 10.10700 33.94500
O  44.12200 8.88900 33.91100
O  44.34600 10.82500 35.04600
C  44.74800 9.96300 36.20000
H  37.18800 7.74200 32.09600
H  38.26300 7.72600 25.65300
H  43.79700 10.59700 26.66600
H  41.13800 9.05100 34.46500
H  38.27300 9.23600 34.09400
H  40.00400 7.25200 34.78400
H  39.02400 6.63900 33.38300
H  38.15900 7.26700 34.83000
H  39.46000 11.47400 33.84000
H  41.12200 11.47500 34.56500
H  39.26600 9.83900 36.03700
H  38.68900 11.39700 35.81500
H  34.79000 6.99500 30.13500
H  35.75600 6.40100 31.43900
H  35.73300 5.35000 30.04000
H  35.34400 4.56100 28.03600
H  34.47100 5.15200 26.64300
H  34.39700 6.11000 28.11500
H  39.85400 9.06400 24.26600
H  42.83400 9.38000 24.88300
H  40.83300 7.27600 23.22100
H  40.75500 6.58500 24.87100
H  42.28600 7.33100 24.24800
H  40.91400 11.10700 23.73900
H  42.54600 11.54100 24.22300
H  40.43700 11.88400 26.31100
H  40.27500 12.77300 24.77300
H  41.78400 12.93100 25.68000
H  45.92200 12.46900 29.40000
H  45.05300 12.43000 27.84100
H  46.15300 11.06600 28.45900
H  42.68000 11.88000 33.36000
H  45.53400 9.26300 35.91500
H  43.90800 9.41700 36.62900
H  45.17100 10.68800 36.89500
Mg 48.47500 35.30800 27.53600
C  46.71400 33.48800 29.93400
C  48.22200 38.07400 29.54100
C  50.02800 36.97200 25.16000
C  48.06000 32.55100 25.33600
N  47.68600 35.60600 29.62400
C  47.17200 34.68700 30.50100
C  47.14800 35.25100 31.91000
C  47.28400 36.82300 31.61800
C  47.76800 36.89600 30.19000
C  46.07700 37.60500 31.95400
C  48.38900 34.75300 32.70900
C  48.32800 34.75400 34.24200
H  47.17300 35.50400 34.97000
N  48.92200 37.25800 27.31600
C  48.73900 38.25000 28.24500
C  49.32700 39.49500 27.76200
C  49.98800 39.23600 26.51000
C  49.68500 37.80700 26.25800
C  49.28200 40.68200 28.62600
C  50.76500 40.24100 25.51000
O  51.12600 39.91500 24.38100
C  51.06000 41.63600 26.00600
N  48.80400 34.86000 25.40900
C  49.61800 35.68500 24.74800
C  50.22500 34.99800 23.46700
C  49.82100 33.54400 23.69100
C  48.76800 33.62700 24.86400
C  49.90300 35.72400 22.16400
C  51.01000 32.46700 24.08200
C  50.92000 31.21700 23.31800
N  47.52800 33.48200 27.51700
C  47.44900 32.45100 26.58500
C  46.73700 31.29900 27.08800
C  46.33000 31.71300 28.34800
C  46.83300 33.06900 28.56800
C  46.55600 30.08000 26.39700
C  45.60400 31.35100 29.50300
O  45.04000 30.33700 29.79800
C  45.68900 32.57700 30.55700
C  46.12500 32.15200 31.87600
O  47.22700 31.86900 32.26400
O  45.03100 32.16200 32.71000
C  45.22000 32.01100 34.19300
H  48.09800 38.96000 30.16700
H  50.63800 37.40600 24.36500
H  48.21100 31.69400 24.67600
H  46.22400 35.02600 32.44200
H  48.04800 37.23900 32.27400
H  46.09200 37.97900 32.97800
H  45.15400 37.04700 31.79600
H  46.15200 38.48800 31.31900
H  49.27300 35.35200 32.49000
H  48.75400 33.75700 32.45800
H  49.25600 35.24800 34.52900
H  48.32700 33.70000 34.52000
H  50.17600 40.64400 29.24800
H  48.31900 40.77400 29.12900
H  49.23900 41.54300 27.96000
H  51.96100 42.09600 25.60100
H  51.24900 41.41500 27.05700
H  50.28000 42.37900 25.84000
H  51.30000 35.07300 23.63100
H  49.26900 33.20200 22.81500
H  49.69500 34.95800 21.41800
H  50.76700 36.30100 21.83400
H  49.01000 36.34400 22.24000
H  51.06000 32.34300 25.16400
H  51.94700 32.95900 23.81900
H  51.86200 31.04000 22.79700
H  50.04500 31.12200 22.67600
H  50.77300 30.45700 24.08500
H  46.04100 30.15700 25.43900
H  45.84300 29.65300 27.10200
H  47.49100 29.52000 26.38600
H  44.72200 33.03200 30.77500
H  45.14600 30.94600 34.41300
H  44.35100 32.52100 34.60900
H  46.17200 32.38000 34.57400

