158

Mg 9.64000 3.82700 27.77400
C  10.85100 2.26900 30.57000
C  7.96100 6.11600 29.75900
C  8.18800 5.28100 25.00900
C  10.96500 1.30600 25.66300
N  9.49300 4.09000 29.91500
C  10.06200 3.40100 30.94000
C  9.66500 3.98300 32.32200
C  8.64200 5.06100 31.96500
C  8.78600 5.23300 30.41900
C  7.24000 4.72100 32.43800
C  10.98600 4.56300 32.95500
C  10.78700 5.37800 34.26000
H  11.68800 4.91300 35.42200
N  8.37100 5.58200 27.44500
C  7.76300 6.36800 28.41900
C  6.86100 7.25900 27.76200
C  6.92800 7.01700 26.33300
C  7.89200 5.90000 26.17300
C  5.89100 8.05400 28.54700
C  6.19500 7.71900 25.14600
O  6.18400 7.41200 23.94400
C  5.31700 8.91200 25.53100
N  9.43900 3.25700 25.71600
C  8.90600 4.06200 24.73800
C  9.28500 3.59200 23.35400
C  9.82600 2.16700 23.59000
C  10.21100 2.30400 25.02100
C  8.25100 3.72100 22.21400
C  11.09100 1.84300 22.76300
C  11.03800 0.58200 21.94200
N  10.66000 2.14700 27.97400
C  11.10500 1.21600 27.02900
C  11.77800 0.18400 27.77700
C  11.84400 0.66000 29.16000
C  11.01800 1.79400 29.26000
C  12.41800 -1.08300 27.26000
C  12.36300 0.30600 30.46900
O  13.07500 -0.61900 30.80000
C  11.77000 1.40300 31.45600
C  11.01100 0.73300 32.52400
O  10.23200 -0.16400 32.31600
O  11.50600 1.16300 33.73600
C  11.15000 0.33400 34.86000
H  7.50600 6.80200 30.47600
H  7.75800 5.74300 24.11700
H  11.30500 0.40100 25.15600
H  9.31500 3.18400 32.97500
H  8.77700 5.98300 32.53000
H  6.53300 5.02500 31.66500
H  7.12700 5.30300 33.35200
H  7.09200 3.66400 32.66100
H  11.57200 5.20400 32.29600
H  11.51100 3.64100 33.20100
H  9.73800 5.28900 34.54500
H  10.99800 6.43700 34.11100
H  6.25000 9.08300 28.55000
H  5.74800 7.78400 29.59300
H  4.89300 8.10100 28.11100
H  5.89700 9.56700 26.18100
H  4.51400 8.36600 26.02800
H  4.90800 9.44400 24.67200
H  10.17100 4.21000 23.21000
H  8.97600 1.51100 23.40400
H  7.24300 4.10000 22.38200
H  8.02800 2.74900 21.77500
H  8.64400 4.43000 21.48500
H  11.92600 1.81100 23.46300
H  11.16900 2.69400 22.08700
H  11.52400 0.67400 20.97100
H  10.02800 0.22600 21.73900
H  11.55800 -0.17100 22.53400
H  13.45600 -0.88400 26.99300
H  11.93700 -1.42000 26.34200
H  12.31900 -1.90000 27.97500
H  12.54700 1.99400 31.94200
H  10.64700 -0.61200 34.66000
H  10.62900 0.97900 35.56700
H  12.06200 0.02800 35.37300
Mg 47.51700 34.73100 27.15400
C  45.48400 33.46500 29.57500
C  47.99200 37.57300 29.05600
C  48.84400 36.24600 24.56000
C  46.55400 32.10900 25.01000
N  46.91000 35.37200 29.11000
C  46.16400 34.63000 29.98000
C  46.15700 35.24100 31.38400
C  46.65600 36.72800 31.14000
C  47.23800 36.56900 29.73200
C  45.54200 37.82900 31.19900
C  47.16400 34.52100 32.31500
C  46.84300 34.38900 33.81000
H  47.72900 34.96200 34.77200
N  48.49300 36.60600 26.91400
C  48.55200 37.61300 27.76300
C  49.26500 38.77700 27.20700
C  49.66800 38.31500 25.90600
C  49.01100 37.00000 25.75200
C  49.59400 39.96600 27.95000
C  50.48600 39.00900 24.84100
O  50.63800 38.49800 23.76500
C  51.11400 40.39100 25.15600
N  47.74400 34.23900 25.13500
C  48.41400 35.02500 24.30800
C  48.48500 34.32300 22.92100
C  47.72400 33.02800 23.04000
C  47.32100 33.10800 24.49200
C  48.22600 35.21600 21.69400
C  48.49300 31.68300 22.66100
C  47.89300 30.80800 21.55000
N  46.29400 33.07400 27.25300
C  46.07200 32.05600 26.33100
C  45.21100 31.07700 26.97300
C  44.97700 31.60000 28.27100
C  45.60300 32.82000 28.37300
C  44.79800 29.73600 26.44400
C  44.38700 31.26400 29.47000
O  43.82100 30.30100 29.78600
C  44.47000 32.54300 30.35700
C  44.67400 32.26000 31.81000
O  45.53700 31.59800 32.33400
O  43.71500 32.95300 32.56400
C  43.41900 32.54100 33.93700
H  48.22300 38.39300 29.73900
H  49.16000 36.73500 23.63600
H  46.37400 31.26100 24.34600
H  45.15400 35.28900 31.80700
H  47.49400 36.95200 31.80100
H  45.44200 38.29200 30.21700
H  45.69700 38.52100 32.02700
H  44.53900 37.42600 31.33500
H  48.12800 35.03000 32.32600
H  47.31400 33.56300 31.81800
H  46.82000 33.34400 34.12100
H  45.84700 34.65800 34.16200
H  50.67700 40.01200 27.84000
H  49.41900 39.81800 29.01500
H  49.09900 40.80100 27.45400
H  50.32300 40.97800 25.62300
H  51.34400 40.83800 24.18800
H  51.96100 40.17600 25.80800
H  49.53200 34.08900 22.72600
H  46.78600 33.10200 22.49000
H  47.55200 34.72500 20.99100
H  49.08500 35.47000 21.07400
H  47.68100 36.10100 22.02200
H  48.51100 31.07700 23.56800
H  49.49600 31.97100 22.34800
H  48.71000 30.70200 20.83600
H  47.02300 31.32700 21.14800
H  47.60600 29.84000 21.96100
H  45.19000 29.00500 27.15100
H  45.45000 29.67000 25.57400
H  43.73500 29.51900 26.33800
H  43.50500 33.04500 30.28400
H  43.45300 31.45400 34.00700
H  42.39900 32.87700 34.12600
H  44.12900 32.98100 34.63800

