158

Mg 44.73700 4.42200 45.77100
C  42.86800 7.58400 45.84400
C  41.71500 2.85500 45.35600
C  46.51300 1.71300 45.12000
C  47.58800 6.42800 45.21600
N  42.54000 5.21000 45.50300
C  42.00800 6.44500 45.62000
C  40.48900 6.37300 45.53100
C  40.20500 4.84300 45.48700
C  41.59200 4.24000 45.47300
C  39.24400 4.27000 46.53800
C  39.85200 7.13800 44.37600
C  40.70600 7.43400 43.10100
H  40.09400 7.01700 41.78200
N  44.21900 2.47800 45.47000
C  42.91100 2.01300 45.30200
C  42.97500 0.62200 44.91400
C  44.37100 0.27500 44.96400
C  45.10300 1.49600 45.22400
C  41.75600 -0.22000 44.69800
C  44.86300 -1.16800 44.63500
O  44.04700 -2.04700 44.30400
C  46.33900 -1.50900 44.54700
N  46.76600 4.18700 45.03700
C  47.24200 2.88800 45.03900
C  48.74600 2.88000 44.71100
C  49.04300 4.41900 44.77400
C  47.76100 5.05900 44.97200
C  49.64000 2.02500 45.65200
C  49.75500 4.91600 43.54100
C  51.11500 5.39200 43.77100
N  45.21900 6.54500 45.76500
C  46.44800 7.18300 45.59500
C  46.26000 8.66900 45.71800
C  44.89900 8.86000 45.96200
C  44.30100 7.53200 45.94800
C  47.32000 9.71200 45.61200
C  43.88200 9.85600 46.19800
O  43.95600 11.06800 46.31500
C  42.51600 9.08800 46.02500
C  41.76000 9.31800 47.27400
O  41.90800 8.63000 48.29400
O  40.94500 10.40700 47.14700
C  40.15000 10.65100 48.37800
H  40.77500 2.32600 45.18700
H  47.03100 0.76500 44.96000
H  48.53800 6.96500 45.18200
H  40.14400 6.79000 46.47600
H  39.74500 4.57200 44.53700
H  39.83700 3.66200 47.22100
H  38.44200 3.64700 46.14300
H  38.79600 5.05100 47.15200
H  39.64900 8.10500 44.83400
H  38.98100 6.58400 44.02600
H  41.69500 7.01700 43.29000
H  40.82000 8.51800 43.10500
H  41.93800 -0.95500 43.91400
H  40.89000 0.33800 44.34200
H  41.49400 -0.68400 45.64900
H  46.30500 -2.58500 44.37600
H  46.77200 -1.36700 45.53700
H  46.84200 -0.97000 43.74400
H  48.74800 2.48500 43.69600
H  49.57500 4.74900 45.66600
H  48.90700 1.70900 46.39400
H  50.50900 2.60600 45.96000
H  50.02400 1.16800 45.10000
H  49.28300 5.70900 42.96100
H  49.95000 4.05400 42.90300
H  51.80900 4.72900 43.25600
H  51.37100 5.22800 44.81800
H  51.39400 6.42600 43.56700
H  46.90400 10.69100 45.84900
H  47.66100 9.81800 44.58200
H  48.08400 9.55000 46.37300
H  41.93000 9.48900 45.19800
H  40.70200 10.40900 49.28600
H  39.16400 10.18900 48.32900
H  39.94800 11.72200 48.34900
Mg 34.56900 2.37600 29.45200
C  32.72900 3.41700 32.18900
C  37.30300 1.86300 31.53300
C  36.37600 1.82700 26.62600
C  31.81500 3.17200 27.33600
N  34.94700 2.69600 31.50200
C  33.97600 3.00400 32.53100
C  34.49800 2.72500 33.95200
C  36.03300 2.72500 33.63700
C  36.13100 2.33300 32.11700
C  36.90600 3.91000 33.83000
C  33.90000 1.36000 34.53900
C  33.48000 1.41700 36.00500
H  34.31700 2.22700 36.95100
N  36.48000 1.84800 29.14500
C  37.48700 1.72700 30.09400
C  38.73900 1.36900 29.43700
C  38.51500 1.34900 28.01100
C  37.03700 1.67900 27.84700
C  39.94500 1.18800 30.17100
C  39.48000 0.98300 26.89700
O  39.06100 0.84600 25.76300
C  40.89400 0.56600 27.14600
N  34.11400 2.33000 27.30800
C  35.05000 2.18100 26.38200
C  34.47600 2.31900 24.96200
C  33.03700 2.73000 25.23200
C  32.93800 2.79200 26.69700
C  35.24700 3.43500 24.12200
C  31.96300 1.74100 24.61000
C  32.20400 0.23000 24.87800
N  32.71200 3.17600 29.66100
C  31.66400 3.29100 28.73300
C  30.46500 3.67600 29.43200
C  30.76100 3.67400 30.76500
C  32.18900 3.45800 30.85800
C  29.09600 4.04300 28.82500
C  30.21400 3.83800 32.06300
O  28.98400 3.83100 32.39800
C  31.50600 3.77000 33.05100
C  31.58200 5.04300 33.80700
O  32.13800 6.10300 33.53000
O  30.88100 4.80100 34.94900
C  30.61200 6.02100 35.78900
H  38.15700 1.60900 32.16400
H  36.95700 1.82000 25.70200
H  30.94300 3.50000 26.76600
H  34.30800 3.65400 34.49100
H  36.49000 1.86800 34.13300
H  37.09100 4.34800 32.84900
H  37.83700 3.69200 34.35300
H  36.36600 4.61300 34.46300
H  34.58900 0.52000 34.44800
H  33.00400 1.22700 33.93300
H  33.47000 0.37800 36.33600
H  32.46500 1.79800 35.89000
H  40.28800 0.20300 29.85600
H  39.89400 1.49400 31.21600
H  40.66700 1.89800 29.76600
H  41.40300 1.49000 27.42100
H  41.31700 0.24900 26.19300
H  41.11300 -0.25300 27.83000
H  34.50100 1.42500 24.34000
H  32.77200 3.69900 24.80900
H  35.71200 2.92300 23.27900
H  36.13600 3.82800 24.61600
H  34.66200 4.28700 23.77700
H  31.90700 1.95600 23.54200
H  30.93800 1.92000 24.93500
H  33.04000 0.12800 25.57000
H  32.49900 -0.22500 23.93200
H  31.28400 -0.21800 25.25400
H  29.27900 4.18600 27.76000
H  28.70500 4.92400 29.33400
H  28.55100 3.10000 28.85400
H  31.33000 2.97500 33.77600
H  30.51400 6.90000 35.15300
H  31.51400 6.13600 36.39000
H  29.66200 5.85900 36.29900

