158

Mg 40.43100 9.36600 29.17200
C  42.06100 10.52500 32.12200
C  38.06000 7.85300 31.12600
C  39.01400 7.86600 26.23600
C  43.05900 10.58600 27.35200
N  40.24900 9.07500 31.42500
C  40.91200 9.80300 32.40700
C  40.13200 9.73800 33.79000
C  38.97800 8.76200 33.45000
C  39.08000 8.46500 31.92800
C  38.99700 7.39200 34.27600
C  39.71900 11.15500 34.34600
C  39.61900 11.22500 35.85700
H  40.64100 12.03200 36.58800
N  38.72400 8.10800 28.73000
C  37.89700 7.65700 29.74700
C  36.86400 6.87000 29.12700
C  37.06700 6.94900 27.67200
C  38.26900 7.71600 27.47000
C  35.90900 6.06200 29.96200
C  36.28000 6.39700 26.56500
O  36.47400 6.70500 25.38200
C  35.18200 5.45100 26.87800
N  40.89300 9.28000 27.17000
C  40.26500 8.56300 26.16800
C  41.11000 8.56500 24.82100
C  42.13200 9.66600 25.19000
C  42.08000 9.91200 26.65800
C  41.68300 7.27100 24.24700
C  42.04600 10.88500 24.32600
C  40.88600 11.90900 24.55100
N  42.25300 10.23200 29.61500
C  43.16600 10.78100 28.74700
C  44.11100 11.55000 29.46700
C  43.72700 11.52600 30.78500
C  42.62200 10.64600 30.82500
C  45.31400 12.19300 28.94700
C  44.03500 11.99700 32.13600
O  44.84700 12.80200 32.60700
C  42.90000 11.33900 33.06500
C  43.64100 10.49300 34.10000
O  44.23100 9.40300 33.91300
O  43.46400 11.03300 35.31300
C  43.77500 10.21900 36.48200
H  37.30800 7.38300 31.76300
H  38.68000 7.49100 25.26700
H  43.81500 10.98100 26.67000
H  40.88800 9.41100 34.50400
H  38.03700 9.29400 33.59000
H  39.80500 7.39300 35.00800
H  39.10000 6.56800 33.57000
H  38.04300 7.20800 34.77000
H  38.70400 11.43500 34.06700
H  40.41200 11.91400 33.98200
H  39.59900 10.22800 36.29600
H  38.66700 11.69300 36.11100
H  36.57100 5.22600 30.19100
H  35.08200 5.69800 29.35200
H  35.49200 6.56700 30.83300
H  34.77900 5.15900 25.90800
H  34.42000 6.07300 27.34700
H  35.40900 4.53500 27.42400
H  40.40000 8.87700 24.05600
H  43.15300 9.28300 25.17200
H  41.55000 6.51000 25.01500
H  42.74600 7.28900 24.00600
H  41.19600 6.92500 23.33500
H  41.93100 10.62500 23.27400
H  43.00900 11.39400 24.34800
H  41.33100 12.89600 24.68600
H  40.44400 11.55900 25.48300
H  40.14200 11.97200 23.75800
H  45.80900 11.32200 28.51900
H  45.87300 12.51600 29.82600
H  45.11300 12.98500 28.22600
H  42.42400 12.10900 33.67200
H  44.85800 10.20500 36.60300
H  43.47800 9.17600 36.37500
H  43.31700 10.56500 37.40800
Mg -5.41700 24.57900 25.75400
C  -3.68900 26.20200 28.39200
C  -7.12100 22.70800 28.01200
C  -6.67600 22.98000 23.04600
C  -3.34500 26.41700 23.49700
N  -5.43900 24.44000 27.89000
C  -4.74200 25.34600 28.78300
C  -5.27700 25.18000 30.17800
C  -6.02900 23.76200 30.13400
C  -6.25100 23.62200 28.59400
C  -5.18200 22.55400 30.76200
C  -6.08400 26.44200 30.66500
C  -6.02300 26.82800 32.18400
H  -5.22000 25.84000 33.06100
N  -6.73600 23.04300 25.53900
C  -7.41600 22.42600 26.58100
C  -8.37100 21.51800 25.96900
C  -8.35700 21.66700 24.53200
C  -7.26700 22.64900 24.31000
C  -9.29300 20.86800 26.87900
C  -9.12000 20.80300 23.42200
O  -9.04700 21.04300 22.23400
C  -9.94500 19.75600 23.84500
N  -4.88100 24.51000 23.58000
C  -5.61800 23.81500 22.69400
C  -5.23500 24.09100 21.25300
C  -4.19300 25.29800 21.37900
C  -4.07100 25.40000 22.92500
C  -4.68300 22.74000 20.64700
C  -4.67000 26.58000 20.53300
C  -3.76600 27.27900 19.44800
N  -3.93100 26.03400 25.85400
C  -3.20400 26.72600 24.86400
C  -2.31100 27.67700 25.45500
C  -2.46100 27.49600 26.85100
C  -3.39700 26.44700 27.03800
C  -1.32000 28.67200 24.82800
C  -1.92700 27.91500 28.14500
O  -1.08300 28.78300 28.42400
C  -2.75900 27.03900 29.21700
C  -1.89400 26.27900 30.04200
O  -1.26700 25.28100 29.75500
O  -1.67500 26.89100 31.25900
C  -0.65500 26.34500 32.24600
H  -7.53200 22.06700 28.79400
H  -7.18400 22.47600 22.22100
H  -2.79000 26.94900 22.72200
H  -4.45800 24.96100 30.86300
H  -7.01600 23.73300 30.59500
H  -4.75700 21.87900 30.02000
H  -5.75500 21.83100 31.34300
H  -4.42900 22.91300 31.46400
H  -7.12700 26.36700 30.35700
H  -5.76000 27.33200 30.12600
H  -7.00800 26.99800 32.61900
H  -5.38400 27.70800 32.26100
H  -9.05400 19.80900 26.78600
H  -10.28300 21.00700 26.44400
H  -9.27300 21.10900 27.94200
H  -10.35700 19.04200 23.13200
H  -10.84100 20.12900 24.34300
H  -9.36300 19.30400 24.64800
H  -6.11700 24.45900 20.73000
H  -3.21100 25.06500 20.96800
H  -3.59400 22.75500 20.69200
H  -4.91200 22.73100 19.58100
H  -5.09600 21.93700 21.25700
H  -4.75400 27.43100 21.21000
H  -5.62300 26.37700 20.04500
H  -3.43700 28.23400 19.85800
H  -4.33900 27.40900 18.53000
H  -2.90200 26.63900 19.27300
H  -1.75400 29.27400 24.03000
H  -0.40100 28.26300 24.40900
H  -0.96600 29.36600 25.59000
H  -3.27800 27.72300 29.88900
H  -0.99000 25.43200 32.73800
H  -0.60900 27.13500 32.99500
H  0.26300 26.05300 31.73500

