158

Mg 16.65300 51.89500 25.27300
C  18.15400 50.57300 28.10200
C  14.10900 53.12300 27.28100
C  14.83900 52.34400 22.37600
C  18.98400 50.20900 23.34200
N  16.21200 51.78600 27.40600
C  17.02000 51.28700 28.38000
C  16.50800 51.62400 29.79000
C  15.08700 52.22100 29.47500
C  15.12500 52.40500 27.92700
C  13.87900 51.26200 29.77800
C  17.50900 52.55900 30.63300
C  17.94900 52.30000 32.07400
H  16.93200 51.52500 32.96600
N  14.75100 52.69900 24.82400
C  13.89300 53.25000 25.83800
C  12.78200 53.85900 25.11600
C  12.95600 53.61000 23.71000
C  14.20700 52.87600 23.53900
C  11.72800 54.59300 25.80900
C  11.98800 53.77500 22.50000
O  12.23800 53.45300 21.29600
C  10.58000 54.34900 22.69800
N  16.75200 51.25500 23.10300
C  15.98600 51.61700 22.14000
C  16.64500 51.47100 20.77800
C  17.82900 50.59600 21.07400
C  17.86200 50.64300 22.61600
C  15.70700 50.91400 19.66600
C  19.19200 51.02600 20.39600
C  19.56100 50.11900 19.21000
N  18.22600 50.57500 25.59600
C  19.13500 50.09600 24.69300
C  20.16500 49.39500 25.43500
C  19.84400 49.52400 26.76100
C  18.64000 50.26200 26.81800
C  21.09300 48.53500 24.69200
C  20.15300 49.24800 28.10400
O  21.07700 48.61300 28.60900
C  19.05500 49.85700 29.08700
C  18.43200 48.79000 29.88600
O  17.34900 48.29600 29.66900
O  19.09600 48.53900 31.07500
C  18.63600 47.55500 32.00100
H  13.43200 53.70900 27.90600
H  14.48700 52.82100 21.45900
H  19.79600 49.78000 22.75100
H  16.51200 50.67800 30.33100
H  14.80800 53.17600 29.92000
H  13.24700 51.15200 28.89600
H  13.17600 51.74900 30.45300
H  14.21000 50.28600 30.13400
H  16.95800 53.49700 30.69400
H  18.33600 52.75600 29.95000
H  18.06600 53.21800 32.65100
H  18.95900 51.89000 32.05800
H  10.73500 54.61500 25.35900
H  12.05700 55.62000 25.96600
H  11.69800 54.20000 26.82500
H  10.02700 54.34300 21.75800
H  10.70700 55.35800 23.08800
H  9.97700 53.83800 23.44800
H  16.97400 52.45400 20.44100
H  17.55000 49.56300 20.86700
H  14.81100 50.57600 20.18800
H  16.11500 50.09500 19.07300
H  15.50600 51.75000 18.99600
H  20.08400 50.97200 21.02100
H  18.90500 51.91200 19.83000
H  19.49900 50.66500 18.26900
H  18.87100 49.27500 19.21800
H  20.56300 49.70500 19.33000
H  21.65000 49.10400 23.94800
H  20.51800 47.78400 24.15100
H  21.92800 48.13100 25.26500
H  19.50300 50.54600 29.80200
H  19.55200 47.02600 32.26400
H  18.01300 46.82200 31.48900
H  18.15300 47.97500 32.88300
Mg -0.54500 43.49500 25.99900
C  1.60000 43.37600 28.86500
C  -3.11400 42.38900 28.10500
C  -2.47500 43.50900 23.29100
C  2.32000 44.16800 24.08400
N  -0.69700 43.00100 28.27100
C  0.26400 43.10400 29.23100
C  -0.28700 42.74800 30.60300
C  -1.70700 42.14100 30.26700
C  -1.89100 42.57000 28.83500
C  -1.83400 40.60800 30.58600
C  -0.17300 44.00700 31.51200
C  0.53600 43.72600 32.93400
H  0.43400 42.33000 33.66800
N  -2.54100 43.00800 25.74800
C  -3.45300 42.56200 26.71300
C  -4.76400 42.45800 26.04300
C  -4.52500 42.79500 24.65700
C  -3.10500 43.09300 24.54500
C  -5.99300 41.90800 26.68900
C  -5.55500 42.76200 23.52600
O  -5.33000 43.31100 22.43100
C  -6.85400 42.07900 23.77000
N  -0.12700 43.68200 23.84700
C  -1.17600 43.78600 22.96800
C  -0.66600 44.41900 21.64200
C  0.87100 44.60000 21.86900
C  1.07600 44.13100 23.32900
C  -1.11700 43.48600 20.47200
C  1.33700 46.04100 21.70700
C  1.84700 46.51200 20.34700
N  1.52200 43.62500 26.29300
C  2.55900 43.88600 25.40200
C  3.85900 43.76300 26.07600
C  3.52400 43.67000 27.35800
C  2.12300 43.54300 27.51100
C  5.21600 43.75300 25.45800
C  4.07700 43.65400 28.72100
O  5.29000 43.68700 29.05200
C  2.86600 43.46800 29.73900
C  3.10200 42.23800 30.44600
O  2.96900 41.05400 30.00500
O  3.60500 42.66700 31.70600
C  4.07400 41.55600 32.53600
H  -3.84100 41.76200 28.62500
H  -3.20300 43.59800 22.48200
H  3.17500 44.36400 23.43400
H  0.36200 42.02900 31.10400
H  -2.55100 42.47000 30.87300
H  -2.70900 40.49300 31.22600
H  -1.03200 40.25600 31.23500
H  -1.90000 39.97600 29.70000
H  -1.21000 44.32300 31.63400
H  0.45000 44.81300 31.12400
H  0.24600 44.46200 33.68400
H  1.61200 43.86900 32.83200
H  -5.82500 41.87700 27.76500
H  -6.41900 40.94300 26.41500
H  -6.82400 42.60200 26.55600
H  -6.46800 41.10300 24.06400
H  -7.30500 42.03800 22.77800
H  -7.40200 42.53000 24.59700
H  -1.27800 45.31500 21.53200
H  1.42400 43.97300 21.16900
H  -0.71500 43.82900 19.51800
H  -2.20400 43.40000 20.45300
H  -0.67200 42.49800 20.59000
H  1.99600 46.43600 22.48000
H  0.48100 46.66400 21.96500
H  2.27200 45.80200 19.63700
H  2.55000 47.29400 20.63200
H  1.05800 47.04800 19.81900
H  5.88600 44.04800 26.26600
H  5.16300 44.56300 24.73100
H  5.44800 42.80200 24.97800
H  2.91100 44.34900 30.38100
H  5.10100 41.30100 32.27600
H  3.55500 40.61200 32.37100
H  4.17700 41.77900 33.59800

