158

Mg 48.84000 45.43400 42.90000
C  45.40600 45.45800 41.66700
C  48.90200 41.99400 41.98100
C  52.17900 45.41600 43.17400
C  48.87100 48.87700 42.71400
N  47.39600 43.90900 41.82100
C  46.00000 44.16000 41.50200
C  45.25600 42.88700 41.19000
C  46.38800 41.80800 41.25900
C  47.67300 42.57000 41.76400
C  46.11800 40.62700 42.29200
C  44.46300 42.95000 39.79300
C  45.24400 43.29300 38.50100
H  45.44600 42.32200 37.29300
N  50.30500 43.87700 42.76800
C  50.11400 42.54600 42.42000
C  51.34000 41.88500 42.71600
C  52.30500 42.81000 43.16900
C  51.60600 44.15100 43.03600
C  51.59500 40.41800 42.43900
C  53.78000 42.64000 43.63800
O  54.18800 41.47800 43.63800
C  54.77700 43.62900 44.26000
N  50.32400 46.95800 42.74800
C  51.61900 46.65300 43.14000
C  52.36500 48.00900 43.26600
C  51.40100 49.05200 42.60100
C  50.15400 48.27600 42.70300
C  52.78100 48.39100 44.77200
C  51.70600 49.37200 41.13700
C  52.30100 50.68100 40.74200
N  47.44400 46.88800 42.48400
C  47.62500 48.21300 42.59700
C  46.27100 48.86100 42.48000
C  45.46200 47.76700 41.98000
C  46.16200 46.58200 42.06200
C  45.90800 50.33300 42.60200
C  44.13400 47.47900 41.60800
O  43.13500 48.23300 41.58600
C  44.05500 46.02800 41.29100
C  42.81700 45.44900 41.91500
O  41.79600 44.98200 41.36100
O  42.94300 45.41100 43.27100
C  41.70900 45.24800 44.06400
H  48.92700 40.90500 41.89700
H  53.26600 45.33900 43.24000
H  48.85200 49.96800 42.77200
H  44.52900 42.78400 41.99600
H  46.66800 41.37600 40.29800
H  46.81000 40.80700 43.11500
H  46.22100 39.62200 41.88400
H  45.13500 40.69200 42.75900
H  43.60700 43.57900 40.03800
H  44.11600 41.94300 39.56100
H  46.23700 43.69800 38.69700
H  44.68100 44.16200 38.15900
H  51.61000 39.78500 43.32600
H  52.48600 40.17500 41.85900
H  50.78900 39.92100 41.90000
H  55.50700 43.22200 44.96000
H  54.12900 44.29900 44.82400
H  55.30200 44.18400 43.48100
H  53.32400 47.83400 42.77800
H  51.33700 49.98800 43.15600
H  53.86500 48.28600 44.82600
H  52.29800 47.74500 45.50400
H  52.52100 49.39400 45.10900
H  50.91200 49.14800 40.42400
H  52.42900 48.65400 40.75100
H  53.37600 50.53700 40.63100
H  52.06000 51.41700 41.50900
H  51.82800 51.12600 39.86700
H  44.90400 50.57000 42.25000
H  46.55200 50.97900 42.00600
H  46.03200 50.65500 43.63500
H  43.99600 46.00900 40.20300
H  41.34600 44.22200 44.01700
H  40.95000 45.96600 43.75400
H  42.01700 45.55700 45.06400
Mg 26.85400 50.58600 26.94700
C  24.68300 51.85500 29.43600
C  29.02100 49.82500 29.29500
C  29.04200 49.82200 24.32800
C  24.45300 51.68000 24.43400
N  26.78000 50.65700 29.12600
C  25.84100 51.26900 29.92100
C  26.21900 51.09500 31.35600
C  27.66900 50.55800 31.32100
C  27.81900 50.17600 29.83200
C  28.80400 51.58000 31.83500
C  25.23900 50.07300 32.08700
C  24.34700 50.66600 33.25800
H  24.21400 49.82800 34.53600
N  28.85700 50.14400 26.86200
C  29.60400 49.83400 28.01200
C  30.90200 49.56100 27.55800
C  30.88500 49.39400 26.15400
C  29.55200 49.75400 25.68700
C  32.00800 49.36400 28.64800
C  32.04900 48.99600 25.23200
O  31.92500 48.94500 24.02800
C  33.37600 48.74700 25.81000
N  26.72200 50.63800 24.66200
C  27.75500 50.25800 23.87500
C  27.31100 50.16700 22.36200
C  25.89200 50.86100 22.37600
C  25.63400 51.04600 23.91200
C  28.30500 50.81600 21.36300
C  24.72400 50.10400 21.55600
C  23.94800 50.95400 20.51900
N  24.89700 51.37800 26.87100
C  24.08400 51.83400 25.82400
C  22.87200 52.39300 26.37600
C  23.12200 52.52000 27.74300
C  24.33300 51.86600 28.05000
C  21.70500 53.08600 25.66100
C  22.53400 53.02500 29.02900
O  21.48100 53.62500 29.31900
C  23.56400 52.52000 30.13500
C  24.04100 53.53500 31.02500
O  24.86800 54.38700 30.79100
O  23.30800 53.48000 32.21300
C  23.56500 54.50300 33.24500
H  29.69800 49.49300 30.08400
H  29.71500 49.39900 23.57900
H  23.73200 51.99600 23.67700
H  26.19000 52.11200 31.74800
H  27.84600 49.65800 31.90900
H  28.25500 52.50200 32.02400
H  29.65200 51.70600 31.16200
H  29.19100 51.31100 32.81800
H  25.78700 49.17200 32.36200
H  24.45900 49.83300 31.36400
H  23.35200 50.81500 32.83900
H  24.65600 51.66800 33.55400
H  32.30900 48.32300 28.76400
H  31.80100 49.69200 29.66700
H  32.88800 49.87100 28.25200
H  33.29800 48.08800 26.67500
H  33.80100 49.71800 26.06500
H  34.08800 48.19400 25.19700
H  27.40400 49.10300 22.14400
H  26.00500 51.84700 21.92500
H  28.77700 49.99600 20.82000
H  29.03700 51.39200 21.92900
H  28.03500 51.47800 20.54000
H  23.96100 49.79800 22.27300
H  24.97700 49.19000 21.01800
H  23.66400 50.32800 19.67300
H  24.51400 51.82000 20.17600
H  23.00400 51.27300 20.96200
H  20.81100 52.47000 25.75200
H  21.95300 53.24800 24.61100
H  21.55100 54.01200 26.21500
H  23.05600 51.70800 30.65300
H  23.99600 55.37300 32.74900
H  24.23700 54.12100 34.01400
H  22.62800 54.83000 33.69500

