158

Mg 35.65300 0.93100 28.74200
C  33.53800 2.29800 31.39400
C  38.20600 1.04700 31.00500
C  37.68000 0.55200 26.15600
C  33.01000 1.55800 26.52200
N  35.87800 1.70400 30.86700
C  34.87900 2.11300 31.77500
C  35.47500 2.34900 33.13800
C  36.97100 2.10900 32.90800
C  37.02700 1.58300 31.53200
C  37.90200 3.25500 33.17500
C  34.81300 1.38600 34.21000
C  34.85300 2.03000 35.56600
H  35.74200 3.12700 35.96000
N  37.61300 0.45200 28.67000
C  38.53900 0.57500 29.73000
C  39.78100 0.17200 29.16900
C  39.60100 -0.09700 27.80000
C  38.23900 0.34700 27.45000
C  41.02600 0.10000 30.07400
C  40.59200 -0.57600 26.77300
O  40.38700 -0.61500 25.58400
C  41.99800 -0.96300 27.31700
N  35.32300 0.76600 26.64800
C  36.33000 0.62700 25.80900
C  35.92700 0.86100 24.36700
C  34.35100 0.86600 24.39900
C  34.20000 1.08400 25.94300
C  36.62200 2.00400 23.70100
C  33.56100 -0.49600 23.87900
C  32.56900 -0.31000 22.76600
N  33.65100 1.63900 28.95800
C  32.73800 1.85700 27.90500
C  31.48400 2.39200 28.46200
C  31.74400 2.54300 29.87800
C  33.04500 2.11800 30.05500
C  30.19100 2.62000 27.70700
C  31.24800 2.93700 31.06500
O  30.15200 3.43900 31.35900
C  32.37600 2.74500 32.17700
C  32.59500 4.01300 33.00400
O  33.42800 4.86500 32.69800
O  31.75000 4.01800 34.09500
C  31.85100 5.22500 34.87500
H  39.06700 1.07600 31.67500
H  38.33800 0.48200 25.28800
H  32.16400 1.80500 25.87600
H  35.24700 3.34300 33.52300
H  37.31500 1.28900 33.53800
H  38.76800 3.05500 33.80600
H  37.38900 4.15600 33.51100
H  38.17300 3.62200 32.18500
H  35.44900 0.51200 34.35000
H  33.79800 1.09200 33.94500
H  35.06200 1.24500 36.29300
H  33.90000 2.47700 35.85100
H  40.79600 0.26500 31.12700
H  41.73000 0.87900 29.78000
H  41.45800 -0.90000 30.02000
H  42.45100 -1.71000 26.66500
H  41.84100 -1.60600 28.18200
H  42.65900 -0.11300 27.49100
H  36.19700 -0.06200 23.85400
H  34.05600 1.65700 23.70800
H  35.94700 2.70000 23.20300
H  37.32600 1.59800 22.97500
H  37.19400 2.60500 24.40700
H  33.10400 -0.87000 24.79600
H  34.29900 -1.21500 23.52400
H  31.54100 -0.55600 23.03300
H  32.75300 -0.99400 21.93800
H  32.65900 0.72700 22.44300
H  29.61600 1.70900 27.86900
H  30.31000 2.73900 26.63000
H  29.64300 3.51000 28.01600
H  32.16100 1.85900 32.77500
H  31.74600 6.04100 34.16000
H  32.71600 5.36900 35.52300
H  31.01200 5.22500 35.57100
Mg 30.45100 58.24100 40.24100
C  27.73900 56.19100 39.39400
C  32.48300 55.54300 40.08400
C  33.00000 60.37500 40.08300
C  28.11500 60.94300 40.70300
N  30.18400 56.14400 39.35600
C  28.97700 55.51500 39.29000
C  29.19400 54.05500 38.98900
C  30.51800 53.75500 39.70200
C  31.12000 55.22300 39.78200
C  30.48000 53.09600 41.06600
C  29.24600 53.80800 37.48500
C  28.04000 52.95100 37.00400
H  27.24100 53.52600 35.86000
N  32.51700 58.01800 40.04800
C  33.17100 56.79300 40.03400
C  34.60400 57.06700 39.86700
C  34.77800 58.51200 39.92900
C  33.37800 59.06000 39.95000
C  35.65500 55.99900 39.63600
C  36.09900 59.19500 40.03200
O  37.11500 58.49900 40.14200
C  36.25500 60.66800 39.99900
N  30.54200 60.35100 40.35200
C  31.73900 60.95100 40.19000
C  31.51400 62.51900 40.24800
C  30.00900 62.69000 40.67000
C  29.52100 61.24000 40.57600
C  32.54600 63.26200 41.04800
C  29.31700 63.75500 39.81400
C  28.21100 64.55700 40.54800
N  28.32300 58.57100 40.09200
C  27.53200 59.68100 40.41400
C  26.13800 59.28200 40.31000
C  26.14100 57.95300 39.91200
C  27.53400 57.50600 39.83800
C  24.89800 60.14400 40.37400
C  25.30400 56.76700 39.53300
O  24.09500 56.67700 39.36800
C  26.28700 55.55700 39.23200
C  26.04000 54.48900 40.26000
O  26.62800 54.46700 41.30200
O  25.16000 53.48500 39.77000
C  24.95000 52.49500 40.84100
H  33.14400 54.68600 40.22900
H  33.76500 61.14800 39.98500
H  27.43000 61.78200 40.84000
H  28.43300 53.39100 39.40100
H  31.21600 53.16200 39.11200
H  31.47100 53.21600 41.50500
H  30.32400 52.04000 40.84700
H  29.67100 53.41400 41.72200
H  30.09800 53.17700 37.23300
H  29.44000 54.71300 36.90900
H  27.30100 52.80900 37.79300
H  28.33500 51.92800 36.76900
H  36.32300 56.53900 38.96500
H  35.24100 55.12000 39.14300
H  36.15200 55.62100 40.52900
H  36.01900 61.21200 39.08400
H  37.20100 61.01700 40.41300
H  35.61000 61.11900 40.75300
H  31.56200 62.86600 39.21500
H  29.93100 63.02100 41.70500
H  33.49200 63.35300 40.51500
H  32.72900 62.78200 42.00900
H  32.00100 64.17500 41.29000
H  28.94900 63.22500 38.93500
H  30.09100 64.45600 39.50200
H  28.44300 65.61000 40.38800
H  28.28800 64.49500 41.63400
H  27.23800 64.37900 40.09000
H  24.62800 60.47500 39.37100
H  25.01200 60.96400 41.08300
H  24.14700 59.43100 40.71400
H  26.16300 55.16000 38.22500
H  25.84200 51.90900 41.05900
H  24.25400 51.76000 40.43800
H  24.43700 52.99800 41.66100

