158

Mg 54.88000 23.09100 44.62000
C  52.73300 25.66900 43.75700
C  52.70800 20.86900 43.55000
C  57.19700 20.65400 45.23200
C  57.24200 25.49300 45.57000
N  53.03400 23.33300 43.52100
C  52.30100 24.47200 43.32900
C  51.03900 24.12100 42.52400
C  50.89800 22.60700 42.94700
C  52.30800 22.21400 43.33700
C  49.88300 22.15700 44.01200
C  51.32000 24.31400 41.04300
C  50.38400 25.32400 40.23000
H  50.97300 26.02500 38.94900
N  54.95100 21.11100 44.25000
C  53.88300 20.31800 43.96700
C  54.24500 18.90200 43.96100
C  55.58100 18.84900 44.52000
C  55.96800 20.26300 44.69900
C  53.37600 17.80300 43.41700
C  56.33700 17.59500 44.77500
O  55.73100 16.54200 44.55100
C  57.71100 17.50100 45.18000
N  57.04900 23.09700 44.98400
C  57.75100 21.96200 45.36400
C  59.20900 22.30300 45.86100
C  59.20400 23.87700 45.82700
C  57.78600 24.20800 45.44100
C  59.66800 21.63600 47.25900
C  60.25200 24.47000 44.88200
C  61.24400 25.48900 45.53100
N  55.07100 25.12600 44.64500
C  55.99800 25.95200 45.21300
C  55.44100 27.26700 45.52800
C  54.14000 27.20400 44.96500
C  53.96500 25.87400 44.45000
C  56.18500 28.50300 46.11000
C  52.94800 27.94700 44.69200
O  52.64700 29.09700 44.89100
C  51.99800 27.01300 43.83200
C  51.63700 27.69300 42.57000
O  52.27200 27.51000 41.52600
O  50.54800 28.43100 42.79600
C  50.09200 29.26800 41.73100
H  51.87900 20.16800 43.42700
H  57.98200 20.05100 45.69400
H  57.96500 26.20300 45.97700
H  50.26800 24.78100 42.92200
H  50.66900 22.01100 42.06300
H  49.27400 21.33200 43.64200
H  49.30400 23.01100 44.36400
H  50.43000 22.03000 44.94600
H  51.22700 23.34900 40.54500
H  52.38100 24.50900 40.89100
H  50.01400 26.10000 40.90000
H  49.50000 24.76700 39.91800
H  53.87900 17.17200 42.68400
H  52.50500 18.24700 42.93500
H  52.95200 17.28500 44.27700
H  57.73800 17.91100 46.18900
H  58.23200 18.12200 44.45100
H  57.99300 16.45700 45.04100
H  59.92600 21.96800 45.11100
H  59.50400 24.07200 46.85600
H  60.30900 20.75400 47.26800
H  58.71900 21.30600 47.68400
H  60.11900 22.45000 47.82600
H  59.78200 24.94800 44.02300
H  60.86400 23.68200 44.44300
H  60.79300 26.38300 45.96100
H  62.01200 25.73100 44.79600
H  61.79200 24.95900 46.31000
H  55.44200 29.23500 46.42600
H  56.92500 28.78700 45.36100
H  56.78400 28.32100 47.00200
H  51.06600 26.83500 44.36800
H  50.12200 28.70600 40.79800
H  50.67300 30.18700 41.80400
H  49.04800 29.55500 41.86000
Mg 46.95000 15.95100 29.16900
C  44.87300 15.80200 32.15900
C  49.24500 17.85400 30.94200
C  48.49900 16.68100 26.32000
C  44.22700 14.76300 27.52100
N  47.03200 16.62200 31.26400
C  46.13600 16.40300 32.32000
C  46.75400 16.84000 33.63300
C  47.93600 17.73200 33.16000
C  48.08200 17.45500 31.65300
C  47.61500 19.26600 33.51000
C  47.05300 15.55500 34.45000
C  46.61400 15.48100 35.91000
H  46.19800 16.83800 36.47800
N  48.73500 16.94800 28.70800
C  49.54900 17.59700 29.62000
C  50.80200 17.91000 28.88000
C  50.58000 17.58500 27.50600
C  49.27900 17.00400 27.41200
C  52.09300 18.34400 29.62200
C  51.50100 17.77300 26.36900
O  51.17100 17.44500 25.25300
C  52.79500 18.52800 26.48600
N  46.39000 15.92900 27.23500
C  47.17500 16.21200 26.18400
C  46.54800 15.83900 24.83800
C  45.52000 14.82400 25.30100
C  45.30700 15.22300 26.80600
C  45.95100 16.88400 23.91600
C  45.96300 13.28600 25.09900
C  44.81500 12.63100 24.12800
N  44.99600 15.36500 29.70400
C  44.03300 14.85500 28.86500
C  42.90700 14.37300 29.62500
C  43.14700 14.75200 30.94200
C  44.40200 15.36700 30.91200
C  41.73300 13.53900 29.19200
C  42.54500 14.78600 32.30700
O  41.47000 14.36000 32.68600
C  43.73400 15.39900 33.18400
C  43.14300 16.60100 33.91600
O  43.37800 17.75900 33.60000
O  42.36800 16.17100 34.94100
C  41.71700 17.15900 35.78900
H  49.95300 18.48600 31.48200
H  48.87500 16.89900 25.31800
H  43.42300 14.21700 27.02300
H  45.91400 17.35300 34.10300
H  48.80400 17.42300 33.74100
H  46.81300 19.31300 34.24700
H  47.27900 19.71600 32.57600
H  48.54200 19.75400 33.81200
H  48.07500 15.26800 34.20100
H  46.50100 14.71200 34.03500
H  47.50200 15.12500 36.43200
H  45.79800 14.78500 36.10900
H  52.93400 18.09100 28.97700
H  52.09000 17.85100 30.59400
H  52.04800 19.39300 29.91600
H  53.14700 18.80400 25.49200
H  53.49200 17.88300 27.02100
H  52.73500 19.43100 27.09400
H  47.33100 15.34600 24.26100
H  44.52800 14.97400 24.87600
H  46.10500 17.88000 24.33100
H  44.91500 16.68700 23.63900
H  46.58000 16.70300 23.04400
H  46.05300 12.87600 26.10500
H  46.90700 13.06800 24.59900
H  45.21100 11.77100 23.58800
H  44.45600 13.29400 23.34200
H  44.00300 12.18800 24.70400
H  41.27400 13.24700 30.13700
H  42.06700 12.69300 28.59100
H  41.05600 14.17000 28.61700
H  44.00600 14.56700 33.83300
H  42.22000 18.12600 35.78100
H  41.85000 16.71600 36.77600
H  40.64200 17.33800 35.76000

