158

Mg 34.62000 3.18100 30.52900
C  32.21500 3.73000 33.07200
C  37.07800 3.46600 32.90000
C  36.83700 2.58500 28.16400
C  32.10300 3.54500 28.15600
N  34.57300 3.52400 32.67800
C  33.47500 3.54000 33.56200
C  33.92500 3.78500 35.03300
C  35.53000 3.95100 34.88200
C  35.75500 3.73200 33.37200
C  36.13500 5.20500 35.62000
C  33.48300 2.52000 35.80400
C  32.91800 2.81900 37.28200
H  33.58100 3.86800 38.19100
N  36.66500 2.90600 30.52500
C  37.47100 3.15200 31.63800
C  38.84700 2.87100 31.23600
C  38.82300 2.42000 29.85100
C  37.41900 2.64400 29.46200
C  40.00000 2.99500 32.22000
C  39.97900 1.90100 28.98300
O  39.73400 1.58900 27.84100
C  41.41000 1.69400 29.49500
N  34.40200 3.00700 28.46600
C  35.49900 2.81600 27.70100
C  35.12000 2.94100 26.18500
C  33.60100 3.30700 26.18600
C  33.33500 3.19900 27.65200
C  36.08800 3.92400 25.51900
C  32.72800 2.26600 25.46400
C  32.34500 0.88200 26.14500
N  32.56300 3.32700 30.51900
C  31.67200 3.59000 29.49500
C  30.37800 3.91300 29.98700
C  30.54200 3.92800 31.36900
C  31.92000 3.69800 31.67300
C  29.12400 4.11000 29.22400
C  29.83000 4.18900 32.57200
O  28.67100 4.45200 32.78100
C  30.92600 4.21400 33.69200
C  30.93200 5.58500 34.24900
O  31.36100 6.59200 33.73100
O  30.33900 5.45600 35.47400
C  30.54300 6.58300 36.35100
H  37.76400 3.60200 33.73900
H  37.37800 2.33000 27.25100
H  31.36600 3.93000 27.44800
H  33.45800 4.70700 35.37800
H  36.20600 3.24500 35.36500
H  36.00900 5.03200 36.68800
H  35.73900 6.16300 35.28200
H  37.21200 5.17600 35.45700
H  34.34000 1.89300 36.05000
H  32.73500 2.01600 35.19200
H  33.13800 1.89100 37.81000
H  31.82800 2.84500 37.28000
H  40.96300 3.14200 31.72900
H  39.96500 2.05000 32.76100
H  39.81100 3.87500 32.83500
H  41.90600 2.65000 29.66100
H  41.81700 1.04200 28.72200
H  41.34700 1.22700 30.47800
H  35.45000 2.02000 25.70400
H  33.35700 4.28500 25.77200
H  36.54100 3.38700 24.68500
H  36.75900 4.49400 26.16100
H  35.59600 4.75300 25.01100
H  33.19600 1.93600 24.53700
H  31.74200 2.71100 25.33100
H  31.29400 0.93800 26.42800
H  33.07800 0.69100 26.92900
H  32.26000 0.14900 25.34300
H  28.87700 5.17000 29.29400
H  28.27400 3.73600 29.79600
H  29.14700 3.95000 28.14600
H  30.53000 3.45500 34.36700
H  30.99800 6.20500 37.26600
H  29.55400 7.01500 36.50700
H  31.15300 7.40500 35.97600
Mg 47.92100 25.28600 27.81200
C  48.74600 27.76800 30.14500
C  46.92200 23.22500 30.14800
C  47.47500 22.93700 25.32600
C  49.17000 27.54100 25.32800
N  47.97100 25.43900 29.97600
C  48.17200 26.56000 30.73600
C  47.81600 26.29300 32.21100
C  47.44300 24.71100 32.19800
C  47.39600 24.42700 30.67800
C  48.44700 23.75200 32.91000
C  46.80700 27.23900 32.80600
C  46.12700 26.87600 34.17600
H  45.93500 27.90100 35.33400
N  47.24500 23.32900 27.74600
C  46.76500 22.63600 28.82600
C  46.01500 21.40200 28.47500
C  46.16400 21.39700 27.04700
C  46.96500 22.55100 26.57400
C  45.42300 20.50300 29.43000
C  45.46400 20.42800 26.03300
O  45.46300 20.66800 24.82600
C  44.57700 19.40600 26.57400
N  48.37400 25.20200 25.58200
C  48.00100 24.14200 24.86300
C  48.30500 24.47900 23.42900
C  48.57500 26.01000 23.36200
C  48.72800 26.31400 24.77000
C  49.33100 23.57800 22.60500
C  47.45600 26.84900 22.80600
C  47.84700 27.93400 21.78700
N  48.83300 27.19400 27.67100
C  49.34900 27.92300 26.65000
C  50.00500 29.08400 27.11300
C  49.84300 29.09400 28.46200
C  49.08700 27.92700 28.80200
C  50.70000 30.14100 26.37300
C  50.13700 29.81500 29.69600
O  50.77600 30.84500 29.85300
C  49.35800 29.04900 30.86700
C  50.26900 28.59100 31.94500
O  51.08200 27.67100 31.89600
O  50.20500 29.45100 33.05000
C  51.10600 29.24900 34.18000
H  46.46100 22.71000 30.99300
H  47.24700 22.19900 24.55500
H  49.49900 28.22700 24.54400
H  48.75500 26.33400 32.76200
H  46.47400 24.45600 32.62600
H  48.90400 23.07900 32.18400
H  47.88700 23.03900 33.51500
H  49.20800 24.29000 33.47500
H  45.91500 27.13300 32.18700
H  47.21600 28.24400 32.90900
H  46.80100 26.16200 34.65000
H  45.11400 26.53000 33.97400
H  46.05700 19.67300 29.74500
H  44.47200 20.21500 28.98300
H  45.17200 21.03900 30.34500
H  44.38700 18.85000 25.65600
H  43.69200 20.01700 26.75100
H  44.96700 18.84100 27.42000
H  47.32900 24.33000 22.96700
H  49.54800 26.21800 22.91500
H  48.78500 23.23900 21.72400
H  49.60300 22.67900 23.15700
H  50.23200 24.11100 22.30200
H  46.85200 27.39900 23.52700
H  46.71600 26.27300 22.25000
H  47.39700 27.71900 20.81700
H  48.92400 28.02800 21.64900
H  47.50000 28.89500 22.16700
H  51.02900 29.76500 25.40400
H  51.49400 30.62100 26.94400
H  49.97900 30.88300 26.02800
H  48.55500 29.71000 31.19300
H  50.87300 28.38000 34.79600
H  51.05100 30.14400 34.79900
H  52.14100 29.07000 33.89200

