158

Mg 47.75200 16.43800 28.29000
C  45.70400 16.05100 31.04800
C  49.86100 18.48400 30.21900
C  49.49400 17.20700 25.55800
C  45.23800 14.83200 26.35200
N  47.74900 17.28200 30.38200
C  46.86000 16.82200 31.32000
C  47.30500 17.25200 32.69600
C  48.45300 18.22700 32.42800
C  48.79700 17.94200 30.91000
C  48.10700 19.69100 32.80800
C  47.83800 16.06600 33.60600
C  47.78000 16.26400 35.14500
H  47.41100 17.57400 35.70000
N  49.56900 17.53200 27.95200
C  50.23200 18.28500 28.83500
C  51.41200 18.78500 28.18100
C  51.39900 18.38600 26.84100
C  50.18600 17.63500 26.72800
C  52.53400 19.39900 28.95600
C  52.33700 18.64400 25.73400
O  52.09900 18.21000 24.59000
C  53.53100 19.58000 25.92600
N  47.42300 16.00700 26.31800
C  48.31900 16.42500 25.39000
C  47.72800 16.10200 23.94600
C  46.56300 14.99400 24.23500
C  46.40300 15.26500 25.74300
C  47.26500 17.34700 23.12200
C  46.78900 13.52800 23.81900
C  45.57400 12.99300 23.06600
N  45.74800 15.71200 28.55000
C  44.91400 15.00600 27.70300
C  43.82100 14.52700 28.41500
C  44.04600 14.90700 29.75100
C  45.24400 15.58600 29.78500
C  42.66900 13.76300 27.83600
C  43.48400 14.89700 31.10000
O  42.44900 14.51500 31.55900
C  44.58200 15.61300 31.99100
C  43.86100 16.74800 32.71900
O  43.47700 17.77400 32.20600
O  43.68700 16.47500 34.02000
C  43.03700 17.55800 34.86400
H  50.46900 19.18400 30.79600
H  49.93400 17.46900 24.59300
H  44.57800 14.28900 25.67300
H  46.46100 17.64800 33.26000
H  49.36000 18.17200 33.03000
H  48.66900 19.92600 33.71200
H  47.06100 19.81600 33.08700
H  48.47200 20.34900 32.01900
H  48.82200 15.70300 33.30800
H  47.27800 15.15500 33.39900
H  48.70100 15.99000 35.66100
H  47.09600 15.47900 35.46800
H  52.61900 20.46800 28.76000
H  53.43600 18.87700 28.63500
H  52.34700 19.18000 30.00700
H  53.16700 20.46000 26.45600
H  53.74000 19.91600 24.91100
H  54.34800 19.04200 26.40700
H  48.46800 15.56100 23.35500
H  45.66300 15.36000 23.74200
H  46.35700 17.36200 22.51900
H  48.07500 17.58800 22.43400
H  47.10000 18.13400 23.85800
H  46.93100 13.01700 24.77100
H  47.76700 13.52800 23.33700
H  44.65700 13.57000 22.95100
H  45.25000 12.01100 23.41000
H  45.96000 12.84500 22.05800
H  42.37200 14.19000 26.87800
H  41.87700 13.74000 28.58500
H  43.02100 12.76500 27.57700
H  44.85200 14.82300 32.69200
H  43.79300 18.33800 34.94500
H  42.81400 17.06700 35.81100
H  42.12900 18.01500 34.47000
Mg 6.36400 55.05100 39.92300
C  6.00900 51.60600 40.07400
C  9.79000 54.54700 39.24900
C  6.68800 58.35600 39.21700
C  2.89700 55.30000 39.95500
N  7.72900 53.21900 39.56900
C  7.39500 51.94700 39.75300
C  8.64600 51.02400 39.73400
C  9.83500 52.08100 39.75500
C  9.08100 53.37700 39.43000
C  10.70000 52.18100 41.05500
C  8.90100 50.05500 38.52400
C  9.32400 50.54800 37.12300
H  8.64500 49.90700 35.87500
N  8.01800 56.37400 39.36500
C  9.33400 55.91800 39.11800
C  10.06700 57.10000 38.88700
C  9.23200 58.25900 39.00200
C  7.93800 57.72400 39.22200
C  11.58400 57.05400 38.70100
C  9.76100 59.67200 38.86600
O  11.01100 59.91600 38.75900
C  8.90900 60.89100 38.87700
N  5.03100 56.55800 39.41800
C  5.42900 57.86500 39.32400
C  4.22600 58.87600 39.31600
C  2.97700 57.83800 39.36600
C  3.68600 56.46800 39.62200
C  4.28700 59.86700 40.48800
C  2.05700 57.80900 38.12900
C  0.58200 57.37200 38.41500
N  4.76300 53.78000 39.98400
C  3.38000 54.01100 40.16000
C  2.74100 52.76000 40.46500
C  3.77300 51.82500 40.52600
C  4.92200 52.49600 40.12100
C  1.28100 52.60000 40.90200
C  4.02900 50.43700 40.79100
O  3.28300 49.47800 41.12500
C  5.48200 50.18100 40.31300
C  5.43800 49.34200 39.10300
O  4.94500 49.73900 38.07200
O  5.90600 47.98200 39.32600
C  5.43000 46.95700 38.35800
H  10.86900 54.38400 39.19900
H  6.80500 59.44200 39.21600
H  1.81800 55.39100 40.09600
H  8.56400 50.41700 40.63500
H  10.44000 52.05400 38.84900
H  10.70000 53.17300 41.50700
H  11.75400 51.97000 40.87100
H  10.28000 51.45500 41.75100
H  7.99700 49.46100 38.38600
H  9.61400 49.33900 38.93100
H  10.39500 50.36500 37.03500
H  9.29100 51.63400 37.04100
H  11.95100 57.66200 37.87400
H  11.91800 56.02200 38.58700
H  11.93800 57.39500 39.67300
H  9.55500 61.73600 38.63700
H  8.34000 60.85200 39.80600
H  8.30800 60.70600 37.98700
H  4.24100 59.41600 38.36900
H  2.43700 58.09700 40.27700
H  5.19800 59.95300 41.08100
H  3.51500 59.74700 41.24800
H  4.17100 60.85000 40.03100
H  2.50200 57.11500 37.41600
H  2.00400 58.74800 37.57900
H  0.48200 57.29500 39.49700
H  0.44000 56.41200 37.91900
H  -0.18400 58.09600 38.13800
H  0.60600 53.45600 40.87700
H  1.16200 52.20900 41.91200
H  0.81200 51.79600 40.33500
H  6.04500 49.59000 41.03500
H  5.91900 47.00500 37.38500
H  4.34900 47.04200 38.24700
H  5.63200 45.94600 38.71200

