158

Mg 47.01300 16.73500 28.80200
C  44.99000 16.33100 31.43400
C  49.15100 18.68100 30.56600
C  48.77400 17.32400 25.86600
C  44.50900 15.15800 26.72200
N  47.03500 17.40600 30.72900
C  46.09000 17.11700 31.66900
C  46.55600 17.56000 33.05800
C  47.70800 18.53100 32.68600
C  48.01500 18.21400 31.25300
C  47.58000 20.08800 32.96100
C  47.10300 16.37800 33.92500
C  47.19400 16.58600 35.47000
H  46.93200 17.97100 36.21100
N  48.83700 17.80200 28.32600
C  49.55000 18.54200 29.19600
C  50.70300 19.12800 28.50100
C  50.53900 18.66200 27.11500
C  49.39600 17.79700 27.07100
C  51.75500 20.11100 29.20200
C  51.46600 19.08800 25.96800
O  51.27300 18.97100 24.79200
C  52.79500 19.74600 26.22300
N  46.76000 16.12300 26.55300
C  47.60600 16.62200 25.60100
C  47.05300 16.42200 24.22900
C  45.71900 15.58200 24.46300
C  45.63900 15.61500 26.00800
C  46.91400 17.62800 23.33600
C  45.71500 14.18600 23.97000
C  44.87000 13.87400 22.69500
N  45.18000 15.82300 28.97700
C  44.28300 15.29800 28.08100
C  43.09100 14.99600 28.81600
C  43.36200 15.26400 30.14100
C  44.61700 15.83100 30.18700
C  41.90400 14.36200 28.28400
C  42.72300 15.21300 31.36500
O  41.57600 14.85100 31.70600
C  43.85800 15.81800 32.35600
C  43.31200 16.92400 33.14200
O  43.04400 18.07200 32.73200
O  43.22400 16.48800 34.41100
C  42.60900 17.38900 35.43500
H  49.78600 19.22700 31.26700
H  49.27200 17.50900 24.91200
H  43.69800 14.76500 26.10500
H  45.74900 18.11500 33.53500
H  48.62900 18.25000 33.19600
H  46.66500 20.35200 33.49000
H  47.65400 20.73700 32.08700
H  48.42700 20.37500 33.58400
H  48.07100 16.07300 33.52700
H  46.40600 15.55600 33.76200
H  48.23100 16.37700 35.73000
H  46.53200 15.84000 35.90900
H  52.13200 20.94000 28.60300
H  52.66200 19.56300 29.45700
H  51.29600 20.51800 30.10300
H  53.32700 19.08800 26.91000
H  52.63600 20.80800 26.40800
H  53.50900 19.65200 25.40400
H  47.82900 15.80000 23.78300
H  44.83300 16.02300 24.00500
H  46.69800 18.56200 23.85500
H  46.03100 17.42700 22.73000
H  47.76400 17.49700 22.66700
H  45.36800 13.46300 24.70800
H  46.75500 13.86100 23.93300
H  45.44900 13.99300 21.77900
H  43.98000 14.49800 22.78100
H  44.58900 12.82200 22.73300
H  41.92400 13.29100 28.48400
H  41.71000 14.68700 27.26200
H  41.06000 14.86600 28.75600
H  44.16200 15.04700 33.06500
H  43.38900 18.11700 35.65700
H  42.25900 16.85300 36.31700
H  41.78000 17.89700 34.94200
Mg -12.09900 16.96300 40.63000
C  -8.92400 15.51700 39.96800
C  -10.79500 19.91700 39.59400
C  -15.19600 18.22400 40.72700
C  -13.28700 13.71900 41.27500
N  -10.10100 17.65800 39.82700
C  -8.96500 16.90200 39.68000
C  -7.79200 17.72500 39.11900
C  -8.34600 19.17600 39.24100
C  -9.82100 18.91800 39.64400
C  -7.49100 20.15800 40.06500
C  -7.45900 17.26500 37.65000
C  -6.05300 17.52200 37.08400
H  -6.11200 17.85800 35.57200
N  -12.91000 18.79100 40.14400
C  -12.14900 19.91300 39.78400
C  -13.08300 21.02500 39.66900
C  -14.39200 20.58900 40.05800
C  -14.19600 19.15500 40.31700
C  -12.53000 22.42600 39.25700
C  -15.65400 21.48400 40.09100
O  -15.60700 22.68100 39.84200
C  -16.92900 20.95800 40.58900
N  -13.97800 16.09000 40.81400
C  -15.13000 16.88000 40.96800
C  -16.32000 15.92200 41.37700
C  -15.63400 14.63600 41.89900
C  -14.24600 14.77600 41.29000
C  -17.44900 16.46200 42.37300
C  -16.36600 13.24200 41.53300
C  -16.66700 12.16400 42.57700
N  -11.28000 14.99800 40.63200
C  -11.89300 13.77800 40.97500
C  -10.90700 12.70800 40.96000
C  -9.71600 13.30800 40.48500
C  -9.99900 14.68700 40.39200
C  -11.19500 11.35100 41.24800
C  -8.34900 13.09200 40.11700
O  -7.81000 11.99300 39.90800
C  -7.78500 14.45900 39.83900
C  -6.71000 14.73900 40.75700
O  -6.84300 15.00500 41.93000
O  -5.48500 14.49400 40.18200
C  -4.23600 14.72500 40.83300
H  -10.34700 20.90100 39.44500
H  -16.23000 18.54500 40.87400
H  -13.70900 12.81000 41.70800
H  -6.83300 17.55900 39.61000
H  -8.53800 19.58900 38.25100
H  -6.63000 19.64400 40.49200
H  -8.06000 20.57100 40.89900
H  -7.11000 20.94600 39.41600
H  -8.17300 17.85600 37.07700
H  -7.68100 16.20900 37.49500
H  -5.36600 16.67900 37.16600
H  -5.73700 18.49600 37.45700
H  -12.09300 22.28300 38.26900
H  -11.65000 22.79100 39.78600
H  -13.28600 23.21200 39.22200
H  -17.68400 21.71800 40.78700
H  -16.72800 20.42300 41.51700
H  -17.24600 20.17400 39.90100
H  -16.90000 15.70600 40.47900
H  -15.46800 14.80000 42.96400
H  -17.41500 17.53900 42.53900
H  -17.61700 15.90500 43.29500
H  -18.39500 16.25300 41.87300
H  -15.85500 12.77700 40.69000
H  -17.25600 13.58400 41.00500
H  -17.30600 11.52100 41.97100
H  -17.19300 12.68100 43.38000
H  -15.71400 11.71200 42.85400
H  -11.53200 10.80600 40.36600
H  -11.85800 11.23400 42.10500
H  -10.23700 10.89400 41.49600
H  -7.47700 14.42900 38.79400
H  -3.79400 13.82500 41.26100
H  -4.39200 15.45400 41.62800
H  -3.48700 15.28300 40.27000

