158

Mg -2.14200 17.23200 25.94100
C  -2.46200 15.00800 28.86100
C  -3.49400 19.76900 28.03800
C  -2.20300 19.09800 23.37800
C  -1.73300 14.34000 24.04300
N  -3.07000 17.24900 28.18000
C  -2.90200 16.34200 29.15000
C  -3.37300 16.91700 30.52800
C  -3.96300 18.31000 30.15500
C  -3.44600 18.50300 28.72600
C  -5.47100 18.33000 30.23100
C  -2.20800 17.03200 31.50900
C  -2.25300 16.06100 32.67300
H  -2.73300 16.52700 34.05900
N  -2.52800 19.17600 25.69800
C  -3.07300 20.06300 26.68800
C  -3.19400 21.39000 26.12500
C  -2.86600 21.24500 24.69200
C  -2.52700 19.81400 24.49500
C  -3.37000 22.62200 26.94100
C  -2.86000 22.35900 23.60600
O  -2.68100 22.04700 22.43800
C  -3.06500 23.77100 23.93100
N  -1.89600 16.80000 24.02900
C  -1.95500 17.76900 23.08800
C  -1.65000 17.15900 21.71300
C  -1.32500 15.68200 21.94500
C  -1.65400 15.56900 23.38300
C  -2.81400 17.43600 20.64700
C  0.11000 15.32600 21.61900
C  1.24500 15.86300 22.55100
N  -2.00100 15.12900 26.32500
C  -1.82900 14.11500 25.39900
C  -1.77600 12.85300 26.08300
C  -1.94100 13.18500 27.44900
C  -2.15500 14.53100 27.55900
C  -1.68200 11.50700 25.47200
C  -2.09900 12.60100 28.77600
O  -1.98600 11.45400 29.21400
C  -2.44400 13.72000 29.65700
C  -1.38300 13.76800 30.66200
O  -0.31100 14.38500 30.59300
O  -1.67100 13.00200 31.74900
C  -0.76200 12.79600 32.86600
H  -3.81400 20.62000 28.64300
H  -2.07900 19.64400 22.44000
H  -1.59400 13.46200 23.40800
H  -4.14000 16.23200 30.89000
H  -3.46300 19.11200 30.69700
H  -5.96400 17.42400 30.58400
H  -6.07800 18.46400 29.33600
H  -5.85800 19.12000 30.87500
H  -2.14500 18.02100 31.96400
H  -1.25300 16.91200 30.99800
H  -1.22800 15.73500 32.84500
H  -2.87100 15.18600 32.47500
H  -3.60900 22.47700 27.99400
H  -4.21900 23.18000 26.54500
H  -2.42900 23.16500 26.85300
H  -2.17200 24.35900 24.14200
H  -3.89800 24.00900 24.59300
H  -3.24700 24.25900 22.97300
H  -0.84600 17.78200 21.32100
H  -1.96500 15.02000 21.36100
H  -2.51900 18.08200 19.82100
H  -3.71000 17.82300 21.13300
H  -3.09900 16.46000 20.25400
H  0.32000 15.84300 20.68300
H  0.17900 14.24800 21.47800
H  0.82400 16.46500 23.35600
H  1.95100 16.44300 21.95600
H  1.69100 14.96600 22.98100
H  -1.09700 11.68600 24.57000
H  -2.61900 10.97600 25.30700
H  -1.01400 10.97000 26.14500
H  -3.37300 13.48600 30.17700
H  0.26000 13.04500 32.57900
H  -0.78400 11.79200 33.29000
H  -1.11500 13.53400 33.58600
Mg 44.60200 3.82900 47.35500
C  43.49000 7.00000 46.33100
C  41.75200 2.32800 46.16300
C  46.07800 0.63900 47.51400
C  47.91300 5.27700 48.04100
N  42.90300 4.52600 46.35700
C  42.61300 5.87500 46.11000
C  41.21500 6.02900 45.47300
C  40.55900 4.65500 45.89500
C  41.80700 3.76600 46.13300
C  39.56600 4.62700 47.16600
C  41.36900 6.24200 43.95200
C  40.76000 7.58900 43.34200
H  40.13100 7.52400 41.88900
N  43.94500 1.80100 47.07500
C  42.70000 1.44800 46.63400
C  42.56600 0.02000 46.69000
C  43.79100 -0.48600 47.10200
C  44.66900 0.64400 47.23100
C  41.24900 -0.66300 46.32900
C  44.08300 -1.99000 47.44800
O  43.26200 -2.82700 47.19100
C  45.29900 -2.38400 48.20800
N  46.74500 3.10100 47.52700
C  46.97400 1.72800 47.64800
C  48.53200 1.54900 47.97900
C  49.07400 2.98700 48.22600
C  47.81800 3.85900 47.94900
C  48.95800 0.65700 49.18800
C  50.27900 3.47700 47.43200
C  51.24700 4.46900 48.16700
N  45.54700 5.74700 47.35200
C  46.85500 6.19300 47.73600
C  46.88400 7.60800 47.55700
C  45.63500 8.00900 46.91400
C  44.82400 6.80200 46.88900
C  48.10400 8.41200 47.93900
C  44.82300 9.07000 46.46900
O  44.97300 10.27200 46.58800
C  43.39600 8.46300 46.01600
C  42.41400 9.10400 46.94400
O  42.20200 8.78200 48.08600
O  41.75400 10.25000 46.44500
C  40.69300 10.85500 47.32700
H  40.85800 1.89800 45.70500
H  46.50400 -0.35900 47.63200
H  48.87700 5.71800 48.30500
H  40.59200 6.76000 45.98900
H  40.06000 4.20100 45.03900
H  40.04900 4.13700 48.01100
H  38.67800 4.03600 46.94000
H  39.21200 5.61700 47.45300
H  40.85800 5.41600 43.45800
H  42.37300 6.07300 43.56400
H  41.49100 8.39700 43.37200
H  40.02800 7.87200 44.09900
H  41.29200 -1.24600 45.40900
H  40.46600 0.09300 46.25600
H  40.91300 -1.33600 47.11700
H  45.47900 -1.77900 49.09700
H  46.19700 -2.21900 47.61200
H  45.26500 -3.43000 48.51100
H  48.87800 0.97000 47.12300
H  49.26200 3.00200 49.29900
H  48.08300 0.24500 49.68900
H  49.71700 1.11500 49.82200
H  49.38100 -0.25000 48.75600
H  49.94600 3.82900 46.45600
H  50.94600 2.66200 47.14900
H  52.11800 3.88600 48.46500
H  50.73700 4.71100 49.09900
H  51.34900 5.43700 47.67700
H  48.58100 7.91700 48.78500
H  47.74000 9.39800 48.22800
H  48.86200 8.40300 47.15600
H  43.12600 8.69200 44.98500
H  39.96000 11.42500 46.75500
H  41.18800 11.41900 48.11700
H  40.13200 10.03200 47.77000

