158

Mg 10.12200 46.95200 25.20300
C  7.52800 47.31300 27.51600
C  12.30200 48.32100 27.28900
C  12.32300 46.85700 22.64300
C  7.52000 46.11800 22.71800
N  9.91200 47.68600 27.23000
C  8.81200 47.69100 28.04300
C  9.22000 48.04200 29.47300
C  10.67600 48.60900 29.26700
C  10.97100 48.29500 27.80000
C  10.86700 50.13500 29.53400
C  9.00100 46.95300 30.63600
C  9.61000 47.21400 32.01300
H  8.79200 46.55200 33.16400
N  12.02600 47.42300 25.01600
C  12.79700 47.90700 26.02000
C  14.24800 47.82300 25.55600
C  14.17200 47.26200 24.27600
C  12.77500 47.17300 23.94300
C  15.35900 48.18500 26.53500
C  15.38800 46.76100 23.40400
O  15.25600 46.30700 22.29800
C  16.78000 46.77600 24.01100
N  9.88400 46.45700 22.99700
C  11.04900 46.56900 22.22500
C  10.58400 46.30600 20.75400
C  9.14400 45.64400 20.86400
C  8.80700 46.05700 22.25900
C  10.80400 47.55400 19.85500
C  9.14500 44.06700 20.62400
C  9.01600 43.24300 21.93100
N  7.99500 46.71200 25.07400
C  7.15500 46.33700 24.07900
C  5.84600 46.21000 24.54900
C  5.95700 46.50800 25.91800
C  7.28000 46.94100 26.15500
C  4.60500 45.79800 23.68500
C  5.15000 46.55400 27.11700
O  3.99700 46.27800 27.34500
C  6.18100 47.07800 28.18700
C  6.24100 46.00500 29.19000
O  6.95400 45.00400 29.10500
O  5.34000 46.27400 30.19500
C  5.05600 45.22900 31.11700
H  13.08200 48.60600 27.99800
H  12.97600 46.92400 21.77100
H  6.78600 45.69000 22.03300
H  8.55000 48.88300 29.65100
H  11.35500 48.10200 29.95200
H  11.59500 50.23500 30.33900
H  9.93900 50.58700 29.88400
H  11.26100 50.52200 28.59500
H  9.26900 45.99800 30.18600
H  7.92300 47.01000 30.78700
H  9.81500 48.28000 32.10500
H  10.53300 46.63300 32.01600
H  15.04800 48.51100 27.52800
H  16.00500 48.97600 26.15300
H  15.97800 47.31000 26.73500
H  16.77000 46.13000 24.88900
H  17.06300 47.80800 24.21900
H  17.50600 46.35800 23.31400
H  11.29700 45.56500 20.39300
H  8.41800 46.02300 20.14400
H  9.83100 47.92500 19.53200
H  11.49900 47.39900 19.02900
H  11.29900 48.40000 20.33200
H  10.05200 43.81700 20.07400
H  8.25100 43.86900 20.03300
H  9.14800 43.80800 22.85400
H  9.66100 42.36400 21.93300
H  8.00600 42.83200 21.95200
H  5.04500 44.99300 23.09700
H  4.23000 46.65600 23.12700
H  3.80300 45.38000 24.29300
H  5.86500 47.99300 28.68800
H  4.52500 44.33600 30.78500
H  4.41000 45.76600 31.81100
H  5.88800 44.90200 31.74000
Mg -12.02200 38.61200 41.49100
C  -10.14900 36.07300 40.25000
C  -9.94700 40.91900 39.96400
C  -14.26000 41.01700 42.20200
C  -14.16400 36.22100 42.85300
N  -10.32600 38.55100 40.27600
C  -9.66800 37.36600 39.90700
C  -8.34600 37.71900 39.09200
C  -8.16300 39.22400 39.46000
C  -9.55100 39.65100 39.95700
C  -7.04300 39.47400 40.61400
C  -8.41800 37.31800 37.60400
C  -7.23800 36.48800 36.89800
H  -6.58200 37.13600 35.67600
N  -12.14000 40.70600 41.11200
C  -11.10600 41.49400 40.51000
C  -11.50100 42.87300 40.55200
C  -12.82700 42.93300 41.15700
C  -13.12000 41.55000 41.63000
C  -10.62000 43.93500 40.17100
C  -13.61700 44.19000 41.41500
O  -13.13900 45.26900 41.06700
C  -14.92900 44.30500 42.25200
N  -14.01700 38.57600 42.28900
C  -14.67200 39.71000 42.46500
C  -16.16800 39.31700 42.78400
C  -16.07700 37.84100 43.17000
C  -14.64700 37.49600 42.81100
C  -16.93000 40.19600 43.74800
C  -17.16000 36.93200 42.50500
C  -17.78900 35.70300 43.38100
N  -12.07400 36.51100 41.61000
C  -13.02200 35.69700 42.21200
C  -12.57700 34.37300 42.03400
C  -11.45700 34.46500 41.23200
C  -11.27400 35.77600 40.98400
C  -13.20700 33.14500 42.62100
C  -10.39400 33.68800 40.58500
O  -10.23400 32.48400 40.44600
C  -9.46100 34.74200 39.83400
C  -7.93200 34.72600 40.23300
O  -7.00600 34.38200 39.49100
O  -7.78600 35.02700 41.57100
C  -6.49000 34.72600 42.10100
H  -9.18800 41.49800 39.43500
H  -14.99600 41.66600 42.68300
H  -14.79800 35.52700 43.41000
H  -7.55400 37.21600 39.64800
H  -7.86900 39.80800 38.58700
H  -7.18500 40.46500 41.04500
H  -6.07400 39.58300 40.12600
H  -7.07800 38.54700 41.18700
H  -8.41000 38.23300 37.01200
H  -9.30500 36.74800 37.33000
H  -7.54400 35.45100 36.76100
H  -6.44900 36.53000 37.64900
H  -9.59100 43.57900 40.13000
H  -10.66800 44.77600 40.86400
H  -10.75000 44.27800 39.14500
H  -15.43700 45.23100 41.98400
H  -14.77500 44.27700 43.33000
H  -15.55800 43.48700 41.90000
H  -16.62700 39.44200 41.80300
H  -16.08100 37.85000 44.26000
H  -17.77000 40.73300 43.30800
H  -16.31100 40.89300 44.31300
H  -17.36900 39.49100 44.45500
H  -16.76300 36.51200 41.58100
H  -17.96400 37.61600 42.23700
H  -17.27500 35.85400 44.33000
H  -17.65500 34.71800 42.93300
H  -18.83200 35.94000 43.59400
H  -13.48200 33.24500 43.67100
H  -12.55200 32.30700 42.38100
H  -14.20600 33.01100 42.20700
H  -9.62100 34.61800 38.76300
H  -6.30800 33.65300 42.15900
H  -6.52900 35.10600 43.12100
H  -5.59900 35.16800 41.65600

