158

Mg 23.06500 -7.50300 46.22200
C  25.72900 -5.33600 44.86600
C  20.87100 -5.89200 44.27700
C  21.04600 -10.14300 46.58600
C  25.73100 -9.33600 47.75900
N  23.28500 -5.79000 44.78000
C  24.42600 -5.06000 44.35000
C  23.99500 -3.97900 43.25800
C  22.43200 -4.06700 43.27600
C  22.15500 -5.36600 44.07900
C  21.74600 -2.93900 43.93800
C  24.75900 -4.13300 41.84200
C  24.72200 -2.80700 40.98600
H  23.93300 -2.77800 39.64000
N  21.19700 -7.92600 45.56100
C  20.38100 -7.11500 44.84400
C  19.15700 -7.76600 44.44500
C  19.11900 -8.95400 45.26500
C  20.50300 -9.09800 45.79200
C  18.09400 -7.12900 43.56400
C  17.94700 -9.97200 45.39300
O  16.90000 -9.84200 44.68700
C  18.00000 -11.09000 46.36800
N  23.36600 -9.39900 46.98600
C  22.29600 -10.25900 47.13400
C  22.68600 -11.55800 47.91000
C  24.21600 -11.29000 48.18400
C  24.51200 -9.95100 47.50700
C  21.89300 -11.84100 49.18700
C  25.08200 -12.55200 47.88700
C  26.35300 -12.70800 48.70700
N  25.28100 -7.29700 46.49600
C  26.17000 -8.12200 47.19600
C  27.49200 -7.55400 47.06500
C  27.39100 -6.48300 46.17800
C  25.99700 -6.41800 45.77100
C  28.73500 -8.08000 47.64600
C  28.13300 -5.32000 45.62500
O  29.24900 -4.91100 45.87700
C  27.07900 -4.62200 44.62100
C  27.14900 -3.22700 45.09100
O  26.54400 -2.89700 46.11100
O  27.64900 -2.36500 44.12700
C  27.70300 -0.91700 44.50400
H  20.18100 -5.15800 43.85700
H  20.40800 -11.02200 46.69900
H  26.53200 -9.93200 48.20000
H  24.30100 -2.97700 43.55900
H  22.04000 -4.21300 42.26900
H  22.45400 -2.58900 44.68900
H  20.86400 -3.11000 44.55500
H  21.65700 -2.16500 43.17600
H  24.24900 -4.98000 41.38400
H  25.79400 -4.45800 41.94800
H  25.77500 -2.85800 40.70700
H  24.55100 -1.95700 41.64600
H  18.16300 -7.77300 42.68700
H  18.29600 -6.07200 43.38900
H  17.08400 -7.20200 43.96600
H  18.36300 -10.75300 47.33900
H  18.58700 -11.91300 45.96000
H  17.01800 -11.53800 46.52400
H  22.61900 -12.28000 47.09700
H  24.32900 -11.14100 49.25800
H  22.48000 -11.59500 50.07200
H  21.60800 -12.89100 49.12400
H  20.98800 -11.23500 49.13800
H  25.27100 -12.43000 46.82000
H  24.50600 -13.44900 48.11500
H  27.16200 -12.79900 47.98300
H  26.41200 -13.49100 49.46300
H  26.62300 -11.79400 49.23700
H  29.49600 -8.15600 46.87000
H  28.57600 -9.02100 48.17200
H  29.06900 -7.45400 48.47400
H  27.37600 -4.70400 43.57600
H  28.70300 -0.61900 44.81800
H  27.00100 -0.71300 45.31300
H  27.39600 -0.40100 43.59500
Mg 25.33100 -1.11800 28.76100
C  27.39700 -1.51300 31.55000
C  22.63600 -1.08600 30.72500
C  23.55500 -0.77900 25.92900
C  28.16000 -1.82200 26.75900
N  25.09200 -1.42700 30.89200
C  26.03100 -1.36000 31.87100
C  25.37400 -1.20100 33.29100
C  23.81100 -1.06700 32.98300
C  23.84300 -1.28500 31.40100
C  22.78700 -2.12100 33.59900
C  25.86800 0.12500 34.01300
C  26.14000 -0.03900 35.46400
H  25.86800 1.18500 36.36600
N  23.36800 -0.83500 28.37700
C  22.40500 -0.83500 29.34400
C  21.15000 -0.39400 28.74900
C  21.42000 -0.44300 27.33500
C  22.83000 -0.69300 27.09900
C  19.89900 -0.05300 29.43100
C  20.45000 -0.20000 26.23100
O  20.83700 -0.04100 25.06100
C  19.05200 -0.27200 26.46200
N  25.79600 -1.51000 26.57300
C  24.88600 -1.12900 25.67700
C  25.50800 -1.11300 24.21100
C  27.01600 -1.43500 24.48300
C  27.01600 -1.66400 26.02000
C  24.94900 -2.07300 23.15000
C  27.93200 -0.22600 24.05600
C  27.90400 1.04200 24.85900
N  27.41800 -1.62100 29.02800
C  28.40300 -1.88800 28.15100
C  29.59700 -2.15400 28.90600
C  29.22300 -1.94700 30.22200
C  27.93900 -1.74600 30.25900
C  30.89200 -2.50300 28.23200
C  29.76800 -1.93700 31.55100
O  30.88600 -2.04600 31.95800
C  28.57700 -1.54200 32.45000
C  28.30600 -2.62000 33.48000
O  27.82400 -3.72400 33.27700
O  28.64300 -2.12500 34.75000
C  28.15500 -3.02900 35.79400
H  21.75100 -0.81600 31.30600
H  23.10900 -0.59800 24.94800
H  29.02500 -1.95200 26.10600
H  25.57600 -2.00600 33.99800
H  23.47700 -0.04100 33.13400
H  23.02100 -2.30500 34.64800
H  22.83600 -3.08600 33.09500
H  21.86300 -1.60000 33.84900
H  25.19800 0.94600 33.75900
H  26.80900 0.38700 33.53000
H  27.22000 -0.10800 35.60000
H  25.59600 -0.92900 35.78100
H  19.44500 0.83300 28.98700
H  20.08100 0.02400 30.50300
H  19.18200 -0.87000 29.34600
H  18.55800 -0.39900 25.49900
H  18.80800 0.73800 26.79200
H  18.71700 -1.05400 27.14500
H  25.37000 -0.15000 23.72000
H  27.44400 -2.25800 23.91100
H  25.55300 -2.98000 23.16400
H  25.10500 -1.63800 22.16300
H  23.87000 -2.16500 23.27300
H  27.73200 -0.05800 22.99800
H  28.97200 -0.54600 24.10900
H  27.37000 0.84300 25.78900
H  27.46300 1.93400 24.41300
H  28.91000 1.40600 25.06900
H  30.90300 -3.57100 28.01500
H  31.77700 -2.32800 28.84400
H  31.17400 -2.07700 27.27000
H  28.82200 -0.64100 33.01200
H  27.06700 -2.96400 35.77200
H  28.46900 -2.66200 36.77100
H  28.36700 -4.09200 35.68000

