158

Mg 27.39200 50.41200 26.84200
C  25.09800 50.97000 29.44500
C  29.78700 49.78300 29.30500
C  29.53500 49.73700 24.40000
C  24.92700 51.48000 24.58400
N  27.41400 50.52800 29.08200
C  26.36100 50.67700 29.95100
C  26.74000 50.52000 31.40000
C  28.34100 50.38900 31.31700
C  28.55800 50.23500 29.76800
C  29.24600 51.51700 31.92000
C  25.98200 49.33800 32.13200
C  25.33400 49.73000 33.53200
H  25.67800 48.80200 34.71000
N  29.37500 49.92900 26.85900
C  30.21500 49.61000 28.02000
C  31.52800 49.21500 27.49900
C  31.48600 49.32500 26.06200
C  30.08600 49.58800 25.67100
C  32.74000 48.86400 28.37100
C  32.61400 49.26800 25.03500
O  32.47600 49.35100 23.79100
C  33.98200 49.06100 25.56500
N  27.30000 50.90100 24.83100
C  28.28600 50.36200 24.01800
C  27.92800 50.47200 22.55200
C  26.43000 50.86600 22.63000
C  26.20900 51.18000 24.08900
C  28.81700 51.54000 21.78200
C  25.46100 49.80600 22.02200
C  25.06600 48.63900 22.87900
N  25.51000 51.23500 26.95900
C  24.61700 51.50000 25.98500
C  23.32700 51.84200 26.50800
C  23.50300 51.66900 27.84500
C  24.81100 51.22400 28.09000
C  22.11100 52.33500 25.71800
C  22.76100 51.73100 29.10900
O  21.65000 52.13900 29.31700
C  23.83500 51.36800 30.21300
C  24.08900 52.51300 31.23200
O  24.66100 53.52900 31.02000
O  23.45000 52.13200 32.40800
C  23.46800 53.13600 33.54500
H  30.60300 49.60000 30.00700
H  30.23700 49.42300 23.62500
H  24.17500 51.76300 23.84500
H  26.55400 51.46900 31.90200
H  28.61000 49.44800 31.79800
H  29.72500 51.15200 32.82800
H  28.55000 52.32000 32.16400
H  29.95400 51.77700 31.13300
H  26.63100 48.46600 32.21900
H  25.22000 48.85100 31.52300
H  24.28000 49.93300 33.34100
H  25.76400 50.70200 33.77500
H  33.06500 47.88400 28.02300
H  32.44300 48.88800 29.41900
H  33.61300 49.49500 28.20500
H  34.66100 48.93400 24.72100
H  34.04600 48.16700 26.18400
H  34.26500 49.96100 26.11100
H  28.10900 49.44000 22.25300
H  26.27000 51.84100 22.16900
H  29.74600 51.73300 22.31900
H  28.27600 52.47000 21.60800
H  29.12800 51.05000 20.85900
H  26.09300 49.46200 21.20400
H  24.55800 50.25400 21.60800
H  25.23700 48.69400 23.95500
H  25.48100 47.72500 22.45600
H  23.99000 48.49300 22.79100
H  22.26500 52.19900 24.64800
H  21.99700 53.40600 25.88400
H  21.24900 51.78600 26.09500
H  23.46000 50.49600 30.74800
H  24.27900 52.75800 34.16600
H  22.58400 53.13900 34.18300
H  23.81000 54.13900 33.28700
Mg 7.89700 52.03300 41.08700
C  7.45000 48.60700 40.70500
C  11.20400 51.57400 40.25500
C  8.20600 55.23800 41.40900
C  4.32300 52.31700 41.89400
N  9.20700 50.34300 40.55300
C  8.78400 49.05300 40.42700
C  9.90300 48.25700 39.97800
C  11.19200 49.01400 40.31400
C  10.53200 50.41300 40.42700
C  12.12200 48.62400 41.46900
C  9.83100 47.82800 38.46400
C  9.26800 48.87500 37.54900
H  8.68200 48.38400 36.24000
N  9.44000 53.23700 40.68500
C  10.72200 52.86200 40.32700
C  11.49200 54.06600 40.23100
C  10.65200 55.19200 40.50100
C  9.38000 54.62100 40.86400
C  12.93900 54.05500 39.78600
C  11.07600 56.62500 40.43800
O  12.21500 56.90400 40.27600
C  10.04700 57.82900 40.52600
N  6.46400 53.61600 41.53000
C  6.90400 54.83000 41.71300
C  5.76900 55.85900 42.13600
C  4.53100 54.87200 42.26800
C  5.13100 53.49800 41.92800
C  5.97800 56.83300 43.26900
C  3.25800 55.19500 41.37800
C  1.97800 55.60900 42.14600
N  6.22500 50.79800 41.17800
C  4.84000 50.98100 41.59800
C  4.12800 49.70500 41.62900
C  5.11700 48.77300 41.26200
C  6.31300 49.46900 41.01400
C  2.68400 49.36300 41.96200
C  5.35400 47.36100 41.14600
O  4.60000 46.41700 41.33200
C  6.90400 47.18300 40.79300
C  6.90000 46.45400 39.50700
O  6.53900 46.95600 38.46700
O  7.21500 45.16100 39.71300
C  6.71100 44.34600 38.66200
H  12.25100 51.39900 40.00000
H  8.28000 56.32400 41.50400
H  3.29100 52.45800 42.22000
H  9.88100 47.33500 40.55700
H  11.84700 49.20500 39.46400
H  11.70600 47.85500 42.11900
H  12.09000 49.53700 42.06400
H  13.17800 48.41800 41.29400
H  9.23000 46.92900 38.32800
H  10.84600 47.60600 38.13400
H  10.02900 49.64400 37.41700
H  8.37500 49.30100 38.00400
H  13.40500 53.08100 39.63200
H  13.61300 54.65100 40.40000
H  13.00800 54.44600 38.77100
H  9.89200 58.01100 41.59000
H  9.12800 57.66200 39.96500
H  10.49900 58.64600 39.96300
H  5.67500 56.50600 41.26400
H  4.11100 54.65800 43.25100
H  5.43300 56.57500 44.17700
H  5.73000 57.81600 42.86800
H  7.01500 56.79400 43.60200
H  2.99200 54.39900 40.68200
H  3.55500 55.99500 40.70000
H  1.96500 55.19000 43.15200
H  1.19100 55.15200 41.54600
H  1.96200 56.69500 42.05700
H  2.21600 50.31500 42.21300
H  2.68100 48.56500 42.70400
H  2.17600 48.98500 41.07500
H  7.24700 46.52400 41.59100
H  7.19100 44.61100 37.72000
H  5.62200 44.40600 38.65800
H  7.00900 43.31400 38.84700

