158

Mg 47.94700 15.83900 28.67200
C  45.77800 15.63800 31.39700
C  50.25600 17.61700 30.68300
C  49.71900 16.46800 25.94000
C  45.24200 14.63500 26.63900
N  47.95500 16.60600 30.79200
C  47.00500 16.32500 31.71000
C  47.44400 16.78900 33.13000
C  48.80400 17.52200 32.88400
C  49.06100 17.18800 31.36700
C  48.92900 19.06800 33.32400
C  47.57900 15.63300 34.10700
C  46.69800 15.56500 35.37000
H  46.50500 16.91100 36.10700
N  49.91200 16.74200 28.41100
C  50.61500 17.45000 29.35600
C  51.74700 17.94200 28.69300
C  51.64300 17.66000 27.27300
C  50.37200 16.92100 27.15000
C  52.84600 18.75900 29.38400
C  52.58700 17.87000 26.06400
O  52.31300 17.50100 24.92600
C  53.86000 18.60400 26.25400
N  47.57400 15.60300 26.57900
C  48.47500 15.87500 25.65500
C  48.01100 15.46000 24.25400
C  46.69000 14.73500 24.59500
C  46.45300 15.01500 26.07000
C  47.95600 16.58700 23.14800
C  46.57500 13.29100 24.07700
C  46.95400 12.23900 25.10400
N  45.92300 15.18900 28.85900
C  44.98700 14.72200 27.99600
C  43.75800 14.30700 28.74900
C  44.03800 14.61800 30.10500
C  45.32300 15.16300 30.11900
C  42.45900 13.86700 28.20300
C  43.56300 14.56100 31.47300
O  42.49400 14.12900 31.81700
C  44.70800 15.21700 32.33600
C  44.01300 16.36900 33.12300
O  43.80100 17.51300 32.85600
O  43.51400 15.83600 34.29800
C  42.79800 16.56500 35.18500
H  50.98900 18.07400 31.35100
H  50.27200 16.73000 25.03500
H  44.54500 14.16700 25.94200
H  46.78400 17.57200 33.50400
H  49.61600 16.94900 33.33200
H  48.01400 19.52700 33.69800
H  49.19200 19.59800 32.40800
H  49.70500 19.25600 34.06500
H  48.60900 15.64000 34.46300
H  47.46700 14.70800 33.54200
H  47.32400 15.04000 36.09100
H  45.78700 15.00000 35.17400
H  53.83600 18.36200 29.16100
H  52.78700 18.65400 30.46700
H  52.83700 19.79500 29.04300
H  53.56900 19.63800 26.43800
H  54.57500 18.56200 25.43200
H  54.43000 18.37400 27.15500
H  48.76000 14.77200 23.86100
H  45.94400 15.26500 24.00300
H  48.58800 16.23100 22.33500
H  48.33500 17.57100 23.42700
H  46.94300 16.60900 22.74800
H  47.17700 13.22400 23.17100
H  45.54200 13.10200 23.78300
H  46.14600 11.54300 25.32600
H  47.28900 12.55500 26.09200
H  47.84700 11.79300 24.66600
H  42.24600 14.46200 27.31400
H  41.63900 14.01700 28.90500
H  42.36900 12.84200 27.84400
H  45.05500 14.54600 33.12300
H  42.91800 17.64700 35.24500
H  43.16400 16.28500 36.17300
H  41.74200 16.38200 34.98600
Mg 17.24500 51.33100 26.35400
C  19.21800 49.90900 28.86600
C  14.95300 52.26000 28.81200
C  15.27900 52.44700 23.92700
C  19.34300 49.78300 23.95500
N  17.04700 50.99700 28.62700
C  18.01500 50.48700 29.38300
C  17.66700 50.60300 30.85300
C  16.23600 51.29700 30.86500
C  15.97600 51.48400 29.33900
C  15.19300 50.48600 31.66300
C  18.74200 51.48300 31.62500
C  18.33000 52.35600 32.85400
H  17.53800 51.55400 33.88400
N  15.43000 52.32000 26.38600
C  14.64900 52.67300 27.44500
C  13.51400 53.39900 26.96200
C  13.59700 53.51500 25.55400
C  14.78900 52.72700 25.18800
C  12.43400 54.02500 27.88100
C  12.70400 54.18300 24.59300
O  12.91900 54.16100 23.40400
C  11.41300 54.85400 25.08900
N  17.41900 51.19400 24.27000
C  16.45600 51.80200 23.50300
C  16.69100 51.50200 21.95600
C  18.06700 50.78700 21.90300
C  18.30100 50.57000 23.45300
C  15.45600 50.80100 21.32900
C  19.21400 51.54600 21.06500
C  20.18000 50.66200 20.24000
N  18.93000 50.13700 26.28100
C  19.73200 49.64600 25.30100
C  20.81300 48.86400 25.86900
C  20.60200 48.97500 27.22800
C  19.49600 49.78000 27.48600
C  21.91800 48.28900 25.12000
C  21.27100 48.63700 28.51800
O  22.34600 48.08000 28.72200
C  20.39100 49.31000 29.62900
C  20.08600 48.30300 30.66000
O  19.25600 47.36300 30.45800
O  20.91000 48.55300 31.73600
C  20.68500 47.64200 32.89600
H  14.18000 52.60800 29.50000
H  14.60900 52.73700 23.11500
H  19.95900 49.23100 23.24200
H  17.62100 49.59300 31.26200
H  16.32300 52.28100 31.32700
H  14.40500 50.06000 31.04200
H  14.69600 51.05800 32.44600
H  15.68100 49.69100 32.22500
H  19.41500 52.05700 30.98700
H  19.30700 50.69600 32.12400
H  17.94000 53.30100 32.47500
H  19.23300 52.42700 33.45900
H  12.34100 55.07900 27.61700
H  12.87100 54.18400 28.86700
H  11.44800 53.56800 27.96200
H  10.82800 54.11800 25.64000
H  10.75200 55.24900 24.31800
H  11.56700 55.68600 25.77700
H  16.66400 52.45600 21.43000
H  17.91700 49.78000 21.51400
H  14.62600 50.76700 22.03400
H  15.78100 49.78900 21.08600
H  15.06900 51.28600 20.43300
H  19.81200 52.21200 21.68700
H  18.66900 52.24800 20.43400
H  21.16500 51.01400 20.54500
H  20.08300 50.70900 19.15500
H  20.03200 49.65900 20.64000
H  21.53600 47.83400 24.20600
H  22.44000 47.52400 25.69500
H  22.65000 49.05100 24.85200
H  20.90500 50.11000 30.16300
H  19.65200 47.82600 33.19100
H  21.38700 48.00500 33.64700
H  20.93900 46.65900 32.49900

