158

Mg 43.75900 4.46800 46.71900
C  41.68100 7.11100 46.76500
C  41.19400 2.26200 46.32900
C  46.00800 1.80900 46.91100
C  46.61100 6.75500 46.74600
N  41.75200 4.68200 46.40200
C  41.09100 5.82800 46.65800
C  39.60000 5.66000 46.63000
C  39.46800 4.08400 46.68800
C  40.88200 3.66400 46.41000
C  38.96200 3.54300 48.06000
C  38.86200 6.29400 45.40100
C  39.62200 6.28800 44.03400
H  38.80300 5.94200 42.77500
N  43.63300 2.31000 46.47100
C  42.45300 1.65800 46.39200
C  42.73900 0.24000 46.28900
C  44.16100 0.09900 46.30600
C  44.69100 1.43500 46.63000
C  41.74700 -0.87300 46.20500
C  44.99700 -1.18000 46.00100
O  44.40200 -2.23700 45.86100
C  46.49200 -1.11800 45.82900
N  45.95000 4.24900 46.84300
C  46.56700 3.09200 47.02400
C  48.08500 3.28300 47.24700
C  48.17700 4.86300 47.40500
C  46.82100 5.38100 46.95300
C  48.55800 2.49500 48.43500
C  49.33200 5.37500 46.41300
C  50.76200 4.88800 46.52900
N  44.13300 6.52000 46.58900
C  45.29100 7.34000 46.67100
C  44.88000 8.72200 46.77800
C  43.47400 8.71200 46.78600
C  43.11600 7.34400 46.63400
C  45.94400 9.83600 46.92200
C  42.31800 9.49000 46.98700
O  42.20600 10.68700 47.19600
C  41.07500 8.45100 46.98100
C  40.26100 8.55500 48.21700
O  40.63100 8.36000 49.39900
O  38.97300 8.95900 47.87700
C  38.04400 9.10900 49.04600
H  40.35500 1.56900 46.23700
H  46.71800 0.99300 47.06500
H  47.34800 7.55900 46.78600
H  39.21100 6.05600 47.56900
H  38.67500 3.89900 45.96400
H  38.54700 4.32300 48.69800
H  39.76800 3.17700 48.69700
H  38.20900 2.76000 47.97600
H  38.64500 7.33600 45.63600
H  37.86300 5.88200 45.25800
H  40.53200 5.68900 44.08100
H  39.92800 7.31700 43.84500
H  40.77300 -0.47400 46.48700
H  41.92700 -1.70800 46.88300
H  41.80000 -1.32500 45.21500
H  46.93200 -1.23000 46.82000
H  46.87500 -0.19400 45.39500
H  46.80200 -1.93200 45.17300
H  48.66100 2.99400 46.36800
H  48.44300 5.22900 48.39700
H  48.09200 1.52900 48.62500
H  48.59100 3.06300 49.36500
H  49.60000 2.27100 48.20400
H  49.44900 6.35600 46.87400
H  48.91300 5.52000 45.41700
H  51.36900 5.74200 46.82700
H  51.09100 4.52000 45.55700
H  50.93700 3.99600 47.13100
H  46.67700 9.57600 46.15800
H  46.32400 9.77100 47.94200
H  45.59300 10.84100 46.68900
H  40.53700 8.69500 46.06500
H  38.38300 8.85000 50.04900
H  37.17600 8.53400 48.72200
H  37.68900 10.13900 49.04900
Mg 46.91800 35.46300 29.05800
C  45.44300 33.08200 31.13400
C  46.75000 37.79200 31.51200
C  47.78400 37.88200 26.82800
C  46.32800 33.26500 26.26300
N  46.33400 35.37800 31.13600
C  45.77800 34.28300 31.75900
C  45.78600 34.53200 33.26800
C  45.56200 36.13000 33.23600
C  46.33800 36.51000 31.91700
C  44.06200 36.57600 33.09900
C  47.19600 34.02800 33.68800
C  47.24800 33.75500 35.19400
H  46.21500 34.36700 36.18800
N  47.42500 37.44000 29.24400
C  47.35100 38.24500 30.27900
C  47.98400 39.49200 30.06900
C  48.42300 39.50900 28.71100
C  47.88100 38.25500 28.17800
C  48.07100 40.58200 31.14300
C  49.28900 40.48800 27.96200
O  49.52000 40.32400 26.75600
C  50.03100 41.65800 28.70700
N  46.97700 35.57500 26.85900
C  47.34600 36.69700 26.24100
C  47.20500 36.50900 24.68100
C  46.70600 35.01700 24.52300
C  46.68800 34.58400 25.94200
C  46.09300 37.37900 24.02400
C  47.59300 34.15300 23.64100
C  46.91000 33.32800 22.56000
N  46.21900 33.49300 28.69100
C  46.05200 32.73300 27.51100
C  45.46100 31.37800 27.88000
C  45.16100 31.55300 29.25600
C  45.62700 32.81000 29.69000
C  45.26700 30.17400 27.03000
C  44.52500 30.90500 30.42300
O  44.12400 29.76800 30.60200
C  44.41600 31.96000 31.52100
C  44.60500 31.51400 32.90900
O  45.63400 31.01700 33.36400
O  43.46800 31.70600 33.65400
C  43.28600 31.13900 34.92400
H  46.44700 38.59400 32.18700
H  48.05200 38.69200 26.14700
H  46.02600 32.70200 25.37700
H  44.91200 34.16400 33.80500
H  46.07100 36.59700 34.07900
H  43.84900 37.20200 32.23300
H  43.72800 37.10500 33.99100
H  43.47200 35.66900 32.96500
H  47.87600 34.86500 33.53400
H  47.50400 33.17800 33.08000
H  48.21300 34.05400 35.60300
H  47.12300 32.67500 35.11500
H  47.10900 40.61400 31.65300
H  48.11100 41.52900 30.60400
H  48.97900 40.45600 31.73300
H  50.71500 41.97100 27.91900
H  50.52500 41.33400 29.62300
H  49.33400 42.45500 28.96700
H  48.16900 36.83600 24.29300
H  45.70000 35.01600 24.10300
H  45.64800 38.11000 24.69900
H  45.30600 36.91000 23.43200
H  46.66900 37.91500 23.27000
H  48.03500 33.41100 24.30600
H  48.35000 34.79700 23.19200
H  47.16000 33.66400 21.55300
H  45.82800 33.45900 22.55200
H  47.08100 32.25700 22.66700
H  45.53500 30.46400 26.01400
H  44.22400 29.93300 27.23600
H  45.82700 29.29700 27.35300
H  43.41400 32.37700 31.41700
H  42.24500 31.33400 35.18200
H  43.96800 31.66400 35.59300
H  43.58500 30.09100 34.90300

