158

Mg 36.41800 2.33600 29.88300
C  34.31900 3.46000 32.52400
C  38.97600 2.03900 32.18600
C  38.52100 1.95800 27.36500
C  33.74200 2.74500 27.73400
N  36.57500 2.82300 32.07400
C  35.65500 3.14600 32.94100
C  36.12800 3.16400 34.38700
C  37.54100 2.56400 34.23700
C  37.69200 2.36000 32.74400
C  38.78400 3.27500 34.92200
C  35.21200 2.46600 35.43400
C  34.72100 3.27000 36.73300
H  35.48300 4.44100 37.33200
N  38.51900 2.01900 29.82200
C  39.37800 1.86100 30.86300
C  40.66300 1.50000 30.29600
C  40.56900 1.47000 28.88300
C  39.16100 1.88800 28.66700
C  41.81000 1.19500 31.14500
C  41.67300 1.14500 27.82000
O  41.50500 1.36300 26.63900
C  42.98500 0.32200 28.28200
N  36.17400 2.24500 27.82300
C  37.22200 2.13900 26.93900
C  36.72500 2.15500 25.42000
C  35.13900 2.02900 25.64000
C  34.96600 2.35800 27.17400
C  37.13000 3.46000 24.68700
C  34.46800 0.67500 25.29500
C  32.91300 0.56900 25.33800
N  34.40100 2.98200 29.99900
C  33.44700 3.11900 29.01900
C  32.20700 3.63000 29.52500
C  32.51700 3.74300 30.91800
C  33.83400 3.40000 31.16800
C  31.06500 3.88700 28.75300
C  31.96100 4.17700 32.18700
O  30.85800 4.65300 32.37700
C  33.11800 3.96000 33.27200
C  33.31200 5.27100 34.02700
O  34.39700 5.91800 34.14200
O  32.16700 5.62100 34.74100
C  32.30200 6.85400 35.51200
H  39.62700 1.64900 32.97100
H  39.17900 1.75400 26.51700
H  32.83800 2.65500 27.12800
H  36.23400 4.23300 34.57700
H  37.47700 1.52600 34.56400
H  39.31800 2.53100 35.51200
H  38.43300 4.07600 35.57200
H  39.47100 3.85500 34.30600
H  35.74400 1.59400 35.81500
H  34.30200 2.09500 34.96300
H  34.80600 2.47100 37.47000
H  33.65200 3.46700 36.64400
H  41.65200 1.19600 32.22400
H  42.70200 1.77200 30.90000
H  41.91300 0.11200 31.08000
H  43.52800 0.90700 29.02300
H  43.65900 0.16900 27.43900
H  42.79200 -0.59300 28.84200
H  37.17700 1.28300 24.94800
H  34.59500 2.72500 25.00100
H  37.44700 4.22300 25.39700
H  36.39100 3.81200 23.96800
H  37.99800 3.11600 24.12400
H  35.01900 -0.09500 25.83500
H  34.71900 0.47700 24.25300
H  32.69000 -0.08800 26.17800
H  32.41900 0.12900 24.47200
H  32.48400 1.55400 25.52500
H  30.63900 2.93700 28.43000
H  31.17100 4.63900 27.97200
H  30.33000 4.24000 29.47600
H  32.66900 3.17400 33.87900
H  32.44000 7.71000 34.85200
H  33.15800 6.70900 36.17000
H  31.43700 7.08600 36.13500
Mg 47.54500 16.26200 29.46800
C  45.61900 16.04200 32.22500
C  49.97900 18.01900 31.37700
C  49.43700 16.75500 26.59000
C  45.02200 14.91300 27.47700
N  47.73300 17.02600 31.55500
C  46.83300 16.68900 32.50000
C  47.24800 17.35400 33.89700
C  48.52600 18.19200 33.58900
C  48.73900 17.80600 32.05700
C  48.43200 19.69200 33.87400
C  47.52600 16.18700 34.91500
C  48.12500 16.62000 36.24300
H  48.09700 18.04200 36.90100
N  49.43500 17.19500 29.03400
C  50.31100 17.68700 29.98000
C  51.64300 17.90200 29.33800
C  51.52900 17.58900 27.95000
C  50.05800 17.18900 27.78000
C  52.85500 18.35300 30.07000
C  52.51900 17.60200 26.71200
O  52.22800 17.20600 25.60700
C  53.98300 18.15300 27.00700
N  47.17200 16.02700 27.25400
C  48.15700 16.23000 26.32500
C  47.56600 16.03100 24.95800
C  46.24500 15.20800 25.14800
C  46.13200 15.33100 26.70800
C  47.54000 17.32000 24.03800
C  46.26400 13.71700 24.62700
C  44.92900 13.38200 23.90400
N  45.78600 15.47700 29.74000
C  44.82300 14.97600 28.84700
C  43.69800 14.50200 29.67400
C  43.98300 14.96900 30.98300
C  45.25000 15.49800 30.95900
C  42.50500 13.78900 29.13300
C  43.33300 15.11100 32.27100
O  42.26600 14.70000 32.66800
C  44.47000 15.79800 33.17800
C  43.97100 17.07500 33.83000
O  43.79400 18.15600 33.26300
O  44.02400 16.92900 35.19900
C  43.80200 18.10400 36.03300
H  50.81700 18.47100 31.91200
H  49.94500 16.88000 25.63200
H  44.22400 14.37900 26.95600
H  46.44600 18.01700 34.22200
H  49.45500 17.85800 34.05000
H  48.50200 20.20000 32.91300
H  49.27500 20.08800 34.44100
H  47.50800 19.99200 34.36800
H  48.22100 15.52700 34.39600
H  46.58700 15.66000 35.08400
H  49.21200 16.55300 36.21000
H  47.67500 15.93900 36.96600
H  52.61900 18.94000 30.95700
H  53.46100 19.07800 29.52600
H  53.49400 17.50100 30.30000
H  54.64900 18.24900 26.14900
H  54.50200 17.59900 27.78900
H  53.92500 19.11000 27.52600
H  48.32300 15.41700 24.47100
H  45.40800 15.77700 24.74300
H  47.66900 18.20900 24.65500
H  46.58000 17.31500 23.52200
H  48.34300 17.26700 23.30200
H  46.35100 13.15000 25.55400
H  47.11100 13.54400 23.96400
H  44.85400 13.94700 22.97500
H  44.03800 13.65200 24.47100
H  44.86300 12.31100 23.71400
H  42.58600 12.82800 29.64100
H  42.42500 13.62000 28.06000
H  41.56400 14.23200 29.45800
H  44.69200 15.00000 33.88700
H  44.77600 18.50000 36.32300
H  43.19000 17.77000 36.87200
H  43.21200 18.88400 35.55400

