158

Mg 27.13200 51.46100 25.80500
C  25.10600 52.29100 28.49900
C  29.58500 50.56500 27.90100
C  28.91600 50.62700 23.02800
C  24.70800 52.99000 23.70000
N  27.36900 51.50800 27.95600
C  26.30700 51.69300 28.88900
C  26.80900 51.36100 30.34100
C  28.38800 51.21300 30.09400
C  28.47300 51.12300 28.59200
C  29.31100 52.19700 30.77900
C  26.03800 50.20300 30.97800
C  25.21600 50.38200 32.26600
H  25.99700 50.84700 33.48800
N  28.96600 50.64600 25.51300
C  29.84100 50.35600 26.54100
C  31.06600 49.79200 25.95200
C  30.89900 49.79700 24.50100
C  29.51100 50.34600 24.33700
C  32.28000 49.38900 26.72400
C  31.88700 49.38900 23.51500
O  31.66300 49.42600 22.30600
C  33.22100 48.99100 23.80600
N  26.86700 51.69000 23.73100
C  27.71400 51.36600 22.74500
C  27.21200 51.57300 21.32200
C  25.81900 52.19700 21.52200
C  25.76700 52.33000 23.06100
C  28.14400 52.42600 20.40400
C  24.56800 51.39900 21.00400
C  23.46500 52.35600 20.40200
N  25.33400 52.45500 26.03400
C  24.47200 52.97800 25.10400
C  23.34800 53.61000 25.76100
C  23.55200 53.36400 27.11100
C  24.76900 52.62600 27.19600
C  22.23900 54.40100 25.10100
C  23.13000 53.70200 28.45000
O  22.12500 54.34000 28.78800
C  23.99600 52.81900 29.41200
C  24.51000 53.84300 30.40000
O  25.49100 54.52900 30.27600
O  23.61900 53.83000 31.49000
C  24.02200 54.62000 32.60800
H  30.38300 50.32100 28.60600
H  29.49300 50.37400 22.13600
H  23.92400 53.31800 23.01400
H  26.57700 52.31200 30.82100
H  28.68900 50.22000 30.42700
H  29.83600 52.80500 30.04300
H  30.07400 51.64100 31.32400
H  28.81800 52.91300 31.43700
H  26.69000 49.36600 31.23200
H  25.34500 49.86500 30.20800
H  24.52200 49.58800 32.54200
H  24.57100 51.23500 32.05500
H  32.29500 48.30800 26.86100
H  32.23400 49.69000 27.77100
H  33.14000 49.86900 26.25700
H  33.41200 48.05500 24.33100
H  33.59400 49.88600 24.30200
H  33.76100 48.87100 22.86700
H  27.05900 50.58300 20.89100
H  25.76700 53.23700 21.20300
H  28.79700 52.97000 21.08600
H  27.55100 53.09700 19.78300
H  28.62300 51.58000 19.91100
H  23.99600 50.93000 21.80400
H  24.86800 50.66100 20.26000
H  22.52700 52.26400 20.94900
H  23.24500 51.92700 19.42500
H  23.79200 53.39500 20.34900
H  21.23400 54.13400 25.42800
H  22.34600 54.40700 24.01600
H  22.26700 55.42100 25.48500
H  23.55000 51.96100 29.91500
H  24.79400 54.13600 33.20700
H  23.13000 54.70500 33.22800
H  24.35900 55.62000 32.33400
Mg 10.09800 48.26300 26.09700
C  8.02100 48.02700 28.89100
C  12.50300 49.38200 27.90200
C  11.79100 48.74500 23.12400
C  7.21300 47.29900 23.94400
N  10.13800 48.76700 28.16300
C  9.32800 48.37300 29.16000
C  10.02600 48.58100 30.56000
C  11.22500 49.44200 30.12100
C  11.32000 49.20500 28.66100
C  11.23100 50.99300 30.44700
C  10.33500 47.40700 31.38300
C  9.82400 47.40700 32.79800
H  10.34600 46.36000 33.85400
N  11.92500 48.84600 25.62000
C  12.84600 49.26800 26.58500
C  14.07400 49.51200 25.97300
C  13.86600 49.37000 24.56200
C  12.46600 49.03000 24.33500
C  15.34900 49.96000 26.72100
C  14.81300 49.52800 23.42600
O  14.63500 49.42800 22.23700
C  16.19900 49.86000 23.76700
N  9.48600 48.15800 23.89000
C  10.46000 48.50800 22.91100
C  9.76800 48.37800 21.51500
C  8.55800 47.34600 21.81700
C  8.43300 47.59600 23.31600
C  9.28700 49.76500 20.93100
C  8.95100 45.89300 21.38000
C  9.01000 44.79200 22.38900
N  8.00800 47.80800 26.28200
C  7.00500 47.51400 25.35200
C  5.79900 47.36400 26.14200
C  6.17800 47.39200 27.46300
C  7.45600 47.77600 27.52700
C  4.50200 47.04600 25.57800
C  5.68200 47.24800 28.80800
O  4.50000 47.04900 29.14800
C  6.78700 47.63100 29.82300
C  7.13000 46.45800 30.61800
O  7.72800 45.49700 30.17700
O  6.67200 46.44200 31.88900
C  6.81800 45.21400 32.69400
H  13.34600 49.73200 28.50200
H  12.35700 48.76300 22.19000
H  6.38300 46.90600 23.35300
H  9.35900 49.22800 31.13000
H  12.14100 49.09400 30.59800
H  12.24500 51.38300 30.35000
H  10.81900 51.32700 31.39900
H  10.74300 51.44000 29.58100
H  11.41300 47.27700 31.48300
H  9.95700 46.48400 30.94300
H  8.75800 47.29100 32.60200
H  9.85400 48.40900 33.22700
H  15.61300 50.99800 26.52100
H  16.15400 49.25300 26.52000
H  15.26700 49.86500 27.80400
H  16.76000 50.14100 22.87600
H  16.68100 48.93100 24.06900
H  16.42400 50.70500 24.41700
H  10.47400 47.96300 20.79600
H  7.69800 47.79900 21.32300
H  9.33200 50.61400 21.61200
H  8.28300 49.69900 20.51000
H  9.97500 49.94900 20.10700
H  9.96000 45.97100 20.97600
H  8.39200 45.53500 20.51600
H  8.33300 45.09700 23.18700
H  10.00300 44.53000 22.75600
H  8.54600 43.85300 22.08600
H  4.61800 46.43900 24.68000
H  3.98500 47.95500 25.27000
H  3.91300 46.50500 26.31800
H  6.40400 48.45600 30.42400
H  7.59700 45.26200 33.45500
H  6.90200 44.27800 32.14200
H  5.87400 45.18000 33.23700

