158

Mg -2.20800 35.30100 26.79800
C  -4.08600 33.39400 29.08900
C  -1.25300 37.30300 29.43300
C  -0.85500 37.24400 24.68100
C  -3.53200 33.29300 24.19000
N  -2.73300 35.35800 29.01500
C  -3.36800 34.44200 29.75700
C  -3.08500 34.57300 31.29100
C  -2.47000 36.00300 31.39300
C  -2.08700 36.21900 29.84300
C  -3.35500 37.10500 32.01000
C  -2.35000 33.28900 31.90600
C  -2.81900 32.71800 33.22200
H  -3.22100 33.72000 34.38300
N  -1.18500 36.98100 27.06400
C  -0.80100 37.66900 28.20100
C  0.01100 38.78000 27.94800
C  0.11900 38.80000 26.51700
C  -0.63100 37.64200 26.02400
C  0.72400 39.63200 28.95700
C  0.96700 39.72100 25.69400
O  1.03700 39.55700 24.47900
C  1.66100 40.96900 26.27700
N  -2.22200 35.30100 24.72400
C  -1.55400 36.21300 24.06500
C  -1.43600 35.97800 22.58600
C  -2.05700 34.53000 22.43900
C  -2.66000 34.33800 23.85500
C  -2.04700 37.04600 21.63200
C  -1.13100 33.38000 22.04200
C  -1.10800 33.30700 20.49500
N  -3.53400 33.57200 26.60300
C  -4.01900 32.95500 25.43900
C  -4.74500 31.81300 25.87400
C  -4.81400 31.88100 27.28000
C  -4.10700 33.05300 27.69900
C  -5.30500 30.80400 24.89600
C  -5.39200 31.26600 28.47500
O  -5.99300 30.22900 28.63500
C  -4.95500 32.22900 29.70400
C  -6.15700 32.68500 30.47700
O  -7.15400 33.22100 29.95700
O  -5.88500 32.45800 31.81000
C  -6.90200 32.68700 32.86000
H  -0.90800 37.97300 30.22400
H  -0.27800 37.79000 23.93200
H  -3.73400 32.52400 23.44200
H  -3.98400 34.50700 31.90400
H  -1.53800 35.93600 31.95400
H  -4.37900 36.80300 32.23100
H  -3.34900 37.94800 31.31800
H  -2.84200 37.29900 32.95200
H  -1.31700 33.58800 32.08200
H  -2.19800 32.49400 31.17600
H  -1.97900 32.10000 33.53900
H  -3.60800 31.97400 33.10800
H  1.80500 39.61600 28.81500
H  0.51800 39.36300 29.99300
H  0.37400 40.65900 28.85900
H  0.97100 41.51100 26.92300
H  2.15300 41.43700 25.42500
H  2.52400 40.58600 26.82200
H  -0.37900 36.00800 22.32100
H  -2.80700 34.58200 21.65000
H  -2.67800 37.76300 22.15800
H  -2.63900 36.52900 20.87700
H  -1.25800 37.68600 21.23500
H  -1.46200 32.43000 22.46000
H  -0.20300 33.67700 22.53100
H  -1.74800 32.44400 20.30600
H  -0.16600 32.93700 20.09200
H  -1.47300 34.13200 19.88400
H  -6.11000 31.25700 24.31700
H  -5.72100 29.96400 25.45200
H  -4.59000 30.28100 24.26200
H  -4.35200 31.57000 30.32900
H  -6.78600 33.66800 33.32300
H  -6.79400 31.95500 33.66000
H  -7.91900 32.66600 32.46600
Mg -4.83000 25.54700 25.85600
C  -3.54900 27.26700 28.72800
C  -6.57000 23.56100 27.94400
C  -5.59700 23.95100 23.20700
C  -2.77700 27.78400 23.90900
N  -4.98100 25.42400 27.99900
C  -4.47300 26.25600 29.01000
C  -4.98200 25.86100 30.39400
C  -5.53700 24.41800 30.03900
C  -5.79000 24.50900 28.59200
C  -4.48000 23.21600 30.36800
C  -6.10100 26.77000 30.81500
C  -6.79800 26.52400 32.20100
H  -6.13200 25.52700 33.16200
N  -5.93100 24.04200 25.59800
C  -6.66100 23.34400 26.55300
C  -7.51100 22.37400 25.91200
C  -7.17600 22.39400 24.54400
C  -6.15100 23.47300 24.40400
C  -8.43300 21.42600 26.74500
C  -7.78700 21.59700 23.35800
O  -7.34400 21.76800 22.22000
C  -9.02300 20.69000 23.51600
N  -4.32400 25.94600 23.75200
C  -4.71500 25.01900 22.91300
C  -4.28500 25.32900 21.45400
C  -3.30300 26.63700 21.71700
C  -3.51600 26.87000 23.19800
C  -3.52000 24.18200 20.79500
C  -3.59800 27.95500 20.94100
C  -2.59800 28.29800 19.86700
N  -3.48800 27.21100 26.24200
C  -2.76700 27.96000 25.28700
C  -1.91900 28.86100 25.99600
C  -2.21900 28.68100 27.39600
C  -3.20300 27.63900 27.46100
C  -1.00400 29.97900 25.49800
C  -1.96500 29.12100 28.75700
O  -1.12300 29.88700 29.20800
C  -2.95600 28.23900 29.63300
C  -2.14200 27.46500 30.62900
O  -1.17600 26.75400 30.40800
O  -2.56700 27.77200 31.83000
C  -1.91100 27.08600 32.96600
H  -6.96200 22.86900 28.69200
H  -5.73700 23.42100 22.26300
H  -2.12800 28.43000 23.31200
H  -4.20400 25.83200 31.15700
H  -6.53200 24.32700 30.47500
H  -3.58800 23.66300 30.80600
H  -4.32000 22.72000 29.41100
H  -4.83800 22.43300 31.03700
H  -6.87400 26.73300 30.04800
H  -5.79400 27.81600 30.83600
H  -7.83100 26.20400 32.06800
H  -6.85200 27.51400 32.65300
H  -8.34800 21.54000 27.82500
H  -8.29400 20.36500 26.53500
H  -9.46400 21.74200 26.58300
H  -9.19400 20.18900 22.56400
H  -9.81700 21.32700 23.90700
H  -8.71300 19.98700 24.28900
H  -5.10600 25.57500 20.78000
H  -2.28500 26.28400 21.55500
H  -3.94200 23.89400 19.83200
H  -3.38200 23.20100 21.24900
H  -2.48200 24.46300 20.62300
H  -3.57400 28.78300 21.64900
H  -4.63000 27.97400 20.59300
H  -1.74800 27.61700 19.81600
H  -2.09500 29.21200 20.18300
H  -3.03900 28.61700 18.92300
H  -0.66000 29.69400 24.50400
H  -0.08100 29.95400 26.07600
H  -1.48700 30.94100 25.66800
H  -3.66900 28.80700 30.23200
H  -2.32600 27.47300 33.89600
H  -0.82100 27.11400 32.95800
H  -2.25400 26.05600 32.87600

