158

Mg 35.56400 49.56500 26.71700
C  35.53100 47.05700 29.09900
C  34.69600 51.88600 29.13600
C  35.12000 51.73700 24.25000
C  36.13800 46.94800 24.36300
N  35.13100 49.46300 28.85500
C  35.24200 48.33800 29.59400
C  35.29300 48.69000 31.09300
C  34.58200 50.09100 31.16900
C  34.90300 50.55700 29.65500
C  33.04000 50.06300 31.36800
C  36.75500 48.62200 31.68200
C  36.89900 47.92900 33.07700
H  36.92100 48.91900 34.33900
N  35.15300 51.62600 26.70100
C  34.77200 52.38000 27.78800
C  34.55000 53.70500 27.28600
C  34.64100 53.73300 25.86500
C  34.98400 52.33100 25.51200
C  34.09300 54.79700 28.20700
C  34.51700 54.88100 24.85300
O  34.75500 54.66400 23.62100
C  34.03600 56.21000 25.26100
N  35.52100 49.39200 24.64400
C  35.30600 50.42900 23.83500
C  35.45500 49.99100 22.35900
C  35.79300 48.48000 22.35700
C  35.85700 48.27100 23.88900
C  34.24200 50.42400 21.39900
C  37.00600 47.95600 21.54300
C  36.81000 46.72900 20.68000
N  35.80300 47.46000 26.67300
C  36.06100 46.53100 25.66900
C  36.11900 45.14900 26.20800
C  35.93600 45.36300 27.56500
C  35.69600 46.73400 27.77700
C  36.45000 43.87400 25.42700
C  35.83700 44.66100 28.74400
O  35.93100 43.45300 28.91100
C  35.60600 45.75500 29.86100
C  34.43800 45.40900 30.63100
O  33.26100 45.57000 30.35600
O  34.82300 44.94000 31.82900
C  34.01400 45.00100 33.00400
H  34.35500 52.50000 29.97100
H  34.90600 52.35000 23.37200
H  36.35500 46.25000 23.55100
H  34.59700 48.03000 31.61000
H  35.14600 50.84000 31.72600
H  32.61500 50.90900 30.82900
H  32.69000 50.26400 32.38000
H  32.60500 49.15500 30.94800
H  37.07200 49.64500 31.88500
H  37.44300 48.14900 30.98100
H  37.81300 47.33500 33.11100
H  36.07600 47.23800 33.25800
H  34.60900 55.74200 28.03800
H  34.20300 54.56400 29.26600
H  33.00700 54.81800 28.11700
H  33.84600 56.78600 24.35500
H  34.79200 56.83400 25.73800
H  33.19300 56.12000 25.94600
H  36.22200 50.58900 21.86600
H  34.88900 47.92300 22.11000
H  34.64200 51.08200 20.62700
H  33.50500 51.04400 21.91100
H  33.70100 49.57700 20.97800
H  37.70300 47.70800 22.34400
H  37.31900 48.83100 20.97400
H  37.11000 46.92300 19.65000
H  35.80400 46.31100 20.68600
H  37.47000 46.00900 21.16500
H  37.39500 43.50500 25.82600
H  36.59100 44.21600 24.40200
H  35.61500 43.17300 25.43600
H  36.44000 45.80300 30.56200
H  33.13500 45.61500 32.80600
H  34.49900 45.48100 33.85400
H  33.65000 44.04300 33.37700
Mg -11.12000 17.14700 41.04600
C  -7.65800 16.69000 40.71800
C  -10.57300 20.46800 39.94900
C  -14.37600 17.63200 40.49700
C  -11.46800 13.68500 41.09400
N  -9.26800 18.38500 40.40000
C  -7.99900 17.99200 40.45800
C  -6.97400 19.14600 40.28700
C  -7.99700 20.40000 40.45500
C  -9.35900 19.76500 40.20100
C  -7.89800 21.23800 41.73200
C  -6.37000 19.22400 38.90400
C  -4.88600 18.89000 38.83200
H  -4.37300 18.06800 37.71300
N  -12.32200 18.86900 40.53600
C  -11.90200 20.03800 39.95200
C  -13.00800 20.84700 39.56400
C  -14.16700 20.14200 40.03600
C  -13.66600 18.80300 40.42300
C  -13.00700 22.28600 39.05000
C  -15.63300 20.60700 39.81200
O  -15.93600 21.66900 39.23400
C  -16.77200 19.81200 40.26400
N  -12.64600 15.78500 40.77000
C  -13.93100 16.29700 40.73300
C  -14.97700 15.18400 40.65700
C  -14.01200 13.85600 40.82600
C  -12.64200 14.43300 40.93400
C  -16.05400 15.31400 41.73800
C  -14.05500 12.74300 39.64200
C  -14.72200 11.41700 39.98800
N  -9.89500 15.39800 41.03200
C  -10.17800 14.08300 41.24300
C  -8.90200 13.38900 41.39800
C  -7.83900 14.31200 41.19500
C  -8.54800 15.60200 40.94300
C  -8.67400 11.97700 41.72100
C  -6.41500 14.54600 41.15400
O  -5.50300 13.74300 41.29100
C  -6.26900 16.09000 40.94800
C  -5.52600 16.54400 42.03500
O  -4.42900 17.13600 41.91000
O  -6.14000 16.39900 43.21000
C  -5.46200 16.88600 44.40900
H  -10.40900 21.52900 39.75200
H  -15.41400 17.67500 40.16000
H  -11.56400 12.60100 41.18500
H  -6.32200 19.09800 41.15800
H  -7.75800 21.08600 39.64300
H  -7.08700 20.87200 42.36200
H  -8.83800 21.11500 42.27100
H  -7.82000 22.29200 41.46800
H  -6.51500 20.17200 38.38700
H  -6.89800 18.48600 38.30000
H  -4.63200 18.49700 39.81600
H  -4.31700 19.81400 38.72800
H  -13.83800 22.26800 38.34600
H  -12.03700 22.37300 38.56000
H  -13.23100 22.97600 39.86300
H  -17.09500 19.11900 39.48700
H  -17.57500 20.52400 40.45300
H  -16.65000 19.29600 41.21600
H  -15.44700 15.12700 39.67500
H  -14.34400 13.28200 41.69100
H  -16.91000 15.31100 41.06200
H  -16.12100 16.23500 42.31700
H  -16.29100 14.55100 42.48000
H  -13.09300 12.47600 39.20500
H  -14.66600 13.19500 38.86000
H  -15.56600 11.37500 39.29900
H  -15.10400 11.34100 41.00600
H  -14.13400 10.54900 39.69300
H  -8.62000 11.79100 42.79400
H  -7.80600 11.53800 41.22900
H  -9.59400 11.46100 41.44500
H  -5.61500 16.34300 40.11300
H  -5.90600 17.84400 44.68000
H  -4.38200 17.03200 44.38300
H  -5.68300 16.16000 45.19100

