158

Mg 6.89000 53.22600 41.58000
C  6.56200 49.78300 41.46300
C  10.00100 52.85500 40.22700
C  7.06900 56.58300 41.48100
C  3.52700 53.49800 42.62800
N  8.05600 51.53500 40.72900
C  7.71700 50.20100 40.78900
C  8.80800 49.26000 40.33300
C  10.03200 50.31200 40.22000
C  9.29600 51.64600 40.33000
C  11.16500 50.29800 41.25400
C  8.62600 48.64400 38.91600
C  7.87600 49.45800 37.84500
H  8.71700 49.78500 36.61500
N  8.42200 54.60400 40.98200
C  9.58800 54.21300 40.39200
C  10.33700 55.46300 40.07100
C  9.58000 56.57800 40.48100
C  8.30000 55.96600 40.99300
C  11.84100 55.43700 39.53400
C  9.93000 58.02500 40.31500
O  11.03900 58.46900 39.94700
C  8.94900 59.01900 40.60700
N  5.44800 54.88600 41.77300
C  5.78600 56.12100 41.84900
C  4.70300 57.14400 42.34000
C  3.60900 56.05700 42.65800
C  4.18100 54.69200 42.34100
C  5.04800 58.04400 43.60200
C  2.22600 56.29800 41.97400
C  1.85700 55.72100 40.65600
N  5.24200 51.99800 41.88100
C  4.02300 52.18700 42.48500
C  3.42800 50.95000 42.83500
C  4.42600 49.96700 42.53900
C  5.48400 50.64000 41.89400
C  2.04300 50.66400 43.39200
C  4.69200 48.47100 42.48000
O  4.03700 47.48900 42.83700
C  6.08900 48.35600 41.70300
C  5.71100 47.57900 40.42800
O  5.02200 48.01400 39.52100
O  6.07000 46.22100 40.48500
C  5.76800 45.37800 39.34700
H  11.05700 52.82000 39.95200
H  7.12900 57.67300 41.45400
H  2.54000 53.55600 43.09200
H  8.92300 48.52500 41.13000
H  10.50900 50.29000 39.24000
H  10.95700 50.91700 42.12700
H  12.09200 50.69500 40.83900
H  11.33800 49.27800 41.59800
H  8.06100 47.72000 39.03500
H  9.53500 48.18500 38.52700
H  7.59900 50.42500 38.26600
H  7.02200 48.80700 37.65900
H  11.94100 56.17300 38.73600
H  12.06100 54.47800 39.06500
H  12.57300 55.58500 40.32800
H  9.33600 60.02300 40.43400
H  8.78800 58.89500 41.67800
H  8.06200 59.01900 39.97400
H  4.37500 57.70000 41.46200
H  3.46200 56.19400 43.72900
H  4.51900 57.81100 44.52600
H  4.87000 59.10200 43.41300
H  6.13600 58.05100 43.67600
H  2.01600 57.35500 41.81300
H  1.45400 55.97000 42.67000
H  2.66000 55.11500 40.23700
H  1.67100 56.55600 39.98100
H  0.87200 55.25800 40.70100
H  2.20500 49.95100 44.20000
H  1.36200 50.40700 42.58100
H  1.68100 51.59200 43.83500
H  6.80700 47.73600 42.24100
H  6.54000 45.51900 38.59000
H  4.80500 45.59300 38.88400
H  5.72700 44.36900 39.75800
Mg 16.81700 52.08500 25.99800
C  18.42200 50.48400 28.70100
C  14.71100 53.37000 28.25400
C  15.36800 53.38500 23.45100
C  19.16900 50.31900 23.84200
N  16.51000 51.86100 28.30300
C  17.29600 51.18000 29.17600
C  16.82000 51.41900 30.67400
C  15.50400 52.25700 30.38300
C  15.56300 52.55900 28.92500
C  14.09800 51.71300 30.80200
C  17.87600 52.29500 31.37000
C  18.28500 51.82700 32.88200
H  17.61200 52.56800 33.95800
N  15.17600 53.21100 25.80500
C  14.50900 53.72500 26.87400
C  13.42800 54.55500 26.39900
C  13.64600 54.67200 25.00100
C  14.73200 53.73600 24.66100
C  12.47000 55.34300 27.19700
C  12.84800 55.38500 23.91500
O  13.14500 55.39200 22.71100
C  11.55000 56.21800 24.24500
N  17.07100 51.70200 23.92100
C  16.40000 52.47300 23.07800
C  16.90500 52.34200 21.64300
C  18.21200 51.46800 21.79000
C  18.17100 51.13200 23.26400
C  15.88500 52.10100 20.47600
C  19.55300 52.28600 21.42200
C  19.84000 53.62600 22.08300
N  18.48200 50.69300 26.16300
C  19.34300 50.11900 25.20000
C  20.41900 49.47300 25.88700
C  20.12300 49.52700 27.23500
C  18.92000 50.22100 27.34400
C  21.56100 48.89300 25.12500
C  20.55800 49.25000 28.61600
O  21.49300 48.65300 29.01700
C  19.43500 49.85900 29.62100
C  18.82000 48.90700 30.51800
O  17.92300 48.13600 30.23000
O  19.53300 48.97800 31.65400
C  19.14900 48.12100 32.77700
H  13.99300 53.87500 28.90200
H  14.97900 53.74300 22.49600
H  19.92700 49.87800 23.19100
H  16.59000 50.51700 31.24100
H  15.49500 53.26700 30.79300
H  13.78800 51.17100 29.90800
H  13.43300 52.51300 31.12800
H  14.23100 51.03100 31.64200
H  17.41200 53.24000 31.65500
H  18.79000 52.54400 30.83300
H  19.34700 52.02200 33.02700
H  18.12400 50.75100 32.95700
H  11.45700 54.94000 27.19600
H  12.56100 56.35300 26.79700
H  12.79900 55.33400 28.23600
H  10.89400 55.60900 24.86700
H  11.21800 56.52300 23.25200
H  11.70400 57.07400 24.90200
H  17.23100 53.33300 21.32600
H  18.13000 50.55500 21.20000
H  15.76100 52.96600 19.82500
H  14.90800 52.00000 20.94900
H  16.03900 51.17700 19.91800
H  19.64300 52.28100 20.33600
H  20.38700 51.63800 21.69100
H  20.22700 54.28100 21.30200
H  20.49100 53.43700 22.93600
H  18.91500 54.01600 22.50700
H  21.21400 48.17600 24.38100
H  22.21800 48.40400 25.84400
H  22.05100 49.71400 24.60100
H  19.80200 50.67600 30.24300
H  18.26600 47.49700 32.64100
H  18.93000 48.64000 33.71100
H  19.97400 47.48200 33.09100

