158

Mg 16.12700 -1.90300 28.28100
C  15.37600 0.09000 30.96500
C  18.23500 -3.73000 30.29300
C  16.96900 -3.76100 25.53400
C  14.04800 0.12400 26.23500
N  16.79200 -1.79000 30.36800
C  16.31700 -0.93100 31.27700
C  16.84600 -1.18400 32.63700
C  18.03700 -2.27100 32.35800
C  17.67600 -2.66200 30.93400
C  19.46300 -1.77900 32.45500
C  15.85300 -1.71900 33.72600
C  16.18600 -1.25700 35.20000
H  17.60300 -0.70300 35.53000
N  17.42000 -3.51900 27.96500
C  18.15700 -4.17300 28.93400
C  18.71900 -5.36800 28.32500
C  18.40900 -5.36400 26.89400
C  17.51300 -4.16000 26.74700
C  19.50600 -6.37800 29.13100
C  18.88000 -6.20900 25.75000
O  18.60500 -6.13200 24.58600
C  19.82200 -7.29600 26.06000
N  15.72300 -1.71400 26.17200
C  16.16700 -2.67800 25.23100
C  15.77500 -2.19100 23.81500
C  14.54400 -1.21200 24.18000
C  14.71300 -0.91900 25.59800
C  16.86800 -1.44600 23.05400
C  13.13000 -1.69900 23.69700
C  12.18300 -2.56400 24.49500
N  14.89100 -0.25400 28.51500
C  14.14400 0.52500 27.58900
C  13.48800 1.56300 28.33700
C  13.92500 1.44900 29.64400
C  14.81200 0.33100 29.73800
C  12.58000 2.59800 27.70100
C  13.81200 2.01900 30.97100
O  13.23300 2.99500 31.41200
C  14.75100 1.11400 31.86500
C  15.61000 2.06800 32.52400
O  16.62400 2.53100 32.00600
O  15.17900 2.28200 33.84400
C  15.96500 3.33700 34.53300
H  18.91100 -4.41400 30.81000
H  17.13800 -4.41400 24.67500
H  13.33000 0.71800 25.66500
H  17.25600 -0.20400 32.88100
H  18.01700 -3.15300 32.99800
H  19.40200 -0.82300 32.97400
H  19.88800 -1.61300 31.46600
H  20.09700 -2.46300 33.02100
H  15.66500 -2.79100 33.66400
H  14.87900 -1.28500 33.49900
H  15.85900 -2.15200 35.72800
H  15.52400 -0.46800 35.55600
H  19.40600 -7.38800 28.73400
H  19.08700 -6.49300 30.13000
H  20.53100 -6.03200 29.26300
H  20.57900 -6.83200 26.69300
H  20.27900 -7.71200 25.16200
H  19.36400 -8.14400 26.57000
H  15.37500 -3.03700 23.25600
H  14.67700 -0.27200 23.64300
H  16.53900 -0.56100 22.50900
H  17.27200 -2.21000 22.39100
H  17.64900 -1.07600 23.71800
H  13.25400 -2.30000 22.79700
H  12.63800 -0.76000 23.44200
H  11.25200 -2.01800 24.64500
H  12.53800 -2.66100 25.52100
H  12.11800 -3.57400 24.09000
H  12.37600 3.41400 28.39300
H  11.66800 2.09700 27.37500
H  13.29200 2.85600 26.91700
H  14.15400 0.61200 32.62700
H  16.96800 3.67500 34.27100
H  16.02900 3.09800 35.59400
H  15.23700 4.14300 34.44200
Mg 47.83900 25.33400 28.00700
C  48.68600 27.58000 30.47900
C  46.52200 23.23400 30.65500
C  47.45900 22.81600 25.85000
C  49.47500 27.26400 25.71400
N  47.48400 25.53700 30.29500
C  47.89500 26.52500 31.09600
C  47.73400 26.30800 32.59100
C  47.14000 24.85200 32.57200
C  47.02500 24.51300 31.08600
C  47.80900 23.82800 33.58600
C  46.90400 27.49800 33.24800
C  46.00000 27.10200 34.42600
H  45.64800 28.17100 35.44400
N  47.11300 23.34300 28.19600
C  46.56200 22.67700 29.33700
C  46.01800 21.33400 28.97500
C  46.21700 21.27300 27.55500
C  46.94900 22.46500 27.11200
C  45.32100 20.26500 29.84400
C  45.79700 20.19300 26.62200
O  46.28400 20.17700 25.47500
C  44.95400 19.09100 26.98000
N  48.39600 25.10400 26.02600
C  48.16800 23.97200 25.37000
C  48.59000 24.22000 23.86900
C  48.84700 25.79600 23.80800
C  48.83200 26.14100 25.26100
C  49.83500 23.40300 23.36900
C  47.84600 26.63500 23.01000
C  48.49300 27.88900 22.32700
N  48.82800 27.04100 28.02900
C  49.49300 27.71900 27.02200
C  50.23600 28.84300 27.52100
C  49.89800 28.88600 28.86700
C  48.98600 27.75700 29.13400
C  51.02600 29.79800 26.73300
C  50.08800 29.65700 30.08600
O  50.65000 30.71800 30.29200
C  49.25400 28.83000 31.13500
C  50.22000 28.38700 32.18400
O  51.19700 27.70000 32.00600
O  49.94800 28.96600 33.41000
C  50.76500 28.59700 34.60100
H  46.26500 22.52600 31.44600
H  47.38900 22.06100 25.06500
H  49.96600 27.89100 24.96600
H  48.71100 26.24500 33.07000
H  46.08900 24.93800 32.85100
H  46.98800 23.61100 34.27000
H  48.57500 24.16600 34.28400
H  48.31500 22.97000 33.14200
H  46.27300 27.85600 32.43500
H  47.63200 28.29000 33.42400
H  46.48000 26.23200 34.87300
H  45.07100 26.66500 34.05900
H  45.85600 19.32100 29.94400
H  44.29200 20.16300 29.50000
H  45.18000 20.72200 30.82300
H  44.61300 18.53300 26.10900
H  44.05300 19.39400 27.51400
H  45.49200 18.32000 27.53000
H  47.78500 23.80800 23.26000
H  49.87500 25.99700 23.50700
H  50.66700 23.57500 24.05100
H  50.20400 23.76300 22.40900
H  49.64600 22.35000 23.15800
H  47.00300 26.97500 23.61000
H  47.50100 25.96700 22.22000
H  47.78000 28.70600 22.43500
H  48.77100 27.69100 21.29200
H  49.44700 28.22800 22.72900
H  50.42500 30.43300 26.08300
H  51.82400 29.21400 26.27500
H  51.46800 30.47500 27.46400
H  48.52500 29.47000 31.63100
H  50.12300 27.91200 35.15400
H  50.90900 29.44600 35.26900
H  51.70500 28.07000 34.43700

