158

Mg 40.35000 9.53300 29.63800
C  42.66400 10.57200 32.14400
C  38.17300 8.59000 32.06600
C  38.26700 8.47600 27.19000
C  42.92900 9.88000 27.28900
N  40.48500 9.43600 31.79300
C  41.44100 10.12500 32.63900
C  40.92400 10.14600 34.11700
C  39.63300 9.16500 34.11700
C  39.43000 9.06100 32.56400
C  39.77100 7.83900 34.88700
C  40.77300 11.61300 34.70600
C  40.00800 11.74200 36.03600
H  40.34700 12.79100 37.09100
N  38.51400 8.49200 29.64200
C  37.77800 8.22000 30.73600
C  36.58100 7.57800 30.34900
C  36.67900 7.37500 28.93500
C  37.84600 8.15900 28.49200
C  35.41300 7.14900 31.29700
C  35.82800 6.61400 28.03900
O  36.15000 6.41600 26.88700
C  34.64200 5.99100 28.62000
N  40.57700 9.17600 27.53400
C  39.55000 8.90600 26.75500
C  39.94600 8.96400 25.24600
C  41.51300 9.10700 25.29200
C  41.71800 9.34900 26.78400
C  39.56900 7.67400 24.37300
C  42.05800 10.20400 24.34800
C  42.11000 11.68800 24.85900
N  42.31600 10.22000 29.61000
C  43.24300 10.35500 28.61300
C  44.43600 10.97100 29.09700
C  44.16900 11.11700 30.46900
C  42.91400 10.64200 30.76700
C  45.60200 11.38200 28.30000
C  44.77200 11.69800 31.61100
O  45.87200 12.28600 31.77600
C  43.78500 11.36400 32.76600
C  44.49700 10.53000 33.76700
O  44.72500 9.34900 33.76200
O  44.78000 11.37200 34.80200
C  45.36100 10.73600 35.99600
H  37.43800 8.36100 32.84100
H  37.57700 8.22700 26.38100
H  43.73000 9.86900 26.54700
H  41.63000 9.73300 34.83800
H  38.87500 9.80600 34.56800
H  40.80800 7.56500 35.08100
H  39.27800 7.11600 34.23700
H  39.17100 7.76800 35.79400
H  40.29800 12.23500 33.94700
H  41.70300 12.14100 34.91800
H  39.93100 10.80400 36.58700
H  38.96800 11.96900 35.80300
H  35.66800 7.75300 32.16800
H  35.48900 6.09300 31.55900
H  34.38500 7.42500 31.06600
H  34.86700 5.43500 29.53000
H  34.20700 5.28200 27.91500
H  33.84400 6.67900 28.90000
H  39.45700 9.72700 24.64100
H  42.02800 8.18200 25.03200
H  39.54700 6.78800 25.00700
H  40.30700 7.48600 23.59400
H  38.60700 7.96200 23.94900
H  41.68400 10.21000 23.32400
H  43.13400 10.03200 24.37200
H  41.26200 11.86800 25.51900
H  41.99200 12.33900 23.99300
H  43.05500 11.89100 25.36400
H  45.49000 12.30900 27.73800
H  46.09700 10.70200 27.60700
H  46.40300 11.59600 29.00900
H  43.41000 12.31500 33.14500
H  44.75700 9.88700 36.31500
H  45.61000 11.44400 36.78600
H  46.31900 10.26900 35.76900
Mg 49.20500 35.39400 27.23200
C  46.98400 34.01100 29.68200
C  49.59300 38.09800 29.35200
C  51.32400 36.51000 25.06800
C  48.06900 32.90000 25.06700
N  48.48500 35.95000 29.31200
C  47.60600 35.18500 30.11400
C  47.60900 35.78800 31.57400
C  48.09900 37.25500 31.27300
C  48.70300 37.13100 29.84400
C  47.03300 38.38800 31.33700
C  48.56600 34.98200 32.47300
C  49.71300 35.70600 33.20100
H  49.23400 36.76100 34.31900
N  50.37700 37.07000 27.20200
C  50.46300 38.08000 28.13900
C  51.42800 39.04800 27.76000
C  51.97300 38.57000 26.49700
C  51.18400 37.35500 26.15600
C  51.68300 40.40500 28.56500
C  53.05500 39.35900 25.61900
O  53.21700 39.04200 24.42500
C  53.82700 40.56400 26.16200
N  49.42900 34.95500 25.19200
C  50.47300 35.52400 24.58700
C  50.83000 34.77700 23.24400
C  49.67000 33.75300 23.14100
C  49.00400 33.84500 24.52600
C  50.86600 35.60300 21.94100
C  50.00500 32.38900 22.61400
C  49.10100 31.68900 21.53400
N  47.87100 33.80000 27.32100
C  47.53200 32.83400 26.40300
C  46.56800 31.92900 26.89000
C  46.29700 32.36600 28.15700
C  47.09300 33.50700 28.39500
C  46.11700 30.69900 26.18400
C  45.59100 32.03100 29.38800
O  44.76700 31.13300 29.50800
C  45.98100 33.02300 30.40900
C  46.48400 32.42400 31.66800
O  47.43800 31.63600 31.83100
O  45.58800 32.70300 32.70500
C  45.87300 32.23800 34.09500
H  49.71500 38.90300 30.07900
H  52.09500 36.67600 24.31300
H  47.83900 32.06600 24.40100
H  46.54300 35.71700 31.79000
H  48.87200 37.62900 31.94400
H  47.42500 39.18300 31.97000
H  46.10700 37.91500 31.66300
H  46.93000 38.83500 30.34800
H  48.81500 34.05000 31.96600
H  47.86700 34.79400 33.28800
H  50.31200 36.15500 32.40900
H  50.33800 34.92700 33.63900
H  52.66400 40.28700 29.02500
H  51.00200 40.44900 29.41500
H  51.57300 41.16800 27.79500
H  53.27600 41.45400 26.46600
H  54.79200 40.65100 25.66100
H  54.12200 40.13400 27.12000
H  51.74500 34.22600 23.46000
H  48.88700 34.24500 22.56300
H  50.23500 36.47800 22.10000
H  50.44200 35.10000 21.07100
H  51.91100 35.90400 21.87900
H  50.16100 31.84400 23.54600
H  50.95500 32.49500 22.09000
H  48.39700 32.49300 21.32100
H  48.65600 30.76600 21.90700
H  49.53700 31.40200 20.57600
H  45.51600 31.05000 25.34500
H  45.51900 30.02900 26.80200
H  46.93800 30.04100 25.90100
H  44.99100 33.45000 30.56400
H  44.95200 32.05300 34.64700
H  46.36300 33.09200 34.56300
H  46.47700 31.33300 34.16100

