158

Mg 6.26300 54.89400 39.56400
C  5.78000 51.38200 39.23600
C  9.63200 54.37900 39.34000
C  6.70000 58.28300 39.32200
C  2.76200 55.36700 39.29300
N  7.51500 53.07800 39.30100
C  7.13800 51.73800 39.25900
C  8.40500 50.88300 39.10400
C  9.59400 51.88100 39.43500
C  8.89300 53.22400 39.29300
C  10.34700 51.72600 40.75900
C  8.59300 50.26400 37.67100
C  8.40000 51.17900 36.51900
H  7.72400 50.53400 35.27000
N  7.97100 56.16100 39.34700
C  9.28500 55.71200 39.22000
C  10.15400 56.92200 39.09500
C  9.35000 58.03900 39.31100
C  7.90700 57.53400 39.35200
C  11.60300 56.78700 38.81000
C  9.84700 59.44500 39.45700
O  10.99500 59.69700 39.55200
C  8.92800 60.65300 39.47400
N  4.92100 56.58400 39.35100
C  5.34100 57.87300 39.36900
C  4.14800 58.89000 39.34900
C  2.90100 57.94800 39.24500
C  3.52700 56.53600 39.23300
C  3.87600 59.82100 40.55800
C  1.96000 58.19400 38.04600
C  0.36600 58.24300 38.31000
N  4.53400 53.69500 39.52600
C  3.22100 53.98000 39.41200
C  2.49700 52.73600 39.52200
C  3.41000 51.68500 39.49000
C  4.67600 52.32300 39.41700
C  1.04800 52.82600 39.61300
C  3.63500 50.20700 39.50300
O  2.91000 49.23400 39.61800
C  5.19800 50.01400 39.32000
C  5.56600 49.03900 38.24000
O  5.42700 49.27500 37.03100
O  6.10400 47.85200 38.71200
C  6.21800 46.78900 37.63900
H  10.72300 54.32000 39.33800
H  6.69000 59.36700 39.18700
H  1.71000 55.65900 39.33100
H  8.37200 50.10300 39.86400
H  10.32300 51.89000 38.62500
H  10.43000 52.56500 41.45000
H  11.36800 51.51800 40.44200
H  9.93200 50.85700 41.26900
H  8.16600 49.26200 37.65300
H  9.67500 50.13200 37.69700
H  9.40100 51.46500 36.19500
H  7.89800 52.13900 36.63500
H  11.73600 55.86200 38.24900
H  12.09500 56.69400 39.77900
H  11.94100 57.56500 38.12500
H  9.58900 61.49800 39.66800
H  8.13200 60.51400 40.20600
H  8.49700 60.68400 38.47300
H  4.07300 59.50300 38.45100
H  2.34500 57.86900 40.17900
H  4.63200 60.60600 40.54100
H  3.97900 59.27600 41.49600
H  2.89700 60.27800 40.41500
H  2.21200 57.37100 37.37700
H  2.24900 59.09500 37.50600
H  0.25700 58.23500 39.39500
H  -0.11600 57.35100 37.91000
H  -0.00000 59.17000 37.86900
H  0.62300 52.42000 38.69500
H  0.61500 53.82500 39.66200
H  0.79300 52.27200 40.51600
H  5.48900 49.66100 40.30900
H  6.95900 47.15400 36.92700
H  5.21900 46.72900 37.20800
H  6.43800 45.78900 38.01300
Mg -4.58400 25.30900 26.06900
C  -3.49400 26.54200 29.12100
C  -6.78300 23.25200 27.71600
C  -5.54800 24.23600 23.01100
C  -2.23600 27.34200 24.46900
N  -5.02300 24.85400 28.27100
C  -4.46900 25.53800 29.30900
C  -5.14700 25.08800 30.67100
C  -6.13300 23.95900 30.14900
C  -5.90800 23.90600 28.65100
C  -6.14600 22.63400 30.95800
C  -5.88600 26.23600 31.38900
C  -5.50100 26.35500 32.86000
H  -4.97700 25.18900 33.69900
N  -5.94400 23.91200 25.50800
C  -6.78800 23.26800 26.29800
C  -7.80600 22.62800 25.48700
C  -7.42500 22.82600 24.09600
C  -6.25400 23.68500 24.18200
C  -9.12200 21.96500 26.06700
C  -8.13700 22.30300 22.85900
O  -7.71800 22.55600 21.73100
C  -9.45100 21.65300 23.01900
N  -3.90400 25.68600 24.06100
C  -4.52500 25.14700 22.91900
C  -3.85800 25.44700 21.56100
C  -2.76600 26.51000 22.09400
C  -2.98800 26.57100 23.66800
C  -3.31300 24.16500 20.72000
C  -2.78000 27.86300 21.27100
C  -1.46000 28.43500 20.63700
N  -3.12800 26.68500 26.65900
C  -2.27000 27.37400 25.88600
C  -1.48700 28.21100 26.72200
C  -1.87000 27.92400 28.03600
C  -2.87000 26.95100 27.96300
C  -0.54200 29.29300 26.24600
C  -1.73500 28.29500 29.40200
O  -1.09500 29.18500 29.93500
C  -2.71500 27.31600 30.17700
C  -1.68800 26.58400 31.03200
O  -1.07500 25.67200 30.54900
O  -1.61200 27.10300 32.29800
C  -0.67400 26.33800 33.19700
H  -7.49400 22.58800 28.21100
H  -5.74400 23.79600 22.03100
H  -1.41200 27.86900 23.98200
H  -4.29000 24.72000 31.23500
H  -7.11800 24.33100 30.43100
H  -5.28400 22.52500 31.61600
H  -6.16000 21.76100 30.30500
H  -7.00800 22.39700 31.58000
H  -6.97600 26.21600 31.37000
H  -5.64300 27.17100 30.88600
H  -6.33300 26.75100 33.44100
H  -4.71400 27.10500 32.77700
H  -9.02200 20.88000 26.05000
H  -10.05600 22.28800 25.60600
H  -9.21800 22.25700 27.11300
H  -9.65100 21.29300 22.01000
H  -10.29000 22.28100 23.31800
H  -9.28600 20.78000 23.65100
H  -4.58800 26.03600 21.00700
H  -1.79200 26.04100 21.95500
H  -4.05200 23.65800 20.09800
H  -2.92700 23.35900 21.34400
H  -2.43100 24.50800 20.18000
H  -3.18100 28.58800 21.97900
H  -3.53400 27.91700 20.48500
H  -1.14700 29.34500 21.14900
H  -1.75000 28.67900 19.61500
H  -0.68900 27.66400 20.62500
H  -1.16400 30.18800 26.28100
H  -0.15900 29.14000 25.23700
H  0.27400 29.31300 26.96900
H  -3.26800 27.99600 30.82600
H  -0.58900 25.29000 32.90800
H  -1.07800 26.41200 34.20700
H  0.29700 26.81900 33.08000

