158

Mg 24.85200 -4.30100 45.71500
C  27.16600 -2.11200 44.17300
C  22.46000 -3.48400 43.26300
C  22.76900 -7.00900 46.60000
C  27.26100 -5.55900 47.83700
N  24.87900 -2.93100 43.86000
C  25.93400 -2.11000 43.47700
C  25.52900 -1.25700 42.32100
C  23.95100 -1.58500 42.14300
C  23.68700 -2.72800 43.14700
C  22.91900 -0.38500 42.37900
C  26.41000 -1.48500 41.02800
C  26.12400 -0.49600 39.85100
H  25.87900 -1.06500 38.45800
N  22.87800 -5.06900 45.10100
C  22.05500 -4.49900 44.16600
C  20.79000 -5.27600 44.07900
C  20.88900 -6.34100 44.98800
C  22.20100 -6.21900 45.60100
C  19.70900 -4.93400 43.15100
C  19.77600 -7.35700 45.20300
O  18.85600 -7.44900 44.41600
C  19.79000 -8.36800 46.30100
N  25.02700 -6.07600 46.93700
C  24.02100 -7.00100 47.17500
C  24.57300 -8.09700 48.11700
C  25.94200 -7.57900 48.65000
C  26.07900 -6.29800 47.80600
C  23.52200 -8.52200 49.15900
C  27.09500 -8.61600 48.62400
C  27.54200 -9.26500 49.99100
N  26.79800 -3.87000 46.06500
C  27.69300 -4.46300 46.95700
C  28.89200 -3.77900 46.80400
C  28.81800 -2.85500 45.72000
C  27.50400 -2.97900 45.29100
C  30.10000 -4.17400 47.66400
C  29.47900 -1.96200 44.85600
O  30.65200 -1.59800 44.72500
C  28.40100 -1.29000 43.93400
C  28.24600 0.10400 44.34000
O  27.75800 0.49100 45.42200
O  28.66400 0.92800 43.29200
C  28.70800 2.27600 43.62300
H  21.66600 -3.17500 42.58000
H  22.20600 -7.93600 46.73000
H  28.07400 -5.82600 48.51500
H  25.55700 -0.19300 42.55300
H  23.82800 -1.99900 41.14200
H  23.43400 0.50100 42.75100
H  22.16500 -0.67500 43.11100
H  22.40800 -0.02800 41.48500
H  26.35900 -2.54500 40.77700
H  27.41500 -1.19300 41.33200
H  26.98000 0.17700 39.80800
H  25.34400 0.17500 40.21200
H  19.87700 -5.55000 42.26800
H  19.64300 -3.87700 42.89200
H  18.72000 -5.10800 43.57400
H  20.40300 -9.23400 46.05000
H  18.77700 -8.74900 46.42500
H  20.00300 -7.93300 47.27800
H  24.80700 -8.94900 47.48000
H  25.72500 -7.12400 49.61600
H  23.87500 -8.31000 50.16900
H  23.43800 -9.60100 49.02700
H  22.52700 -8.09100 49.05300
H  27.93900 -8.04600 48.23700
H  26.86200 -9.44800 47.96000
H  26.95300 -8.81600 50.79100
H  28.58400 -9.00900 50.18200
H  27.40400 -10.34700 49.99300
H  30.35900 -5.23300 47.63600
H  30.01400 -3.78200 48.67700
H  30.85600 -3.66800 47.06400
H  28.74400 -1.38500 42.90400
H  28.10800 2.67000 44.44400
H  28.34600 2.77500 42.72400
H  29.75400 2.51500 43.81000
Mg 25.66000 1.51000 29.56000
C  27.53000 1.12000 32.39300
C  22.91000 1.79000 31.43300
C  23.82600 1.32500 26.56700
C  28.50100 0.82100 27.67500
N  25.28500 1.59700 31.65400
C  26.20600 1.42200 32.64200
C  25.63400 1.82400 34.06400
C  24.10200 1.89600 33.73900
C  24.05700 1.72700 32.19900
C  23.29800 0.83500 34.52300
C  26.27500 3.14900 34.58400
C  25.92300 3.50700 36.10300
H  27.02500 3.58200 37.12600
N  23.65800 1.66000 29.01500
C  22.72200 1.90500 29.97600
C  21.46500 2.03900 29.27700
C  21.73100 1.89300 27.87000
C  23.13900 1.70300 27.74400
C  20.18300 2.29900 29.93700
C  20.79700 2.07700 26.69800
O  21.10500 1.99300 25.51100
C  19.33000 2.20200 26.91400
N  26.03900 0.87400 27.41000
C  25.18800 1.09600 26.35400
C  25.88000 0.97000 24.96400
C  27.35900 0.98000 25.39700
C  27.30100 0.93200 26.94300
C  25.48200 -0.30200 24.07800
C  28.15200 2.15800 24.78900
C  28.11400 3.40700 25.72000
N  27.62300 0.99900 29.87400
C  28.65000 0.64400 29.02800
C  29.84500 0.57400 29.77300
C  29.40900 0.64600 31.12900
C  28.04900 0.90700 31.12600
C  31.27300 0.19500 29.24900
C  29.90200 0.66100 32.46600
O  31.04200 0.36100 32.85200
C  28.68000 0.99900 33.37600
C  28.48800 0.04800 34.46600
O  27.92500 -1.00400 34.36200
O  29.05500 0.44800 35.68000
C  28.97700 -0.52200 36.74600
H  22.02400 1.89900 32.06100
H  23.14700 1.25700 25.71500
H  29.48100 0.82100 27.19400
H  25.84800 0.99700 34.74100
H  23.80400 2.87600 34.11400
H  23.13200 1.19800 35.53800
H  23.95500 -0.03500 34.52300
H  22.32000 0.72700 34.05500
H  25.93700 3.98700 33.97400
H  27.35900 3.23100 34.51700
H  25.15300 2.81200 36.43900
H  25.38500 4.45400 36.07400
H  19.51200 1.48200 29.67300
H  19.72800 3.21900 29.57200
H  20.23000 2.35600 31.02500
H  19.40000 3.18800 27.37200
H  18.91200 1.42500 27.55400
H  18.83900 2.31000 25.94600
H  25.63800 1.81800 24.32300
H  27.81100 0.03200 25.10500
H  25.20800 -1.07200 24.80000
H  26.25400 -0.59200 23.36500
H  24.52400 -0.04500 23.62600
H  27.68600 2.59200 23.90300
H  29.21600 1.95900 24.66300
H  27.40900 3.40500 26.55100
H  27.96800 4.26100 25.05900
H  29.10600 3.58300 26.13500
H  32.04000 0.54300 29.94100
H  31.55200 0.59500 28.27300
H  31.31900 -0.88300 29.40100
H  28.85700 1.99200 33.78900
H  28.66100 -1.53800 36.51200
H  28.41700 -0.09900 37.58000
H  29.99300 -0.66500 37.11400

