158

Mg 41.03700 40.70400 26.64800
C  40.77000 43.13100 29.18700
C  42.59200 38.67200 28.82700
C  41.32400 38.62200 24.07700
C  40.32500 43.31300 24.32900
N  41.55500 40.80600 28.80400
C  41.17000 41.81600 29.68600
C  41.33200 41.48300 31.09700
C  41.97700 40.04700 30.96700
C  42.02100 39.76500 29.43400
C  43.16100 39.85300 31.90300
C  39.97300 41.53900 31.82300
C  39.86100 42.49100 32.98400
H  39.23300 41.96700 34.23600
N  42.02400 38.95800 26.44400
C  42.59000 38.23400 27.45100
C  42.90400 36.91800 26.99400
C  42.45100 36.86100 25.59800
C  41.94400 38.19200 25.28300
C  43.42100 35.89200 27.98600
C  42.53900 35.64200 24.54700
O  42.33400 35.77300 23.31300
C  42.91500 34.28000 25.06400
N  40.74400 40.98700 24.54200
C  40.88100 39.87900 23.68500
C  40.56600 40.19800 22.27900
C  40.64500 41.79700 22.33300
C  40.55300 42.07100 23.79800
C  41.38500 39.56600 21.16500
C  39.51600 42.58000 21.60700
C  39.84900 43.72100 20.64000
N  40.47900 42.75400 26.68700
C  40.25100 43.70700 25.65600
C  40.07300 45.02600 26.16800
C  40.18200 44.79000 27.62400
C  40.58400 43.42700 27.81000
C  39.70600 46.27200 25.47400
C  39.92000 45.40500 28.88900
O  39.61000 46.57300 29.12300
C  40.36000 44.38400 29.94400
C  41.36800 44.90900 30.78000
O  42.50400 45.05300 30.34200
O  40.87500 45.33700 31.99100
C  41.76300 46.01800 32.95300
H  42.95100 37.93000 29.54300
H  41.27100 37.88700 23.27100
H  40.22700 44.11500 23.59500
H  42.07300 42.12400 31.57300
H  41.30500 39.23700 31.25100
H  44.14000 39.87300 31.42400
H  42.95100 38.89500 32.38000
H  43.17200 40.48300 32.79200
H  39.76900 40.56200 32.26300
H  39.17800 41.89600 31.16900
H  39.22200 43.34400 32.75200
H  40.89200 42.77100 33.19800
H  44.31500 36.40500 28.33900
H  43.86800 35.05300 27.45200
H  42.78500 35.70200 28.85100
H  42.55100 33.41100 24.51500
H  42.37400 34.15400 26.00200
H  43.98800 34.17200 25.21900
H  39.53800 39.87700 22.10800
H  41.64700 42.12600 22.05900
H  42.13700 38.92100 21.62100
H  42.02100 40.28500 20.64800
H  40.81800 39.07200 20.37700
H  38.70900 42.83100 22.29500
H  39.03600 41.83700 20.97000
H  39.36000 43.57600 19.67700
H  40.88600 43.65100 20.31200
H  39.40400 44.59700 21.11100
H  40.51600 46.77800 24.94800
H  39.30300 46.95100 26.22400
H  38.91000 46.02600 24.77200
H  39.44100 44.26100 30.51700
H  41.35200 47.01500 33.11500
H  42.77300 45.98500 32.54300
H  41.81600 45.58300 33.95100
Mg 0.47700 44.25300 26.16700
C  3.03900 44.45600 28.70100
C  -1.72400 43.55500 28.67500
C  -1.81000 43.90400 23.71100
C  3.00800 44.79200 23.69600
N  0.66800 44.23100 28.42200
C  1.75300 44.40500 29.22900
C  1.33600 44.21400 30.66000
C  -0.14200 43.74100 30.67400
C  -0.44600 43.80400 29.15900
C  -0.37000 42.41400 31.37600
C  1.68500 45.57800 31.44600
C  1.49600 45.57300 32.94000
H  1.37900 44.25300 33.71700
N  -1.48900 43.75200 26.19600
C  -2.22100 43.55400 27.36200
C  -3.62700 43.50500 26.92300
C  -3.68400 43.49700 25.55600
C  -2.31600 43.73200 25.06800
C  -4.73500 43.34800 28.01200
C  -4.90300 43.48500 24.61800
O  -4.77300 43.60700 23.39300
C  -6.25600 43.34600 25.18200
N  0.54100 44.34000 24.03700
C  -0.48900 44.13400 23.25700
C  -0.10900 44.04300 21.78800
C  1.32000 44.66100 21.77700
C  1.68700 44.55900 23.26500
C  -0.26700 42.69900 21.07100
C  1.34600 46.04600 21.07100
C  2.49300 46.19300 20.14600
N  2.61900 44.50800 26.07300
C  3.49200 44.77100 25.04000
C  4.85300 44.94400 25.64700
C  4.68600 44.82500 27.00500
C  3.30700 44.54100 27.27100
C  6.06200 45.26100 24.90400
C  5.41000 44.83200 28.20000
O  6.62200 44.86300 28.47500
C  4.28800 44.70400 29.31300
C  4.73200 43.58700 30.25000
O  4.76500 42.40600 29.96400
O  5.06100 44.07500 31.57400
C  5.41400 43.04300 32.59900
H  -2.43800 43.40200 29.48700
H  -2.52500 43.61200 22.93900
H  3.77700 44.91200 22.93000
H  2.01300 43.46600 31.07200
H  -0.70900 44.48400 31.23500
H  0.62700 42.03600 31.60200
H  -0.80300 41.71300 30.66200
H  -0.99600 42.48100 32.26600
H  1.15600 46.42100 31.00200
H  2.74400 45.77600 31.28400
H  0.60500 46.16400 33.15300
H  2.36000 46.08800 33.36100
H  -5.48700 42.61200 27.72800
H  -5.25000 44.30800 27.98500
H  -4.49500 43.17500 29.06100
H  -6.25800 44.27000 25.76000
H  -6.42600 42.42100 25.73200
H  -7.01000 43.28800 24.39700
H  -0.81800 44.64400 21.21900
H  1.85300 43.93300 21.16500
H  -0.43900 41.87900 21.76800
H  0.60500 42.32200 20.53800
H  -0.98700 42.80400 20.25900
H  1.45300 46.73800 21.90700
H  0.43600 46.30500 20.53000
H  2.99600 47.14600 20.31100
H  2.16000 46.11100 19.11200
H  3.17800 45.35300 20.26300
H  5.77800 45.57600 23.90000
H  6.67500 44.37000 24.76500
H  6.72300 45.98500 25.38200
H  4.23900 45.63600 29.87700
H  5.96400 43.54100 33.39700
H  6.05100 42.28000 32.15100
H  4.57100 42.59600 33.12600

