158

Mg 17.44000 52.61000 26.25700
C  18.96300 51.34300 29.10400
C  14.85100 53.88000 28.18100
C  16.01500 53.54100 23.36500
C  19.92800 50.88900 24.42300
N  16.98700 52.55100 28.38700
C  17.77400 51.96900 29.40900
C  17.18800 52.38700 30.81500
C  15.79700 52.97500 30.40900
C  15.86900 53.18900 28.89600
C  14.60300 52.14500 30.79300
C  18.14500 53.44900 31.46900
C  18.31000 53.37400 32.99700
H  17.09200 53.04800 33.91800
N  15.72600 53.70400 25.81400
C  14.82300 54.14200 26.76600
C  13.91700 54.95900 26.09100
C  14.25300 54.96300 24.63200
C  15.36200 54.07500 24.54100
C  12.89500 55.72500 26.87400
C  13.53800 55.60300 23.49500
O  13.98300 55.51500 22.38200
C  12.41700 56.51500 23.76700
N  17.79400 52.12100 24.14400
C  17.12300 52.76000 23.17800
C  17.71400 52.51200 21.72600
C  19.18800 51.96000 22.21000
C  19.02100 51.63600 23.67500
C  16.91000 51.62400 20.78500
C  20.35400 53.01100 22.01900
C  21.64900 52.49000 21.44100
N  19.12400 51.36400 26.62300
C  19.94100 50.71000 25.77200
C  20.89000 49.91400 26.51600
C  20.52200 50.12900 27.83600
C  19.41800 50.99400 27.84700
C  22.02700 49.02900 26.05200
C  20.84300 49.82800 29.20000
O  21.72000 49.24100 29.84300
C  19.84300 50.66900 30.07400
C  19.21000 49.78600 31.03200
O  18.33500 49.01000 30.71400
O  19.79100 49.87600 32.31000
C  19.04200 49.14600 33.32100
H  13.99000 54.19100 28.77600
H  15.68500 53.91500 22.39400
H  20.68300 50.42900 23.78200
H  17.04800 51.51300 31.45100
H  15.57000 53.91700 30.90900
H  13.99800 52.74200 31.47500
H  14.95100 51.32900 31.42700
H  14.15800 51.77900 29.86800
H  17.73800 54.44100 31.27400
H  19.02500 53.60500 30.84500
H  18.76100 54.29400 33.37100
H  19.18500 52.73100 33.09900
H  12.12600 55.08200 27.30500
H  12.44200 56.53200 26.29900
H  13.36900 56.12500 27.77000
H  11.56900 56.03900 24.26100
H  12.12600 56.92600 22.80000
H  12.82600 57.31300 24.38700
H  17.83000 53.48800 21.25500
H  19.48900 51.08000 21.64100
H  15.98200 51.18000 21.14700
H  17.59300 50.82000 20.51000
H  16.62200 52.20100 19.90600
H  20.46500 53.56900 22.94800
H  19.93600 53.66700 21.25500
H  21.92200 53.17100 20.63500
H  21.42900 51.46900 21.12600
H  22.43500 52.60100 22.18800
H  22.69500 49.11800 26.90900
H  22.39300 49.38500 25.08900
H  21.72300 47.99100 25.91800
H  20.31100 51.41300 30.71900
H  17.96500 49.30200 33.37200
H  19.53300 49.30900 34.28000
H  19.22500 48.08400 33.15800
Mg -12.36900 16.57400 41.05300
C  -9.70600 14.27800 40.73100
C  -10.40900 18.96500 39.60400
C  -15.09300 18.41900 40.90900
C  -14.36600 13.91700 42.20800
N  -10.27200 16.61600 40.25600
C  -9.36100 15.55100 40.20800
C  -7.99700 16.03900 39.72800
C  -8.16300 17.54600 39.45000
C  -9.70900 17.77100 39.81300
C  -7.19700 18.48300 40.11100
C  -7.60700 15.21500 38.48400
C  -6.29600 14.39900 38.61500
H  -5.14200 14.92700 37.79400
N  -12.69000 18.46900 40.41300
C  -11.79600 19.32600 39.84100
C  -12.44100 20.61100 39.54300
C  -13.75200 20.54400 40.10600
C  -13.90300 19.08000 40.44700
C  -11.79200 21.72800 38.87400
C  -14.73800 21.67600 40.23400
O  -14.38300 22.79200 39.82700
C  -16.06700 21.61100 40.88100
N  -14.54500 16.19900 41.36500
C  -15.38900 17.16800 41.44600
C  -16.74900 16.78100 41.94400
C  -16.49600 15.31200 42.30400
C  -15.03300 15.11200 42.00400
C  -17.30000 17.68300 43.09000
C  -17.25200 14.26100 41.51700
C  -17.90300 13.19600 42.38800
N  -12.13000 14.48500 41.37700
C  -13.03000 13.58600 41.88600
C  -12.33300 12.34100 42.06900
C  -11.01900 12.52000 41.67700
C  -10.94900 13.86800 41.21100
C  -13.00800 11.06900 42.49000
C  -9.78900 11.90500 41.49500
O  -9.46200 10.74900 41.78100
C  -8.92100 12.92200 40.82900
C  -7.63300 13.01700 41.53300
O  -7.43700 13.60800 42.50500
O  -6.78200 12.16700 40.89500
C  -5.50300 11.98500 41.53200
H  -9.69800 19.73600 39.30300
H  -15.98200 19.04300 40.79900
H  -14.73500 13.18100 42.92600
H  -7.24000 15.95400 40.50700
H  -8.16100 17.76700 38.38300
H  -6.34400 17.86400 40.38800
H  -7.67600 18.95700 40.96700
H  -6.88100 19.21900 39.37100
H  -7.65900 15.72700 37.52300
H  -8.36900 14.44300 38.37800
H  -6.57600 13.39500 38.29600
H  -5.99600 14.29500 39.65800
H  -10.79500 21.45600 38.52900
H  -11.79600 22.66200 39.43500
H  -12.48100 21.85000 38.03800
H  -16.02500 20.94800 41.74500
H  -16.85400 21.15800 40.27700
H  -16.39200 22.61500 41.15300
H  -17.30400 16.85000 41.00900
H  -16.63100 15.17600 43.37700
H  -16.35200 18.08100 43.45000
H  -17.78800 17.13800 43.89900
H  -17.98300 18.43600 42.69400
H  -16.61600 13.79000 40.76800
H  -18.03800 14.69800 40.90000
H  -18.99300 13.15500 42.37900
H  -17.58700 13.16700 43.43100
H  -17.58500 12.25600 41.93700
H  -13.58200 11.28400 43.39200
H  -12.41500 10.19600 42.76100
H  -13.67300 10.77800 41.67600
H  -8.65900 12.52000 39.85100
H  -4.75500 12.71900 41.23000
H  -5.17800 11.01600 41.15600
H  -5.51200 11.84300 42.61200

