158

Mg 1.06600 -3.08600 44.18700
C  4.25000 -2.13900 43.30700
C  -0.23800 -0.65000 42.12600
C  -2.12300 -4.28200 44.77900
C  2.32200 -6.03800 45.60900
N  1.88400 -1.60900 42.78400
C  3.27800 -1.41300 42.60000
C  3.54000 -0.11100 41.65100
C  2.05200 0.33200 41.44400
C  1.14900 -0.66400 42.14000
C  1.70400 1.83700 41.72900
C  4.19300 -0.49900 40.25800
C  5.49800 0.31100 39.98100
H  5.91500 0.50200 38.51200
N  -0.95300 -2.51600 43.58700
C  -1.21900 -1.37800 42.87800
C  -2.66600 -1.26200 42.76500
C  -3.25100 -2.37100 43.38800
C  -2.08000 -3.08200 43.97900
C  -3.26100 -0.21600 41.85000
C  -4.76400 -2.62900 43.41000
O  -5.54800 -1.94000 42.85100
C  -5.25300 -3.77500 44.02300
N  0.22700 -5.09000 44.81600
C  -1.11600 -5.18600 45.23400
C  -1.39400 -6.48600 45.95900
C  0.05500 -7.13100 46.03500
C  0.97400 -5.96800 45.57100
C  -2.12300 -6.40200 47.33100
C  0.11200 -8.38600 45.25800
C  -0.59600 -9.62300 45.79600
N  2.87600 -3.85100 44.66100
C  3.26600 -5.11500 45.16400
C  4.71800 -5.13500 45.23000
C  5.06800 -3.99100 44.55400
C  3.93800 -3.28000 44.19900
C  5.56800 -6.15700 45.91700
C  6.24000 -3.28000 44.10800
O  7.43500 -3.57400 44.14000
C  5.76700 -2.01200 43.32300
C  6.27200 -0.70700 43.81900
O  6.84600 0.10200 43.11300
O  5.79500 -0.53300 45.07600
C  6.13700 0.81100 45.58300
H  -0.63600 0.17600 41.53200
H  -3.12000 -4.60000 45.09100
H  2.83300 -6.80100 46.20000
H  4.20800 0.57500 42.17300
H  1.85700 0.21500 40.37800
H  0.77700 1.81000 42.30000
H  1.51500 2.30900 40.76500
H  2.43900 2.35600 42.34500
H  3.51900 -0.49900 39.40200
H  4.44800 -1.53600 40.47300
H  6.28900 -0.36000 40.31600
H  5.48000 1.15100 40.67500
H  -4.24700 0.08100 42.20700
H  -3.33400 -0.33300 40.76900
H  -2.72100 0.71500 42.02600
H  -4.78800 -3.63200 44.99900
H  -4.89100 -4.69600 43.56600
H  -6.33700 -3.87200 44.07700
H  -2.06800 -7.05700 45.32000
H  0.31900 -7.28900 47.08100
H  -1.70600 -7.16500 47.98900
H  -3.15900 -6.63400 47.08500
H  -2.11800 -5.38200 47.71500
H  1.16800 -8.65800 45.27200
H  -0.27200 -8.21900 44.25100
H  -1.31900 -10.02600 45.08600
H  -1.15000 -9.51600 46.72800
H  0.21600 -10.33300 45.95400
H  5.30100 -6.40300 46.94500
H  6.58700 -5.77200 45.95800
H  5.71000 -7.01300 45.25800
H  6.13800 -2.19700 42.31500
H  5.89800 0.85700 46.64600
H  5.55000 1.56800 45.06300
H  7.20000 0.97200 45.40100
Mg 23.22200 -5.36200 44.58700
C  24.71600 -2.37700 43.45400
C  20.19600 -4.22000 43.33100
C  21.99200 -8.42600 44.96100
C  26.37100 -6.47800 45.67600
N  22.53100 -3.49800 43.47600
C  23.28400 -2.37700 43.11400
C  22.43100 -1.21900 42.60700
C  21.00000 -1.80300 42.81200
C  21.17100 -3.24300 43.27000
C  20.20200 -0.86700 43.77500
C  22.83000 -0.82300 41.16100
C  23.73700 0.41900 40.87900
H  24.74800 0.32300 39.69400
N  21.33500 -6.18400 44.24600
C  20.19000 -5.58600 43.66200
C  19.11000 -6.52500 43.59100
C  19.57200 -7.78100 44.07100
C  21.05400 -7.52700 44.45900
C  17.66700 -6.11000 43.05000
C  18.68100 -9.02800 44.23100
O  17.49500 -8.92500 44.04000
C  19.28800 -10.22700 44.83700
N  24.11100 -7.22000 45.26800
C  23.36300 -8.35600 45.35900
C  24.21100 -9.51300 45.96000
C  25.62200 -8.80000 46.20300
C  25.34300 -7.38700 45.69100
C  23.64300 -10.26700 47.20600
C  26.85600 -9.42700 45.50700
C  28.09600 -9.45800 46.47500
N  25.15100 -4.62900 44.63400
C  26.33000 -5.17800 45.07900
C  27.41800 -4.22800 44.94700
C  26.84000 -3.11400 44.33000
C  25.43000 -3.42000 44.13700
C  28.87600 -4.46200 45.17900
C  27.11000 -1.87800 43.71000
O  28.24200 -1.38400 43.47700
C  25.81500 -1.30800 43.23900
C  25.59600 0.04000 43.90200
O  24.99700 0.24000 44.94800
O  26.26400 1.02900 43.17400
C  26.25300 2.41500 43.60300
H  19.23500 -3.84000 42.97900
H  21.61100 -9.41900 45.21000
H  27.35400 -6.83800 45.98900
H  22.60200 -0.32500 43.20700
H  20.37900 -1.89100 41.92000
H  20.80600 -0.00700 44.06200
H  20.15500 -1.51800 44.64900
H  19.20600 -0.51600 43.50500
H  21.90600 -0.48800 40.68800
H  23.24600 -1.66300 40.60400
H  24.27200 0.66500 41.79600
H  23.04300 1.24700 40.73700
H  17.29100 -6.87400 42.37000
H  17.71600 -5.20600 42.44400
H  16.93300 -6.00100 43.84700
H  18.51300 -10.99000 44.90200
H  19.77100 -10.08800 45.80400
H  20.05400 -10.63300 44.17500
H  24.39900 -10.27500 45.20400
H  25.72900 -8.58900 47.26700
H  24.21100 -9.98800 48.09400
H  23.54400 -11.33200 46.99700
H  22.63000 -9.93300 47.43000
H  27.09100 -8.72100 44.71100
H  26.63400 -10.35400 44.98000
H  28.75700 -10.26600 46.16400
H  27.93300 -9.58800 47.54500
H  28.69100 -8.58300 46.21400
H  29.16900 -5.13600 44.37500
H  29.09100 -5.00000 46.10300
H  29.39200 -3.52600 44.96700
H  25.75500 -1.06000 42.18000
H  25.59400 2.64400 44.44100
H  26.07900 3.07100 42.75000
H  27.29100 2.67300 43.81000

