158

Mg 24.74500 -7.80600 46.18700
C  27.55300 -5.63100 45.62200
C  23.02100 -5.86500 44.04800
C  22.66400 -10.33600 45.85800
C  27.01900 -9.87800 47.97300
N  25.23700 -5.94500 45.06800
C  26.39800 -5.26600 44.94300
C  26.21700 -4.05800 44.03400
C  24.68500 -3.82900 44.17800
C  24.24700 -5.29800 44.39300
C  24.14500 -2.80300 45.22600
C  26.75500 -4.24100 42.61000
C  26.98400 -3.01200 41.66800
H  26.09100 -2.97800 40.45500
N  22.94600 -8.06200 45.19800
C  22.42500 -7.13700 44.35700
C  21.13200 -7.60800 43.99600
C  20.94400 -8.96000 44.53000
C  22.24500 -9.20800 45.19300
C  20.12900 -6.72800 43.23200
C  19.74300 -9.84400 44.45300
O  18.70500 -9.49200 43.87300
C  19.75500 -11.23400 45.05900
N  24.94000 -9.78700 46.80000
C  23.83300 -10.59800 46.59100
C  23.98500 -11.99700 47.30200
C  25.33300 -11.83300 48.13400
C  25.77500 -10.40300 47.64600
C  22.67300 -12.49000 48.11600
C  26.47200 -12.94000 47.90700
C  27.41100 -13.28100 49.06700
N  26.85800 -7.72300 46.91300
C  27.54600 -8.62700 47.59600
C  28.91200 -8.10100 47.80600
C  28.95300 -6.86400 47.05500
C  27.72600 -6.73800 46.50200
C  30.04100 -8.76100 48.48100
C  29.82300 -5.78200 46.56700
O  30.98400 -5.58100 46.90100
C  28.92100 -5.00100 45.46300
C  29.00500 -3.55700 45.70200
O  28.37400 -2.91000 46.51800
O  29.77000 -3.07300 44.68500
C  29.35900 -1.75500 44.21900
H  22.41300 -5.18500 43.44700
H  22.06300 -11.24600 45.80100
H  27.64700 -10.49800 48.61700
H  26.65900 -3.18100 44.50700
H  24.34500 -3.36500 43.25200
H  24.94200 -2.40900 45.85600
H  23.53600 -3.40100 45.90400
H  23.49900 -2.04900 44.77700
H  26.02400 -4.89800 42.13900
H  27.73200 -4.72400 42.61400
H  27.99500 -3.18000 41.29800
H  26.99700 -1.98400 42.03200
H  20.23400 -5.70200 43.58400
H  19.11100 -7.11200 43.30200
H  20.36500 -6.58800 42.17700
H  19.91700 -11.22900 46.13700
H  20.58400 -11.65000 44.48800
H  18.82300 -11.76600 44.86700
H  24.12800 -12.71900 46.49800
H  25.03500 -11.75600 49.18000
H  21.79000 -11.88400 47.90900
H  22.77200 -12.50100 49.20100
H  22.40000 -13.46100 47.70300
H  26.98900 -12.79100 46.96000
H  25.86400 -13.84000 47.81400
H  26.97800 -14.00900 49.75200
H  27.68500 -12.47500 49.74700
H  28.30100 -13.77500 48.67500
H  30.53900 -7.94300 49.00000
H  30.75200 -9.12400 47.74000
H  29.63800 -9.61800 49.02100
H  29.22900 -5.24400 44.44600
H  28.37400 -1.46800 44.58700
H  29.22500 -1.79900 43.13800
H  30.12900 -1.07100 44.57800
Mg -10.26900 39.96100 42.12600
C  -9.95800 36.61000 41.15300
C  -7.48100 40.62000 40.49400
C  -11.11700 43.23400 42.36500
C  -13.41800 39.24400 43.52000
N  -8.89600 38.76900 40.98200
C  -8.95600 37.43900 40.73600
C  -7.80300 36.93200 39.84800
C  -6.91600 38.21600 39.72400
C  -7.72900 39.26200 40.51400
C  -5.45000 38.10500 40.19300
C  -8.19300 36.28000 38.41600
C  -7.20000 35.19700 37.90800
H  -6.18900 35.57600 36.82700
N  -9.40800 41.67300 41.58700
C  -8.16200 41.71300 40.97100
C  -7.75500 43.14300 40.85500
C  -8.81400 43.91400 41.38000
C  -9.88300 42.98900 41.82400
C  -6.48200 43.60200 40.13000
C  -8.78400 45.40600 41.36500
O  -7.75700 46.04500 41.04300
C  -10.08300 46.24900 41.51900
N  -12.10100 41.08100 42.64900
C  -12.23100 42.38200 42.75600
C  -13.53700 42.88400 43.43300
C  -14.24900 41.57900 43.86800
C  -13.16300 40.59300 43.31200
C  -13.34200 44.11100 44.39900
C  -15.65300 41.20500 43.37600
C  -16.67900 40.82500 44.48000
N  -11.47700 38.25900 42.30700
C  -12.70000 38.12400 42.98200
C  -13.07500 36.67500 42.87700
C  -11.96900 36.03000 42.26300
C  -11.11800 37.04000 41.86000
C  -14.23900 36.04700 43.50500
C  -11.31800 34.71800 41.90000
O  -11.74800 33.58800 42.14700
C  -10.05900 35.10200 41.09700
C  -8.83400 34.48200 41.62100
O  -8.40000 34.54300 42.71500
O  -8.36200 33.62800 40.68000
C  -7.23800 32.70600 40.85000
H  -6.57100 40.80200 39.91700
H  -11.40800 44.28400 42.43800
H  -14.29700 38.99200 44.11800
H  -7.29500 36.17100 40.44100
H  -7.09500 38.54700 38.70000
H  -5.01000 37.14000 39.94200
H  -5.30800 38.15700 41.27200
H  -4.73300 38.78300 39.73100
H  -7.99400 36.98200 37.60600
H  -9.27200 36.14200 38.35700
H  -7.79200 34.37800 37.50000
H  -6.67300 34.79700 38.77500
H  -6.47100 44.23800 39.24500
H  -5.79300 42.76900 39.99700
H  -6.03300 44.25100 40.88200
H  -10.24000 46.24300 42.59800
H  -10.95400 45.88500 40.97400
H  -9.91600 47.29800 41.27200
H  -14.10900 43.28000 42.59500
H  -14.17300 41.71200 44.94700
H  -13.80400 43.82900 45.34500
H  -13.92600 44.92800 43.97500
H  -12.29200 44.37900 44.51700
H  -15.71500 40.49400 42.55100
H  -16.00700 42.14900 42.96300
H  -17.39500 41.63800 44.59600
H  -16.24800 40.68500 45.47100
H  -17.21400 39.91400 44.21200
H  -15.10100 36.23800 42.86600
H  -14.46000 36.53700 44.45400
H  -14.11600 34.96800 43.59400
H  -10.27900 34.65800 40.12600
H  -7.47700 31.76300 41.34100
H  -6.49200 33.18100 41.48800
H  -6.79600 32.51400 39.87200

