158

Mg 25.03600 0.48400 29.64100
C  27.34800 0.83000 32.18800
C  22.46700 0.56800 31.77100
C  23.08300 0.25100 26.95700
C  27.93800 0.01100 27.48000
N  24.95800 0.60800 31.71000
C  26.02200 0.84400 32.61900
C  25.44800 0.97400 33.99900
C  23.84300 0.61300 33.86100
C  23.75800 0.61300 32.32000
C  23.36900 -0.72000 34.51300
C  25.79400 2.35100 34.67700
C  26.13100 2.10800 36.19600
H  25.48100 2.93700 37.27400
N  23.10500 0.56600 29.41200
C  22.14900 0.60200 30.41200
C  20.80300 0.43200 29.90800
C  20.94400 0.29600 28.53000
C  22.43700 0.39400 28.24800
C  19.57500 0.22600 30.77100
C  19.89700 0.18500 27.52900
O  20.14100 0.01000 26.34400
C  18.43700 0.34000 27.88100
N  25.53000 0.26900 27.55800
C  24.44300 0.10100 26.63800
C  24.98900 -0.17800 25.19200
C  26.51000 -0.15200 25.31300
C  26.73400 0.06600 26.88900
C  24.36100 -1.38400 24.39300
C  27.24900 0.83800 24.38200
C  27.71300 0.22600 22.94400
N  27.29000 0.40800 29.72700
C  28.28100 0.12600 28.85800
C  29.59400 0.13300 29.53900
C  29.27700 0.37300 30.84900
C  27.87800 0.55100 30.87200
C  30.89200 -0.17800 28.90300
C  29.77900 0.48200 32.19600
O  30.90900 0.24300 32.65500
C  28.54300 0.84500 33.12000
C  28.36300 -0.16000 34.27400
O  27.83100 -1.25100 34.14400
O  28.89600 0.22200 35.45700
C  28.56600 -0.61800 36.67100
H  21.65600 0.40100 32.48200
H  22.41900 -0.05200 26.14500
H  28.77700 -0.07900 26.78700
H  25.89500 0.22900 34.65800
H  23.26300 1.42200 34.30500
H  22.90500 -0.64300 35.49600
H  24.20600 -1.40700 34.63300
H  22.68100 -1.17300 33.79900
H  24.99700 3.08900 34.59600
H  26.69400 2.76600 34.22400
H  27.20200 2.27000 36.32600
H  25.82800 1.12200 36.54800
H  18.75600 0.92000 30.58100
H  19.80300 0.47700 31.80700
H  19.17700 -0.78600 30.69300
H  17.82800 0.35100 26.97700
H  18.25900 1.28000 28.40400
H  18.08000 -0.40500 28.59300
H  24.60300 0.65100 24.59900
H  26.85100 -1.18000 25.18800
H  25.14000 -2.06000 24.04200
H  23.92300 -0.88800 23.52700
H  23.66400 -2.06200 24.88500
H  28.12600 1.39500 24.71100
H  26.50700 1.61300 24.18900
H  27.22100 0.68600 22.08700
H  27.45500 -0.82800 22.84700
H  28.78800 0.32300 22.79100
H  31.66600 -0.05600 29.66100
H  30.99400 0.57800 28.12500
H  30.86100 -1.16200 28.43500
H  28.74800 1.85200 33.48400
H  27.48800 -0.77700 36.63100
H  29.00200 -0.20400 37.58000
H  28.98300 -1.61500 36.52600
Mg 49.01200 35.94200 27.24200
C  46.85100 34.44300 29.66300
C  49.43100 38.60100 29.35900
C  50.56000 37.57600 24.71100
C  47.88600 33.56200 25.02900
N  48.29700 36.45200 29.29700
C  47.52100 35.65000 30.10600
C  47.37200 36.32400 31.49600
C  48.04500 37.74900 31.32800
C  48.64300 37.61000 29.90600
C  47.02500 38.90600 31.41700
C  47.98600 35.54700 32.63700
C  47.28900 35.80200 33.98000
H  47.74700 36.96500 34.85200
N  50.01400 37.79400 27.18900
C  50.11200 38.74600 28.14300
C  50.90100 39.85800 27.67700
C  51.15100 39.58100 26.29900
C  50.55600 38.27700 25.95200
C  51.35000 40.95900 28.48600
C  52.00500 40.46700 25.34200
O  52.09300 40.21100 24.17100
C  52.63700 41.66500 25.84500
N  49.18200 35.51700 25.21000
C  50.01700 36.30600 24.39300
C  50.11900 35.70900 22.96300
C  49.40800 34.32300 23.14200
C  48.82600 34.42400 24.55000
C  49.40200 36.52600 21.84400
C  50.20900 33.00100 22.89200
C  49.77500 32.05900 21.76000
N  47.73400 34.21900 27.31400
C  47.32200 33.44800 26.28700
C  46.35200 32.45700 26.78300
C  46.18700 32.84900 28.10800
C  47.05600 33.89200 28.37600
C  45.72500 31.33000 26.06000
C  45.50700 32.44500 29.32200
O  44.77400 31.47200 29.51300
C  45.88500 33.49800 30.38100
C  46.41800 32.84300 31.61600
O  47.44100 32.13500 31.63300
O  45.56400 33.11000 32.63400
C  45.90000 32.46900 33.93700
H  49.82700 39.42100 29.96200
H  51.17500 38.00800 23.91900
H  47.69400 32.71600 24.36500
H  46.30600 36.24700 31.71300
H  48.93700 37.95800 31.91900
H  46.93800 39.49000 30.50100
H  47.32100 39.64000 32.16600
H  46.03000 38.57000 31.70900
H  48.97600 36.00200 32.60300
H  48.09700 34.49600 32.37200
H  47.30800 34.88500 34.56900
H  46.22600 35.99900 33.83600
H  52.43900 40.98700 28.47500
H  51.23700 40.89400 29.56800
H  51.01500 41.93000 28.12100
H  53.08000 42.10200 24.95000
H  53.42800 41.32600 26.51500
H  52.00000 42.38000 26.36500
H  51.08600 35.42900 22.54400
H  48.51600 34.28300 22.51700
H  48.39100 36.13300 21.73800
H  49.94400 36.34800 20.91500
H  49.38400 37.60400 22.00100
H  50.31800 32.45800 23.83100
H  51.26200 33.24300 22.75000
H  48.78600 32.29400 21.36600
H  49.77600 31.03000 22.11900
H  50.48700 32.10000 20.93500
H  46.11400 31.32800 25.04100
H  44.65300 31.52600 26.06200
H  45.91800 30.32900 26.44600
H  44.99300 34.03500 30.70400
H  45.18300 32.87500 34.65000
H  46.95900 32.66500 34.10800
H  45.85400 31.38000 33.94400

