158

Mg -1.46800 18.14100 26.80500
C  -2.07900 15.82200 29.57600
C  -1.95500 20.67000 29.00800
C  -1.55800 20.00100 24.13700
C  -1.58000 15.13300 24.72700
N  -2.02600 18.13000 29.05200
C  -1.99500 17.17500 30.00900
C  -2.07800 17.75800 31.42900
C  -1.99100 19.30200 31.15600
C  -2.03900 19.39000 29.63600
C  -3.08700 20.19200 31.73700
C  -0.97900 17.15900 32.43200
C  -0.64500 17.98800 33.71700
H  -0.75800 17.40900 35.18300
N  -1.72800 20.14500 26.65000
C  -1.90500 21.04100 27.61900
C  -1.89000 22.37300 26.98300
C  -1.87900 22.13700 25.59300
C  -1.74300 20.70400 25.37000
C  -2.00200 23.67900 27.72400
C  -1.90300 23.08500 24.45600
O  -2.09100 22.78600 23.28000
C  -1.70300 24.50300 24.76800
N  -1.63100 17.67100 24.70100
C  -1.45200 18.65800 23.82400
C  -1.52500 18.11500 22.37300
C  -1.64400 16.54100 22.56900
C  -1.57900 16.41500 24.11900
C  -2.77300 18.74900 21.64100
C  -0.56900 15.70900 21.68800
C  0.89800 15.77900 21.98500
N  -1.73700 15.98800 27.01500
C  -1.72300 14.89400 26.08800
C  -1.75100 13.68800 26.78900
C  -1.86300 14.00200 28.08700
C  -1.95500 15.37700 28.22200
C  -1.82200 12.29900 26.16300
C  -1.89600 13.35800 29.38500
O  -1.75800 12.16900 29.70700
C  -2.20700 14.50300 30.39600
C  -1.12100 14.27600 31.42500
O  0.02400 14.56000 31.27700
O  -1.56700 13.61400 32.51900
C  -0.58400 13.32000 33.64300
H  -2.15200 21.42800 29.76900
H  -1.46600 20.61700 23.24000
H  -1.71500 14.26300 24.08100
H  -3.03100 17.50100 31.89200
H  -1.02900 19.74700 31.41000
H  -2.51500 20.97000 32.24400
H  -3.70100 19.58400 32.40100
H  -3.85600 20.63800 31.10700
H  -0.05200 16.97800 31.88800
H  -1.44300 16.28400 32.88800
H  -1.42100 18.75300 33.67600
H  0.26400 18.57500 33.58800
H  -1.06900 24.24000 27.66100
H  -2.26400 23.54500 28.77300
H  -2.83700 24.25500 27.32600
H  -2.50600 25.02800 25.28500
H  -1.61000 24.89600 23.75600
H  -0.80000 24.55800 25.37600
H  -0.52800 18.30300 21.97500
H  -2.59000 16.20800 22.14000
H  -3.48700 17.96300 21.39400
H  -2.39800 19.17500 20.71000
H  -3.15400 19.51600 22.31500
H  -0.86900 16.05900 20.70000
H  -0.95500 14.69700 21.80700
H  1.14300 16.61100 22.64500
H  1.57800 15.98100 21.15800
H  1.33200 14.87100 22.40400
H  -1.06600 12.32600 25.37700
H  -2.80200 12.04900 25.75700
H  -1.39400 11.63200 26.91000
H  -3.10800 14.39600 30.99900
H  -0.97400 13.76500 34.55900
H  0.36400 13.85300 33.71000
H  -0.57300 12.26800 33.93000
Mg 2.38100 -1.76000 43.82600
C  5.69200 -0.88300 43.25200
C  1.40000 1.00800 42.19100
C  -0.74800 -3.07000 43.60900
C  3.57700 -4.98100 44.93000
N  3.51100 -0.13000 42.82700
C  4.82800 0.09100 42.73900
C  5.17600 1.48600 42.11000
C  3.76100 2.03800 41.78500
C  2.81800 0.99800 42.50700
C  3.43700 3.40900 42.40100
C  6.05700 1.42300 40.82100
C  7.06200 2.57200 40.55500
H  6.81100 3.42000 39.25200
N  0.55000 -1.03200 43.09700
C  0.37300 0.06900 42.41100
C  -1.02600 0.16100 41.97900
C  -1.75400 -0.89700 42.58500
C  -0.64500 -1.75700 43.08100
C  -1.55200 1.34100 41.22100
C  -3.20100 -1.04200 42.58100
O  -3.87700 -0.24100 41.97000
C  -3.90500 -2.20600 43.14200
N  1.54400 -3.84100 44.00200
C  0.22400 -3.98100 44.03700
C  -0.18400 -5.30900 44.64200
C  1.16200 -5.98300 45.12000
C  2.19400 -4.90400 44.63200
C  -1.24100 -5.16100 45.79600
C  1.58600 -7.34300 44.53800
C  2.18400 -8.35000 45.50300
N  4.16900 -2.63400 44.18800
C  4.52300 -3.87900 44.75700
C  5.95600 -3.95400 45.07000
C  6.40300 -2.71300 44.48400
C  5.31500 -2.00700 43.86100
C  6.84700 -4.93800 45.82600
C  7.60000 -1.96800 44.19900
O  8.76600 -2.19400 44.48300
C  7.15800 -0.78900 43.41800
C  7.53300 0.47300 44.07400
O  7.22000 0.71500 45.21600
O  8.19400 1.37700 43.21600
C  8.57700 2.66900 43.86600
H  0.96600 1.86100 41.66500
H  -1.77500 -3.41400 43.74900
H  4.09000 -5.90400 45.20700
H  5.65600 2.15000 42.82900
H  3.56600 2.24300 40.73300
H  2.83900 3.21500 43.29100
H  2.90400 4.09600 41.74300
H  4.41000 3.83900 42.63700
H  5.37100 1.36800 39.97600
H  6.56900 0.46000 40.80400
H  8.09400 2.23400 40.64100
H  6.98300 3.34100 41.32400
H  -2.54000 1.65800 41.55400
H  -1.58500 1.00900 40.18300
H  -0.92900 2.23300 41.28300
H  -3.90000 -2.18200 44.23200
H  -3.49000 -3.16900 42.84300
H  -4.92300 -2.27700 42.76100
H  -0.64400 -5.91700 43.86300
H  1.09400 -6.01100 46.20800
H  -1.03200 -5.61300 46.76500
H  -2.04700 -5.80200 45.43900
H  -1.75900 -4.20200 45.80300
H  2.30300 -7.13400 43.74500
H  0.66400 -7.78000 44.15500
H  1.66000 -9.29400 45.65300
H  2.33800 -7.93400 46.49900
H  3.23400 -8.53800 45.27900
H  7.39500 -5.67200 45.23300
H  6.20800 -5.42400 46.56200
H  7.69000 -4.42100 46.28400
H  7.50700 -0.81000 42.38500
H  9.60700 2.57900 44.21100
H  8.06900 2.78500 44.82300
H  8.32300 3.49600 43.20300

