158

Mg 41.70900 41.08400 27.17100
C  40.98300 43.36400 29.60300
C  43.15800 39.12700 29.72700
C  42.54500 38.65200 24.96200
C  41.26200 43.38300 24.80700
N  42.11800 41.28100 29.48200
C  41.50100 42.29400 30.20000
C  41.61300 42.02900 31.69300
C  42.51700 40.74000 31.71600
C  42.72000 40.39400 30.23800
C  43.89200 40.87700 32.40700
C  40.25500 41.90100 32.39800
C  39.99500 42.90800 33.48400
H  39.57500 42.53900 34.86500
N  42.53800 39.04200 27.32900
C  43.13700 38.51700 28.37800
C  43.45000 37.13500 28.10100
C  43.15400 36.91600 26.72600
C  42.69600 38.23200 26.30000
C  43.75300 36.09100 29.19300
C  43.29500 35.70800 25.83700
O  43.02500 35.73700 24.65200
C  43.92900 34.46600 26.30200
N  42.04400 41.02700 25.12200
C  42.32500 39.92500 24.41900
C  42.10700 40.28100 22.88200
C  41.67800 41.76900 22.89200
C  41.69200 42.09300 24.37000
C  43.29200 40.01700 21.91800
C  40.31500 42.04100 22.19000
C  40.13900 43.30100 21.41800
N  41.22800 43.01200 27.12400
C  41.07700 43.88600 26.12400
C  40.51700 45.16200 26.59100
C  40.38600 44.90900 28.00300
C  40.83800 43.66200 28.20500
C  40.13700 46.35100 25.76100
C  39.88300 45.48600 29.22800
O  39.36300 46.61100 29.43900
C  40.33500 44.53900 30.31100
C  41.30900 45.30100 31.23400
O  42.49500 45.56000 31.01600
O  40.67800 45.73400 32.33800
C  41.50000 46.51600 33.33800
H  43.34800 38.42100 30.53800
H  42.50500 37.91300 24.16000
H  40.94800 44.03500 23.98900
H  42.27200 42.81700 32.05800
H  42.00600 39.90600 32.19800
H  44.58500 41.07300 31.58900
H  44.17800 39.98700 32.96800
H  43.83900 41.72800 33.08600
H  40.17700 40.91900 32.86300
H  39.44900 41.97900 31.66800
H  39.26300 43.63600 33.13400
H  40.88100 43.54300 33.51900
H  43.02200 35.29600 29.04300
H  43.88500 36.46200 30.21000
H  44.76400 35.76400 28.95200
H  44.91700 34.70400 26.69700
H  43.85600 33.82300 25.42500
H  43.42200 33.89600 27.08000
H  41.23800 39.70700 22.56200
H  42.42600 42.37900 22.38300
H  44.24700 40.07900 22.44100
H  43.16100 40.61400 21.01600
H  43.15100 38.93900 21.83800
H  39.49500 42.08900 22.90600
H  40.05900 41.22700 21.51200
H  39.77400 44.08200 22.08500
H  39.47500 43.16900 20.56400
H  40.99400 43.78400 20.94600
H  40.25600 46.12900 24.70000
H  40.67700 47.27400 25.97500
H  39.11000 46.64900 25.97200
H  39.41400 44.38000 30.87200
H  42.12500 45.88200 33.96700
H  40.74100 46.98300 33.96400
H  42.08100 47.28300 32.82600
Mg 26.78200 50.16700 26.03300
C  24.66000 51.21700 28.82900
C  29.05500 49.27400 28.34200
C  28.45200 49.23500 23.51900
C  24.32400 51.57600 24.00200
N  26.83500 50.24000 28.31700
C  25.85700 50.55500 29.20600
C  26.34800 50.27500 30.66600
C  27.86900 49.82800 30.49200
C  27.93000 49.77100 28.96000
C  28.86200 50.72100 31.31000
C  25.34600 49.08300 31.27600
C  25.57100 48.70300 32.75900
H  26.52100 49.42600 33.74800
N  28.56300 49.52400 25.93900
C  29.36700 49.14800 26.93100
C  30.58200 48.62600 26.39900
C  30.41000 48.59000 24.98300
C  29.11300 49.17500 24.74600
C  31.76200 48.12600 27.28900
C  31.41400 48.11000 23.93200
O  31.19000 48.22900 22.75800
C  32.68600 47.47800 24.37800
N  26.44200 50.41300 23.99600
C  27.24600 49.80500 23.13800
C  26.49600 49.56200 21.76500
C  25.17600 50.33000 21.92000
C  25.34700 50.87900 23.36200
C  27.35500 49.94200 20.51700
C  23.89700 49.53800 21.70100
C  22.80200 50.03500 20.71700
N  24.96800 51.27400 26.31200
C  24.12200 51.79100 25.34400
C  23.06100 52.45100 26.02900
C  23.24200 52.31500 27.39700
C  24.39800 51.48300 27.50900
C  21.81100 53.09000 25.43100
C  22.62700 52.60800 28.69400
O  21.55000 53.22800 29.01800
C  23.68500 51.90900 29.67400
C  24.19500 53.01200 30.46200
O  24.89600 53.95000 30.16200
O  23.73800 52.90800 31.74400
C  24.11900 53.89800 32.70800
H  29.65200 48.86900 29.16100
H  28.85800 48.75800 22.62500
H  23.44400 51.82800 23.40700
H  26.30300 51.26900 31.11100
H  27.95000 48.87800 31.02000
H  29.43700 49.98700 31.87500
H  28.47100 51.51600 31.94700
H  29.61800 51.16300 30.66200
H  25.62600 48.17200 30.74700
H  24.30400 49.33700 31.08000
H  25.83800 47.64700 32.78100
H  24.60500 48.84400 33.24400
H  32.01300 47.08300 27.09400
H  31.62600 48.39800 28.33500
H  32.63500 48.69100 26.96100
H  32.53100 46.56700 24.95700
H  33.38400 48.16200 24.86100
H  33.20000 47.25400 23.44300
H  26.28600 48.49300 21.75400
H  25.29700 51.20000 21.27500
H  28.01900 50.78100 20.72400
H  26.80200 50.16000 19.60300
H  27.96200 49.04500 20.40200
H  23.36800 49.60200 22.65200
H  24.13500 48.47600 21.63100
H  23.16100 50.99900 20.35800
H  21.81400 50.21300 21.14100
H  22.62400 49.32400 19.91000
H  22.19800 53.86200 24.76600
H  21.29500 53.45500 26.32000
H  21.30100 52.38300 24.77700
H  23.08900 51.27700 30.33200
H  23.83100 54.89800 32.38600
H  25.17700 53.74000 32.92000
H  23.54100 53.82500 33.63000

