158

Mg 25.81500 0.15000 29.41200
C  27.57800 0.14300 32.34600
C  22.88800 0.43000 31.16400
C  24.17600 0.03600 26.51500
C  28.85300 -0.47800 27.75000
N  25.37100 0.33100 31.46800
C  26.27400 0.43300 32.55700
C  25.57700 0.91700 33.89300
C  24.04300 0.98700 33.41200
C  24.08500 0.48000 31.96500
C  22.94000 0.29400 34.34700
C  26.14100 2.26100 34.43900
C  25.32800 2.81500 35.63800
H  26.03600 2.79300 36.98200
N  23.77100 0.23500 28.94800
C  22.68200 0.33500 29.74200
C  21.45600 0.40200 29.01600
C  21.88100 0.49600 27.68800
C  23.35500 0.21900 27.67200
C  20.07600 0.54800 29.53800
C  21.03800 0.80600 26.44700
O  21.45500 0.87100 25.25900
C  19.60300 1.06200 26.62100
N  26.44200 -0.30200 27.37000
C  25.51400 -0.20300 26.36300
C  26.28600 -0.34700 25.07100
C  27.75300 -0.25400 25.42900
C  27.69600 -0.44500 26.93600
C  25.83600 -1.66700 24.47200
C  28.33500 1.22000 24.95500
C  29.88700 1.28100 24.75700
N  27.74900 -0.32900 29.93300
C  28.85100 -0.54600 29.12600
C  30.03400 -0.75600 29.95200
C  29.57700 -0.48000 31.25300
C  28.22000 -0.13200 31.17000
C  31.36300 -1.16300 29.47600
C  29.91900 -0.33000 32.67100
O  30.93400 -0.60100 33.29600
C  28.66500 0.09200 33.38300
C  28.39700 -0.99300 34.33100
O  27.63300 -1.92400 34.11600
O  29.09700 -0.76800 35.46000
C  28.91200 -1.66700 36.60100
H  21.96400 0.60900 31.71800
H  23.68200 -0.05600 25.54500
H  29.81400 -0.51100 27.23300
H  25.51500 0.16700 34.68100
H  23.81900 2.05100 33.33200
H  22.30300 1.08500 34.74200
H  23.34400 -0.30000 35.16700
H  22.37200 -0.43400 33.76800
H  26.31400 2.91100 33.58100
H  27.13100 2.00300 34.81600
H  24.35900 2.32300 35.72500
H  25.09200 3.86100 35.44200
H  19.37900 -0.22600 29.22000
H  19.59500 1.50900 29.35400
H  20.16800 0.47000 30.62200
H  18.98800 1.13200 25.72500
H  19.55600 2.06300 27.05000
H  19.14400 0.27100 27.21500
H  25.93900 0.55500 24.56600
H  28.39100 -1.05300 25.05100
H  26.60500 -2.41900 24.30000
H  25.26400 -1.47400 23.56400
H  25.09600 -2.13200 25.12300
H  27.98400 2.06700 25.54400
H  27.85500 1.49000 24.01500
H  30.13300 1.32900 23.69700
H  30.39300 0.42400 25.20200
H  30.35700 2.13700 25.24200
H  31.65400 -2.20900 29.57700
H  32.07100 -0.69600 30.16100
H  31.62800 -0.81000 28.48000
H  28.74500 1.07800 33.84000
H  29.16400 -1.13700 37.52000
H  29.62500 -2.49200 36.60400
H  27.90600 -2.07800 36.67800
Mg -11.17500 16.08100 42.17800
C  -7.82000 16.91700 41.67000
C  -12.00000 19.16100 41.10500
C  -14.23500 14.91900 41.82500
C  -10.10300 12.77600 43.05700
N  -9.98200 17.85700 41.48000
C  -8.68200 18.03000 41.45200
C  -8.36000 19.55700 41.04600
C  -9.66100 20.26100 41.44300
C  -10.60900 19.04500 41.33800
C  -9.60900 20.88900 42.83800
C  -7.92700 19.85900 39.61900
C  -6.98600 21.06900 39.38700
H  -5.74400 20.72200 38.55900
N  -12.87500 16.91700 41.29800
C  -13.02400 18.18000 41.01800
C  -14.34400 18.38100 40.54400
C  -15.03800 17.16500 40.74700
C  -14.06500 16.24500 41.29500
C  -14.83900 19.68100 40.01600
C  -16.44000 16.90200 40.27800
O  -17.19700 17.86100 40.00800
C  -16.84600 15.48700 40.07200
N  -12.09300 14.14600 42.47600
C  -13.41400 13.97600 42.37700
C  -13.80400 12.48300 42.88000
C  -12.38700 11.79700 43.16600
C  -11.50900 12.96700 42.89200
C  -14.81000 12.46400 44.13300
C  -12.16500 10.58000 42.22900
C  -11.77500 9.22800 42.82500
N  -9.35000 14.99100 42.38600
C  -9.08500 13.68500 42.80500
C  -7.60900 13.54500 42.74900
C  -7.09400 14.78700 42.42400
C  -8.21600 15.62900 42.14000
C  -6.94900 12.27100 42.98700
C  -5.81000 15.51700 42.26500
O  -4.64800 15.11500 42.39900
C  -6.26400 16.95000 41.70900
C  -5.70300 17.92500 42.68600
O  -6.07300 17.94800 43.83800
O  -4.92000 18.81500 42.06000
C  -4.28000 19.84100 42.83700
H  -12.33300 20.19500 40.98800
H  -15.26900 14.57700 41.90900
H  -9.95700 11.72600 43.31700
H  -7.54700 19.93800 41.66400
H  -9.98700 20.96100 40.67400
H  -9.78100 21.96200 42.76000
H  -8.70000 20.66800 43.39800
H  -10.39600 20.45400 43.45400
H  -8.81300 20.03700 39.01000
H  -7.39500 18.95800 39.31200
H  -6.59700 21.49600 40.31200
H  -7.40700 21.91400 38.84300
H  -14.39300 20.58400 40.43200
H  -15.84600 19.77000 40.42500
H  -14.86000 19.69800 38.92600
H  -17.63600 15.45500 39.32100
H  -17.22800 14.92700 40.92600
H  -16.01000 14.91200 39.67400
H  -14.28900 11.96300 42.05500
H  -12.32600 11.53900 44.22400
H  -15.10100 13.42000 44.57000
H  -14.62600 11.79800 44.97600
H  -15.77100 12.08300 43.78700
H  -11.56400 10.94300 41.39500
H  -13.10500 10.41000 41.70200
H  -11.88000 9.30000 43.90800
H  -10.74300 8.91200 42.67200
H  -12.33700 8.35200 42.50100
H  -7.15700 11.52900 42.21600
H  -7.22500 11.85000 43.95300
H  -5.87900 12.47300 43.04800
H  -5.94100 17.12200 40.68300
H  -3.85400 19.30500 43.68500
H  -4.86900 20.70100 43.15600
H  -3.50100 20.15200 42.14000

