158

Mg 0.17700 -2.57200 44.39500
C  3.68900 -2.23200 44.30300
C  -0.02800 0.24100 42.48700
C  -3.06000 -3.21900 44.11100
C  0.61900 -5.69500 45.85200
N  1.78400 -1.20000 43.35100
C  3.09800 -1.16500 43.53000
C  3.76700 0.02200 42.75500
C  2.50600 0.88100 42.41500
C  1.32000 -0.08800 42.73000
C  2.39300 2.18700 43.18700
C  4.64400 -0.43100 41.55100
C  5.62400 0.61500 40.97100
H  5.25500 1.09800 39.60500
N  -1.26100 -1.60800 43.43000
C  -1.20000 -0.46600 42.72500
C  -2.51000 -0.03000 42.31700
C  -3.41700 -1.08700 42.62000
C  -2.59400 -2.01400 43.49200
C  -2.69100 1.07900 41.33200
C  -4.77200 -1.17600 42.05500
O  -5.26000 -0.32300 41.31000
C  -5.53900 -2.42400 42.24900
N  -1.06800 -4.10100 45.00400
C  -2.36300 -4.15100 44.82400
C  -3.03200 -5.43800 45.23400
C  -1.85300 -6.27900 45.80500
C  -0.68000 -5.32200 45.48500
C  -4.23800 -5.28100 46.19000
C  -1.77400 -7.76600 45.28500
C  -1.55900 -8.87400 46.33600
N  1.74500 -3.69300 45.07300
C  1.75400 -4.92800 45.67000
C  3.15400 -5.29400 45.94400
C  3.89400 -4.21600 45.42200
C  3.02000 -3.31800 44.82200
C  3.65100 -6.43900 46.66200
C  5.28500 -3.70600 45.28700
O  6.34600 -4.12500 45.74500
C  5.15900 -2.52200 44.35000
C  5.98500 -1.34900 44.85500
O  5.74400 -0.59300 45.76800
O  7.03800 -1.07400 43.90800
C  8.02000 -0.05000 44.29400
H  -0.14000 1.19100 41.96000
H  -4.11600 -3.48600 44.18700
H  0.74800 -6.65800 46.35000
H  4.38400 0.54100 43.48800
H  2.53700 1.32900 41.42200
H  3.33600 2.69600 43.38600
H  1.77500 2.15400 44.08400
H  1.95800 2.91800 42.50600
H  3.91700 -0.63000 40.76400
H  5.23600 -1.29000 41.86600
H  6.60700 0.14500 40.97800
H  5.72800 1.42900 41.68800
H  -2.33500 0.79800 40.34100
H  -2.18000 1.98800 41.64900
H  -3.72000 1.40700 41.18300
H  -4.94900 -3.30400 41.99300
H  -6.35700 -2.33800 41.53300
H  -5.94500 -2.32000 43.25600
H  -3.26700 -5.94500 44.29800
H  -1.96100 -6.48100 46.87100
H  -4.01100 -5.59800 47.20800
H  -4.88200 -6.03800 45.74200
H  -4.55100 -4.24200 46.29100
H  -0.94500 -7.76300 44.57700
H  -2.70900 -8.04500 44.80000
H  -0.59000 -9.35900 46.22300
H  -2.26700 -9.68800 46.17600
H  -1.58800 -8.50600 47.36100
H  3.12800 -6.56700 47.60900
H  4.70000 -6.22400 46.86800
H  3.48800 -7.33600 46.06400
H  5.48600 -3.02800 43.44200
H  7.42600 0.64100 44.89300
H  8.33600 0.47800 43.39400
H  8.79100 -0.57500 44.85700
Mg 1.02100 42.93900 25.57500
C  3.32000 42.54500 28.22200
C  -1.52200 42.03400 27.48400
C  -0.89600 42.80100 22.83100
C  3.88100 43.47600 23.50400
N  0.99200 42.41100 27.62600
C  1.95700 42.36700 28.55700
C  1.36900 41.90400 29.90500
C  -0.16400 41.55400 29.52200
C  -0.25600 42.04600 28.11800
C  -0.60500 40.11900 29.86400
C  1.52900 43.02200 30.94400
C  1.88600 42.56500 32.34800
H  1.00100 42.96000 33.47700
N  -1.00000 42.67600 25.21800
C  -1.88100 42.35100 26.18900
C  -3.18100 42.36700 25.68900
C  -3.05200 42.45300 24.27500
C  -1.65400 42.61200 24.03600
C  -4.38700 42.30500 26.53600
C  -4.11200 42.39200 23.21200
O  -4.03000 42.61200 22.01300
C  -5.50000 42.12600 23.59400
N  1.46000 43.04200 23.44200
C  0.43200 43.05100 22.52600
C  0.92500 43.39100 21.15400
C  2.30700 44.01200 21.49000
C  2.61000 43.48800 22.89300
C  0.93400 42.14500 20.13600
C  2.33200 45.54700 21.33700
C  3.37100 46.08000 20.38000
N  3.08000 42.98600 25.76300
C  4.06400 43.25000 24.82600
C  5.37300 43.29000 25.42800
C  5.09000 43.00800 26.83100
C  3.72500 42.84200 26.94100
C  6.73700 43.38500 24.77500
C  5.70300 42.66800 28.13200
O  6.89800 42.48100 28.43500
C  4.58700 42.46600 29.16000
C  4.66900 41.14600 29.76800
O  4.53300 40.05700 29.17700
O  4.99600 41.33900 31.12500
C  5.38200 40.12200 31.86400
H  -2.29700 41.58800 28.11200
H  -1.55900 42.87500 21.96600
H  4.68600 43.83100 22.85700
H  1.90800 40.98600 30.13800
H  -0.92600 42.20100 29.95700
H  0.27100 39.56200 30.19600
H  -0.87700 39.48200 29.02300
H  -1.44000 40.02200 30.55700
H  0.62700 43.63200 30.97700
H  2.34900 43.68500 30.66800
H  2.85900 42.97400 32.62100
H  2.08400 41.49500 32.40800
H  -4.86100 41.34100 26.35200
H  -5.02100 43.17900 26.39000
H  -4.14800 42.48100 27.58500
H  -6.13000 41.96500 22.71900
H  -5.79200 42.94300 24.25200
H  -5.61300 41.19400 24.14900
H  0.25800 44.17100 20.78700
H  2.97600 43.74800 20.67000
H  1.97300 41.93100 19.88600
H  0.37000 42.41300 19.24300
H  0.53100 41.25000 20.61100
H  2.47000 46.01400 22.31200
H  1.43600 46.04000 20.95800
H  2.87300 46.64000 19.58800
H  3.88100 45.32900 19.77600
H  4.08300 46.67800 20.94800
H  7.35500 42.58400 25.18100
H  7.16700 44.38100 24.87800
H  6.60400 43.17600 23.71300
H  4.65400 43.21300 29.95200
H  5.68500 39.40700 31.10000
H  4.58100 39.72800 32.49100
H  6.15400 40.44500 32.56300

