158

Mg 47.33300 15.81900 27.33300
C  45.56100 16.07600 30.35700
C  49.94500 17.68500 28.90000
C  49.10200 15.89400 24.50400
C  44.68000 14.33400 25.80600
N  47.80100 16.52500 29.56400
C  46.84700 16.56200 30.56100
C  47.49200 17.11400 31.82600
C  48.79000 17.83200 31.23200
C  48.88600 17.31500 29.79000
C  48.84100 19.42500 31.30500
C  47.69700 16.10400 33.01300
C  47.24400 16.54200 34.42600
H  47.23300 18.04600 34.85700
N  49.31600 16.71500 26.77300
C  50.13900 17.40500 27.54800
C  51.37300 17.59700 26.85700
C  51.15100 17.17600 25.50900
C  49.81400 16.60600 25.48500
C  52.53600 18.28700 27.51300
C  52.08900 17.21800 24.31400
O  51.77900 16.72900 23.21800
C  53.40900 17.96500 24.41500
N  46.97800 15.03700 25.45700
C  47.93300 15.20600 24.45300
C  47.33700 14.49100 23.16300
C  45.90500 13.89900 23.54500
C  45.84100 14.38100 25.03500
C  47.16900 15.32600 21.85500
C  45.84200 12.34400 23.54800
C  45.34000 11.71000 22.23600
N  45.50200 15.30300 27.89100
C  44.50500 14.73300 27.14800
C  43.27900 14.68800 27.96000
C  43.67000 15.05500 29.25600
C  45.02100 15.53100 29.15400
C  41.88800 14.24400 27.48600
C  43.25500 15.29600 30.56700
O  42.16200 14.99300 31.04700
C  44.48300 15.80500 31.35200
C  44.10500 16.93200 32.22400
O  44.16600 18.11100 31.92000
O  43.54700 16.46500 33.38300
C  43.36400 17.50100 34.42100
H  50.63900 18.39500 29.35500
H  49.66100 15.86500 23.56600
H  43.78100 13.97600 25.30100
H  46.94200 17.95600 32.24700
H  49.66800 17.60000 31.83500
H  47.97000 19.80700 31.83800
H  48.91600 19.80800 30.28700
H  49.76400 19.79900 31.74700
H  48.74000 15.78800 33.00700
H  47.10400 15.26100 32.66000
H  47.84100 15.98000 35.14400
H  46.25500 16.17900 34.70700
H  52.77600 17.55200 28.28200
H  52.27900 19.27500 27.89500
H  53.43500 18.59200 26.97800
H  53.31300 18.98200 24.79500
H  53.80600 18.04900 23.40400
H  54.14400 17.36200 24.95000
H  47.95000 13.64800 22.84600
H  45.06400 14.39700 23.06200
H  47.87300 16.15800 21.89400
H  46.23200 15.88200 21.85400
H  47.40300 14.77400 20.94400
H  45.22900 11.99300 24.37800
H  46.83900 11.94100 23.72500
H  44.40600 11.18400 22.43400
H  46.07900 11.04300 21.79100
H  45.06900 12.47300 21.50600
H  41.06600 14.50800 28.15100
H  42.03400 13.16400 27.44400
H  41.66100 14.66500 26.50700
H  44.76100 14.96900 31.99400
H  44.20200 17.25800 35.07300
H  42.40900 17.41900 34.94000
H  43.42500 18.56700 34.20100
Mg -12.53600 17.32800 40.53500
C  -9.26400 15.88300 40.25600
C  -11.11500 20.35900 39.51100
C  -15.62100 18.63100 39.92900
C  -13.91400 14.16300 40.83500
N  -10.43100 17.92900 39.97000
C  -9.31000 17.26400 39.88200
C  -8.10400 18.13900 39.51200
C  -8.72800 19.54800 39.47300
C  -10.18600 19.25700 39.67600
C  -8.18700 20.42600 40.63600
C  -7.54700 17.64800 38.14200
C  -6.04900 17.52400 38.01900
H  -5.52200 16.21300 37.43400
N  -13.27400 19.32100 39.92900
C  -12.51100 20.39300 39.54200
C  -13.37700 21.51100 39.19700
C  -14.74900 21.01300 39.25300
C  -14.56900 19.59300 39.72600
C  -12.81200 22.88400 38.77900
C  -15.94200 21.83800 38.92400
O  -15.80000 23.03000 38.65700
C  -17.41000 21.34400 38.93300
N  -14.55100 16.50900 40.29500
C  -15.61300 17.25300 40.25000
C  -16.93200 16.41800 40.45200
C  -16.38300 14.92200 40.59600
C  -14.84300 15.18300 40.57600
C  -17.76000 16.89700 41.68000
C  -16.88700 13.89400 39.54600
C  -17.85900 12.87500 40.01700
N  -11.79700 15.39400 40.58300
C  -12.46100 14.21300 40.78900
C  -11.54500 13.18000 40.91900
C  -10.22500 13.78600 40.77000
C  -10.41500 15.11600 40.49500
C  -11.96600 11.70900 40.98400
C  -8.77000 13.53000 40.87000
O  -8.16600 12.47400 41.10600
C  -8.08700 14.91500 40.46600
C  -7.16400 15.23100 41.50500
O  -7.38800 15.88600 42.49600
O  -5.92600 14.88700 41.17700
C  -4.89000 15.16400 42.23000
H  -10.51600 21.22600 39.22600
H  -16.67200 18.92800 39.91300
H  -14.36700 13.20900 41.11400
H  -7.34000 18.18000 40.28700
H  -8.62600 20.09200 38.53400
H  -7.24600 20.04600 41.03500
H  -8.98100 20.66900 41.34200
H  -8.02500 21.45600 40.31900
H  -7.93000 18.38800 37.43800
H  -7.99900 16.75300 37.71600
H  -5.59200 17.66700 38.99900
H  -5.80600 18.44900 37.49700
H  -13.29900 23.64400 39.39000
H  -13.13600 23.18400 37.78200
H  -11.75900 23.05600 39.00100
H  -17.39000 20.33600 38.52100
H  -18.12100 21.90500 38.32600
H  -17.71700 21.39600 39.97800
H  -17.55200 16.45200 39.55600
H  -16.68500 14.52900 41.56700
H  -17.25100 17.72500 42.17400
H  -17.87900 16.12400 42.43900
H  -18.75000 17.26600 41.41100
H  -16.06600 13.40100 39.02600
H  -17.39700 14.47400 38.77600
H  -17.49500 11.84800 39.99000
H  -18.76100 12.95600 39.41000
H  -18.09800 13.06800 41.06300
H  -12.91200 11.66100 40.44600
H  -12.20000 11.38000 41.99600
H  -11.12800 11.19200 40.51500
H  -7.47200 14.83000 39.57000
H  -4.62300 16.21300 42.10500
H  -3.94100 14.69600 41.96800
H  -5.19600 14.97100 43.25800

