158

Mg 1.00800 8.50100 26.40700
C  1.82900 10.37300 29.24400
C  1.40300 5.60400 28.11300
C  0.78000 6.76400 23.35400
C  1.17000 11.50400 24.50500
N  1.53500 8.10300 28.51600
C  1.83800 8.96900 29.52200
C  1.95900 8.27100 30.83400
C  2.06400 6.74500 30.39300
C  1.61200 6.79400 28.91900
C  3.41600 6.02000 30.76700
C  0.80600 8.48100 31.83900
C  1.22200 8.95100 33.22200
H  2.28300 8.15400 34.10200
N  0.98800 6.48000 25.82900
C  1.09500 5.40300 26.71200
C  0.84700 4.13900 26.09300
C  0.67800 4.47300 24.69400
C  0.78500 5.96100 24.52700
C  0.95900 2.72800 26.84100
C  0.40200 3.50500 23.56100
O  0.31700 3.96000 22.38600
C  0.13200 2.00900 23.80000
N  0.99900 9.04200 24.25000
C  0.98700 8.15600 23.25200
C  1.00900 8.86400 21.88400
C  0.73400 10.28500 22.22400
C  0.99300 10.26600 23.72800
C  2.29800 8.57800 20.97900
C  -0.60500 10.83500 21.71000
C  -1.72700 10.85200 22.74000
N  1.32800 10.54900 26.76500
C  1.32900 11.65100 25.91200
C  1.58900 12.83800 26.70200
C  1.74100 12.35900 28.02200
C  1.58600 10.98600 28.02300
C  1.66300 14.26200 26.17000
C  2.02800 12.81100 29.32600
O  2.27200 13.95600 29.75600
C  1.91300 11.53100 30.22300
C  3.17200 11.57400 30.99600
O  4.15700 10.88000 30.82100
O  2.89700 12.26300 32.15300
C  3.69400 11.89900 33.32700
H  1.39600 4.74000 28.78100
H  0.72600 6.39600 22.32800
H  1.21900 12.45600 23.97200
H  2.92100 8.63800 31.19300
H  1.30700 6.18200 30.93800
H  3.83000 5.39700 29.97400
H  3.19600 5.33500 31.58600
H  4.08300 6.80800 31.11600
H  0.22500 7.56900 31.97500
H  0.19200 9.34000 31.57000
H  0.36700 9.17600 33.86000
H  1.72100 9.90700 33.06400
H  0.10100 2.06200 26.74900
H  1.21800 2.92800 27.88000
H  1.72800 2.07700 26.42500
H  -0.50800 1.72800 24.63600
H  1.10900 1.53700 23.90700
H  -0.16400 1.67600 22.80600
H  0.18100 8.49700 21.27800
H  1.42800 10.98300 21.75600
H  2.85800 9.49600 20.80100
H  2.05100 8.15800 20.00400
H  2.96300 7.84900 21.44100
H  -0.90400 10.17300 20.89700
H  -0.51400 11.86100 21.35300
H  -2.48900 10.12700 22.45600
H  -2.14900 11.85600 22.78400
H  -1.50700 10.58300 23.77300
H  1.32600 14.34200 25.13700
H  2.67500 14.64700 26.28900
H  1.07200 14.88200 26.84400
H  1.07200 11.73600 30.88500
H  4.47400 11.20900 33.00700
H  3.03900 11.55600 34.12800
H  4.16900 12.84300 33.59400
Mg -11.77000 38.74700 40.77200
C  -9.90200 35.81900 39.98200
C  -9.12400 40.57400 39.30000
C  -13.71500 41.47800 40.61500
C  -14.40300 36.64900 41.44400
N  -9.72900 38.29700 39.72200
C  -9.23000 37.01600 39.48100
C  -7.97800 37.03700 38.61100
C  -7.66300 38.58900 38.59600
C  -8.88300 39.22300 39.31300
C  -6.33500 38.99300 39.24600
C  -8.22600 36.38500 37.23900
C  -6.96800 35.62800 36.74400
H  -6.39600 36.02300 35.40000
N  -11.38300 40.81400 40.34600
C  -10.22300 41.39900 39.81800
C  -10.47200 42.85500 39.84800
C  -11.80400 43.07200 39.98600
C  -12.38700 41.75700 40.30100
C  -9.32800 43.71200 39.36300
C  -12.53900 44.42600 39.96800
O  -11.78400 45.39600 40.02600
C  -14.02200 44.67800 40.08500
N  -13.72500 39.04500 40.92300
C  -14.27700 40.27700 41.04800
C  -15.84200 40.16600 41.22000
C  -16.05900 38.59800 41.20700
C  -14.61600 38.03400 41.27300
C  -16.56900 40.82900 42.44200
C  -16.75300 38.09400 39.88800
C  -17.59900 36.80200 40.06700
N  -12.11700 36.67900 40.90700
C  -13.19700 35.96200 41.27400
C  -12.92000 34.57800 41.32700
C  -11.66700 34.46500 40.85600
C  -11.19300 35.74700 40.59900
C  -13.93300 33.48900 41.57900
C  -10.59400 33.55300 40.59500
O  -10.56400 32.35200 40.68900
C  -9.38600 34.35700 39.98200
C  -8.32300 34.09500 40.92000
O  -7.54400 33.14900 40.74500
O  -8.07500 35.17800 41.79600
C  -6.89700 35.11500 42.73800
H  -8.47700 41.20200 38.68400
H  -14.45000 42.28500 40.62500
H  -15.27100 36.03600 41.69500
H  -7.27100 36.51300 39.25500
H  -7.57800 38.91000 37.55800
H  -5.58900 39.55200 38.68300
H  -5.83100 38.13400 39.69000
H  -6.55700 39.75400 39.99400
H  -8.60200 37.13100 36.53900
H  -9.07900 35.70800 37.29100
H  -7.19400 34.56500 36.66100
H  -6.13000 35.65300 37.44100
H  -8.32700 43.35900 39.61200
H  -9.36100 44.73400 39.74000
H  -9.36900 43.76400 38.27500
H  -14.27700 45.69500 39.78700
H  -14.33600 44.45800 41.10500
H  -14.68800 44.13400 39.41400
H  -16.28300 40.66900 40.36000
H  -16.67900 38.23000 42.02500
H  -17.22300 41.64200 42.12500
H  -15.80900 41.24600 43.10300
H  -17.15900 40.08800 42.98300
H  -15.93100 37.91500 39.19400
H  -17.42900 38.82400 39.44300
H  -17.89400 36.63700 41.10300
H  -17.03800 35.99600 39.59400
H  -18.59900 36.84300 39.63700
H  -14.72300 33.55300 40.83000
H  -14.24900 33.58500 42.61800
H  -13.60200 32.46400 41.41100
H  -9.05500 33.92900 39.03600
H  -6.33000 34.20500 42.54400
H  -7.22700 35.29400 43.76100
H  -6.21700 35.89600 42.39700

