158

Mg 47.60900 44.77700 44.01600
C  44.11300 44.66700 43.75500
C  47.59100 41.37600 43.13700
C  50.75800 45.06300 43.56300
C  47.21400 48.41300 44.33200
N  46.05800 43.29800 43.36200
C  44.78900 43.49300 43.33100
C  44.03300 42.33700 42.61500
C  45.04800 41.22900 42.82000
C  46.35700 42.01100 43.16000
C  44.73600 40.20200 43.88700
C  43.78300 42.66000 41.15400
C  42.32900 42.53100 40.66500
H  42.11300 41.68800 39.35000
N  48.95900 43.40200 43.54000
C  48.78700 42.03800 43.18400
C  50.13600 41.51300 42.83900
C  51.05500 42.50400 43.20100
C  50.28400 43.70200 43.43100
C  50.42000 40.06800 42.48200
C  52.57800 42.30800 43.36400
O  53.08000 41.22900 43.04200
C  53.40300 43.47800 43.90700
N  48.82000 46.53900 43.87900
C  50.12000 46.30000 43.86900
C  50.94900 47.59000 44.01500
C  49.83500 48.68200 44.31700
C  48.51300 47.84700 44.11400
C  52.06200 47.48200 45.12200
C  49.86100 49.80800 43.27000
C  49.26600 51.16000 43.73400
N  45.95900 46.30600 44.08300
C  45.97800 47.68600 44.33400
C  44.61200 48.14800 44.32400
C  43.81000 47.02800 44.07500
C  44.69800 45.92200 43.96600
C  44.25300 49.58100 44.59500
C  42.41000 46.55500 43.86100
O  41.28000 47.05200 43.91900
C  42.59200 44.97800 43.63600
C  41.79900 44.14100 44.60900
O  40.84800 43.35100 44.26500
O  42.20900 44.30500 45.89800
C  41.51300 43.66100 46.96500
H  47.63000 40.31500 42.88200
H  51.82400 45.19300 43.36800
H  47.12100 49.49000 44.48700
H  43.14500 42.05900 43.18300
H  45.16500 40.64800 41.90500
H  44.04800 40.54800 44.65900
H  45.67300 39.88100 44.34300
H  44.27700 39.38700 43.32700
H  44.41500 42.08400 40.47800
H  44.05300 43.69900 40.96700
H  41.85200 43.50700 40.56500
H  41.78000 41.87800 41.34300
H  49.71900 39.69000 41.73800
H  50.41400 39.43900 43.37100
H  51.40000 40.01800 42.00600
H  53.49200 44.17900 43.07700
H  54.37200 43.04200 44.15200
H  53.06500 43.89700 44.85400
H  51.46400 47.72700 43.06400
H  49.68100 49.06600 45.32600
H  52.22800 46.47800 45.51300
H  51.68500 48.16400 45.88400
H  53.01500 47.79800 44.69600
H  49.36700 49.45100 42.36600
H  50.89800 50.01900 43.00800
H  48.42700 51.50300 43.12800
H  49.97000 51.98700 43.65200
H  48.86700 51.12800 44.74800
H  44.33500 49.71100 45.67400
H  43.33500 49.93400 44.12400
H  45.11400 50.04400 44.11300
H  42.22200 44.64600 42.66600
H  42.35200 43.35600 47.59000
H  40.86800 42.82700 46.68800
H  41.03400 44.37600 47.63300
Mg 15.97000 51.30400 25.41200
C  17.99500 50.69200 28.20100
C  13.48900 51.97900 27.31800
C  14.10000 51.39800 22.59400
C  18.72200 50.42000 23.41900
N  15.72400 51.33200 27.56000
C  16.73100 51.30700 28.45500
C  16.25600 51.65000 29.83400
C  14.73900 51.81000 29.57000
C  14.68900 51.77800 28.01200
C  13.80700 50.79000 30.30700
C  16.99900 52.92800 30.45500
C  17.30800 52.88800 31.99700
H  16.55800 51.77100 32.84000
N  13.96400 51.73000 25.01300
C  13.09100 51.93300 25.98200
C  11.76600 52.01200 25.43100
C  11.94900 51.79500 24.02300
C  13.33700 51.56200 23.77500
C  10.41800 52.16100 26.27400
C  10.83900 51.73200 22.97400
O  11.14300 51.56900 21.76100
C  9.38600 52.06400 23.30800
N  16.42800 51.27900 23.32200
C  15.45200 51.23800 22.39900
C  16.05500 50.89700 20.94800
C  17.54600 51.24800 21.22200
C  17.54300 50.94100 22.74900
C  15.81200 49.42700 20.38900
C  18.05200 52.67700 20.91000
C  18.83400 52.81000 19.58000
N  17.98800 50.70900 25.65100
C  18.92200 50.28500 24.77500
C  20.08200 49.74200 25.49200
C  19.74900 49.89200 26.87800
C  18.50000 50.48100 26.92200
C  21.36500 49.22700 24.93000
C  20.23200 49.72700 28.22000
O  21.33300 49.41400 28.65500
C  19.07000 50.23300 29.19700
C  18.72200 48.99700 29.97700
O  18.56300 47.84200 29.55500
O  18.70400 49.30400 31.28100
C  18.18600 48.31000 32.16500
H  12.64200 52.10600 27.99500
H  13.56200 51.42300 21.64400
H  19.61200 50.31500 22.79400
H  16.51400 50.78400 30.44300
H  14.38400 52.79800 29.86300
H  13.48400 50.08400 29.54100
H  12.94700 51.36000 30.65700
H  14.31300 50.30000 31.13900
H  16.42200 53.83200 30.26400
H  17.92400 53.03700 29.88900
H  16.92600 53.78200 32.49100
H  18.38900 52.81900 32.11600
H  9.64200 51.49900 25.89000
H  10.07600 53.16900 26.03700
H  10.40000 51.92000 27.33700
H  9.23900 53.03400 23.78200
H  8.84200 51.22700 23.74500
H  8.80400 52.06500 22.38600
H  15.45100 51.59200 20.36600
H  18.13700 50.53900 20.64100
H  15.31400 48.91400 21.21200
H  16.76400 48.94200 20.17200
H  15.35500 49.30800 19.40600
H  18.76900 52.90000 21.70000
H  17.21300 53.35200 21.07700
H  18.45800 52.14600 18.80300
H  19.91000 52.75400 19.74300
H  18.65300 53.79500 19.15100
H  21.69600 49.67400 23.99200
H  21.32000 48.15000 24.76700
H  22.19000 49.35600 25.63000
H  19.40400 51.00100 29.89500
H  18.53800 47.33800 31.82000
H  17.09700 48.35300 32.12900
H  18.63400 48.24900 33.15700

