158

Mg 44.41900 5.34800 47.08800
C  42.25100 8.06400 46.54700
C  41.63600 3.25300 46.06300
C  46.45600 2.77100 47.06000
C  47.11200 7.47900 47.04200
N  42.13700 5.65200 46.29000
C  41.53500 6.88100 46.32800
C  40.08300 6.73700 45.88100
C  39.87600 5.20900 45.95900
C  41.30000 4.62300 46.03900
C  39.03900 4.68100 47.18800
C  39.65800 7.42800 44.50900
C  40.66600 7.38500 43.30000
H  40.17700 7.59800 41.86300
N  44.06400 3.28600 46.78400
C  42.85900 2.63400 46.31900
C  43.17800 1.19800 46.24700
C  44.55900 1.07700 46.68200
C  45.08900 2.40400 46.86700
C  42.10200 0.15600 45.87000
C  45.28700 -0.24100 46.95700
O  44.78300 -1.34400 46.73900
C  46.67800 -0.25500 47.52000
N  46.49500 5.15300 47.20800
C  47.08600 3.93400 47.20900
C  48.56100 4.10000 47.27700
C  48.81100 5.60200 47.40100
C  47.43100 6.14000 47.16600
C  49.21200 3.13600 48.39300
C  49.89700 6.18700 46.39000
C  51.05800 6.94200 47.03100
N  44.70400 7.33800 47.05700
C  45.83500 8.08400 46.84400
C  45.51600 9.48300 46.81500
C  44.16400 9.48000 46.76200
C  43.67600 8.15300 46.72000
C  46.45800 10.58200 46.78100
C  43.08400 10.43500 46.69100
O  43.11600 11.65200 46.77500
C  41.81200 9.54900 46.54600
C  40.76500 9.82400 47.68400
O  41.01400 10.12000 48.85500
O  39.46800 9.61800 47.22400
C  38.39800 10.06700 48.06200
H  40.80600 2.55100 45.95500
H  47.20700 1.99400 46.90300
H  48.03400 8.06300 47.06000
H  39.54000 7.13700 46.73700
H  39.33800 4.90100 45.06200
H  39.50100 3.92400 47.82300
H  38.15700 4.16800 46.80400
H  38.74100 5.51600 47.82200
H  39.40300 8.45800 44.75600
H  38.86100 6.86800 44.02000
H  41.39000 6.57200 43.36700
H  41.21900 8.29700 43.52300
H  42.26300 -0.44900 44.97800
H  41.09100 0.55400 45.77800
H  42.12300 -0.56200 46.69000
H  46.82900 -1.23600 47.97100
H  46.78200 0.53000 48.27000
H  47.47500 -0.25700 46.77700
H  48.86700 3.84100 46.26400
H  49.02500 5.86700 48.43600
H  49.58900 2.17000 48.05700
H  48.46200 2.76400 49.09200
H  50.04600 3.56400 48.94900
H  49.37700 6.79700 45.65200
H  50.28800 5.41000 45.73300
H  51.96900 6.35900 46.89100
H  50.81900 7.03800 48.09000
H  51.36100 7.93200 46.69000
H  47.42500 10.25600 47.16400
H  46.13400 11.45800 47.34400
H  46.62400 10.82100 45.73100
H  41.28700 9.58100 45.59200
H  38.60700 11.05200 48.48000
H  38.16400 9.28900 48.78900
H  37.53500 10.23500 47.41900
Mg 41.73200 41.08600 26.98500
C  41.00400 43.43000 29.53400
C  42.86900 38.92200 29.52400
C  42.98400 38.94800 24.72000
C  41.52500 43.65600 24.73700
N  42.00700 41.21400 29.20300
C  41.48700 42.20700 30.03500
C  41.53900 41.83000 31.52500
C  42.39500 40.47300 31.50100
C  42.47300 40.18100 29.98000
C  43.73600 40.29800 32.37300
C  40.05700 41.62100 32.16000
C  39.73400 42.30900 33.50600
H  39.09800 41.44600 34.57900
N  42.62400 39.07200 27.09500
C  42.93900 38.34100 28.22700
C  43.32100 36.99800 27.80800
C  43.37100 36.98500 26.38500
C  42.92000 38.36000 25.97900
C  43.48900 35.88200 28.90600
C  43.67700 35.85500 25.45000
O  43.54900 35.85000 24.20500
C  44.22400 34.60000 26.03200
N  42.15300 41.30000 25.05300
C  42.64000 40.28600 24.23300
C  42.71100 40.72600 22.75900
C  42.10900 42.18100 22.75300
C  41.92300 42.43200 24.25600
C  44.20100 40.64100 22.23200
C  40.67300 42.31400 22.04200
C  40.60600 43.41000 21.00500
N  41.29300 43.16000 27.04800
C  41.26200 44.06900 26.06600
C  40.75800 45.35600 26.46600
C  40.55700 45.14800 27.82800
C  40.97100 43.79900 28.18300
C  40.63200 46.61500 25.64600
C  40.12100 45.72800 29.11700
O  39.72700 46.89700 29.32100
C  40.46500 44.66800 30.17800
C  41.39100 45.37200 31.05200
O  42.45200 45.82900 30.73100
O  40.93000 45.33400 32.33100
C  41.95400 45.56100 33.31300
H  43.15600 38.20700 30.29800
H  43.38900 38.31200 23.93100
H  41.36700 44.21300 23.81200
H  42.04000 42.58000 32.13800
H  41.77000 39.64800 31.84100
H  43.83300 41.15600 33.03900
H  44.50800 40.39400 31.61000
H  43.91200 39.35800 32.89600
H  39.79400 40.57300 32.30000
H  39.30100 42.04900 31.50100
H  39.01300 43.08200 33.23900
H  40.59400 42.84400 33.90700
H  43.34400 36.21400 29.93400
H  44.48100 35.43200 28.88700
H  42.79800 35.05700 28.73500
H  43.41900 34.14100 26.60600
H  44.97200 34.86800 26.77900
H  44.68100 33.94400 25.29200
H  41.98600 40.16100 22.17300
H  42.75800 42.92800 22.29700
H  44.77800 40.72000 23.15400
H  44.43300 41.57400 21.71900
H  44.38300 39.80100 21.56200
H  39.89900 42.38900 22.80700
H  40.40900 41.37000 21.56500
H  40.64600 42.97900 20.00400
H  41.38200 44.17100 21.08100
H  39.65300 43.92300 21.13300
H  39.92900 46.58300 24.81300
H  41.62800 46.85700 25.27500
H  40.30800 47.36400 26.36800
H  39.50200 44.49700 30.65900
H  42.41000 46.54200 33.18400
H  42.72900 44.80000 33.21600
H  41.56200 45.54000 34.33000

