158

Mg 24.26400 -4.82800 45.38900
C  26.29800 -2.38600 43.88200
C  21.72300 -3.82800 43.30600
C  22.45700 -7.47400 46.46300
C  27.12300 -5.86200 47.11600
N  24.07300 -3.29000 43.88700
C  24.99200 -2.44300 43.36600
C  24.52700 -1.75700 42.09300
C  22.98200 -1.90400 42.11500
C  22.91400 -3.05500 43.21000
C  22.14500 -0.68800 42.53800
C  25.14900 -2.30700 40.80300
C  25.69300 -1.21600 39.86800
H  25.22200 -1.25100 38.39900
N  22.31100 -5.48800 44.97000
C  21.40300 -4.92800 44.05400
C  20.22100 -5.76000 44.02100
C  20.40800 -6.82800 44.93600
C  21.78300 -6.61600 45.53400
C  19.01300 -5.28100 43.31500
C  19.34600 -7.88000 45.31500
O  18.17800 -7.85300 44.88900
C  19.53500 -9.01900 46.21600
N  24.84500 -6.49900 46.48000
C  23.82000 -7.39200 46.84400
C  24.45500 -8.42800 47.86400
C  25.93700 -7.96400 48.08200
C  26.00200 -6.65200 47.23600
C  23.60900 -8.42800 49.15600
C  27.07000 -8.95800 47.72500
C  27.87600 -9.35600 48.94900
N  26.40200 -4.29700 45.43900
C  27.32500 -4.76900 46.23000
C  28.57900 -4.05300 45.92500
C  28.28800 -3.08500 44.97800
C  26.89200 -3.26500 44.77800
C  29.93200 -4.25100 46.55900
C  28.69100 -1.96600 44.20100
O  29.79500 -1.42100 44.06200
C  27.40400 -1.41200 43.42700
C  27.21400 0.07700 43.74800
O  26.34000 0.50000 44.48700
O  28.01600 0.80900 42.88200
C  27.69800 2.24500 42.55400
H  20.93100 -3.46900 42.64500
H  22.03600 -8.42900 46.78400
H  28.00500 -6.24600 47.63400
H  24.71200 -0.68400 42.14900
H  22.61100 -2.25700 41.15200
H  22.78800 0.17100 42.73000
H  21.50000 -0.85500 43.40100
H  21.43800 -0.22900 41.84600
H  24.39800 -2.77200 40.16500
H  25.85500 -3.11400 41.00000
H  26.78200 -1.17600 39.87900
H  25.47000 -0.17200 40.08900
H  18.86300 -5.81200 42.37400
H  19.01600 -4.22300 43.05400
H  18.21600 -5.40700 44.04700
H  20.38000 -9.64600 45.93100
H  18.64900 -9.65100 46.26900
H  19.65800 -8.77300 47.27000
H  24.36700 -9.41700 47.41300
H  25.97500 -7.62200 49.11600
H  22.73900 -7.77200 49.12900
H  24.16300 -8.01200 49.99800
H  23.27400 -9.36300 49.60600
H  27.72400 -8.55600 46.95100
H  26.49700 -9.80100 47.33800
H  27.31300 -10.00900 49.61600
H  28.15100 -8.49900 49.56400
H  28.76300 -9.87800 48.59300
H  30.31200 -5.22400 46.24800
H  29.91700 -4.29700 47.64800
H  30.71200 -3.55400 46.25200
H  27.63700 -1.38600 42.36300
H  27.82100 2.73400 43.52000
H  26.78700 2.56600 42.04800
H  28.56300 2.55200 41.96500
Mg 0.51000 42.38200 26.88400
C  2.08100 42.41500 29.97400
C  -2.34800 41.23600 28.25500
C  -0.69200 41.72200 23.78600
C  3.64900 43.20500 25.37300
N  -0.02800 41.99000 28.83600
C  0.72700 42.15700 29.98800
C  -0.18100 41.96400 31.20100
C  -1.55500 41.35200 30.71400
C  -1.30400 41.59100 29.14100
C  -1.79000 39.90500 31.18300
C  -0.39400 43.25500 32.03100
C  -0.01200 43.11500 33.56800
H  -0.31200 41.84400 34.39900
N  -1.24600 41.60400 26.11400
C  -2.39600 41.23900 26.84700
C  -3.48500 40.82200 25.94900
C  -2.96000 40.92300 24.65100
C  -1.54500 41.45000 24.79300
C  -4.90300 40.37400 26.39900
C  -3.70500 40.73300 23.35400
O  -3.21500 41.04300 22.27300
C  -5.10400 40.22900 23.23800
N  1.31500 42.41900 24.87100
C  0.64700 42.14300 23.78700
C  1.43500 42.46400 22.53200
C  2.73500 43.12600 23.02000
C  2.52600 43.02700 24.57500
C  1.65500 41.25500 21.61200
C  2.95800 44.60300 22.48600
C  3.78200 44.73800 21.13800
N  2.42600 42.81000 27.51000
C  3.61000 43.04400 26.78800
C  4.75300 43.20000 27.73600
C  4.13100 42.99900 29.04400
C  2.80300 42.69600 28.82400
C  6.15900 43.51800 27.41100
C  4.36600 42.85500 30.51700
O  5.41200 42.93800 31.17700
C  3.02100 42.61500 31.23800
C  3.06800 41.34400 32.01000
O  2.92000 40.24900 31.51600
O  3.54000 41.55700 33.30700
C  3.74500 40.36600 34.23800
H  -3.27600 40.96600 28.76400
H  -1.11700 41.53400 22.79800
H  4.59100 43.62100 25.01100
H  0.42400 41.30600 31.82600
H  -2.41000 41.90700 31.09800
H  -2.77300 39.71100 31.61400
H  -0.95100 39.51700 31.76100
H  -1.93400 39.33100 30.26800
H  -1.37900 43.70800 31.91900
H  0.30800 43.95500 31.57700
H  -0.63200 43.87500 34.04500
H  1.04800 43.30700 33.73400
H  -5.73300 41.04500 26.17700
H  -4.81300 40.35900 27.48500
H  -5.05400 39.35000 26.05600
H  -5.26900 39.25700 23.70300
H  -5.30100 40.08300 22.17600
H  -5.92500 40.93000 23.38900
H  0.87700 43.27900 22.07200
H  3.57800 42.50700 22.71300
H  1.18700 41.51700 20.66400
H  1.06700 40.43200 22.01900
H  2.70900 40.98400 21.53600
H  3.41400 45.17300 23.29600
H  1.98100 45.06100 22.33600
H  3.23300 45.29600 20.37900
H  4.08600 43.78800 20.69900
H  4.68100 45.33200 21.30400
H  6.39200 43.23300 26.38400
H  6.82600 42.97600 28.08100
H  6.31400 44.57800 27.61000
H  2.82700 43.47900 31.87300
H  4.72000 40.38000 34.72400
H  3.62100 39.34100 33.88700
H  2.96300 40.54800 34.97500

