158

Mg 29.73400 58.68000 41.63700
C  26.68400 57.55300 40.53700
C  31.29200 56.06100 40.26300
C  32.68600 60.37800 42.08200
C  28.06700 61.90400 42.26300
N  29.03100 57.04400 40.40900
C  27.76200 56.74000 40.03600
C  27.79400 55.38800 39.22500
C  29.26900 54.79000 39.39300
C  29.90200 56.02600 40.12200
C  29.34300 53.46700 40.13500
C  27.32600 55.68100 37.81000
C  26.33500 54.74200 37.19300
H  26.19700 54.51500 35.74100
N  31.66300 58.20600 41.41700
C  32.15100 56.99600 40.90500
C  33.56400 56.94800 41.03100
C  33.99100 58.18600 41.50300
C  32.71900 59.00600 41.71600
C  34.40900 55.78300 40.58700
C  35.41100 58.59400 41.72600
O  36.31400 57.84900 41.40200
C  35.85400 59.98200 42.11200
N  30.30800 60.90000 42.01100
C  31.62600 61.29000 42.19100
C  31.76000 62.67900 42.79200
C  30.23800 63.16700 42.84800
C  29.46600 61.97900 42.37200
C  32.65500 62.83600 44.05300
C  29.99500 64.46300 42.25200
C  28.83100 65.26300 42.97700
N  27.74600 59.54600 41.51500
C  27.26100 60.75700 41.85800
C  25.80900 60.75100 41.73900
C  25.56000 59.48900 41.25000
C  26.78100 58.82300 41.13100
C  24.95700 61.88800 42.11800
C  24.49400 58.54600 40.80600
O  23.26000 58.60300 40.85100
C  25.21600 57.27900 40.40400
C  24.82600 56.19000 41.30800
O  25.22900 55.95500 42.41600
O  23.69200 55.68000 40.74900
C  22.85100 54.99700 41.68400
H  31.77400 55.15800 39.88200
H  33.65200 60.87400 42.20400
H  27.54200 62.80300 42.59300
H  27.03300 54.81300 39.75300
H  29.81100 54.64100 38.46000
H  29.74700 53.59500 41.14000
H  29.95000 52.76400 39.56400
H  28.30100 53.15300 40.19500
H  28.16400 55.72300 37.11300
H  26.98500 56.70700 37.67100
H  25.35300 55.09800 37.50500
H  26.47600 53.79000 37.70400
H  34.73200 55.95600 39.56100
H  33.87600 54.83500 40.52000
H  35.18400 55.52500 41.30900
H  35.46700 60.62700 41.32300
H  36.94200 60.00000 42.16900
H  35.32900 60.23000 43.03500
H  32.21800 63.30800 42.02900
H  30.05700 63.31200 43.91300
H  32.97300 63.87900 44.05500
H  33.48300 62.13200 44.13800
H  32.04100 62.84100 44.95400
H  29.74200 64.40200 41.19300
H  30.89400 65.05600 42.41900
H  29.11200 66.26000 43.31500
H  28.35400 64.66200 43.75200
H  28.10200 65.64700 42.26400
H  25.27900 62.57800 41.33800
H  25.24600 62.29800 43.08500
H  23.91700 61.57300 42.03000
H  25.03900 57.04700 39.35400
H  22.28100 55.79600 42.15700
H  23.32800 54.30600 42.37900
H  22.10100 54.44000 41.12200
Mg 26.02900 50.63500 26.37300
C  24.06000 51.48200 29.15200
C  28.46600 49.57800 28.63200
C  28.07100 50.10700 23.79700
C  23.49200 51.77000 24.25600
N  26.17500 50.59000 28.66700
C  25.22900 50.89700 29.59700
C  25.62700 50.55700 31.06000
C  27.20600 50.31000 30.88200
C  27.36200 50.15200 29.32000
C  28.17200 51.39600 31.43100
C  24.66200 49.47900 31.70300
C  24.02300 49.80000 33.10800
H  24.94200 50.23300 34.24800
N  27.92100 49.84000 26.15300
C  28.75500 49.44900 27.22300
C  29.98000 48.90200 26.69900
C  29.95200 49.17700 25.23600
C  28.61700 49.75600 25.01700
C  30.97000 48.15100 27.57100
C  31.07300 48.85600 24.24600
O  31.11300 49.29800 23.10600
C  32.15200 47.98000 24.59900
N  25.87700 50.91500 24.31600
C  26.83800 50.60500 23.45500
C  26.34800 50.76700 22.03900
C  24.81900 50.98400 22.18700
C  24.69400 51.25800 23.69100
C  27.13000 51.82900 21.24100
C  23.87800 49.86500 21.69600
C  22.70600 50.32500 20.90200
N  24.15400 51.52500 26.64000
C  23.23100 51.97600 25.70300
C  22.04400 52.45200 26.41200
C  22.35700 52.33500 27.78000
C  23.61200 51.80200 27.82300
C  20.78600 52.92200 25.77900
C  21.84800 52.62400 29.10700
O  20.79400 53.19000 29.43600
C  22.92100 52.05400 30.07700
C  23.36300 53.14400 30.99100
O  24.43800 53.67800 30.99700
O  22.50000 53.16700 32.06000
C  22.97000 53.92200 33.18200
H  29.23900 49.25900 29.33500
H  28.60700 49.83700 22.88500
H  22.63500 51.97500 23.61200
H  25.46100 51.50300 31.57500
H  27.43400 49.34900 31.34200
H  27.58100 52.28400 31.65700
H  28.85600 51.66800 30.62700
H  28.71600 51.01400 32.29500
H  25.15000 48.51500 31.84100
H  23.76300 49.32000 31.10800
H  23.48700 48.92000 33.46400
H  23.29500 50.58200 32.89100
H  31.98600 48.38800 27.25400
H  30.88600 47.07000 27.46400
H  30.89800 48.37800 28.63400
H  32.71000 47.88300 23.66800
H  31.69800 47.04200 24.91800
H  32.87200 48.44300 25.27400
H  26.63500 49.81900 21.58400
H  24.56400 51.97400 21.80900
H  28.09700 51.78200 21.74200
H  26.59800 52.76600 21.40800
H  27.16500 51.67100 20.16300
H  23.64900 49.30300 22.60200
H  24.39700 49.29300 20.92700
H  22.62900 49.65000 20.04900
H  22.83800 51.29600 20.42400
H  21.73600 50.19800 21.38300
H  19.98300 52.82100 26.50800
H  20.52200 52.30800 24.91700
H  20.79000 53.99200 25.57500
H  22.51900 51.18200 30.59300
H  23.10900 54.93100 32.79100
H  23.91600 53.57400 33.59700
H  22.23300 53.90000 33.98400

