158

Mg 45.98600 25.30900 28.26700
C  46.83100 27.36700 30.91100
C  45.04900 22.89700 30.69100
C  45.13400 23.27300 25.76800
C  47.36800 27.56800 26.02800
N  45.94700 25.09800 30.57100
C  46.29000 26.13900 31.44800
C  46.14300 25.74900 32.94300
C  45.78100 24.15000 32.81500
C  45.56600 24.05400 31.27000
C  46.76600 23.27200 33.56000
C  45.15600 26.67500 33.66500
C  45.54300 27.01100 35.09000
H  44.52900 27.27800 36.17400
N  45.11700 23.45400 28.23400
C  44.83100 22.60200 29.29700
C  44.19000 21.42500 28.79400
C  44.26000 21.45000 27.38800
C  44.89800 22.71900 27.04100
C  43.66400 20.31400 29.66600
C  43.91500 20.31600 26.41800
O  44.13700 20.40000 25.19400
C  43.25200 19.03200 26.93600
N  46.14900 25.44700 26.16000
C  45.71200 24.51600 25.33900
C  46.07700 24.85100 23.89300
C  46.54300 26.33600 24.00800
C  46.71700 26.50800 25.51800
C  47.10500 23.93700 23.10500
C  45.48100 27.46100 23.54800
C  46.00100 28.46700 22.49500
N  47.10100 26.94200 28.36300
C  47.59900 27.81200 27.41700
C  48.26200 28.90300 28.10100
C  47.86000 28.77100 29.40900
C  47.21900 27.56900 29.60200
C  49.02200 30.06200 27.58400
C  48.16200 29.40200 30.67400
O  48.75400 30.46200 30.92600
C  47.25000 28.58500 31.69900
C  48.12100 28.43700 32.92200
O  49.06500 27.68500 32.96100
O  47.82400 29.42500 33.89600
C  48.87200 29.67900 34.93600
H  44.75200 22.23200 31.50500
H  44.82600 22.66700 24.91400
H  47.67800 28.37200 25.35800
H  47.08600 25.86700 33.47800
H  44.81800 24.08100 33.32200
H  46.24800 22.67000 34.30600
H  47.59000 23.86800 33.95400
H  47.18000 22.46900 32.95000
H  44.24700 26.08400 33.77800
H  44.88000 27.49800 33.00600
H  46.17600 27.89400 35.00400
H  46.06600 26.14800 35.50200
H  42.57500 20.31400 29.64400
H  43.93400 20.43500 30.71500
H  44.17200 19.39000 29.38900
H  44.01100 18.46500 27.47600
H  42.86800 18.44800 26.10000
H  42.50000 19.43900 27.61100
H  45.12800 24.91100 23.36200
H  47.48100 26.56400 23.50100
H  47.83000 24.50100 22.51700
H  46.59000 23.35000 22.34400
H  47.60100 23.18800 23.72100
H  45.09300 28.07400 24.36000
H  44.59700 26.96600 23.14700
H  47.07300 28.33100 22.35200
H  45.87600 29.52300 22.73600
H  45.61700 28.33400 21.48400
H  49.82600 30.13800 28.31600
H  48.42800 30.94400 27.82300
H  49.32400 30.00000 26.53900
H  46.33600 29.13800 31.91700
H  49.90500 29.47000 34.65900
H  48.60600 28.96500 35.71600
H  48.77700 30.74200 35.15800
Mg 50.68200 47.28400 43.70300
C  47.46900 47.57400 42.19100
C  50.90100 44.10400 42.25100
C  53.79100 47.22900 44.51800
C  50.67500 50.80700 44.10600
N  49.42000 46.09900 42.18300
C  48.06000 46.32200 41.97500
C  47.25300 45.17100 41.28100
C  48.41600 44.11200 41.38700
C  49.64100 44.78200 42.02600
C  47.94700 42.75100 42.04100
C  46.81700 45.61900 39.83700
C  45.38200 45.25500 39.42000
H  45.25200 44.13400 38.34400
N  52.23000 45.89200 43.40000
C  52.09400 44.60500 42.90800
C  53.42100 43.89400 43.05400
C  54.27800 44.86500 43.70600
C  53.48300 46.07300 43.88900
C  53.71700 42.53100 42.49700
C  55.81100 44.65700 44.00500
O  56.35900 43.61100 43.68700
C  56.65700 45.80100 44.46900
N  51.97700 48.86600 44.13100
C  53.16000 48.45800 44.66500
C  53.88700 49.62000 45.47900
C  53.01600 50.85800 45.12300
C  51.82300 50.14500 44.39700
C  53.95000 49.39100 47.01800
C  53.61000 51.93400 44.10200
C  53.09900 53.34800 44.34000
N  49.30300 48.86000 43.49200
C  49.46600 50.23400 43.61100
C  48.23000 50.86700 43.28000
C  47.44900 49.88100 42.71000
C  48.15700 48.71200 42.80500
C  48.00000 52.35900 43.38500
C  46.14900 49.65000 42.18700
O  45.20600 50.42400 42.05900
C  46.09400 48.14300 41.82100
C  44.99200 47.53200 42.60400
O  44.91900 47.42500 43.79100
O  44.00400 47.15500 41.67000
C  42.69400 46.62000 42.21600
H  51.08800 43.06600 41.97000
H  54.68800 47.24900 45.14000
H  50.67600 51.83700 44.46800
H  46.44200 44.96500 41.98000
H  48.69000 43.83800 40.36800
H  46.92800 42.41700 41.84700
H  48.14400 42.78700 43.11200
H  48.56900 41.87200 41.87200
H  47.31500 44.97300 39.11400
H  47.03300 46.64800 39.54900
H  44.87600 46.14800 39.05200
H  44.89900 44.97000 40.35500
H  54.38500 41.91300 43.09700
H  54.14500 42.66000 41.50300
H  52.82900 41.90900 42.37900
H  57.68900 45.54400 44.70800
H  56.33700 45.95100 45.50000
H  56.52200 46.65500 43.80500
H  54.90000 49.76900 45.10700
H  52.70900 51.39800 46.01900
H  54.87500 48.85200 47.22100
H  53.00800 48.90900 47.28000
H  54.05400 50.34300 47.53800
H  53.38800 51.81500 43.04200
H  54.69500 51.88500 44.19400
H  52.37700 53.46900 45.14700
H  52.74400 53.78200 43.40500
H  53.80600 54.08500 44.72100
H  46.91800 52.49300 43.41700
H  48.49500 53.04200 42.69400
H  48.35800 52.75300 44.33600
H  45.93400 48.10500 40.74400
H  42.34200 45.88700 41.49000
H  42.02000 47.46500 42.36400
H  42.74800 46.14000 43.19300

