158

Mg 43.31900 3.56200 47.32100
C  41.44400 6.57400 47.26300
C  40.44100 1.81000 47.27000
C  45.25200 0.94500 46.57800
C  46.26200 5.69000 46.88700
N  41.16700 4.19300 47.17200
C  40.63300 5.42600 47.25500
C  39.11000 5.26900 47.38600
C  38.87500 3.73700 47.60200
C  40.23900 3.20600 47.30500
C  38.29400 3.31700 48.98200
C  38.23500 5.97200 46.27600
C  38.93400 5.93200 44.90700
H  37.99300 6.38500 43.72800
N  42.90200 1.67500 46.92700
C  41.66800 1.07900 47.05400
C  41.82300 -0.36100 46.94700
C  43.18400 -0.65400 46.56700
C  43.84800 0.69200 46.67600
C  40.61000 -1.27700 47.09000
C  43.83100 -2.00200 46.24200
O  43.11700 -3.01500 46.28700
C  45.32700 -2.18900 45.85500
N  45.47700 3.43900 46.53200
C  45.99100 2.10100 46.65300
C  47.55000 2.20200 46.62500
C  47.85100 3.66900 46.49300
C  46.46800 4.32600 46.64400
C  48.17400 1.60900 47.95000
C  48.64600 3.98100 45.24000
C  49.92400 4.73300 45.40200
N  43.81600 5.62000 47.23900
C  45.03000 6.30800 47.12900
C  44.79300 7.76000 47.36600
C  43.38000 7.89200 47.32600
C  42.83900 6.59800 47.21200
C  45.79100 8.89100 47.51900
C  42.31900 8.86400 47.37900
O  42.31500 10.03000 47.66700
C  41.01000 8.03800 47.29400
C  40.13500 8.34400 48.51300
O  40.27300 7.95000 49.65000
O  39.21100 9.23800 48.04100
C  38.14100 9.43300 49.05600
H  39.47100 1.33800 47.43700
H  45.90500 0.07500 46.68500
H  47.13300 6.34400 46.81500
H  38.76000 5.80600 48.26800
H  38.20500 3.33800 46.84100
H  39.05800 2.99100 49.68900
H  37.52200 2.58600 48.74400
H  37.82900 4.23700 49.33700
H  38.23400 7.04200 46.48400
H  37.25500 5.51000 46.16100
H  39.20200 4.90800 44.64800
H  39.73000 6.67200 44.98600
H  40.28900 -1.63300 46.11100
H  39.75000 -0.77500 47.53400
H  40.72800 -2.14200 47.74200
H  45.90700 -2.09900 46.77400
H  45.61300 -1.52000 45.04400
H  45.46400 -3.19500 45.45800
H  47.89200 1.62800 45.76400
H  48.48400 4.00000 47.31600
H  48.53000 0.59200 47.78700
H  47.49700 1.73300 48.79600
H  49.03100 2.19800 48.27800
H  47.93300 4.56500 44.65800
H  48.99300 3.10800 44.68700
H  50.74300 4.17700 44.94700
H  50.21700 4.89500 46.43900
H  50.10900 5.67300 44.88200
H  45.27100 9.80100 47.81900
H  46.20300 8.92500 46.51100
H  46.55700 8.64900 48.25500
H  40.42500 8.34200 46.42600
H  38.44000 9.75000 50.05500
H  37.52300 8.54900 49.21300
H  37.38000 10.11000 48.66900
Mg 46.94500 25.25700 29.04800
C  47.79900 27.49700 31.74600
C  45.77400 23.04700 31.39400
C  46.96300 22.87300 26.73200
C  49.20300 27.13600 27.02600
N  46.72400 25.35200 31.25300
C  47.16700 26.27700 32.10500
C  46.77100 25.91900 33.57800
C  46.30600 24.42000 33.42400
C  46.16100 24.27100 31.93100
C  47.26000 23.35600 34.04600
C  45.60500 26.93500 34.15400
C  45.92300 27.48300 35.57700
H  46.27700 26.52900 36.74100
N  46.25600 23.35900 29.00500
C  45.79300 22.57400 30.05000
C  45.43900 21.29500 29.53700
C  45.58900 21.31200 28.11200
C  46.33500 22.50600 27.94200
C  44.93900 20.16500 30.40200
C  45.25500 20.28900 27.01300
O  45.40500 20.42500 25.76000
C  44.46700 19.07200 27.50700
N  47.92200 25.04100 27.15300
C  47.66200 24.05300 26.32200
C  48.40600 24.24400 24.97000
C  48.93900 25.68800 24.97200
C  48.65700 25.99700 26.44700
C  49.39000 23.14100 24.72100
C  48.46600 26.66900 23.90400
C  49.52600 27.49700 23.22400
N  48.17800 27.00800 29.19600
C  48.90200 27.64800 28.31100
C  49.38000 28.93900 28.89000
C  48.89600 28.89800 30.20100
C  48.21600 27.69000 30.39800
C  50.12100 29.95600 28.18100
C  49.00300 29.60400 31.48600
O  49.47400 30.68900 31.84600
C  48.28200 28.67200 32.54700
C  49.18500 28.41900 33.64800
O  49.95300 27.44800 33.64300
O  49.17700 29.35700 34.62900
C  50.14000 29.14200 35.73000
H  45.38000 22.27400 32.05800
H  46.99700 22.18600 25.88400
H  49.86900 27.75900 26.42400
H  47.64400 25.95500 34.22900
H  45.31200 24.31300 33.85700
H  47.47600 22.58700 33.30400
H  46.82400 22.88800 34.92800
H  48.22400 23.75600 34.36200
H  44.66200 26.38900 34.17200
H  45.47800 27.78000 33.47700
H  44.96900 27.93000 35.85500
H  46.67900 28.26000 35.46000
H  45.47300 19.22500 30.26600
H  43.92600 19.96900 30.05000
H  44.88700 20.36600 31.47200
H  43.45400 19.42800 27.69500
H  44.85000 18.66600 28.44300
H  44.49600 18.26500 26.77500
H  47.64100 24.15900 24.19800
H  50.02300 25.80400 24.97000
H  49.79000 22.66500 25.61700
H  50.24600 23.48700 24.14100
H  48.89500 22.36300 24.14000
H  47.72000 27.29100 24.39900
H  47.93100 26.13100 23.12200
H  49.24500 27.90800 22.25400
H  50.48200 26.99400 23.08000
H  49.69300 28.46100 23.70500
H  49.54600 30.10900 27.26800
H  51.10300 29.55000 27.93900
H  50.10100 30.88800 28.74700
H  47.39200 29.14700 32.96000
H  49.74000 28.39800 36.41900
H  50.36800 30.08200 36.23200
H  51.11800 28.72900 35.48400

