158

Mg 46.41300 24.84200 28.43600
C  47.29900 26.87900 31.20300
C  45.84100 22.33300 30.67200
C  46.01700 22.83800 25.78700
C  47.71900 27.36300 26.34700
N  46.57200 24.66400 30.69000
C  46.78200 25.65000 31.57600
C  46.45700 25.22000 33.02800
C  46.18200 23.62300 32.82100
C  46.21800 23.53800 31.27200
C  47.16800 22.68500 33.52200
C  45.24400 25.99600 33.69500
C  45.45500 26.87700 35.03000
H  44.52700 26.63300 36.24600
N  45.94200 22.89300 28.28700
C  45.69700 22.01700 29.32100
C  45.24900 20.76400 28.77200
C  45.19500 20.90000 27.39900
C  45.71600 22.25800 27.09200
C  45.14200 19.51900 29.67300
C  44.75700 19.81700 26.45700
O  44.90000 19.94400 25.21100
C  44.22600 18.58100 26.92200
N  46.98600 24.97800 26.44800
C  46.55400 24.09500 25.50000
C  46.91300 24.43600 24.08900
C  47.08100 26.01500 24.24500
C  47.33400 26.18900 25.78500
C  48.11600 23.59900 23.41500
C  45.85100 26.83800 23.73300
C  44.46000 26.19900 23.98300
N  47.28600 26.74300 28.66300
C  47.80400 27.58700 27.71400
C  48.33300 28.76100 28.39500
C  48.10400 28.56400 29.78100
C  47.52900 27.29100 29.88200
C  49.02400 29.99400 27.85200
C  48.27100 29.22400 31.11400
O  48.76300 30.32900 31.41900
C  47.72900 28.08000 32.08300
C  48.82700 27.71000 33.04500
O  49.74500 26.89300 32.79500
O  48.52500 28.33500 34.25400
C  49.35700 27.91400 35.35800
H  45.42400 21.64500 31.41000
H  45.93300 22.14300 24.95000
H  47.90000 28.27800 25.78000
H  47.38800 25.21200 33.59400
H  45.12800 23.50500 33.07500
H  47.65600 23.21800 34.33900
H  47.95000 22.36300 32.83400
H  46.45400 21.92400 33.83800
H  44.52500 25.20200 33.89900
H  44.88300 26.65900 32.90900
H  45.29200 27.92900 34.79200
H  46.51200 26.86000 35.29300
H  44.13200 19.15900 29.86800
H  45.74700 19.49100 30.58000
H  45.71000 18.72900 29.18100
H  44.92800 17.90400 27.40900
H  43.76500 18.06700 26.07800
H  43.46900 18.87700 27.64900
H  45.99800 24.12400 23.58500
H  48.01400 26.32500 23.77500
H  48.87800 24.28400 23.04300
H  47.66600 23.06500 22.57800
H  48.47200 22.87500 24.14800
H  45.95100 26.94500 22.65300
H  45.84200 27.86300 24.10300
H  44.19600 25.61900 23.09900
H  43.76200 27.00900 24.19500
H  44.40400 25.47600 24.79700
H  48.49000 30.91700 28.07700
H  49.35800 29.93900 26.81600
H  49.93500 30.09000 28.44300
H  46.80700 28.30100 32.62000
H  48.92000 27.05700 35.87000
H  49.36800 28.75600 36.04900
H  50.41200 27.78000 35.11800
Mg -10.92900 16.44500 42.94100
C  -7.46500 17.40000 42.88400
C  -11.65000 19.90100 42.45100
C  -14.03500 15.64000 42.69000
C  -9.86700 13.16600 42.66700
N  -9.65600 18.48600 42.56700
C  -8.27600 18.56000 42.73800
C  -7.86300 20.01000 42.49300
C  -9.17200 20.80800 42.59000
C  -10.24500 19.73700 42.45100
C  -9.25000 21.53800 43.99100
C  -7.00200 20.18400 41.20200
C  -5.56700 20.68700 41.22400
H  -4.64400 20.06300 40.20100
N  -12.61500 17.54800 42.75200
C  -12.72900 18.96000 42.57600
C  -14.10300 19.32300 42.39400
C  -14.84400 18.13400 42.69100
C  -13.85400 17.03700 42.78200
C  -14.66900 20.72700 42.05400
C  -16.38900 18.03800 42.70500
O  -17.07600 18.97600 42.31100
C  -17.01400 16.80200 43.33700
N  -11.83200 14.65200 42.69600
C  -13.17200 14.55200 42.66000
C  -13.62500 13.09000 42.91600
C  -12.27600 12.32500 42.57100
C  -11.21300 13.40900 42.64100
C  -14.35500 12.92700 44.29500
C  -12.38300 11.58400 41.13400
C  -12.86700 10.11500 41.08300
N  -9.09800 15.49500 42.74400
C  -8.84400 14.16100 42.74700
C  -7.41400 13.89300 42.83300
C  -6.82600 15.15500 42.97500
C  -7.91200 16.09300 42.87300
C  -6.84000 12.51200 42.74900
C  -5.56600 15.79400 43.14300
O  -4.38000 15.40100 43.29500
C  -5.94300 17.30400 43.25100
C  -5.69200 17.64000 44.63500
O  -5.94400 16.96100 45.61000
O  -5.12600 18.85600 44.64100
C  -4.88500 19.48200 46.01100
H  -11.93000 20.92300 42.18700
H  -15.04400 15.22200 42.67800
H  -9.62800 12.10700 42.79000
H  -7.20900 20.14000 43.35500
H  -9.27900 21.60100 41.84900
H  -8.31200 21.74900 44.50600
H  -9.76500 20.92200 44.72800
H  -9.90400 22.40400 43.88800
H  -7.57100 20.87100 40.57600
H  -7.04400 19.21400 40.70600
H  -5.05400 20.45100 42.15700
H  -5.50500 21.77300 41.15800
H  -14.83200 20.84800 40.98300
H  -13.98000 21.54000 42.28100
H  -15.56900 21.09500 42.54600
H  -18.03600 17.00200 43.66000
H  -16.35400 16.38100 44.09500
H  -17.03600 16.10000 42.50300
H  -14.42300 12.99000 42.18000
H  -12.02700 11.59800 43.34300
H  -14.36200 13.91800 44.74900
H  -13.83700 12.25300 44.97700
H  -15.41200 12.67000 44.23400
H  -11.59100 11.88300 40.44800
H  -13.27800 12.00100 40.67300
H  -12.13900 9.36900 40.76500
H  -13.76100 10.14400 40.46000
H  -13.27200 9.93400 42.07800
H  -7.54000 11.77600 42.35400
H  -6.61200 12.05200 43.71000
H  -5.88900 12.44300 42.22100
H  -5.32600 17.90500 42.58400
H  -3.99600 20.04800 45.73400
H  -4.57000 18.71700 46.72000
H  -5.71500 20.10800 46.34100

