158

Mg 1.65600 -2.58100 44.28600
C  5.15500 -1.72200 43.76600
C  1.05800 0.43200 42.58000
C  -1.40400 -3.70100 43.75900
C  2.76000 -5.72800 45.38600
N  2.97900 -0.89200 43.16300
C  4.34000 -0.72700 43.23300
C  4.75900 0.57300 42.67500
C  3.42800 1.36000 42.52800
C  2.40100 0.28700 42.85700
C  3.42300 2.52800 43.54600
C  5.57000 0.28400 41.28300
C  6.95600 0.95500 41.22100
H  7.21000 2.01000 40.10800
N  0.04200 -1.69500 43.48600
C  -0.02800 -0.47900 42.86500
C  -1.39300 -0.21300 42.45300
C  -2.16900 -1.36500 42.89500
C  -1.14200 -2.34800 43.46100
C  -1.93100 1.03100 41.79700
C  -3.68200 -1.51600 42.84900
O  -4.41500 -0.66400 42.41600
C  -4.34800 -2.68900 43.55700
N  0.77600 -4.48500 44.47400
C  -0.52000 -4.73300 44.21400
C  -0.91700 -6.23300 44.46800
C  0.34200 -6.70000 45.25500
C  1.40300 -5.60300 45.02500
C  -2.28300 -6.55600 45.22900
C  0.81000 -8.11000 44.92500
C  1.21800 -8.25900 43.46000
N  3.52800 -3.57700 44.49200
C  3.75300 -4.80200 45.07800
C  5.20300 -4.89200 45.38700
C  5.72900 -3.68600 44.88700
C  4.74700 -2.95000 44.23900
C  5.98600 -6.02500 45.98900
C  7.00200 -2.92700 44.86500
O  8.10000 -3.14800 45.34500
C  6.70100 -1.58800 44.10700
C  6.99000 -0.46100 45.04600
O  6.46000 -0.27700 46.16100
O  7.79200 0.37300 44.35100
C  8.13000 1.62500 45.04100
H  0.77400 1.41700 42.20400
H  -2.37500 -4.19800 43.72100
H  3.09700 -6.62600 45.90800
H  5.40300 1.11600 43.36800
H  3.27800 1.82000 41.55100
H  3.39400 2.04500 44.52300
H  2.69000 3.32800 43.44300
H  4.40800 2.99600 43.54900
H  4.96800 0.62900 40.44300
H  5.67900 -0.78700 41.10900
H  7.60000 0.07900 41.30400
H  7.17800 1.54100 42.11300
H  -1.40100 1.22000 40.86400
H  -1.75400 1.95500 42.34700
H  -2.95900 1.02500 41.43600
H  -5.37700 -2.38700 43.75300
H  -3.87200 -2.87400 44.52000
H  -4.40000 -3.64500 43.03600
H  -0.94200 -6.61500 43.44800
H  0.24900 -6.73700 46.34100
H  -3.13700 -6.66600 44.56100
H  -2.58900 -5.71600 45.85300
H  -2.24900 -7.53700 45.70200
H  -0.07400 -8.72300 45.10100
H  1.55800 -8.49400 45.61800
H  1.34100 -7.31200 42.93300
H  0.49800 -8.86000 42.90600
H  2.15000 -8.82400 43.47200
H  6.76200 -5.66300 46.66400
H  6.47800 -6.54400 45.16700
H  5.46300 -6.70800 46.65800
H  7.43100 -1.54700 43.29800
H  9.19800 1.63500 45.26200
H  7.60000 1.77800 45.98100
H  7.81900 2.43300 44.38000
Mg 24.01100 -4.74300 45.77100
C  26.32600 -2.56000 44.39500
C  21.72300 -3.69100 43.46000
C  22.18900 -7.50300 46.39400
C  26.71600 -6.15300 47.77800
N  24.03900 -3.37200 44.00800
C  25.08300 -2.48500 43.75300
C  24.75100 -1.55300 42.60300
C  23.16100 -1.67700 42.58400
C  22.92200 -2.93900 43.42700
C  22.42500 -0.43000 42.99500
C  25.42900 -1.94600 41.23500
C  25.69100 -0.90300 40.17400
H  25.20100 -1.15700 38.74300
N  22.09700 -5.41900 45.15900
C  21.33100 -4.90300 44.18500
C  20.11900 -5.59600 44.07500
C  20.18500 -6.70100 44.99000
C  21.51700 -6.57000 45.56600
C  18.91200 -5.27600 43.14600
C  19.10100 -7.74000 45.32700
O  18.06600 -7.65900 44.70700
C  19.22900 -8.70700 46.33300
N  24.37200 -6.56900 46.88000
C  23.46400 -7.55700 46.90800
C  23.85300 -8.75500 47.81700
C  25.28800 -8.24600 48.23300
C  25.41300 -6.84000 47.66200
C  22.87900 -9.17900 48.94800
C  26.41200 -9.24700 47.91100
C  27.17000 -10.02200 48.99000
N  26.12700 -4.43700 46.08800
C  27.00000 -5.00800 46.94400
C  28.29600 -4.40100 46.73800
C  28.04200 -3.37000 45.85500
C  26.71200 -3.48700 45.39100
C  29.57900 -4.63800 47.47100
C  28.58700 -2.20500 45.19400
O  29.65900 -1.64000 45.27400
C  27.52700 -1.68300 44.23400
C  27.33100 -0.23400 44.34100
O  26.86700 0.37400 45.28600
O  27.76300 0.35400 43.16700
C  27.23600 1.72300 43.00700
H  20.91500 -3.31400 42.83000
H  21.70400 -8.42000 46.73300
H  27.54900 -6.58900 48.33300
H  25.08700 -0.53400 42.79500
H  22.92100 -1.91200 41.54700
H  22.85300 -0.13700 43.95400
H  21.38300 -0.68700 43.18200
H  22.63200 0.26500 42.18100
H  24.73900 -2.57200 40.66900
H  26.27400 -2.62600 41.34400
H  26.78000 -0.91000 40.15700
H  25.47400 0.13200 40.44000
H  18.88800 -6.11600 42.45100
H  19.01800 -4.32700 42.62200
H  18.04100 -5.18000 43.79500
H  19.53100 -8.15000 47.22000
H  19.93700 -9.50900 46.12400
H  18.27400 -9.16500 46.58900
H  23.90900 -9.57400 47.10000
H  25.29100 -8.12200 49.31600
H  22.56200 -10.18600 48.67600
H  21.96100 -8.59300 48.93300
H  23.35200 -9.25600 49.92700
H  27.17700 -8.69800 47.36100
H  26.15100 -9.98300 47.15000
H  28.20100 -9.75900 48.75300
H  26.92100 -11.06700 48.80300
H  26.96900 -9.69400 50.01000
H  29.67900 -5.63200 47.90700
H  29.69700 -3.90900 48.27200
H  30.47300 -4.54400 46.85500
H  27.99900 -1.84500 43.26500
H  26.26800 1.97000 43.44300
H  27.19000 1.86700 41.92800
H  27.93800 2.48100 43.35300

