158

Mg 23.87200 -5.37800 47.03400
C  25.90200 -2.90000 45.55400
C  21.35400 -4.24500 44.80700
C  22.23000 -8.11600 47.57100
C  26.77000 -6.61900 48.57000
N  23.79900 -3.84800 45.29700
C  24.69400 -2.89500 44.92400
C  24.16100 -1.87100 43.98800
C  22.62000 -2.08300 44.12900
C  22.56000 -3.51700 44.82200
C  21.73300 -1.07200 44.88300
C  24.66800 -1.88300 42.52800
C  24.95200 -0.46200 42.02000
H  25.39300 -0.30500 40.59300
N  22.00800 -6.10200 46.34900
C  21.16800 -5.46600 45.46400
C  19.96100 -6.21800 45.36500
C  20.09600 -7.34100 46.15700
C  21.45300 -7.21900 46.75700
C  18.86500 -5.84700 44.44700
C  19.00800 -8.36300 46.47500
O  17.92200 -8.31700 45.94600
C  19.24900 -9.38100 47.52800
N  24.42800 -7.09200 47.87500
C  23.55700 -8.07200 48.08900
C  24.19900 -9.32700 48.81200
C  25.45200 -8.74300 49.34600
C  25.58700 -7.38300 48.51400
C  23.42900 -9.99900 49.97800
C  26.74800 -9.64600 49.18500
C  27.64700 -9.78800 50.38900
N  25.91600 -4.80600 47.22100
C  26.97800 -5.39300 47.92700
C  28.20800 -4.53800 47.83800
C  27.77100 -3.54200 46.89800
C  26.39300 -3.78200 46.51100
C  29.46100 -4.92500 48.44400
C  28.22600 -2.36500 46.18300
O  29.33000 -1.80400 46.19800
C  27.08700 -1.95400 45.23200
C  26.75000 -0.51300 45.53600
O  26.31000 -0.12300 46.59800
O  27.29600 0.33800 44.54400
C  27.13900 1.77300 44.70000
H  20.51600 -3.70600 44.36100
H  21.75800 -9.06500 47.83400
H  27.53700 -6.82700 49.31800
H  24.43100 -0.90800 44.42200
H  22.11100 -2.20600 43.17300
H  22.40200 -0.33800 45.33200
H  21.17300 -1.62700 45.63500
H  21.05100 -0.53600 44.22300
H  23.99300 -2.41700 41.85900
H  25.65100 -2.35300 42.55900
H  25.84200 -0.23800 42.60800
H  24.12500 0.22800 42.19200
H  18.44200 -6.78100 44.07800
H  19.18600 -5.17500 43.65100
H  18.07000 -5.34700 45.00000
H  18.35100 -9.97700 47.68700
H  19.61500 -8.91000 48.44000
H  20.03200 -10.01100 47.10300
H  24.45900 -10.05600 48.04500
H  25.24100 -8.30200 50.32000
H  22.76300 -9.22000 50.34900
H  24.06100 -10.31900 50.80700
H  22.82000 -10.81000 49.57900
H  27.24400 -9.21900 48.31400
H  26.48400 -10.66000 48.88600
H  28.63300 -10.14100 50.08600
H  27.27200 -10.49700 51.12700
H  27.70500 -8.84600 50.93500
H  30.28000 -4.23600 48.23800
H  29.71700 -5.93900 48.13700
H  29.30300 -4.82100 49.51700
H  27.44500 -1.95400 44.20200
H  27.64800 2.21400 43.84200
H  27.63000 2.10800 45.61300
H  26.12300 2.15300 44.58900
Mg -11.56800 16.96400 40.81900
C  -8.24100 15.83600 40.61900
C  -10.36600 20.09300 39.61000
C  -14.65000 17.91800 40.26000
C  -12.61500 13.62500 41.08600
N  -9.54800 17.86700 40.17200
C  -8.28100 17.16700 40.21200
C  -7.06100 18.12600 39.88600
C  -7.80300 19.51500 39.74900
C  -9.35100 19.19400 39.98200
C  -7.48000 20.49300 40.92200
C  -6.26400 17.75300 38.64400
C  -4.78900 17.61000 38.82100
H  -4.23600 16.46800 37.99100
N  -12.40400 18.82100 40.14900
C  -11.78500 19.97000 39.69000
C  -12.75800 20.99700 39.44800
C  -14.02800 20.42800 39.67800
C  -13.77000 19.00300 39.99900
C  -12.41800 22.36000 39.00100
C  -15.46300 21.14800 39.55400
O  -15.57800 22.26200 39.10200
C  -16.70200 20.48300 40.00600
N  -13.36600 15.89000 40.64200
C  -14.50800 16.55000 40.58500
C  -15.82000 15.64000 40.54800
C  -15.11200 14.24300 40.92300
C  -13.60500 14.59300 40.94100
C  -17.02400 16.14400 41.50100
C  -15.48300 13.10200 39.96300
C  -15.10200 13.26600 38.49800
N  -10.71600 15.09700 40.97500
C  -11.23900 13.85500 41.11400
C  -10.09700 12.91800 41.47900
C  -8.89800 13.67700 41.24200
C  -9.31000 14.91900 40.86800
C  -10.22600 11.47000 41.87700
C  -7.42700 13.66900 41.38500
O  -6.72300 12.70700 41.72000
C  -6.96300 15.06500 40.92700
C  -6.27400 15.69000 42.09700
O  -6.72100 16.47800 42.93300
O  -4.95300 15.34100 42.08000
C  -4.23100 16.03800 43.09400
H  -10.02900 21.05500 39.21800
H  -15.69100 18.21000 40.11300
H  -12.94400 12.63200 41.39900
H  -6.39000 18.10200 40.74500
H  -7.60200 19.98800 38.78800
H  -6.53200 21.01600 40.79800
H  -7.45700 19.92000 41.84900
H  -8.27900 21.22000 41.06800
H  -6.50500 18.46400 37.85300
H  -6.62200 16.80400 38.24300
H  -4.59800 17.48700 39.88700
H  -4.27600 18.47800 38.40600
H  -13.06300 22.82800 38.25700
H  -11.42300 22.30300 38.56000
H  -12.39000 23.05100 39.84400
H  -17.07200 19.60300 39.48000
H  -17.53800 21.18000 40.06100
H  -16.41600 20.20000 41.01900
H  -16.19800 15.65300 39.52600
H  -15.38500 13.95600 41.93800
H  -16.73000 16.99700 42.11200
H  -17.27900 15.28000 42.11600
H  -17.93500 16.37600 40.95100
H  -16.56700 13.00400 40.01600
H  -15.06500 12.16100 40.32000
H  -15.98000 13.10300 37.87200
H  -14.32500 12.53800 38.26300
H  -14.67300 14.26400 38.41500
H  -10.80300 11.39300 42.79900
H  -9.21500 11.08300 42.00700
H  -10.69700 10.99500 41.01600
H  -6.23800 15.02700 40.11400
H  -4.33800 17.08300 42.80000
H  -3.17100 15.79500 43.02900
H  -4.54200 15.81700 44.11500

