158

Mg 16.53300 -1.45000 27.99200
C  15.73400 0.39800 30.82500
C  18.71600 -3.37900 30.01500
C  17.96700 -2.99700 25.29600
C  14.80600 0.74900 25.98200
N  17.22200 -1.40500 30.13900
C  16.65000 -0.68200 31.16100
C  17.37800 -0.79400 32.50800
C  18.37300 -1.96700 32.17500
C  18.06200 -2.27200 30.69400
C  19.89600 -1.77400 32.42900
C  16.35200 -1.08800 33.66900
C  16.82900 -1.75500 34.95600
H  17.23900 -0.89000 36.12500
N  18.00700 -3.19900 27.65900
C  18.70400 -3.84100 28.63100
C  19.39600 -4.95300 28.06800
C  19.12100 -4.90300 26.69600
C  18.35600 -3.69800 26.45800
C  20.28100 -5.92300 28.81400
C  19.64400 -5.75900 25.52300
O  19.42700 -5.37400 24.35600
C  20.45900 -7.07500 25.71700
N  16.43800 -1.14700 25.94500
C  17.12300 -1.89500 25.02900
C  16.75700 -1.42300 23.65800
C  15.56800 -0.40300 23.84100
C  15.61300 -0.24400 25.30800
C  18.02000 -0.86800 22.88200
C  14.10200 -0.68800 23.42800
C  13.86500 -0.17300 21.97500
N  15.38000 0.12600 28.27500
C  14.72800 0.92500 27.36100
C  13.91100 1.87800 28.05900
C  14.30900 1.73400 29.41600
C  15.20600 0.63300 29.51900
C  13.11900 2.88300 27.46600
C  14.08400 2.29600 30.70800
O  13.32700 3.23000 31.03300
C  14.99900 1.41300 31.78300
C  15.88600 2.35100 32.50300
O  16.83000 3.03000 32.10400
O  15.46000 2.49100 33.76600
C  15.94700 3.61900 34.53500
H  19.47500 -3.78500 30.68800
H  18.39700 -3.33900 24.35300
H  14.19100 1.38500 25.34100
H  17.88300 0.13700 32.76200
H  18.09200 -2.85300 32.74500
H  20.13900 -1.15000 33.28900
H  20.33300 -1.29800 31.55200
H  20.33700 -2.74500 32.65500
H  15.58200 -1.76400 33.29900
H  15.89000 -0.13800 33.93800
H  17.76800 -2.28800 34.80300
H  16.06300 -2.34800 35.45400
H  20.16400 -5.80500 29.89100
H  21.35000 -5.86300 28.60800
H  20.08400 -6.96300 28.55400
H  19.73700 -7.70900 26.23300
H  21.31400 -7.00500 26.39000
H  20.86100 -7.52600 24.81000
H  16.40900 -2.23100 23.01500
H  15.81500 0.57600 23.43100
H  18.87700 -0.75800 23.54700
H  17.73500 0.09900 22.46900
H  18.30800 -1.48900 22.03300
H  13.40700 -0.21500 24.12200
H  13.93900 -1.76500 23.40800
H  14.84700 0.06100 21.56400
H  13.33700 0.76400 22.15300
H  13.32900 -0.93700 21.41100
H  13.41400 3.21900 26.47200
H  13.17600 3.81700 28.02400
H  12.11900 2.45000 27.43500
H  14.25800 1.02500 32.48200
H  15.04100 3.96700 35.03100
H  16.28300 4.50400 33.99400
H  16.75000 3.19600 35.13900
Mg 54.64600 23.98900 44.95300
C  52.13600 26.14900 43.89600
C  52.71800 21.28200 43.93600
C  57.51200 22.01200 44.95700
C  56.72000 26.71600 45.61900
N  52.61500 23.79100 44.10900
C  51.81700 24.82300 43.67700
C  50.45100 24.27400 43.25200
C  50.53200 22.69800 43.63300
C  52.05500 22.50300 43.89400
C  49.62900 22.26500 44.88300
C  50.17700 24.46800 41.70300
C  48.73000 24.83800 41.41400
H  48.15800 24.61100 40.05800
N  55.00900 22.00800 44.56100
C  54.03300 21.00100 44.31400
C  54.58900 19.71000 44.33500
C  56.02400 19.92400 44.35100
C  56.26000 21.36300 44.58700
C  53.75300 18.50300 43.99500
C  57.05200 18.85600 44.14500
O  56.72200 17.66900 44.09700
C  58.43100 19.26300 43.84600
N  56.82300 24.39800 45.12400
C  57.75400 23.36600 45.23400
C  59.08200 23.82800 45.95300
C  58.84400 25.42100 46.03500
C  57.36400 25.50500 45.63200
C  59.18200 23.07500 47.39600
C  59.70800 26.23500 45.10900
C  61.25200 25.79900 44.87800
N  54.49700 26.05600 44.83900
C  55.42000 27.01500 45.23500
C  54.63200 28.29900 45.21300
C  53.35300 27.94400 44.68900
C  53.36900 26.62800 44.41700
C  55.15600 29.68300 45.65200
C  52.05600 28.50800 44.47900
O  51.55500 29.61000 44.70600
C  51.17300 27.37500 43.86400
C  50.84200 27.79100 42.52900
O  51.61600 27.89100 41.62400
O  49.57100 28.23200 42.62600
C  48.98400 28.92900 41.41200
H  52.07500 20.42100 43.74200
H  58.31000 21.27200 45.04600
H  57.30000 27.62000 45.81400
H  49.74500 24.85700 43.84300
H  50.20500 22.08500 42.79400
H  49.49500 21.18500 44.82400
H  48.60200 22.62600 44.83300
H  49.99000 22.49400 45.88600
H  50.31700 23.49500 41.23200
H  51.00400 25.12300 41.43000
H  48.67000 25.90300 41.64000
H  48.00300 24.38200 42.08500
H  53.38700 18.55400 42.97000
H  52.93600 18.69100 44.69300
H  54.19200 17.57800 44.36900
H  58.99200 18.52600 43.27200
H  58.98300 19.34800 44.78200
H  58.34100 20.16000 43.23300
H  60.01700 23.64100 45.42500
H  58.94100 25.74900 47.07000
H  59.29900 23.80300 48.19800
H  59.96600 22.32000 47.44900
H  58.22900 22.62000 47.66600
H  59.85000 27.24100 45.50100
H  59.13000 26.41300 44.20200
H  61.40600 24.94800 44.21400
H  61.78900 25.67200 45.81800
H  61.80200 26.53500 44.29100
H  56.23500 29.73100 45.50300
H  55.05500 29.87000 46.72100
H  54.64500 30.38000 44.98700
H  50.30300 27.07400 44.44800
H  49.69600 28.99500 40.59000
H  48.60400 29.94100 41.55300
H  48.12800 28.34000 41.08400

