158

Mg 53.74600 24.53700 43.82000
C  51.02700 26.99000 43.03800
C  51.41200 22.28200 42.72000
C  56.24200 22.49800 43.34200
C  55.73200 27.21700 44.61700
N  51.48600 24.67400 42.75400
C  50.59500 25.71200 42.72200
C  49.21900 25.24000 42.25200
C  49.27300 23.67600 42.45000
C  50.82000 23.53000 42.72100
C  48.48500 23.13300 43.71500
C  48.76700 25.72300 40.91500
C  49.84500 25.77200 39.75500
H  49.23400 25.78200 38.35600
N  53.80600 22.55700 43.42700
C  52.76100 21.84000 42.99900
C  53.23300 20.42900 42.77200
C  54.68200 20.46100 43.06900
C  54.96100 21.87900 43.27100
C  52.40100 19.33300 42.26900
C  55.64600 19.25100 42.92500
O  55.19800 18.14300 42.54300
C  57.08500 19.32000 43.22600
N  55.76100 24.89500 43.76600
C  56.69800 23.84400 43.58800
C  58.14500 24.39000 43.51200
C  57.85300 25.89600 44.06600
C  56.36000 26.02700 44.20400
C  59.26300 23.55900 44.19500
C  58.54500 27.02300 43.31300
C  57.79500 27.73900 42.23300
N  53.40100 26.59800 44.00500
C  54.34700 27.56200 44.44700
C  53.71600 28.89800 44.52400
C  52.43300 28.68500 43.98100
C  52.27400 27.32200 43.62600
C  54.20500 30.08700 45.22400
C  51.12900 29.31700 43.70700
O  50.74900 30.45100 43.83200
C  50.25900 28.31200 42.99500
C  49.87200 28.83600 41.60900
O  50.62200 29.09500 40.65800
O  48.56200 29.07800 41.73400
C  47.95300 29.54100 40.45900
H  50.73600 21.48500 42.40300
H  57.09600 21.83900 43.17000
H  56.38700 28.04300 44.90100
H  48.60400 25.71200 43.01900
H  49.03300 23.19500 41.50200
H  47.58500 22.69400 43.28500
H  48.40100 23.93600 44.44700
H  49.12500 22.40700 44.21600
H  48.18300 26.64300 40.93700
H  48.08000 24.91900 40.65300
H  50.66700 25.06500 39.86800
H  50.27400 26.77000 39.66000
H  52.34700 19.51400 41.19600
H  51.36800 19.49000 42.58100
H  52.69400 18.30600 42.48300
H  57.56700 19.50400 42.26600
H  57.50500 18.37200 43.56300
H  57.37200 20.06900 43.96500
H  58.42200 24.35500 42.45800
H  58.31400 25.88300 45.05400
H  58.84300 23.27000 45.15800
H  60.14900 24.15900 44.40200
H  59.41600 22.69300 43.55000
H  59.39200 26.53700 42.83000
H  58.90000 27.70700 44.08500
H  57.46100 28.69600 42.63300
H  56.83300 27.26700 42.03700
H  58.35100 27.74300 41.29500
H  53.70600 30.92900 44.74400
H  55.27100 30.15100 45.00900
H  54.04200 30.01900 46.29900
H  49.39000 28.23600 43.65000
H  47.67600 30.59500 40.48700
H  47.03600 28.95900 40.37200
H  48.52500 29.28700 39.56600
Mg 46.68900 25.40700 27.88000
C  47.80700 27.46700 30.54000
C  45.56500 23.14600 30.36300
C  46.22500 23.17600 25.51400
C  48.16900 27.61700 25.68700
N  46.60000 25.37000 30.16000
C  47.13100 26.31800 30.98000
C  46.92300 25.97500 32.46400
C  46.33200 24.52600 32.34300
C  46.18200 24.31200 30.87700
C  47.22000 23.48100 33.03100
C  45.90700 26.96200 33.10400
C  46.44000 27.62800 34.40100
H  45.30500 27.91400 35.42500
N  45.81800 23.47300 27.89400
C  45.37600 22.70600 29.00500
C  44.65000 21.52900 28.48400
C  44.91300 21.46700 27.04400
C  45.68600 22.72900 26.75400
C  43.82200 20.58300 29.29600
C  44.54900 20.41700 25.98400
O  44.91500 20.53300 24.81600
C  43.59300 19.26400 26.31100
N  47.16400 25.42600 25.93200
C  46.83400 24.39800 25.07700
C  47.09300 24.78400 23.57400
C  47.31500 26.36000 23.62200
C  47.58500 26.51700 25.17300
C  48.24100 24.01400 22.86500
C  46.14700 27.36100 23.22100
C  46.72300 28.54900 22.36200
N  47.84400 27.12900 28.04200
C  48.38000 27.92600 27.03500
C  49.18500 29.00800 27.61500
C  49.01500 28.80700 29.00300
C  48.10000 27.69800 29.18500
C  49.81800 30.12900 26.88600
C  49.22400 29.41700 30.25900
O  49.87700 30.40600 30.52300
C  48.51200 28.55400 31.30700
C  49.62400 28.08900 32.18100
O  50.26000 27.02700 32.01700
O  49.76600 28.93300 33.28500
C  50.82900 28.57200 34.21100
H  45.18300 22.46100 31.12300
H  46.27500 22.41000 24.73800
H  48.41600 28.26100 24.84100
H  47.80000 26.04400 33.10800
H  45.30000 24.38600 32.66400
H  47.90700 23.03200 32.31400
H  46.53500 22.66500 33.26300
H  47.56600 23.78300 34.02000
H  44.92200 26.52500 33.26600
H  45.72900 27.74500 32.36700
H  46.94400 28.56700 34.17300
H  47.16900 26.99100 34.90200
H  42.87800 20.42400 28.77400
H  43.67400 21.01900 30.28400
H  44.37300 19.64700 29.38800
H  43.81400 18.55300 25.51600
H  42.54100 19.54000 26.25100
H  43.74100 18.86400 27.31400
H  46.18900 24.47900 23.04700
H  48.23900 26.72500 23.17500
H  48.04000 23.47100 21.94200
H  48.62700 23.39100 23.67200
H  49.08500 24.65400 22.60500
H  45.57200 27.64800 24.10200
H  45.45200 26.75300 22.64200
H  46.24300 28.53600 21.38300
H  47.80400 28.44000 22.27600
H  46.47000 29.49200 22.84800
H  50.09800 29.79600 25.88600
H  50.65700 30.54900 27.44000
H  49.12900 30.97100 26.95500
H  47.81200 29.15200 31.89100
H  50.38100 27.85100 34.89400
H  51.00500 29.37200 34.93000
H  51.75300 28.14600 33.82200

