158

Mg 25.06400 2.20700 30.44000
C  27.17300 2.18400 33.12500
C  22.41600 2.46200 32.50100
C  22.96400 1.99600 27.80500
C  27.74400 1.72200 28.31600
N  24.85800 2.19100 32.61900
C  25.83700 2.32000 33.50700
C  25.23700 2.76800 34.83100
C  23.71600 2.66000 34.60400
C  23.65500 2.43500 33.09300
C  23.06500 1.58600 35.55500
C  25.82900 4.10300 35.48200
C  26.12600 3.89000 37.01400
H  25.41500 4.84900 37.97800
N  23.01300 2.14200 30.17600
C  22.04900 2.24600 31.17600
C  20.75900 2.16900 30.61900
C  20.92100 2.06800 29.22600
C  22.34300 2.12200 28.99600
C  19.49500 2.30100 31.46500
C  19.88900 2.05200 28.13000
O  20.14300 1.75900 26.96700
C  18.43700 1.96300 28.54400
N  25.24700 1.64600 28.39700
C  24.28300 1.83300 27.49600
C  24.89100 1.86200 26.07100
C  26.41200 1.91900 26.22300
C  26.49600 1.76000 27.73100
C  24.33500 0.82100 25.01300
C  27.06300 3.24100 25.58000
C  26.72100 4.59600 26.24800
N  27.12300 1.83200 30.66900
C  28.10100 1.63000 29.72800
C  29.35500 1.45100 30.42900
C  29.06100 1.70800 31.75800
C  27.69800 1.97400 31.80600
C  30.66900 1.12900 29.74900
C  29.62100 1.76900 33.01900
O  30.77500 1.63700 33.38800
C  28.44200 2.21800 33.95600
C  28.32900 1.30100 35.12300
O  27.70500 0.23000 35.07900
O  28.93800 1.79800 36.25800
C  28.86800 1.14800 37.48400
H  21.51200 2.58300 33.10100
H  22.28400 1.97700 26.95100
H  28.56400 1.72900 27.59500
H  25.53500 1.92100 35.44900
H  23.29100 3.63800 34.83100
H  23.77800 1.27900 36.32000
H  22.74500 0.72100 34.97400
H  22.10900 1.97900 35.90000
H  25.24300 5.01200 35.35000
H  26.71400 4.25700 34.86300
H  27.19300 4.08100 37.12800
H  25.90600 2.89400 37.39800
H  18.88200 3.15300 31.17200
H  19.54600 2.29100 32.55400
H  19.04500 1.31400 31.35900
H  18.20300 2.77100 29.23700
H  18.28400 1.05600 29.12800
H  17.74000 2.03600 27.70900
H  24.63700 2.85200 25.69100
H  26.71000 1.03200 25.66500
H  23.68900 0.07400 25.47300
H  25.15400 0.28400 24.53500
H  23.78000 1.36000 24.24500
H  26.70900 3.29500 24.55100
H  28.15000 3.15600 25.58800
H  26.57700 4.45100 27.31900
H  25.93900 5.09000 25.67200
H  27.59100 5.22800 26.06700
H  31.46000 1.59200 30.33900
H  30.72200 1.58100 28.75800
H  30.84500 0.07300 29.54500
H  28.51300 3.22400 34.37000
H  27.82100 1.34200 37.71700
H  29.56000 1.55900 38.21900
H  29.06900 0.08200 37.37200
Mg 36.41900 49.83800 24.75300
C  36.52600 47.72300 27.70100
C  35.03100 52.19600 26.78100
C  35.63300 51.43800 21.89100
C  37.49700 47.03300 22.87800
N  35.84600 49.90500 27.02200
C  36.09600 49.05000 28.01300
C  35.80000 49.67600 29.44500
C  35.08600 51.06100 29.03800
C  35.33400 51.05600 27.54700
C  33.59000 51.26100 29.41400
C  36.96600 49.68100 30.48000
C  36.55200 49.84000 32.00800
H  35.06700 49.85900 32.39000
N  35.53700 51.64400 24.38600
C  35.07900 52.46100 25.40300
C  34.94100 53.76500 24.68900
C  34.96100 53.52400 23.26700
C  35.31500 52.13000 23.11800
C  34.54700 54.90400 25.47300
C  34.54700 54.47000 22.15700
O  34.48200 54.10500 20.97100
C  34.15800 55.86700 22.44700
N  36.45000 49.32600 22.70100
C  36.19200 50.21700 21.69400
C  36.61700 49.65500 20.39200
C  37.49400 48.45100 20.78900
C  37.13100 48.22700 22.21600
C  35.55200 49.29900 19.36100
C  39.05800 48.60800 20.56100
C  39.62100 47.67400 19.40500
N  37.00700 47.87500 25.13300
C  37.35200 46.88000 24.26600
C  37.69800 45.64600 25.03700
C  37.38400 45.97000 26.32700
C  36.95800 47.32600 26.37200
C  38.19600 44.26700 24.46300
C  37.39200 45.43900 27.69800
O  37.76700 44.40400 28.12900
C  36.88900 46.58700 28.64700
C  35.76700 46.03500 29.43100
O  34.99600 45.16400 28.96500
O  35.67800 46.51200 30.71200
C  34.68000 45.84600 31.55300
H  34.55700 52.97100 27.38600
H  35.41900 51.99800 20.97800
H  37.99100 46.33300 22.20100
H  35.08800 48.93000 29.79900
H  35.69000 51.85100 29.48400
H  32.90600 50.94800 28.62400
H  33.46100 52.27100 29.80200
H  33.22900 50.62200 30.22000
H  37.71000 50.45700 30.30500
H  37.55800 48.77300 30.36500
H  37.04500 50.72100 32.41900
H  36.94000 48.94200 32.49000
H  34.86600 55.86100 25.05900
H  35.06300 54.90600 26.43300
H  33.47200 54.92800 25.64900
H  35.00400 56.45800 22.80000
H  33.33000 55.78900 23.15100
H  33.79000 56.28900 21.51200
H  37.22800 50.43000 19.93000
H  37.18000 47.56200 20.24300
H  35.94800 48.57200 18.65200
H  35.27200 50.21700 18.84500
H  34.65800 48.84600 19.78900
H  39.49800 48.20400 21.47200
H  39.40100 49.61200 20.31300
H  40.04300 46.79300 19.88900
H  40.39500 48.18300 18.83100
H  38.79600 47.25700 18.82700
H  38.81800 43.71500 25.16800
H  38.63400 44.43100 23.47900
H  37.34900 43.60300 24.29000
H  37.73300 46.64500 29.33500
H  35.04100 45.99400 32.57100
H  34.51800 44.77200 31.45600
H  33.69600 46.28700 31.40000

