158

Mg 7.81300 3.38400 28.12900
C  8.93900 1.67600 31.00500
C  5.66600 5.18500 30.24400
C  6.53500 4.72400 25.30700
C  9.51900 1.00200 26.15700
N  7.21300 3.31800 30.38000
C  8.00500 2.62900 31.31900
C  7.54800 3.08800 32.80800
C  6.33500 4.06300 32.45100
C  6.36300 4.19200 30.95800
C  4.96400 3.76500 32.99400
C  8.71100 3.71900 33.68900
C  8.35800 4.48000 35.04500
H  8.99500 4.14300 36.32200
N  6.36800 4.74500 27.80800
C  5.65900 5.45600 28.82700
C  4.88400 6.47000 28.15600
C  5.07800 6.30900 26.72100
C  6.02200 5.25500 26.54400
C  3.99000 7.50600 28.91700
C  4.34200 7.08400 25.60400
O  4.31600 6.70000 24.43300
C  3.58800 8.27800 25.96000
N  7.98500 2.90900 26.02200
C  7.42800 3.71100 25.06300
C  7.64200 3.07300 23.69300
C  8.93300 2.19700 23.91200
C  8.77500 1.96000 25.44700
C  6.45400 2.20600 23.14200
C  10.18200 2.87500 23.49400
C  10.99400 3.70500 24.49200
N  9.00500 1.76700 28.49600
C  9.63900 0.88000 27.57200
C  10.48100 0.01400 28.30000
C  10.26600 0.29400 29.65000
C  9.31900 1.35600 29.70300
C  11.31800 -1.09500 27.71400
C  10.53600 -0.17300 30.97800
O  11.33400 -1.02000 31.34800
C  9.75400 0.76000 31.94700
C  9.08600 -0.06200 32.98100
O  8.14100 -0.84700 32.79400
O  9.58300 0.23500 34.26200
C  8.78800 -0.27000 35.36500
H  4.96500 5.78400 30.82900
H  6.12300 5.23300 24.43300
H  10.10000 0.25500 25.61300
H  7.16800 2.15400 33.22100
H  6.59500 5.07600 32.75900
H  4.21800 3.71600 32.20100
H  4.65400 4.53700 33.69800
H  5.08400 2.82000 33.52400
H  9.29700 4.40500 33.07700
H  9.34400 2.89400 34.01500
H  7.28800 4.59400 35.21300
H  8.58600 5.53300 34.87800
H  2.92200 7.35200 28.76800
H  4.47100 8.33800 28.40300
H  4.04800 7.52700 30.00600
H  2.71600 8.23700 26.61300
H  3.14900 8.75300 25.08200
H  4.37000 8.90900 26.38000
H  7.71000 3.90400 22.99200
H  8.84600 1.17300 23.55000
H  5.55300 2.31500 23.74600
H  6.76500 1.17300 22.98300
H  6.17900 2.60400 22.16500
H  9.96100 3.66400 22.77600
H  10.81000 2.25800 22.85100
H  12.03400 3.40600 24.36400
H  10.89200 3.49200 25.55600
H  10.82700 4.77400 24.36000
H  10.88300 -1.47300 26.78900
H  11.02500 -1.86200 28.43100
H  12.36500 -0.83200 27.56600
H  10.40900 1.41000 32.52700
H  8.69300 0.62600 35.97700
H  9.34100 -1.04600 35.89500
H  7.77500 -0.59700 35.13100
Mg 40.40800 9.92900 29.03900
C  42.26300 11.31900 31.61100
C  38.31400 8.66100 31.45000
C  38.70200 8.52400 26.45600
C  42.99600 10.64600 26.76900
N  40.36500 9.99700 31.25900
C  41.10500 10.73100 32.10000
C  40.62500 10.62800 33.49100
C  39.54900 9.53600 33.52100
C  39.32200 9.45000 31.96300
C  39.96900 8.14100 34.13800
C  40.24800 11.96900 34.09700
C  39.92800 11.79100 35.59900
H  40.83100 12.42600 36.75600
N  38.69800 8.84200 28.96100
C  38.01000 8.39100 30.08100
C  36.90100 7.59600 29.63900
C  36.94100 7.63100 28.21500
C  38.16000 8.34400 27.77000
C  36.08800 6.73100 30.52500
C  35.92100 7.07000 27.26600
O  36.14300 7.09500 26.05500
C  34.61200 6.58600 27.77400
N  40.89200 9.45700 26.93700
C  39.94900 9.03800 26.08400
C  40.52600 9.04000 24.61100
C  41.89500 9.76000 24.80000
C  41.94300 9.97900 26.24200
C  40.48700 7.70900 23.81900
C  41.94100 11.08700 23.92800
C  41.39500 12.43000 24.62900
N  42.29200 10.76400 29.12100
C  43.22500 10.97700 28.10600
C  44.35700 11.72800 28.65000
C  44.01400 11.83500 30.06100
C  42.73800 11.19300 30.27200
C  45.42500 12.34500 27.84900
C  44.45700 12.38000 31.33400
O  45.48400 12.96600 31.65700
C  43.32000 12.16100 32.35300
C  43.92900 11.43900 33.53400
O  44.41800 10.31800 33.48700
O  43.71100 12.19000 34.60800
C  44.03400 11.65000 35.90400
H  37.66000 8.27100 32.23300
H  38.15900 8.33000 25.52900
H  43.70000 11.02600 26.02600
H  41.40700 10.30600 34.17800
H  38.58000 9.74500 33.97500
H  39.19000 7.87400 34.85200
H  40.94200 8.31100 34.59800
H  40.01500 7.36400 33.37400
H  39.36200 12.34100 33.58200
H  41.02800 12.69100 33.85700
H  39.85300 10.74500 35.89700
H  38.96900 12.21700 35.89400
H  36.60000 6.55100 31.47000
H  36.11400 5.79000 29.97600
H  35.02600 6.96600 30.59400
H  34.80800 5.57900 28.14200
H  33.85600 6.48300 26.99500
H  34.20600 7.27300 28.51600
H  39.81300 9.72400 24.14900
H  42.73600 9.13500 24.50100
H  40.27800 6.90200 24.52100
H  41.42700 7.59400 23.27800
H  39.58700 7.82400 23.21500
H  41.44200 10.93000 22.97200
H  43.01600 11.24600 23.84800
H  42.18500 13.17900 24.68700
H  40.91800 12.20000 25.58200
H  40.55300 12.63400 23.96800
H  45.19200 13.36700 27.55000
H  45.70700 11.74600 26.98300
H  46.29000 12.47800 28.50000
H  42.88500 13.14500 32.53400
H  43.38600 10.79800 36.10800
H  43.96700 12.35400 36.73300
H  45.09500 11.40300 35.92400

