158

Mg 48.42200 34.10500 27.43700
C  46.36200 32.62800 29.98900
C  48.38900 36.99300 29.46500
C  49.22800 35.89200 24.78400
C  47.78200 31.28200 25.57500
N  47.58300 34.68700 29.47100
C  47.02800 33.82000 30.36600
C  47.03300 34.39200 31.78400
C  47.21200 35.96500 31.48000
C  47.73900 35.90500 30.02100
C  45.80200 36.74300 31.59300
C  48.22400 33.88300 32.62400
C  48.15500 34.21700 34.12300
H  47.03000 35.10300 34.75500
N  48.93100 36.13300 27.17900
C  48.83600 37.13800 28.12400
C  49.47100 38.35800 27.50600
C  49.67600 38.10500 26.10000
C  49.29900 36.67700 25.95300
C  49.71000 39.62100 28.30000
C  50.04600 39.01000 24.98100
O  50.28900 38.48000 23.90300
C  50.26400 40.43400 25.24400
N  48.57400 33.62200 25.47100
C  49.00100 34.53000 24.52600
C  48.96500 33.84500 23.10100
C  48.83200 32.29800 23.44500
C  48.42400 32.39800 24.93900
C  47.84500 34.48000 22.18300
C  50.04300 31.33200 23.03400
C  51.25300 31.10300 23.93900
N  47.43700 32.27000 27.65000
C  47.19400 31.30600 26.77700
C  46.41700 30.27200 27.44300
C  45.85700 30.88200 28.53300
C  46.58200 32.04200 28.72200
C  46.13100 28.90200 26.96200
C  44.96100 30.67400 29.67400
O  44.26700 29.68700 29.98600
C  45.16700 31.91300 30.63400
C  45.43900 31.38800 31.99800
O  46.47300 30.90800 32.43300
O  44.29700 31.62900 32.61200
C  44.14600 31.22300 34.03800
H  48.50300 37.86500 30.11300
H  49.35500 36.44700 23.85200
H  47.74700 30.44000 24.88100
H  46.09300 34.16500 32.28600
H  47.88500 36.54800 32.10800
H  45.67200 37.27500 30.65100
H  45.89200 37.42300 32.44000
H  44.92100 36.11400 31.72700
H  49.18500 34.26100 32.27600
H  48.32400 32.80300 32.51100
H  49.08000 34.72500 34.39500
H  48.26200 33.29000 34.68600
H  48.75600 39.88800 28.75500
H  50.05400 40.48100 27.72600
H  50.39300 39.38900 29.11800
H  49.40800 40.90400 25.72900
H  50.63500 40.92700 24.34500
H  51.07500 40.54000 25.96500
H  49.91600 33.87000 22.57000
H  47.98800 31.85700 22.91500
H  48.41100 34.69400 21.27600
H  47.47800 35.38900 22.66100
H  47.00600 33.80500 22.01300
H  50.43700 31.53100 22.03800
H  49.48900 30.39300 23.04100
H  52.10300 31.42700 23.33800
H  51.38800 30.09200 24.32300
H  51.06800 31.79000 24.76400
H  46.02300 28.13500 27.72900
H  46.88900 28.58400 26.24500
H  45.23200 28.92800 26.34600
H  44.26400 32.51900 30.56100
H  43.95900 30.15200 33.95900
H  43.21300 31.62300 34.43500
H  44.98300 31.51500 34.67300
Mg -1.54100 34.59900 25.88700
C  -3.17500 32.61800 28.44800
C  -0.18400 36.52000 28.26900
C  -0.21500 36.20800 23.40500
C  -3.49500 32.77900 23.47200
N  -1.57900 34.58500 28.13100
C  -2.34500 33.72900 28.91000
C  -2.12200 34.04300 30.42200
C  -1.36600 35.38600 30.34600
C  -0.98400 35.53700 28.89800
C  -2.18000 36.55300 30.77600
C  -1.28100 32.92600 31.19400
C  -1.98100 32.13100 32.29300
H  -1.23100 32.14000 33.64000
N  -0.26900 36.07800 25.81100
C  0.18200 36.79500 26.89500
C  1.07300 37.79700 26.42400
C  1.21800 37.61800 25.02100
C  0.18900 36.63700 24.68500
C  1.83700 38.69900 27.38200
C  2.21700 38.11700 23.99200
O  2.21600 37.93300 22.73400
C  3.21200 39.01200 24.56000
N  -1.88900 34.60600 23.79100
C  -1.21500 35.42200 22.96600
C  -1.63100 35.33900 21.52800
C  -2.49000 34.07500 21.54700
C  -2.67100 33.78800 23.05000
C  -2.42900 36.60400 21.03800
C  -1.87400 32.86600 20.83700
C  -0.53900 32.46200 21.40200
N  -3.06600 33.08900 25.92400
C  -3.79300 32.46500 24.83800
C  -4.58800 31.41800 25.39300
C  -4.33000 31.38900 26.77300
C  -3.46200 32.44500 27.02200
C  -5.17600 30.33200 24.61300
C  -4.62800 30.71800 28.07200
O  -5.34000 29.76700 28.21900
C  -3.86100 31.43500 29.17600
C  -4.90700 31.73500 30.21700
O  -5.47800 32.77500 30.25300
O  -4.92400 30.80300 31.18300
C  -5.54400 30.99000 32.49400
H  0.27700 37.13600 29.04400
H  -0.15600 36.91600 22.57600
H  -4.09400 32.26900 22.71500
H  -3.14400 34.16500 30.78000
H  -0.41200 35.39600 30.87200
H  -3.04000 36.61000 30.10900
H  -1.57000 37.45200 30.68800
H  -2.47400 36.32900 31.80100
H  -0.37400 33.36900 31.60400
H  -0.99900 32.23600 30.39800
H  -2.14100 31.12200 31.91300
H  -2.92000 32.62000 32.54900
H  2.92400 38.64800 27.32300
H  1.59600 38.67200 28.44400
H  1.77400 39.76600 27.17200
H  3.68100 38.49000 25.39500
H  2.69900 39.91000 24.90300
H  4.06700 39.19700 23.91000
H  -0.75000 35.31200 20.88600
H  -3.47200 34.23000 21.09900
H  -1.75500 37.42100 20.78000
H  -3.12500 36.97300 21.79100
H  -2.95500 36.33600 20.12100
H  -1.68200 33.17500 19.80900
H  -2.53400 32.00700 20.95400
H  0.18000 32.37700 20.58700
H  -0.64000 31.47500 21.85400
H  -0.15800 33.16300 22.14400
H  -4.66500 30.03700 23.69600
H  -6.16000 30.61800 24.24000
H  -5.45500 29.49300 25.25100
H  -3.04800 30.89000 29.65700
H  -4.90200 31.70700 33.00600
H  -5.72400 30.06100 33.03500
H  -6.53800 31.43500 32.53000

