158

Mg 44.98600 4.55300 48.28100
C  42.85600 7.21100 47.45900
C  42.49400 2.40300 47.86000
C  47.29000 2.14800 48.45500
C  47.70100 6.95900 48.24800
N  42.89600 4.80100 47.73900
C  42.20800 5.89000 47.42400
C  40.69300 5.58000 47.14500
C  40.51900 4.06000 47.38700
C  42.05800 3.72300 47.71400
C  39.54000 3.75600 48.49500
C  40.21000 6.08600 45.75700
C  38.99300 6.93700 45.68500
H  38.23300 6.80700 44.33400
N  44.93700 2.46600 48.34500
C  43.75600 1.85800 48.16400
C  44.01500 0.41200 48.12100
C  45.39400 0.24700 48.31000
C  45.96300 1.65100 48.38100
C  42.79800 -0.64100 48.03600
C  46.07500 -1.13800 48.41200
O  45.48100 -2.15700 48.33300
C  47.63900 -1.28300 48.60200
N  47.18700 4.52500 48.19500
C  47.83600 3.38500 48.48900
C  49.36900 3.59800 48.82300
C  49.59900 5.17200 48.55800
C  48.09100 5.61400 48.31600
C  49.82200 3.04600 50.18200
C  50.53300 5.52700 47.40300
C  51.96200 5.13300 47.57200
N  45.21700 6.59700 47.98900
C  46.35200 7.39500 48.05900
C  45.96800 8.79100 47.99800
C  44.60500 8.76400 47.74500
C  44.19400 7.41100 47.76100
C  46.83800 9.98900 47.93900
C  43.50900 9.58700 47.39100
O  43.37000 10.79300 47.45700
C  42.28500 8.63600 47.21400
C  41.19900 8.99400 48.14800
O  41.11800 8.58100 49.26800
O  40.21100 9.84300 47.56600
C  39.11000 10.20100 48.42100
H  41.68800 1.66700 47.84300
H  47.98200 1.37000 48.78200
H  48.52300 7.67900 48.24800
H  40.20900 6.17100 47.92200
H  40.26800 3.51100 46.47900
H  40.00800 3.31400 49.37400
H  38.76300 3.06800 48.16400
H  38.93300 4.55900 48.91200
H  40.09400 5.25700 45.05900
H  41.09300 6.65000 45.45600
H  39.16700 7.99400 45.88400
H  38.39400 6.62600 46.54100
H  43.08800 -1.52700 47.47200
H  41.92500 -0.33700 47.45700
H  42.49200 -0.84600 49.06200
H  48.00500 -2.31000 48.61500
H  47.85500 -0.84900 49.57800
H  48.21000 -0.78800 47.81700
H  49.94100 3.20200 47.98300
H  49.96400 5.67400 49.45400
H  49.00200 2.77000 50.84500
H  50.50800 3.74100 50.66600
H  50.32100 2.10500 49.95000
H  50.53100 6.61700 47.40700
H  50.14000 5.02000 46.52200
H  52.15200 4.66900 48.54000
H  52.51400 6.06000 47.41500
H  52.26400 4.48800 46.74600
H  47.59400 9.65400 47.22900
H  47.30800 10.20000 48.89900
H  46.25000 10.86900 47.67700
H  41.94700 8.63000 46.17800
H  39.22500 9.89900 49.46200
H  38.27600 9.65300 47.98200
H  38.81700 11.25100 48.39200
Mg 10.13600 48.37700 25.57900
C  7.67300 48.49900 28.22600
C  12.37000 49.80400 27.84400
C  12.42800 48.42400 23.23900
C  7.65300 47.41500 23.49600
N  10.04500 49.11800 27.82000
C  8.89900 48.98300 28.68300
C  9.32000 49.37000 30.09000
C  10.66200 50.11000 29.89100
C  11.06900 49.74100 28.39000
C  10.63000 51.61200 30.14800
C  9.44800 48.06400 31.04900
C  10.50100 48.00700 32.19000
H  10.10000 47.14800 33.42600
N  12.09700 48.89700 25.59700
C  12.85700 49.37500 26.61300
C  14.28300 49.36000 26.14900
C  14.29900 48.74300 24.90200
C  12.90400 48.66400 24.53900
C  15.45100 49.90100 27.04600
C  15.47400 48.22200 24.04500
O  15.39500 47.79000 22.94200
C  16.79900 48.33300 24.65700
N  9.99000 48.14900 23.64000
C  11.10000 48.20800 22.79300
C  10.72800 47.71700 21.38800
C  9.25100 47.30400 21.52600
C  8.92700 47.64500 22.97100
C  11.04800 48.74900 20.23700
C  8.87300 45.88700 21.08600
C  8.87700 44.74100 22.16100
N  8.08100 47.97800 25.79500
C  7.17900 47.58200 24.80000
C  5.83300 47.48800 25.35400
C  6.03500 47.71700 26.71300
C  7.35600 48.03700 26.91300
C  4.43200 47.18100 24.61700
C  5.31500 47.84000 28.01600
O  4.09500 47.72000 28.28400
C  6.37700 48.30600 29.08700
C  6.62000 47.23200 30.02500
O  7.22700 46.14600 29.89500
O  5.99500 47.58500 31.20000
C  5.88300 46.50400 32.20200
H  13.11900 50.30400 28.46200
H  13.10400 48.23400 22.40300
H  6.93200 46.82900 22.92300
H  8.57200 49.92600 30.65600
H  11.40900 49.66200 30.54600
H  10.79800 52.03300 29.15700
H  11.43100 51.84800 30.84800
H  9.72500 52.04000 30.58000
H  9.65500 47.12300 30.53900
H  8.46800 48.09900 31.52500
H  10.94400 48.96700 32.45400
H  11.34500 47.35600 31.95900
H  15.11600 50.00400 28.07800
H  15.83500 50.85100 26.67500
H  16.23000 49.15600 27.20500
H  16.91500 47.68200 25.52400
H  17.00500 49.34700 25.00100
H  17.58700 48.13200 23.93200
H  11.24500 46.77000 21.24100
H  8.61600 47.99300 20.96700
H  11.99300 49.25800 20.42800
H  10.20600 49.44100 20.21800
H  11.05300 48.13900 19.33400
H  9.52100 45.52800 20.28600
H  7.95800 46.03800 20.51300
H  9.33800 44.99800 23.11500
H  9.46600 43.95300 21.69200
H  7.94800 44.27300 22.48800
H  4.09500 46.14600 24.68200
H  4.62000 47.42600 23.57200
H  3.55900 47.76800 24.90400
H  6.01600 49.16000 29.65900
H  6.78100 46.56700 32.81600
H  5.88200 45.53900 31.69300
H  5.01200 46.60000 32.84900

