158

Mg -0.11900 43.95200 26.37900
C  2.02000 43.22900 29.23300
C  -2.68100 42.72600 28.21700
C  -1.82700 44.12800 23.64100
C  2.86700 44.94800 24.62400
N  -0.28800 43.18800 28.47500
C  0.65300 42.95500 29.47000
C  0.01100 42.58800 30.76200
C  -1.43800 42.24100 30.32300
C  -1.49700 42.76900 28.92000
C  -1.84400 40.71900 30.37900
C  0.01200 43.68600 31.88000
C  0.62200 43.38000 33.28600
H  0.13300 42.08200 33.85500
N  -2.04700 43.53700 25.95100
C  -2.93900 42.99300 26.82400
C  -4.25500 42.85100 26.11400
C  -3.99200 43.08000 24.75700
C  -2.58900 43.65100 24.76100
C  -5.47900 42.34700 26.80100
C  -4.83700 42.97500 23.53900
O  -4.48200 43.28200 22.40900
C  -6.17800 42.36300 23.66300
N  0.38500 44.67400 24.46400
C  -0.54800 44.60500 23.51500
C  0.02500 44.96800 22.14000
C  1.48600 45.50600 22.50400
C  1.63100 45.01300 23.95300
C  -0.09900 43.82700 21.07200
C  1.72300 47.02300 22.39600
C  1.20600 47.95900 23.50500
N  2.04400 44.03000 26.80800
C  3.04700 44.48600 25.99800
C  4.25400 44.36900 26.78800
C  3.87400 43.90200 28.01600
C  2.51000 43.75300 28.00800
C  5.62400 44.74000 26.26000
C  4.40200 43.50100 29.30400
O  5.56200 43.40200 29.71600
C  3.19000 43.14600 30.15900
C  3.42000 41.85600 30.85800
O  3.20400 40.76000 30.39300
O  3.90700 42.08100 32.17200
C  4.14600 40.88500 32.98600
H  -3.54300 42.45200 28.82800
H  -2.41200 44.22200 22.72400
H  3.69800 45.20000 23.96200
H  0.57000 41.77100 31.21900
H  -2.15500 42.77200 30.94900
H  -1.08600 40.20200 30.96800
H  -1.74300 40.35100 29.35800
H  -2.83400 40.62800 30.82500
H  -0.97800 44.09500 32.08200
H  0.70300 44.42200 31.46800
H  0.50400 44.25900 33.92000
H  1.70000 43.40900 33.12800
H  -5.45800 42.42400 27.88800
H  -5.64200 41.32700 26.45200
H  -6.34800 42.87000 26.40100
H  -6.13300 41.48900 24.31300
H  -6.57400 42.04500 22.69800
H  -6.84400 43.06500 24.16500
H  -0.55600 45.83900 21.83600
H  2.27000 45.06300 21.89100
H  0.77100 43.95000 20.42600
H  -0.91700 43.92100 20.35900
H  -0.06000 42.79900 21.43400
H  1.28400 47.47800 21.50800
H  2.80300 47.10600 22.27400
H  2.01100 48.64300 23.77600
H  1.18000 47.39300 24.43600
H  0.23300 48.42400 23.34900
H  5.62800 44.47800 25.20200
H  6.29000 44.11100 26.85100
H  5.66000 45.82600 26.35100
H  3.12500 43.89600 30.94700
H  4.82500 40.18400 32.49900
H  3.22400 40.31900 33.11800
H  4.49300 41.13400 33.98900
Mg -5.45000 25.32200 25.59500
C  -3.82500 26.69200 28.44500
C  -6.77900 22.88500 27.59700
C  -6.82900 23.95800 22.77300
C  -3.36200 27.44800 23.59200
N  -5.40900 24.91300 27.75600
C  -4.80800 25.70400 28.71900
C  -5.36700 25.28300 30.10500
C  -5.89300 23.83000 29.81900
C  -5.94700 23.79800 28.29200
C  -4.84000 22.79600 30.33600
C  -6.42400 26.21700 30.78100
C  -6.17500 26.39200 32.24200
H  -5.64500 25.19200 33.08700
N  -6.64600 23.71100 25.26300
C  -7.09000 22.83900 26.24100
C  -8.18200 22.08500 25.64900
C  -8.17200 22.32400 24.24700
C  -7.16600 23.36400 24.01400
C  -9.02000 21.08700 26.44500
C  -8.94100 21.74900 23.12500
O  -8.79600 22.03100 21.92900
C  -10.13000 20.75500 23.39100
N  -5.20100 25.68800 23.45400
C  -5.87400 25.00000 22.47900
C  -5.48500 25.47000 21.03600
C  -4.43500 26.60200 21.33800
C  -4.26400 26.55700 22.90700
C  -4.94600 24.28700 20.22600
C  -4.91600 27.99500 20.77200
C  -3.76300 28.97100 20.24100
N  -3.98000 26.82800 25.88000
C  -3.23600 27.58300 25.01000
C  -2.36200 28.48600 25.75900
C  -2.61000 28.11100 27.08500
C  -3.60000 27.15300 27.10300
C  -1.40300 29.39100 25.32000
C  -2.26600 28.50700 28.45500
O  -1.53800 29.41600 28.82900
C  -3.09900 27.62800 29.40100
C  -2.07800 26.96400 30.26800
O  -1.07000 26.37900 29.85100
O  -2.39300 27.15500 31.54900
C  -1.56800 26.37100 32.50300
H  -7.27900 22.20300 28.28800
H  -7.35300 23.64600 21.86800
H  -2.75300 28.12900 22.99300
H  -4.55100 25.32200 30.82800
H  -6.83400 23.71200 30.35700
H  -4.11800 23.34200 30.94400
H  -4.52600 22.07300 29.58300
H  -5.33900 22.15000 31.05800
H  -7.39600 25.75200 30.61600
H  -6.32300 27.24000 30.41900
H  -7.17100 26.57200 32.64900
H  -5.62000 27.31900 32.38200
H  -8.93700 21.15000 27.53000
H  -8.74800 20.11200 26.04000
H  -10.07200 21.25600 26.21700
H  -10.59900 20.26400 22.53900
H  -10.80800 21.41700 23.93000
H  -9.79000 20.02900 24.13000
H  -6.38200 25.74800 20.48300
H  -3.43400 26.30200 21.02700
H  -5.84400 23.88300 19.75800
H  -4.47200 23.55900 20.88400
H  -4.18000 24.52000 19.48700
H  -5.36300 28.49700 21.63000
H  -5.65600 27.79500 19.99700
H  -3.64200 29.59600 21.12600
H  -3.95700 29.43300 19.27400
H  -2.87200 28.35000 20.14100
H  -0.74400 28.94500 24.57600
H  -0.80800 29.75700 26.15700
H  -2.00300 30.22500 24.95500
H  -3.84000 28.22200 29.93700
H  -2.18000 25.91600 33.28200
H  -0.70900 26.89700 32.92000
H  -1.11900 25.47300 32.07900

