158

Mg 0.32200 7.47800 26.18900
C  1.29700 9.38300 28.79500
C  -0.01000 4.82500 28.25600
C  -0.30100 5.51400 23.47700
C  1.06000 10.14000 24.06300
N  0.54200 7.12600 28.25900
C  0.85700 8.07900 29.21200
C  0.62000 7.50600 30.63600
C  0.51100 6.03500 30.32300
C  0.18100 5.97800 28.87400
C  1.71200 5.14600 30.83500
C  -0.77900 8.05300 31.15300
C  -1.03500 7.91300 32.65800
H  0.17600 7.93500 33.56800
N  -0.15500 5.42700 25.88500
C  -0.27400 4.48300 26.89600
C  -0.67800 3.27000 26.29100
C  -0.88400 3.43300 24.92100
C  -0.38500 4.79500 24.66300
C  -0.77800 1.99500 27.06300
C  -1.32100 2.47400 23.82100
O  -1.30000 2.72800 22.63100
C  -1.76000 1.16300 24.17100
N  0.20100 7.82200 24.14300
C  0.01200 6.91000 23.24300
C  0.27400 7.30800 21.83500
C  0.29500 8.89700 21.97800
C  0.49800 8.97600 23.49600
C  1.56600 6.72500 21.26900
C  -0.96500 9.61800 21.40300
C  -0.64500 10.91000 20.66100
N  1.14300 9.38200 26.39700
C  1.41000 10.32200 25.39100
C  2.06300 11.42800 25.99000
C  1.98300 11.15500 27.37900
C  1.42300 9.86700 27.50300
C  2.51600 12.72000 25.34600
C  2.17100 11.71400 28.69900
O  2.54600 12.80200 29.08000
C  1.62700 10.64300 29.66900
C  2.59800 10.46700 30.74400
O  3.55000 9.64300 30.68200
O  2.37200 11.28400 31.78300
C  3.18500 11.10100 32.97600
H  -0.12400 3.97100 28.92600
H  -0.35600 4.97400 22.52900
H  1.34900 10.90600 23.34100
H  1.44700 7.90100 31.22500
H  -0.37700 5.64900 30.82300
H  1.23000 4.39600 31.46200
H  2.47200 5.77900 31.29300
H  2.28400 4.70400 30.02000
H  -1.50600 7.48500 30.57200
H  -0.78600 9.12000 30.92800
H  -1.63100 7.02200 32.85600
H  -1.61100 8.79400 32.94100
H  -0.27000 2.09300 28.02200
H  -0.25800 1.21500 26.50600
H  -1.78800 1.58400 27.06100
H  -2.03500 0.62700 23.26300
H  -2.64200 1.33700 24.78700
H  -1.00400 0.54500 24.65500
H  -0.61100 7.06200 21.24900
H  1.21300 9.24800 21.50500
H  1.96300 7.39800 20.50900
H  1.39600 5.78900 20.73800
H  2.23100 6.60000 22.12400
H  -1.52200 9.89500 22.29700
H  -1.51400 9.03000 20.66700
H  -0.73700 10.73000 19.59000
H  0.39100 11.24100 20.73800
H  -1.23100 11.71500 21.10400
H  3.26000 12.59400 24.56000
H  3.02200 13.41300 26.01800
H  1.55400 12.98600 24.90700
H  0.73800 11.09300 30.11100
H  2.87000 11.69600 33.83300
H  4.23900 11.34400 32.84200
H  3.09500 10.03500 33.18200
Mg -1.42000 34.43100 27.12600
C  -3.12600 32.72000 29.67600
C  -0.18600 36.53400 29.44300
C  -0.25300 36.33600 24.51600
C  -3.04900 32.41900 24.70100
N  -1.69200 34.68100 29.36800
C  -2.36000 33.81000 30.16200
C  -2.03000 34.14600 31.61900
C  -1.25100 35.44000 31.55700
C  -0.98800 35.58300 30.05000
C  -1.92400 36.66400 32.18000
C  -1.27200 32.98900 32.29200
C  -1.84200 32.47400 33.63900
H  -0.90500 32.54800 34.88600
N  -0.38200 36.12600 27.02700
C  0.07800 36.86000 28.05800
C  0.79600 37.99700 27.60700
C  0.70600 37.98900 26.20000
C  -0.01400 36.78100 25.84300
C  1.51100 38.90800 28.57900
C  1.23200 39.06100 25.19500
O  1.02500 39.01300 23.94300
C  2.02500 40.23200 25.55800
N  -1.67500 34.43400 24.86200
C  -1.02000 35.27400 24.04200
C  -1.15900 34.85200 22.56200
C  -2.14200 33.71200 22.60700
C  -2.28300 33.45000 24.11000
C  -1.36900 36.03100 21.53800
C  -1.70400 32.42100 21.74800
C  -0.67000 31.46800 22.41300
N  -2.70400 32.93100 27.06200
C  -3.27300 32.17300 26.05800
C  -4.17200 31.15600 26.62400
C  -4.09000 31.35300 27.94900
C  -3.22000 32.45100 28.23100
C  -4.95700 30.09800 25.85700
C  -4.69900 30.95600 29.26700
O  -5.43800 30.00800 29.46000
C  -4.05000 31.79900 30.38700
C  -5.11200 32.45500 31.21500
O  -5.68600 33.50000 30.92000
O  -5.44300 31.64200 32.29600
C  -6.42300 32.13200 33.30100
H  0.24200 37.09500 30.27600
H  0.29000 36.72000 23.65000
H  -3.60000 31.68200 24.11200
H  -2.98800 34.30000 32.11500
H  -0.27100 35.33700 32.02200
H  -2.83200 36.46700 32.75000
H  -2.17700 37.44000 31.45800
H  -1.16600 37.12400 32.81500
H  -0.21000 33.23000 32.32600
H  -1.31100 32.11900 31.63500
H  -2.15400 31.43100 33.69700
H  -2.79800 32.97900 33.77600
H  1.50400 38.67400 29.64400
H  1.00100 39.85400 28.40000
H  2.59100 38.88000 28.43400
H  1.27200 41.01400 25.65400
H  2.69200 40.42500 24.71800
H  2.64300 40.05800 26.43900
H  -0.13500 34.54700 22.34700
H  -3.07900 34.01800 22.14200
H  -0.56500 36.01300 20.80200
H  -1.31000 36.99800 22.03700
H  -2.37300 35.98200 21.11700
H  -1.38000 32.76100 20.76400
H  -2.62500 31.86700 21.56900
H  0.13700 32.00100 22.91700
H  -0.22200 30.84900 21.63600
H  -1.25300 30.91800 23.15200
H  -5.42000 29.59900 26.70800
H  -4.40600 29.43900 25.18600
H  -5.63900 30.65000 25.21100
H  -3.46900 31.15700 31.05000
H  -6.67700 31.34900 34.01600
H  -7.29000 32.64600 32.88500
H  -5.81600 32.74700 33.96500

