158

Mg 44.18900 5.50900 48.68500
C  42.03400 8.16000 47.95900
C  41.63000 3.43700 47.49700
C  46.42000 2.90200 48.75800
C  46.85900 7.76000 48.65000
N  42.06600 5.74800 47.90900
C  41.40400 6.94500 47.76600
C  39.93400 6.71800 47.41400
C  39.86800 5.20300 47.16400
C  41.28800 4.76600 47.56300
C  38.68200 4.40100 47.87900
C  39.37800 7.70000 46.33900
C  40.23400 7.99000 45.12300
H  39.87600 7.34600 43.76000
N  43.97500 3.42800 48.40100
C  42.83300 2.80900 47.92700
C  43.13000 1.33600 47.77600
C  44.50200 1.21600 48.24100
C  45.00800 2.56000 48.49000
C  42.32400 0.41700 46.93300
C  45.18900 -0.09300 48.30900
O  44.60800 -1.12400 47.95900
C  46.59200 -0.29500 48.86800
N  46.40000 5.34700 48.56900
C  47.02600 4.15200 48.84100
C  48.53900 4.31000 48.81000
C  48.74500 5.91400 48.81400
C  47.24700 6.42500 48.70000
C  49.28800 3.60300 49.96600
C  49.80500 6.45600 47.76700
C  50.79600 7.54200 48.35500
N  44.44200 7.51600 48.57900
C  45.61700 8.32600 48.58400
C  45.29700 9.69900 48.37300
C  43.88300 9.67400 48.18400
C  43.41700 8.28900 48.21700
C  46.29700 10.85100 48.24700
C  42.76100 10.50800 47.92200
O  42.69300 11.70800 47.79500
C  41.49700 9.58400 47.81300
C  40.64400 9.81800 48.99400
O  40.68000 9.30400 50.10900
O  39.70600 10.81300 48.60900
C  38.77800 11.33400 49.71400
H  40.84900 2.73600 47.19500
H  47.23500 2.17600 48.71100
H  47.64400 8.51900 48.63800
H  39.45600 6.91700 48.37300
H  39.75400 4.96700 46.10600
H  37.91400 5.04900 48.30200
H  39.19000 3.90100 48.70400
H  38.28900 3.64600 47.19800
H  39.01500 8.62700 46.78300
H  38.47300 7.30400 45.87800
H  41.24600 7.62500 45.29600
H  40.19500 9.06600 44.95600
H  41.47500 0.81600 46.37800
H  41.90900 -0.37700 47.55400
H  43.08400 0.02400 46.25900
H  46.73500 -1.29900 49.26900
H  46.60700 0.52800 49.58300
H  47.29900 -0.20300 48.04300
H  48.83700 3.83400 47.87600
H  48.99400 6.26900 49.81400
H  48.63800 3.27300 50.77600
H  50.04300 4.30100 50.32700
H  49.91600 2.75700 49.68400
H  49.33700 6.84700 46.86300
H  50.36900 5.58000 47.44600
H  50.84700 7.61800 49.44100
H  50.61000 8.51500 47.90100
H  51.77500 7.14500 48.08600
H  46.77100 10.81400 47.26600
H  47.10800 10.87000 48.97500
H  45.80100 11.81100 48.39100
H  40.88800 9.61700 46.90900
H  39.03300 11.03000 50.73000
H  37.73500 11.15800 49.44900
H  38.86700 12.41900 49.77100
Mg 27.31300 49.82300 25.88100
C  25.56100 51.10800 28.45000
C  29.90500 48.93600 28.16100
C  29.11200 48.50300 23.21400
C  25.05100 50.88700 23.58600
N  27.72600 49.99200 28.02800
C  26.72100 50.40800 28.91900
C  27.08000 50.03800 30.33900
C  28.62100 49.66500 30.23900
C  28.79900 49.54300 28.73200
C  29.55600 50.77400 30.75200
C  26.16900 48.88200 30.92200
C  25.53700 49.17100 32.33100
H  26.31700 49.66900 33.51500
N  29.21500 48.89000 25.72900
C  30.12200 48.58800 26.77100
C  31.27300 47.80400 26.20000
C  30.91800 47.57300 24.84300
C  29.62900 48.29100 24.56000
C  32.50200 47.36100 27.01900
C  31.68100 46.71900 23.91700
O  31.45200 46.55100 22.72900
C  32.78500 45.85200 24.34900
N  27.19500 49.89300 23.62900
C  27.98600 49.15400 22.83200
C  27.41400 49.11100 21.37400
C  26.09800 49.96800 21.55300
C  26.14000 50.33800 22.95800
C  28.36300 49.69000 20.27100
C  24.85100 49.18400 21.17100
C  24.52400 48.99700 19.67900
N  25.68800 50.89000 25.97200
C  24.79900 51.24600 24.95800
C  23.64400 51.93600 25.57600
C  23.92600 51.82200 26.98800
C  25.17300 51.20200 27.13200
C  22.56700 52.68000 24.79800
C  23.45400 52.17200 28.31200
O  22.46800 52.87200 28.62000
C  24.46000 51.60200 29.31800
C  24.92700 52.67900 30.26600
O  25.62200 53.65900 29.98400
O  24.43500 52.42700 31.53100
C  25.08700 53.09500 32.59800
H  30.66500 48.68700 28.90400
H  29.54200 47.88600 22.42300
H  24.20900 51.15200 22.94300
H  27.01100 50.91600 30.98200
H  28.84900 48.73200 30.75400
H  29.78500 50.57700 31.79900
H  28.99900 51.70100 30.62000
H  30.48200 50.79100 30.17600
H  26.78700 47.99600 31.06500
H  25.45100 48.63400 30.14000
H  25.04500 48.25700 32.66500
H  24.70100 49.87100 32.31300
H  32.46700 47.49000 28.10100
H  33.24200 48.04800 26.60800
H  32.78700 46.32400 26.84100
H  32.31300 45.05200 24.92000
H  33.51700 46.49500 24.83800
H  33.25400 45.40600 23.47200
H  27.16700 48.11000 21.01900
H  26.17700 50.81600 20.87300
H  29.34600 49.78900 20.73200
H  28.10800 50.70900 19.97900
H  28.44100 49.11300 19.34900
H  23.90900 49.50300 21.61600
H  25.00400 48.19900 21.61200
H  23.47000 49.03900 19.40500
H  24.82700 47.95200 19.62100
H  25.19900 49.53400 19.01200
H  22.54100 52.57400 23.71400
H  22.59300 53.75700 24.96000
H  21.63000 52.37500 25.26500
H  24.02100 50.81900 29.93600
H  24.87300 54.16200 32.53300
H  26.14400 52.83800 32.66500
H  24.67100 52.71900 33.53300

