158

Mg 47.52800 16.60900 29.65400
C  45.51000 16.13000 32.48700
C  49.77800 18.30600 31.65300
C  49.26900 17.64900 26.96800
C  45.12000 15.31100 27.72600
N  47.64100 17.11500 31.80900
C  46.72500 16.74800 32.74000
C  47.29000 17.10100 34.12200
C  48.51900 17.94800 33.83100
C  48.67900 17.82300 32.32900
C  48.55500 19.41000 34.57300
C  47.54400 15.76400 34.96800
C  46.94200 15.61900 36.40700
H  46.89800 16.89200 37.27700
N  49.40700 17.67500 29.40100
C  50.14900 18.26400 30.31000
C  51.42300 18.74300 29.71800
C  51.29100 18.62000 28.33200
C  49.91600 17.93800 28.17800
C  52.70900 19.30600 30.45400
C  52.19400 18.91700 27.20400
O  51.90400 18.70900 26.05600
C  53.57900 19.45600 27.50100
N  47.37400 16.21800 27.57000
C  48.15400 16.86400 26.63600
C  47.58300 16.67300 25.21500
C  46.22300 15.96900 25.50000
C  46.20300 15.78300 27.04500
C  47.38800 17.93900 24.32600
C  45.99500 14.66700 24.65100
C  45.50800 14.97200 23.18600
N  45.69500 15.79200 29.93500
C  44.79000 15.30200 29.05400
C  43.60200 14.86800 29.80100
C  43.78900 15.14200 31.14400
C  45.10300 15.69700 31.18000
C  42.36900 14.19700 29.25800
C  43.28300 15.01900 32.52800
O  42.28200 14.56500 32.98500
C  44.42900 15.56500 33.43000
C  43.70900 16.62300 34.22900
O  43.47400 17.80500 33.98700
O  43.15800 15.93500 35.32800
C  42.50300 16.86000 36.22100
H  50.37900 18.95300 32.29500
H  49.73900 18.05300 26.06900
H  44.24600 15.12300 27.09900
H  46.50500 17.71700 34.56100
H  49.31000 17.33900 34.26600
H  47.94200 19.44200 35.47400
H  48.12900 20.15700 33.90300
H  49.60000 19.65200 34.76700
H  48.61400 15.55700 34.98800
H  47.12000 14.91000 34.44000
H  47.45800 14.84200 36.97100
H  45.86900 15.42800 36.41800
H  53.47400 18.54100 30.58000
H  52.36100 19.49100 31.47000
H  52.99700 20.15800 29.83800
H  53.54400 20.50600 27.79100
H  54.27800 19.38100 26.66800
H  54.00800 18.78000 28.24000
H  48.22900 16.01000 24.63900
H  45.40200 16.62700 25.21600
H  47.63500 18.87500 24.82800
H  46.46900 18.01900 23.74500
H  48.09000 17.89800 23.49300
H  45.23100 14.09400 25.17700
H  46.85700 14.02000 24.49200
H  45.69100 16.03200 23.01200
H  44.42700 14.84500 23.12000
H  46.03200 14.33400 22.47500
H  41.45200 14.69200 29.57900
H  42.32100 13.17500 29.63300
H  42.25900 14.18300 28.17300
H  44.91600 14.79300 34.02500
H  41.90400 17.53300 35.60900
H  43.19500 17.32600 36.92300
H  41.81400 16.24400 36.80000
Mg 42.29600 41.39900 26.05100
C  41.50100 43.69700 28.57000
C  44.02900 39.58700 28.33600
C  42.66600 38.96300 23.82300
C  41.32600 43.62200 23.74100
N  42.78100 41.69400 28.26800
C  42.15600 42.58900 29.10600
C  42.42100 42.30400 30.52800
C  43.30900 40.91800 30.39800
C  43.34400 40.68500 28.90800
C  44.56500 40.97200 31.25000
C  41.14100 41.96100 31.36100
C  40.59200 42.96800 32.43700
H  40.05300 42.38800 33.75200
N  43.41300 39.61300 26.02400
C  44.07800 39.05100 27.07500
C  44.62700 37.78600 26.61500
C  44.04900 37.49300 25.34700
C  43.32600 38.71500 25.01300
C  45.54600 36.94400 27.48900
C  44.09200 36.22800 24.51800
O  43.51000 36.15500 23.37700
C  44.86800 35.08900 24.99000
N  42.17800 41.36900 24.06800
C  42.23400 40.22400 23.35200
C  41.82900 40.42500 21.93100
C  41.49600 41.96800 21.85500
C  41.67300 42.37700 23.28700
C  43.05200 40.04300 20.98400
C  40.01700 42.18300 21.33000
C  39.80400 43.25900 20.30700
N  41.42400 43.23400 26.10900
C  41.07000 44.02800 25.07100
C  40.57300 45.27000 25.55100
C  40.66100 45.18000 26.92200
C  41.21600 43.91800 27.20700
C  40.11100 46.38900 24.60700
C  40.43100 45.83600 28.15000
O  39.95800 46.96200 28.45400
C  40.90300 44.87600 29.36500
C  41.80200 45.63100 30.18700
O  42.93100 45.85000 30.00900
O  41.19300 45.96400 31.30600
C  41.95200 46.69900 32.40300
H  44.51700 38.94000 29.06800
H  42.52200 38.15700 23.10100
H  41.17700 44.33600 22.92900
H  43.01100 43.12200 30.94100
H  42.72100 40.08600 30.78400
H  45.57600 40.93200 30.84200
H  44.48300 40.29000 32.09600
H  44.54300 41.94000 31.75000
H  41.15800 40.97500 31.82600
H  40.27000 41.96900 30.70600
H  39.76100 43.57800 32.08100
H  41.36200 43.72900 32.56500
H  46.35300 36.68600 26.80200
H  44.94600 36.14700 27.92800
H  45.97800 37.53300 28.29800
H  44.67000 34.81300 26.02600
H  45.91400 35.29400 24.76400
H  44.52900 34.17800 24.49600
H  40.97800 39.77800 21.71700
H  42.14000 42.66600 21.32100
H  42.96300 39.06100 20.51900
H  44.01100 40.18400 21.48400
H  42.96200 40.77400 20.18100
H  39.31100 42.30400 22.15100
H  39.65800 41.24300 20.91100
H  39.17700 44.07000 20.67800
H  39.53900 42.88100 19.31900
H  40.67500 43.91200 20.23300
H  39.24300 45.93200 24.13200
H  40.85700 46.68100 23.86800
H  39.66600 47.13600 25.26500
H  40.02900 44.66200 29.98100
H  42.04800 46.10600 33.31300
H  41.41500 47.63500 32.55800
H  42.94000 46.98700 32.04400

