158

Mg 53.37000 23.79400 44.90200
C  50.86300 26.22900 43.89200
C  51.22600 21.46100 44.02400
C  55.95800 21.83100 44.65600
C  55.53500 26.56500 45.56200
N  51.43800 23.79700 43.66600
C  50.58100 24.88700 43.51800
C  49.26000 24.40200 43.12100
C  49.24100 22.85700 43.59400
C  50.74700 22.69400 43.76800
C  48.38000 22.58500 44.86600
C  48.91200 24.53800 41.62400
C  50.09700 24.92300 40.73600
H  49.77900 25.16400 39.20900
N  53.54300 21.80600 44.49600
C  52.52500 20.95500 44.11700
C  53.02700 19.61300 44.13100
C  54.44200 19.65000 44.43300
C  54.72800 21.12800 44.57400
C  52.12400 18.40400 43.86600
C  55.46000 18.50100 44.47400
O  55.09700 17.35500 44.12600
C  56.98700 18.72300 44.78100
N  55.50200 24.21600 44.81500
C  56.32600 23.15000 44.75900
C  57.74900 23.74300 44.91300
C  57.57800 25.28100 45.09800
C  56.14900 25.39200 45.24500
C  58.46800 23.10800 46.16200
C  58.22400 26.16400 43.98600
C  59.69600 25.78900 43.48800
N  53.17600 25.99300 44.92600
C  54.14300 26.90400 45.32700
C  53.38500 28.15500 45.55500
C  52.11000 27.93100 45.02600
C  52.05000 26.64100 44.54800
C  53.99800 29.38400 46.18900
C  50.83600 28.53900 44.73000
O  50.54100 29.72700 44.93500
C  49.90700 27.37500 44.05700
C  49.25400 27.87700 42.77400
O  49.88900 28.21600 41.79000
O  47.92000 27.83400 42.83500
C  47.26500 28.52900 41.70700
H  50.57200 20.59500 44.14600
H  56.84900 21.21700 44.50400
H  56.18000 27.41400 45.80100
H  48.56800 25.00300 43.71000
H  48.81900 22.27700 42.77300
H  48.79700 21.73700 45.41000
H  47.45000 22.30000 44.37500
H  48.09100 23.41100 45.51500
H  48.12300 25.26800 41.44500
H  48.35900 23.65700 41.29900
H  50.77000 24.06600 40.76300
H  50.50800 25.85200 41.13000
H  51.14400 18.34500 44.33800
H  52.61500 17.43500 43.95400
H  51.84300 18.46300 42.81400
H  57.47300 17.76200 44.95300
H  57.19800 19.44700 45.56700
H  57.40400 19.26000 43.92900
H  58.40300 23.48500 44.07900
H  58.10600 25.63700 45.98300
H  57.87800 22.33500 46.65600
H  58.72300 23.76600 46.99200
H  59.28900 22.49000 45.79900
H  58.20000 27.19400 44.34200
H  57.55400 26.01400 43.14000
H  60.28100 25.05500 44.04300
H  60.31600 26.67900 43.59400
H  59.69600 25.50900 42.43500
H  55.07400 29.48100 46.04600
H  53.79600 29.38600 47.26000
H  53.49400 30.23800 45.73700
H  49.04500 27.21300 44.70500
H  46.20500 28.71400 41.87600
H  47.25300 27.74200 40.95300
H  47.70700 29.39800 41.22000
Mg 25.36900 50.44800 26.87900
C  23.11100 51.15900 29.58900
C  27.64800 49.35700 29.05700
C  27.57700 50.50400 24.32400
C  23.03200 52.04400 24.73300
N  25.34900 50.35400 29.03900
C  24.38100 50.70000 29.98100
C  24.95100 50.48100 31.39300
C  26.28000 49.77800 31.17000
C  26.50700 49.92100 29.66100
C  27.40900 50.25000 31.98900
C  23.95200 49.69600 32.35900
C  24.43800 49.37700 33.81300
H  24.13000 50.28600 34.99500
N  27.27400 50.00600 26.72200
C  28.11200 49.50000 27.73400
C  29.35900 49.11000 27.19200
C  29.35100 49.56900 25.84300
C  28.00900 50.09900 25.62100
C  30.35100 48.25700 28.00300
C  30.52300 49.53200 24.85900
O  30.49500 49.93200 23.70000
C  31.81900 49.05500 25.40200
N  25.24500 51.01500 24.74800
C  26.34200 50.95900 23.90600
C  26.11100 51.79100 22.59900
C  24.56600 51.93900 22.62400
C  24.21400 51.58600 24.06900
C  26.92600 53.05600 22.41200
C  23.77000 51.08100 21.67100
C  23.43500 49.64600 22.15100
N  23.43100 51.34600 27.06200
C  22.62000 51.89700 26.08200
C  21.32500 52.26400 26.65500
C  21.53300 52.09400 27.98500
C  22.77100 51.46000 28.24800
C  20.20000 52.79900 25.89000
C  20.85300 52.33700 29.23000
O  19.79000 52.88800 29.53600
C  21.86900 51.70100 30.31800
C  22.22300 52.78400 31.23200
O  23.12600 53.58200 31.19600
O  21.30300 52.77200 32.27100
C  21.46600 53.95900 33.12000
H  28.28100 48.90400 29.82300
H  28.40600 50.57500 23.61700
H  22.32100 52.50800 24.04600
H  25.24100 51.44100 31.82100
H  26.19800 48.69700 31.28500
H  28.09000 49.47500 32.34100
H  26.99600 50.86500 32.78900
H  28.01700 50.98600 31.46400
H  23.36200 48.96400 31.80700
H  23.22900 50.46200 32.63900
H  25.47200 49.03600 33.85200
H  23.87300 48.50200 34.13500
H  30.36300 47.22500 27.65300
H  30.12400 48.28100 29.06900
H  31.36600 48.65400 27.98500
H  31.87300 48.04500 25.80800
H  31.95400 49.73500 26.24400
H  32.63400 49.16800 24.68800
H  26.34400 51.10600 21.78300
H  24.11100 52.91400 22.45100
H  27.43900 53.22000 23.35900
H  26.39500 53.96900 22.14400
H  27.69600 53.01400 21.64100
H  24.20300 50.99000 20.67500
H  22.80800 51.59300 21.70200
H  24.00300 49.30700 23.01700
H  23.53400 49.01900 21.26500
H  22.37400 49.56900 22.39100
H  20.22200 52.43500 24.86200
H  20.32800 53.87700 25.98600
H  19.35700 52.55200 26.53500
H  21.43000 50.90500 30.92000
H  22.38100 53.87600 33.70700
H  20.61200 53.98600 33.79600
H  21.40400 54.91700 32.60400

