158

Mg 47.75700 15.91700 29.06900
C  45.75800 15.70600 31.93600
C  50.18100 17.36100 31.10800
C  49.48200 16.77900 26.24400
C  45.10800 14.90600 27.11200
N  47.82300 16.78600 31.25500
C  46.99700 16.29700 32.21600
C  47.46200 16.69000 33.64100
C  48.82600 17.46100 33.36000
C  48.98100 17.10100 31.81800
C  48.80000 19.02900 33.54100
C  47.58600 15.49200 34.69400
C  47.28700 15.84600 36.17900
H  47.60500 17.25500 36.76100
N  49.63500 16.85400 28.70500
C  50.50600 17.27100 29.68700
C  51.71200 17.75500 29.08600
C  51.52700 17.57400 27.68600
C  50.12500 17.09500 27.47900
C  52.80000 18.29800 29.80200
C  52.57000 17.78800 26.57500
O  52.29400 17.77700 25.36200
C  54.00900 18.11700 26.89600
N  47.43200 15.77700 27.07200
C  48.26100 16.20600 26.07500
C  47.64500 15.98700 24.63200
C  46.36600 15.20900 24.99600
C  46.28700 15.31600 26.51600
C  47.45300 17.39200 23.91000
C  46.20600 13.79700 24.43000
C  45.22500 13.53600 23.25800
N  45.83400 15.27500 29.45500
C  44.86100 14.84900 28.51400
C  43.70400 14.47700 29.35300
C  44.03100 14.69500 30.69000
C  45.25300 15.31300 30.68100
C  42.37000 14.01200 28.69500
C  43.62000 14.57700 31.94500
O  42.58800 14.15900 32.41100
C  44.70700 15.25600 32.83200
C  44.02300 16.33200 33.65300
O  43.46000 17.35000 33.27200
O  44.01300 15.94100 34.92200
C  43.62200 17.09600 35.79700
H  50.90700 17.79700 31.79900
H  49.97100 17.16800 25.34900
H  44.30300 14.64100 26.42300
H  46.69600 17.39100 33.97300
H  49.64300 16.93200 33.84800
H  47.97100 19.26100 34.20900
H  48.67700 19.68700 32.68100
H  49.69100 19.36300 34.07100
H  48.57100 15.03900 34.59200
H  46.86400 14.74700 34.36100
H  47.87400 15.06800 36.66700
H  46.26100 15.64200 36.48700
H  52.72100 18.19200 30.88400
H  53.04200 19.32100 29.51300
H  53.72000 17.74900 29.60300
H  53.99100 19.04700 27.46400
H  54.42900 18.25800 25.90000
H  54.48500 17.29000 27.42300
H  48.34100 15.37200 24.06200
H  45.51300 15.79300 24.65100
H  47.83800 18.20300 24.52800
H  46.40700 17.56900 23.66100
H  47.95700 17.45000 22.94600
H  45.88100 13.14700 25.24200
H  47.19800 13.52000 24.07300
H  45.79100 12.90100 22.57500
H  45.06400 14.44500 22.67900
H  44.32300 13.06100 23.64500
H  42.37600 12.92200 28.71200
H  42.10600 14.39600 27.71000
H  41.59100 14.34700 29.37900
H  45.10700 14.49300 33.49900
H  44.13500 18.02600 35.55300
H  43.87900 16.76600 36.80300
H  42.54800 17.26800 35.72500
Mg 48.71800 35.15700 27.18700
C  46.99200 33.66900 29.93100
C  48.99900 37.92200 29.01000
C  50.29100 36.56900 24.55800
C  47.98600 32.35100 25.15300
N  48.23200 35.57800 29.41500
C  47.62900 34.84300 30.35500
C  47.66500 35.62400 31.66500
C  47.84800 37.10500 31.15600
C  48.31300 36.87400 29.73700
C  46.47000 37.86700 31.03000
C  48.71300 35.10800 32.64500
C  48.49500 35.30700 34.17300
H  47.52500 36.45700 34.47800
N  49.61700 37.02600 26.87000
C  49.62600 38.04900 27.76400
C  50.37700 39.12700 27.20400
C  50.82900 38.73500 25.86000
C  50.23000 37.36700 25.68500
C  50.65800 40.37100 27.95800
C  51.67100 39.50800 24.83200
O  52.08900 38.92400 23.83100
C  51.98800 41.00300 25.22100
N  49.01400 34.59900 25.04500
C  49.81600 35.27700 24.24300
C  49.81300 34.67600 22.86100
C  49.22800 33.23500 23.05600
C  48.67200 33.37800 24.49900
C  49.11100 35.61700 21.81900
C  50.23900 32.11300 22.89400
C  50.39300 31.49400 21.53800
N  47.73200 33.38900 27.40900
C  47.48900 32.32600 26.53600
C  46.68600 31.37500 27.25400
C  46.45000 31.86600 28.54700
C  47.09100 33.09900 28.61200
C  46.15200 30.13800 26.63600
C  45.72600 31.53300 29.78100
O  44.89700 30.67000 30.02900
C  45.97700 32.84100 30.68000
C  46.36900 32.36800 32.08700
O  47.42100 31.82900 32.43500
O  45.30800 32.62700 32.95200
C  45.68600 32.16400 34.35200
H  48.98500 38.86800 29.55500
H  50.74500 36.91900 23.62900
H  47.89800 31.44200 24.55500
H  46.66700 35.49100 32.08400
H  48.48900 37.68500 31.82100
H  45.60400 37.28300 31.34400
H  46.18300 38.10500 30.00600
H  46.62300 38.81300 31.54900
H  49.64100 35.56600 32.30200
H  48.99200 34.08000 32.41300
H  49.49500 35.50100 34.56200
H  48.09300 34.34500 34.48900
H  49.90900 40.48800 28.74200
H  50.55400 41.18500 27.24100
H  51.66800 40.37400 28.36800
H  52.61000 41.12100 26.10900
H  51.06700 41.58300 25.25100
H  52.60500 41.47200 24.45500
H  50.85500 34.66100 22.54100
H  48.44300 32.87400 22.39000
H  48.28400 35.04800 21.39500
H  49.82900 35.83300 21.02800
H  48.76500 36.53800 22.28800
H  50.07400 31.25800 23.54900
H  51.24000 32.51200 23.06100
H  49.55100 31.80300 20.91900
H  50.30400 30.40900 21.47300
H  51.35700 31.72600 21.08500
H  46.99900 29.49800 26.38700
H  45.58000 30.46800 25.76900
H  45.51000 29.70700 27.40400
H  45.04500 33.39800 30.77500
H  44.75000 31.87700 34.83200
H  46.16800 32.96400 34.91300
H  46.24500 31.23400 34.45600

