158

Mg 47.36000 34.86800 28.80000
C  45.70100 32.76000 31.19400
C  47.85600 37.15100 31.43900
C  48.21700 37.06700 26.53800
C  46.34600 32.61100 26.29100
N  46.83200 34.93200 30.98400
C  46.22100 33.95900 31.73200
C  46.31900 34.34600 33.28500
C  46.30800 35.88600 33.15600
C  47.12700 35.99400 31.79500
C  44.85400 36.55000 33.00000
C  47.60800 33.82800 34.01600
C  47.30600 33.15800 35.37600
H  46.39900 33.87900 36.41500
N  48.02300 36.81100 29.00900
C  48.32600 37.59000 30.11700
C  49.07200 38.78200 29.76600
C  49.01300 38.80500 28.37600
C  48.45200 37.51000 27.91400
C  49.63700 39.77700 30.74100
C  49.44400 39.86800 27.33500
O  49.21500 39.75100 26.13100
C  50.17000 41.10700 27.85400
N  47.20100 34.83700 26.70300
C  47.67600 35.85700 26.00600
C  47.67000 35.60100 24.51900
C  47.14100 34.14700 24.40400
C  46.87300 33.82200 25.87900
C  46.79800 36.55100 23.61800
C  48.13300 33.06500 23.78200
C  47.58900 32.06800 22.76600
N  46.29600 33.07500 28.66900
C  46.03800 32.24500 27.61500
C  45.46100 31.01300 28.05800
C  45.22000 31.23500 29.48900
C  45.78400 32.45400 29.81700
C  44.95400 29.93500 27.08900
C  44.69100 30.62300 30.67900
O  44.23000 29.48900 30.70200
C  44.94500 31.58700 31.76800
C  45.62600 30.95500 32.89000
O  46.81900 30.76700 33.04800
O  44.63300 30.60300 33.75100
C  45.01000 30.14500 35.07400
H  48.04700 37.88200 32.22800
H  48.59500 37.66700 25.70800
H  46.17400 31.84500 25.53200
H  45.37100 34.10100 33.76400
H  46.87100 36.32600 33.97900
H  44.78000 37.25300 33.83000
H  43.98700 35.91500 33.18100
H  44.73800 36.90700 31.97700
H  48.30000 34.65300 34.18500
H  48.05200 33.02000 33.43500
H  48.27000 32.86000 35.78800
H  46.82700 32.20600 35.15100
H  49.14400 40.73200 30.55600
H  50.71300 39.88100 30.60700
H  49.48900 39.50800 31.78700
H  49.43500 41.74800 28.34100
H  50.63200 41.48300 26.94100
H  51.00700 40.85500 28.50500
H  48.71600 35.70000 24.22600
H  46.18300 34.10000 23.88600
H  46.27800 37.21600 24.30700
H  46.09800 36.19900 22.86100
H  47.46300 37.26900 23.13800
H  48.40300 32.34500 24.55500
H  48.96300 33.63000 23.35900
H  48.12500 32.17200 21.82200
H  46.53800 32.22600 22.52400
H  47.65500 31.00400 22.99200
H  44.12400 30.35500 26.52100
H  44.54400 29.05900 27.59300
H  45.74500 29.46900 26.50200
H  43.95100 31.92200 32.06600
H  44.36600 29.32600 35.39600
H  44.79600 30.94400 35.78400
H  46.07100 29.95900 35.24100
Mg 16.21100 51.29400 24.40400
C  18.04800 50.71000 27.26800
C  13.57300 52.21400 26.32400
C  14.43700 51.60600 21.59100
C  18.99200 50.04800 22.55200
N  15.85500 51.47300 26.55800
C  16.78700 51.17100 27.55400
C  16.19500 51.59000 28.91600
C  14.66400 51.91100 28.67500
C  14.66400 51.76800 27.11300
C  13.66900 50.93600 29.33700
C  16.86900 52.81900 29.55900
C  17.05100 52.82800 31.10800
H  16.25500 51.77200 31.94300
N  14.23300 51.73800 23.96700
C  13.34800 52.23300 24.93400
C  12.19200 52.63700 24.21800
C  12.31700 52.39500 22.81800
C  13.75000 51.94000 22.72900
C  10.96900 53.18400 24.88200
C  11.39300 52.55900 21.62100
O  11.70800 52.17900 20.50500
C  10.11500 53.13900 21.79300
N  16.68900 51.03100 22.39400
C  15.79500 51.13900 21.35700
C  16.31900 50.95100 19.96800
C  17.79400 50.64500 20.33000
C  17.82000 50.52700 21.81900
C  15.65400 49.69600 19.39400
C  18.97300 51.49500 19.66700
C  20.09100 50.55100 19.10400
N  18.23400 50.59200 24.76000
C  19.21900 50.13000 23.92600
C  20.33400 49.72800 24.64200
C  19.99300 50.01800 26.02300
C  18.62400 50.44800 26.02300
C  21.62800 49.29500 24.06900
C  20.47000 49.96900 27.40200
O  21.48900 49.53300 27.88300
C  19.27200 50.44900 28.29200
C  18.96700 49.34700 29.26200
O  18.38500 48.30000 28.96300
O  19.44600 49.57400 30.53400
C  19.19500 48.58500 31.52200
H  12.82800 52.57700 27.03600
H  13.95400 51.78600 20.62900
H  19.75000 49.54400 21.94900
H  16.38900 50.69600 29.50800
H  14.34800 52.91700 28.95100
H  14.08400 50.07200 29.85700
H  13.07600 50.51200 28.52600
H  12.99700 51.43100 30.03800
H  16.41600 53.79500 29.38500
H  17.84500 52.94900 29.09000
H  16.85500 53.81800 31.52000
H  18.11300 52.61100 31.22100
H  11.30300 53.70400 25.78000
H  10.26700 52.40900 25.18900
H  10.35800 53.89800 24.32900
H  9.65900 52.37600 22.42300
H  9.62000 53.22700 20.82600
H  10.05400 54.11200 22.28100
H  16.12900 51.72700 19.22600
H  18.01700 49.60600 20.08700
H  16.22000 49.18000 18.61900
H  14.65300 49.92700 19.03100
H  15.45300 48.98800 20.19800
H  19.39700 51.97400 20.54900
H  18.53800 52.10800 18.87800
H  19.75700 49.52300 18.95800
H  20.86900 50.61100 19.86600
H  20.38800 50.87400 18.10600
H  22.16800 49.13500 25.00200
H  21.96500 50.20800 23.57700
H  21.70100 48.38100 23.48000
H  19.55300 51.39000 28.76500
H  18.13300 48.58500 31.76900
H  19.83400 48.91200 32.34200
H  19.46100 47.57400 31.21400

