158

Mg 40.04600 8.49200 29.77200
C  42.04700 9.51700 32.29800
C  37.73000 7.27800 31.93800
C  38.46200 6.78500 27.09900
C  42.71700 9.02900 27.45200
N  39.94300 8.38100 31.88000
C  40.78800 9.10500 32.75100
C  40.17600 9.33000 34.08200
C  38.91900 8.36400 33.96900
C  38.79800 8.00900 32.49600
C  39.03900 7.14200 34.90900
C  39.83700 10.79500 34.48800
C  39.14400 10.95700 35.90600
H  39.84700 11.83300 36.95100
N  38.24200 7.39600 29.53900
C  37.46600 7.02800 30.59300
C  36.32500 6.33400 30.08900
C  36.44000 6.31800 28.59800
C  37.79500 6.82800 28.35500
C  35.21300 5.62200 30.98200
C  35.60400 5.63400 27.61300
O  35.95800 5.34300 26.49700
C  34.30000 5.18600 28.03400
N  40.57500 7.75800 27.55600
C  39.73800 7.17300 26.69100
C  40.20500 7.22900 25.24700
C  41.37500 8.23600 25.38900
C  41.56400 8.41500 26.89400
C  40.56200 5.86500 24.57500
C  41.13500 9.66700 24.79300
C  39.81400 10.31900 25.19100
N  42.02400 9.05700 29.84600
C  42.97500 9.29300 28.86500
C  44.10400 9.96400 29.44500
C  43.78900 10.14800 30.79200
C  42.55800 9.47200 30.99500
C  45.28000 10.50300 28.78100
C  44.18700 10.73400 32.03200
O  45.13300 11.54300 32.23900
C  43.03600 10.39200 33.03500
C  43.51900 9.49600 34.15500
O  43.93500 8.33200 34.16000
O  43.52600 10.30400 35.27200
C  44.33600 9.74700 36.32800
H  36.95100 7.03900 32.66500
H  37.94900 6.35900 26.23400
H  43.43000 9.40000 26.71300
H  41.00200 8.95800 34.68800
H  37.99800 8.89600 34.20500
H  38.76500 6.24500 34.35400
H  38.60700 7.13100 35.91000
H  40.09300 7.13300 35.18600
H  39.18700 11.31000 33.78100
H  40.77500 11.34900 34.49300
H  38.97900 10.01000 36.41900
H  38.17900 11.43500 35.73800
H  35.47400 4.57700 31.15000
H  34.20200 5.61900 30.57400
H  35.12900 6.16500 31.92300
H  33.78100 4.72700 27.19300
H  33.73900 6.06000 28.36400
H  34.42200 4.44300 28.82200
H  39.36700 7.56100 24.63400
H  42.26700 7.77500 24.96500
H  40.37800 5.08600 25.31500
H  41.62400 5.81100 24.33500
H  39.85500 5.60500 23.78800
H  41.23800 9.22800 23.80000
H  41.94600 10.32600 25.10300
H  39.21900 9.67700 25.84000
H  39.11400 10.39400 24.35900
H  40.00500 11.36200 25.44600
H  45.14500 10.83800 27.75200
H  46.14100 9.83500 28.79700
H  45.60800 11.42300 29.26400
H  42.50400 11.26100 33.42100
H  45.23900 9.24600 35.97800
H  43.87200 9.21400 37.15800
H  44.67600 10.68500 36.76900
Mg 9.51300 47.03500 26.24900
C  7.21800 46.82800 28.83700
C  11.78400 48.02800 28.34300
C  11.53600 47.62400 23.61100
C  6.80600 46.73200 24.01500
N  9.48700 47.45000 28.44100
C  8.49200 47.17000 29.31500
C  8.94300 47.39500 30.77500
C  10.37000 47.97400 30.60000
C  10.60600 47.88400 29.04300
C  10.52700 49.41600 31.20300
C  8.75700 46.12300 31.75300
C  9.76100 45.97500 32.91100
H  9.16200 45.46500 34.24900
N  11.43900 47.47700 26.05400
C  12.27700 47.86500 27.04200
C  13.60200 47.94700 26.51700
C  13.54900 47.73600 25.08000
C  12.11200 47.64500 24.86700
C  14.79200 47.96700 27.43800
C  14.64300 47.65600 24.03100
O  14.40600 47.49000 22.82600
C  16.07200 47.45900 24.53200
N  9.20300 47.13000 24.10600
C  10.22500 47.44700 23.23800
C  9.77300 47.36700 21.75900
C  8.24200 47.15100 21.88200
C  8.06300 47.02600 23.41700
C  10.11900 48.71700 21.07300
C  7.68400 45.89900 21.04600
C  6.44500 46.27000 20.21200
N  7.43000 46.93200 26.35200
C  6.47500 46.67300 25.39000
C  5.22900 46.47900 25.95300
C  5.44400 46.50200 27.30900
C  6.83500 46.78200 27.53900
C  3.90700 46.37900 25.32200
C  4.78900 46.32100 28.61200
O  3.69600 45.98600 29.00300
C  6.00500 46.56700 29.68300
C  6.01100 45.37100 30.46800
O  6.76200 44.40900 30.37100
O  5.27700 45.51800 31.58400
C  5.16900 44.44900 32.63900
H  12.61300 47.95900 29.05100
H  12.15700 47.75300 22.72300
H  5.92200 46.52800 23.40800
H  8.19300 48.11700 31.09700
H  11.11400 47.31500 31.04900
H  10.99700 49.29300 32.17900
H  9.55100 49.79300 31.50800
H  10.98100 50.19500 30.59100
H  8.85400 45.23000 31.13600
H  7.77600 46.13300 32.22900
H  10.39500 46.82600 33.16000
H  10.42700 45.17300 32.59200
H  15.30800 48.91300 27.26900
H  15.61000 47.30500 27.15500
H  14.56600 47.92900 28.50400
H  16.78000 47.29500 23.72000
H  16.11800 46.61700 25.22200
H  16.38500 48.36500 25.05200
H  10.26300 46.63300 21.11900
H  7.65700 48.04200 21.65400
H  9.19500 49.23600 20.82000
H  10.67800 48.57000 20.14900
H  10.71200 49.30400 21.77500
H  7.29600 45.16800 21.75600
H  8.40200 45.53000 20.31400
H  6.41100 45.64400 19.32000
H  6.41500 47.34200 20.02000
H  5.49200 46.04800 20.69200
H  4.06900 45.78000 24.42600
H  3.62100 47.38400 25.01100
H  3.11000 45.96300 25.93700
H  5.71300 47.38500 30.34100
H  5.23700 43.48700 32.12900
H  4.16400 44.48700 33.05800
H  5.97700 44.50500 33.36800

