158

Mg 48.92000 34.77000 26.51100
C  46.99900 33.37900 29.14600
C  48.99700 37.74400 28.36600
C  50.28700 36.27300 23.84800
C  48.21300 31.89700 24.61400
N  48.30400 35.36800 28.57600
C  47.58100 34.64500 29.49600
C  47.55000 35.32200 30.87000
C  47.77500 36.82600 30.38600
C  48.39900 36.67400 28.99100
C  46.59900 37.82300 30.57500
C  48.65600 34.70000 31.85900
C  48.17300 34.58800 33.34700
H  46.95800 35.45800 33.74100
N  49.70900 36.69000 26.20400
C  49.65100 37.77500 27.11100
C  50.31100 38.90000 26.50600
C  50.73900 38.49100 25.20800
C  50.28600 37.05000 25.02900
C  50.35200 40.24700 27.19300
C  51.52700 39.23400 24.15100
O  51.97400 38.64500 23.19100
C  51.85700 40.71700 24.23000
N  49.27600 34.05800 24.54400
C  49.78200 34.96200 23.60400
C  49.94700 34.19000 22.30100
C  49.68500 32.69100 22.65000
C  49.01800 32.86400 24.00100
C  49.10000 34.58500 21.07000
C  50.99800 31.72200 22.65300
C  51.08700 30.62100 21.52400
N  47.71800 33.01700 26.66700
C  47.53000 31.94000 25.87800
C  46.72500 30.94500 26.53000
C  46.55600 31.44200 27.85000
C  47.09500 32.71800 27.86200
C  46.23200 29.60600 25.96000
C  45.77700 31.21100 29.15300
O  45.07300 30.27800 29.50100
C  46.04300 32.54000 29.97100
C  46.33700 32.14400 31.38200
O  47.43000 31.79400 31.84400
O  45.12500 32.09500 32.04000
C  45.29200 31.42000 33.35500
H  48.99400 38.64000 28.99000
H  50.64600 36.72100 22.91900
H  47.99500 31.02600 23.99300
H  46.51400 35.24500 31.20000
H  48.62100 37.22100 30.94900
H  45.78600 37.51000 31.23000
H  46.34600 38.05400 29.54000
H  46.87400 38.78000 31.01800
H  49.55700 35.31400 31.88400
H  48.99100 33.79600 31.35000
H  48.94200 34.81700 34.08500
H  47.92400 33.54100 33.52000
H  51.40700 40.43100 27.39100
H  49.88400 40.35000 28.17200
H  49.99300 41.04200 26.53900
H  52.20400 40.99100 25.22700
H  51.11600 41.32400 23.71100
H  52.72300 40.78800 23.57200
H  51.00100 34.33000 22.06100
H  49.06600 32.13500 21.94700
H  49.72700 35.14400 20.37500
H  48.31200 35.23400 21.45200
H  48.53800 33.78100 20.59500
H  51.04600 31.35100 23.67700
H  51.88600 32.33400 22.49900
H  51.94900 30.76000 20.87100
H  50.29900 30.61600 20.77200
H  51.22700 29.62200 21.93600
H  47.09900 28.94500 25.99900
H  45.81900 29.79500 24.97000
H  45.54600 29.09900 26.63900
H  45.14300 33.15500 29.99600
H  45.54300 30.37500 33.17100
H  44.30000 31.56000 33.78500
H  45.96900 32.01700 33.96600
Mg 0.01600 43.24800 25.97800
C  1.83000 43.42800 28.92500
C  -2.95000 42.99000 27.95100
C  -1.78600 42.50900 23.19000
C  2.92100 43.31800 24.22300
N  -0.50700 43.10700 28.17300
C  0.47700 43.34200 29.21300
C  -0.21700 43.28500 30.55300
C  -1.70700 43.07400 30.22400
C  -1.76600 43.03600 28.69900
C  -2.29000 41.79500 30.88300
C  -0.03000 44.48000 31.54900
C  0.43100 44.24200 33.06000
H  -0.07000 42.88400 33.62300
N  -2.04800 42.72600 25.62900
C  -3.09400 42.85500 26.48800
C  -4.34100 42.76300 25.77700
C  -4.05400 42.54700 24.38500
C  -2.55500 42.58400 24.33300
C  -5.68700 42.98300 26.52600
C  -4.96500 42.44700 23.22500
O  -4.56200 42.51600 22.08600
C  -6.45000 42.35400 23.47600
N  0.61000 42.81500 24.05000
C  -0.39100 42.64500 23.07500
C  0.32500 42.42500 21.63300
C  1.79200 42.76800 22.02100
C  1.78900 43.01600 23.51000
C  0.11000 41.07600 20.89300
C  2.21200 43.97300 21.27600
C  1.47600 45.25400 21.63200
N  2.01400 43.35000 26.47000
C  3.08900 43.54400 25.60000
C  4.34100 43.84600 26.37800
C  3.86500 43.64600 27.73600
C  2.44500 43.47500 27.70100
C  5.73100 44.01400 25.88400
C  4.36400 43.48500 29.12900
O  5.48800 43.47800 29.61800
C  2.97400 43.43900 29.96400
C  3.05500 42.16100 30.75300
O  2.75000 41.03200 30.37200
O  3.51500 42.49100 31.92600
C  3.61300 41.36000 32.92600
H  -3.84000 42.91300 28.57900
H  -2.36200 42.47600 22.26200
H  3.88500 43.46300 23.73100
H  0.13900 42.35100 30.98700
H  -2.32700 43.92600 30.50300
H  -3.07300 42.12700 31.56500
H  -1.50000 41.13400 31.24200
H  -2.81400 41.30800 30.06100
H  -0.87500 45.16200 31.45900
H  0.75000 44.96300 30.96100
H  -0.01900 45.00600 33.69500
H  1.47600 44.48000 33.25800
H  -5.60000 43.67800 27.36200
H  -6.03200 42.08100 27.03200
H  -6.44400 43.31700 25.81700
H  -7.06800 41.86900 22.72000
H  -6.72000 43.40700 23.55800
H  -6.59700 41.93600 24.47200
H  -0.13600 43.20400 21.02700
H  2.39100 41.89100 21.77600
H  -0.31400 41.29500 19.91300
H  -0.64700 40.37800 21.24900
H  1.05300 40.58100 20.66100
H  2.21400 43.72600 20.21400
H  3.27400 44.06500 21.50600
H  2.10400 45.73900 22.37900
H  0.54500 45.18100 22.19400
H  1.45400 45.83900 20.71300
H  6.01300 45.05400 25.72400
H  5.88400 43.35100 25.03300
H  6.48500 43.69000 26.60200
H  2.80800 44.32200 30.58200
H  3.39000 40.35700 32.56100
H  2.94000 41.55600 33.76000
H  4.62500 41.32500 33.33100

