158

Mg 40.58200 8.23700 29.42000
C  42.35500 9.77600 32.08400
C  38.28600 6.96900 31.66500
C  39.15500 6.57000 26.83200
C  43.27600 9.00300 27.35400
N  40.39300 8.39300 31.64000
C  41.16900 9.07400 32.47200
C  40.62900 9.03200 33.90400
C  39.26900 8.20900 33.73800
C  39.32900 7.76400 32.29900
C  39.10500 7.04200 34.75300
C  40.47600 10.44100 34.64200
C  39.54300 10.51800 35.86900
H  40.03000 11.38900 37.05400
N  38.92700 6.95200 29.20400
C  38.10900 6.63000 30.24600
C  37.02800 5.91500 29.71500
C  37.24000 5.73300 28.29100
C  38.46900 6.44100 28.05900
C  35.81600 5.52000 30.52900
C  36.31800 5.11800 27.22400
O  36.58200 5.05100 26.01600
C  34.93000 4.62100 27.62900
N  41.21500 7.78200 27.36000
C  40.33400 7.16900 26.49000
C  40.93300 7.17100 25.06900
C  42.33000 7.91200 25.27200
C  42.34500 8.22700 26.73300
C  40.98700 5.71400 24.47300
C  42.44200 9.16900 24.35900
C  42.14800 10.57400 24.98500
N  42.40100 9.28400 29.59400
C  43.37300 9.46200 28.66800
C  44.49600 10.21200 29.32600
C  44.07600 10.40700 30.64700
C  42.81400 9.78200 30.78300
C  45.70900 10.73700 28.55200
C  44.44800 11.03500 31.98600
O  45.33200 11.76400 32.35800
C  43.24200 10.69400 32.92500
C  43.79300 10.16700 34.25100
O  44.17600 9.03500 34.50700
O  43.90200 11.22400 35.17500
C  44.68800 10.89900 36.38600
H  37.60500 6.48800 32.36900
H  38.75600 6.15900 25.90200
H  44.09400 9.35600 26.72200
H  41.37500 8.50600 34.50100
H  38.39700 8.85900 33.80800
H  38.39400 7.35100 35.51800
H  40.01600 6.64900 35.20400
H  38.67700 6.14300 34.31000
H  40.03200 11.07400 33.87400
H  41.45300 10.86700 34.87200
H  39.30900 9.53300 36.27300
H  38.60800 10.98500 35.56100
H  35.86600 6.01500 31.49900
H  35.74700 4.43400 30.58600
H  34.90400 5.80500 30.00500
H  34.28600 5.49200 27.75100
H  35.00600 3.96900 28.49900
H  34.50900 4.05200 26.80000
H  40.22800 7.67700 24.40900
H  43.17500 7.22600 25.23800
H  40.86500 4.92200 25.21100
H  41.97200 5.64800 24.01100
H  40.14400 5.66000 23.78400
H  41.84000 9.08900 23.45300
H  43.50700 9.15000 24.12900
H  41.67100 10.47100 25.96000
H  41.52400 11.12000 24.27800
H  43.07100 11.11400 25.19600
H  45.31000 11.49100 27.87300
H  46.05400 9.86600 27.99500
H  46.45000 11.12900 29.24900
H  42.80300 11.66600 33.14800
H  45.76900 10.83300 36.26300
H  44.39600 9.96400 36.86400
H  44.50700 11.71200 37.08900
Mg 35.66700 49.31200 24.87000
C  35.49400 47.53200 27.92600
C  34.29500 52.03400 26.43800
C  35.08400 50.74900 21.81700
C  36.60500 46.37500 23.31800
N  35.07900 49.75700 26.93400
C  35.09200 48.89300 28.03100
C  34.89400 49.66400 29.34100
C  34.36500 51.04700 28.93600
C  34.62900 50.97900 27.35100
C  32.94200 51.39600 29.26800
C  36.08100 49.77600 30.28900
C  35.78200 49.45100 31.81600
H  34.33200 49.63500 32.36200
N  34.74300 51.14000 24.24700
C  34.29700 52.19100 25.03500
C  33.87000 53.25500 24.23200
C  34.00400 52.83700 22.85200
C  34.61800 51.49300 22.90700
C  33.44700 54.58000 24.83100
C  33.65800 53.64900 21.60800
O  33.84300 53.16600 20.45500
C  33.03800 55.09400 21.68500
N  35.57300 48.60800 22.79300
C  35.47400 49.42300 21.79000
C  35.88400 48.76200 20.41700
C  36.55500 47.45500 20.95500
C  36.27500 47.43500 22.49900
C  34.78500 48.54300 19.38300
C  38.11700 47.47100 20.84400
C  38.77800 46.69500 19.69200
N  36.09900 47.32400 25.46000
C  36.56500 46.22500 24.72500
C  36.73600 45.11700 25.58900
C  36.30000 45.57000 26.86900
C  35.92700 46.89800 26.71900
C  37.20400 43.73500 25.20800
C  36.02500 45.18500 28.25700
O  36.17200 44.12900 28.83600
C  35.62800 46.48200 29.06500
C  34.39500 46.15100 29.84900
O  33.26600 46.40500 29.52700
O  34.73000 45.79900 31.15900
C  33.64800 45.41700 32.11000
H  34.11100 53.00600 26.90000
H  35.15000 51.17900 20.81500
H  36.93400 45.50600 22.74400
H  34.10300 49.16800 29.90400
H  34.93800 51.84900 29.40000
H  32.58200 50.75000 30.06800
H  32.25600 51.47600 28.42500
H  32.96400 52.38200 29.73300
H  36.59100 50.73900 30.25500
H  36.93000 49.14300 30.03100
H  36.41600 50.04900 32.46900
H  36.21500 48.46400 31.97600
H  32.43800 54.78100 24.47200
H  34.01700 55.47800 24.59300
H  33.42000 54.56300 25.92100
H  32.67200 55.21900 20.66500
H  33.70100 55.91900 21.94700
H  32.13800 55.02100 22.29600
H  36.64100 49.39500 19.95300
H  36.16500 46.55500 20.48000
H  35.13600 49.10600 18.51800
H  33.85200 49.04800 19.63000
H  34.61300 47.48500 19.18200
H  38.57400 46.97500 21.70000
H  38.36600 48.53000 20.77800
H  38.87900 45.62600 19.88000
H  39.78700 47.07400 19.53300
H  38.17300 46.88700 18.80600
H  37.86000 43.43300 26.02400
H  37.84500 43.82500 24.33000
H  36.42200 42.97700 25.19500
H  36.50200 46.71300 29.67400
H  33.69700 44.33100 32.18600
H  32.69200 45.82600 31.78300
H  33.88700 45.97100 33.01800

