158

Mg 16.75400 -3.27900 28.47800
C  15.42100 -1.26500 31.06000
C  18.73100 -4.74900 30.76900
C  18.41200 -4.79700 25.99100
C  15.04600 -1.27400 26.13100
N  17.08800 -2.89200 30.72500
C  16.34400 -2.19800 31.58000
C  16.75000 -2.51200 33.00000
C  17.95200 -3.44700 32.80700
C  17.92600 -3.73900 31.28600
C  19.35500 -2.97300 33.32200
C  15.55700 -3.07200 33.71700
C  15.15100 -2.44300 35.09200
H  16.13100 -1.39100 35.57100
N  18.22900 -4.66900 28.39100
C  18.96100 -5.11700 29.44700
C  19.83500 -6.19100 29.00300
C  19.67700 -6.30000 27.62300
C  18.70800 -5.22000 27.26100
C  20.77100 -6.94000 29.98500
C  20.38900 -7.21000 26.70000
O  20.30900 -7.07200 25.47400
C  21.15900 -8.31100 27.20100
N  16.86100 -2.89000 26.34700
C  17.64100 -3.68800 25.58500
C  17.56200 -3.22900 24.09700
C  16.37500 -2.26300 24.11700
C  16.04800 -2.15500 25.60000
C  18.83500 -2.69800 23.38000
C  15.10100 -2.58700 23.28200
C  14.72700 -1.73100 22.05500
N  15.48200 -1.68400 28.58100
C  14.80400 -1.02600 27.51600
C  13.89500 -0.05500 28.06700
C  14.13800 -0.06700 29.44900
C  15.06100 -1.11600 29.73500
C  12.96000 0.88200 27.30600
C  13.74200 0.49300 30.69900
O  12.95700 1.39000 30.93900
C  14.60700 -0.17800 31.78700
C  15.39200 0.85200 32.54400
O  16.59200 1.02900 32.54200
O  14.55700 1.48400 33.34100
C  15.13100 2.52100 34.18400
H  19.33600 -5.32000 31.47600
H  18.91600 -5.32700 25.18000
H  14.26000 -0.79100 25.54700
H  17.20700 -1.63400 33.45700
H  17.73700 -4.45900 33.15100
H  20.07000 -3.03700 32.50200
H  19.74000 -3.61200 34.11700
H  19.39600 -1.99200 33.79500
H  15.72400 -4.14400 33.82900
H  14.70300 -2.85500 33.07500
H  15.05500 -3.23200 35.83800
H  14.19300 -1.96200 34.89300
H  20.97400 -7.95400 29.64100
H  20.42400 -7.04300 31.01300
H  21.71900 -6.40100 30.01600
H  20.37200 -8.84100 27.73800
H  21.96500 -7.85100 27.77200
H  21.58900 -8.97900 26.45300
H  17.23500 -4.08100 23.50100
H  16.75700 -1.27700 23.85300
H  19.69600 -2.81200 24.03800
H  18.78400 -1.63000 23.16900
H  19.07600 -3.21900 22.45300
H  14.22300 -2.58500 23.92800
H  15.23100 -3.60200 22.90800
H  13.72600 -1.31100 22.15700
H  14.64300 -2.36900 21.17500
H  15.37000 -0.87400 21.85600
H  12.34300 0.20600 26.71500
H  13.46200 1.47200 26.53900
H  12.35700 1.46100 28.00500
H  13.92800 -0.59800 32.53000
H  15.32100 3.27600 33.42100
H  16.07900 2.28400 34.66600
H  14.43200 2.74800 34.98900
Mg 45.98600 25.30900 28.26700
C  46.83100 27.36700 30.91100
C  45.04900 22.89700 30.69100
C  45.13400 23.27300 25.76800
C  47.36800 27.56800 26.02800
N  45.94700 25.09800 30.57100
C  46.29000 26.13900 31.44800
C  46.14300 25.74900 32.94300
C  45.78100 24.15000 32.81500
C  45.56600 24.05400 31.27000
C  46.76600 23.27200 33.56000
C  45.15600 26.67500 33.66500
C  45.54300 27.01100 35.09000
H  44.52900 27.27800 36.17400
N  45.11700 23.45400 28.23400
C  44.83100 22.60200 29.29700
C  44.19000 21.42500 28.79400
C  44.26000 21.45000 27.38800
C  44.89800 22.71900 27.04100
C  43.66400 20.31400 29.66600
C  43.91500 20.31600 26.41800
O  44.13700 20.40000 25.19400
C  43.25200 19.03200 26.93600
N  46.14900 25.44700 26.16000
C  45.71200 24.51600 25.33900
C  46.07700 24.85100 23.89300
C  46.54300 26.33600 24.00800
C  46.71700 26.50800 25.51800
C  47.10500 23.93700 23.10500
C  45.48100 27.46100 23.54800
C  46.00100 28.46700 22.49500
N  47.10100 26.94200 28.36300
C  47.59900 27.81200 27.41700
C  48.26200 28.90300 28.10100
C  47.86000 28.77100 29.40900
C  47.21900 27.56900 29.60200
C  49.02200 30.06200 27.58400
C  48.16200 29.40200 30.67400
O  48.75400 30.46200 30.92600
C  47.25000 28.58500 31.69900
C  48.12100 28.43700 32.92200
O  49.06500 27.68500 32.96100
O  47.82400 29.42500 33.89600
C  48.87200 29.67900 34.93600
H  44.75200 22.23200 31.50500
H  44.82600 22.66700 24.91400
H  47.67800 28.37200 25.35800
H  47.08600 25.86700 33.47800
H  44.81800 24.08100 33.32200
H  46.24800 22.67000 34.30600
H  47.59000 23.86800 33.95400
H  47.18000 22.46900 32.95000
H  44.24700 26.08400 33.77800
H  44.88000 27.49800 33.00600
H  46.17600 27.89400 35.00400
H  46.06600 26.14800 35.50200
H  42.57500 20.31400 29.64400
H  43.93400 20.43500 30.71500
H  44.17200 19.39000 29.38900
H  44.01100 18.46500 27.47600
H  42.86800 18.44800 26.10000
H  42.50000 19.43900 27.61100
H  45.12800 24.91100 23.36200
H  47.48100 26.56400 23.50100
H  47.83000 24.50100 22.51700
H  46.59000 23.35000 22.34400
H  47.60100 23.18800 23.72100
H  45.09300 28.07400 24.36000
H  44.59700 26.96600 23.14700
H  47.07300 28.33100 22.35200
H  45.87600 29.52300 22.73600
H  45.61700 28.33400 21.48400
H  49.82600 30.13800 28.31600
H  48.42800 30.94400 27.82300
H  49.32400 30.00000 26.53900
H  46.33600 29.13800 31.91700
H  49.90500 29.47000 34.65900
H  48.60600 28.96500 35.71600
H  48.77700 30.74200 35.15800

