158

Mg 47.93600 25.37000 28.34400
C  48.85500 27.57800 30.78600
C  46.98800 23.15600 30.82900
C  47.18700 23.10200 25.96900
C  49.53900 27.35900 25.97500
N  47.91600 25.36300 30.60100
C  48.25700 26.44700 31.38500
C  47.85900 26.17900 32.83900
C  47.52400 24.61600 32.85500
C  47.33800 24.37500 31.35500
C  48.62500 23.73300 33.49500
C  46.68900 27.07800 33.33300
C  46.98000 28.07000 34.54000
H  45.91600 28.08700 35.71100
N  47.13800 23.42700 28.38400
C  46.85900 22.75900 29.48500
C  46.32400 21.43700 29.05800
C  46.31100 21.34700 27.66300
C  46.83700 22.64800 27.27800
C  46.12300 20.31600 30.01100
C  45.87700 20.24100 26.64200
O  45.99900 20.42400 25.45100
C  45.35100 18.93700 27.04100
N  48.28800 25.27400 26.29800
C  47.82800 24.27400 25.51300
C  48.31100 24.45300 24.03500
C  48.94500 25.83100 23.95600
C  48.91900 26.15000 25.51900
C  49.23600 23.28700 23.54800
C  48.17700 26.84900 22.97900
C  49.06900 27.56300 21.88100
N  48.97300 27.13700 28.28900
C  49.50500 27.87700 27.31000
C  50.12800 29.06100 27.84100
C  49.88100 29.02900 29.18600
C  49.20500 27.80800 29.41100
C  50.73300 30.22100 27.19400
C  49.99100 29.69000 30.41200
O  50.45400 30.78000 30.71700
C  49.20700 28.90600 31.44600
C  50.16000 28.74900 32.58400
O  51.14700 28.01400 32.60400
O  49.75400 29.56900 33.58900
C  50.62300 29.34200 34.79300
H  46.71300 22.57700 31.71300
H  46.94700 22.33600 25.22800
H  50.12900 28.02800 25.34500
H  48.73100 26.35800 33.46800
H  46.58100 24.48900 33.38600
H  48.19400 23.30800 34.40100
H  49.46900 24.33700 33.83100
H  49.00300 23.10200 32.69100
H  45.75200 26.58400 33.59100
H  46.43200 27.76500 32.52700
H  46.88600 29.06400 34.10100
H  47.99100 28.07800 34.94700
H  45.08600 20.37100 30.34200
H  46.75300 20.60600 30.85300
H  46.43400 19.34200 29.63200
H  44.49100 19.18700 27.66200
H  46.16600 18.49400 27.61200
H  45.09900 18.30100 26.19300
H  47.39000 24.33000 23.46400
H  49.98600 25.70800 23.66000
H  48.84000 22.93200 22.59700
H  49.16900 22.51800 24.31800
H  50.23900 23.70500 23.46000
H  47.87600 27.73300 23.54000
H  47.24800 26.39900 22.62900
H  49.87000 26.90300 21.54500
H  49.42000 28.53300 22.23300
H  48.48900 27.80000 20.98900
H  51.08600 29.92500 26.20600
H  51.65400 30.53500 27.68400
H  50.12900 31.12600 27.12200
H  48.26100 29.31300 31.80200
H  50.09000 28.55100 35.32000
H  50.55000 30.23600 35.41200
H  51.67800 29.14400 34.60400
Mg 48.80300 35.30100 27.81700
C  46.60400 33.48400 29.86000
C  48.40700 37.89600 29.82800
C  50.14300 37.25900 25.33000
C  48.29700 32.67700 25.40100
N  47.69400 35.56800 29.64300
C  47.00500 34.70800 30.35100
C  46.91000 35.15000 31.85900
C  47.17900 36.67700 31.77000
C  47.83800 36.74800 30.40300
C  45.91800 37.59300 31.87200
C  48.00500 34.40700 32.78800
C  48.03900 34.92400 34.24500
H  46.86000 35.79500 34.73900
N  49.18300 37.27200 27.59600
C  49.03100 38.18900 28.59000
C  49.47500 39.52100 28.07300
C  50.12400 39.27200 26.81100
C  49.77000 37.90700 26.51700
C  49.43100 40.81600 28.90300
C  51.02600 40.18900 25.99100
O  51.50300 39.92600 24.92700
C  51.31100 41.57400 26.55300
N  49.09200 34.99800 25.64100
C  49.83000 35.99100 24.95100
C  50.30000 35.47900 23.54900
C  49.85200 33.94200 23.65800
C  49.03700 33.79300 24.94000
C  49.87900 36.29100 22.31300
C  51.02600 32.93100 23.68800
C  51.50500 32.46700 22.29900
N  47.86300 33.33400 27.68400
C  47.69300 32.48000 26.65000
C  46.86000 31.36400 27.06600
C  46.39100 31.69900 28.29100
C  47.02300 32.91300 28.59500
C  46.68900 30.01300 26.42300
C  45.49900 31.33400 29.38600
O  44.87000 30.26500 29.45800
C  45.48500 32.55100 30.40900
C  45.86200 32.06000 31.76500
O  46.64400 31.14300 31.96900
O  45.05000 32.61300 32.71500
C  45.11600 31.96500 34.00400
H  48.22800 38.72800 30.51200
H  50.69500 37.88300 24.62400
H  48.19700 31.95400 24.58800
H  45.86500 34.97200 32.11300
H  47.84400 37.00300 32.57000
H  44.97700 37.05600 31.99200
H  45.73600 38.00900 30.88100
H  46.06200 38.37200 32.62100
H  48.96100 34.51300 32.27600
H  47.72800 33.35900 32.89800
H  48.98900 35.43900 34.39200
H  48.02000 34.08500 34.94000
H  48.74900 41.53000 28.44100
H  50.44600 41.20800 28.97000
H  49.01300 40.59800 29.88600
H  51.84300 42.16900 25.81000
H  52.01500 41.57700 27.38400
H  50.35800 42.07100 26.73600
H  51.38600 35.51900 23.46100
H  49.24800 33.62900 22.80600
H  49.05900 35.84100 21.75300
H  50.75100 36.50900 21.69600
H  49.51600 37.24700 22.69000
H  50.74200 32.08100 24.30800
H  51.89800 33.31500 24.21800
H  52.57900 32.28200 22.34400
H  51.49200 33.20700 21.49800
H  51.09800 31.50800 21.97900
H  47.45000 29.80100 25.67200
H  45.73100 30.14500 25.92000
H  46.59400 29.24400 27.18900
H  44.45200 32.89100 30.34100
H  45.96500 32.53200 34.38600
H  45.17700 30.88200 33.89100
H  44.21500 32.20300 34.56900

