158

Mg 26.36800 49.00000 26.12200
C  24.58100 50.51700 28.66000
C  28.78900 48.11600 28.51900
C  28.36800 47.82100 23.64800
C  24.17200 50.29600 23.68600
N  26.69500 49.35200 28.34300
C  25.66700 49.77600 29.17800
C  26.05700 49.44700 30.67900
C  27.48700 48.94300 30.57400
C  27.66300 48.72000 29.09000
C  28.60700 49.90700 31.11900
C  24.96600 48.54200 31.33300
C  25.40100 47.80100 32.59000
H  24.60000 48.10500 33.85700
N  28.22300 47.98200 26.10600
C  29.04800 47.78600 27.17600
C  30.19400 47.06800 26.76000
C  30.19000 47.02700 25.35500
C  28.86200 47.58000 24.93600
C  31.19000 46.54100 27.76900
C  31.24800 46.50100 24.45300
O  31.15800 46.36000 23.22300
C  32.50400 45.98600 25.05600
N  26.26700 49.12000 24.03100
C  27.19800 48.44200 23.24400
C  26.95500 48.71200 21.80100
C  25.53000 49.38800 21.75400
C  25.26200 49.57000 23.18200
C  27.97900 49.56500 21.08900
C  24.46500 48.55100 20.96000
C  23.90600 47.23600 21.72100
N  24.69100 50.16300 26.13100
C  23.87400 50.61500 25.07200
C  22.71600 51.26700 25.66900
C  22.96800 51.28200 27.03600
C  24.19100 50.61500 27.25900
C  21.49600 51.71600 25.03300
C  22.45400 51.64700 28.34100
O  21.34900 52.08000 28.52100
C  23.41400 51.09400 29.41600
C  23.85800 52.18400 30.30600
O  24.82800 52.88500 30.17000
O  23.01600 52.33600 31.36900
C  23.36100 53.36600 32.36200
H  29.36100 47.72100 29.36100
H  28.89700 47.33200 22.82800
H  23.38400 50.65500 23.02200
H  26.05400 50.37300 31.25400
H  27.52600 48.06200 31.21500
H  29.50800 49.90500 30.50400
H  28.87500 49.47100 32.08100
H  28.18800 50.90500 31.25100
H  24.56400 47.78400 30.66000
H  24.07200 49.11800 31.57000
H  26.44600 47.95700 32.85900
H  25.35700 46.72400 32.43000
H  32.11700 47.10000 27.89500
H  31.47500 45.51000 27.56200
H  30.78400 46.41000 28.77100
H  33.17700 45.82500 24.21400
H  32.45200 45.02700 25.57000
H  32.88600 46.81900 25.64500
H  26.86700 47.73800 21.32100
H  25.41000 50.40700 21.38700
H  27.41400 50.15700 20.36900
H  28.64400 48.90500 20.53100
H  28.60100 50.16200 21.75600
H  24.95000 48.27400 20.02400
H  23.64400 49.24100 20.76700
H  24.24100 47.39400 22.74600
H  24.44900 46.39300 21.29400
H  22.81700 47.24700 21.66700
H  21.69300 52.48100 24.28200
H  20.80400 52.09900 25.78300
H  21.01500 50.86900 24.54300
H  22.81800 50.48800 30.09700
H  22.70000 54.20500 32.57900
H  24.37800 53.74000 32.24800
H  23.51600 52.94100 33.35300
Mg 16.36700 50.81200 26.34200
C  18.24200 49.09800 28.74500
C  14.31700 51.99300 28.70800
C  14.56900 52.17100 23.86400
C  18.59900 49.43700 23.95600
N  16.17500 50.38100 28.53100
C  17.12200 49.82300 29.35500
C  16.83200 50.11400 30.79000
C  15.47700 50.74100 30.76200
C  15.33700 51.16800 29.24800
C  14.24900 49.85000 31.12800
C  17.96100 51.08200 31.29900
C  17.86800 51.59000 32.74500
H  16.89900 50.82200 33.64600
N  14.59000 51.78800 26.32800
C  14.00400 52.42900 27.40000
C  12.92000 53.28000 27.00600
C  12.94400 53.25000 25.53400
C  14.00600 52.22500 25.15300
C  12.00700 54.18500 27.99000
C  12.04200 54.09400 24.58200
O  12.25100 54.08100 23.37000
C  11.00500 55.00900 25.18500
N  16.52400 50.70800 24.24900
C  15.73800 51.45000 23.42400
C  16.22600 51.57700 21.96200
C  17.64400 50.85300 22.05200
C  17.59800 50.29800 23.47700
C  15.25700 50.85300 20.99600
C  18.79200 51.78100 21.78200
C  19.93000 51.29000 20.86100
N  18.03300 49.31900 26.24000
C  18.86100 48.91200 25.25000
C  19.91500 48.13300 25.79000
C  19.72400 48.17700 27.15800
C  18.52600 48.84400 27.41000
C  21.18000 47.64200 25.13900
C  20.27200 47.76000 28.40800
O  21.28100 47.06200 28.69600
C  19.36100 48.36800 29.52100
C  19.01800 47.34800 30.50000
O  18.49000 46.28900 30.25800
O  19.12000 47.77600 31.81200
C  18.84900 46.73500 32.74800
H  13.62400 52.44100 29.42200
H  14.03000 52.66500 23.05300
H  19.29600 49.17200 23.15800
H  16.88800 49.19200 31.36800
H  15.36600 51.69500 31.27700
H  13.64600 49.44200 30.31600
H  13.64600 50.43600 31.82100
H  14.59200 49.02800 31.75600
H  18.03800 51.92500 30.61200
H  18.92800 50.57900 31.27800
H  17.61000 52.64800 32.71500
H  18.84800 51.51100 33.21600
H  12.05400 53.71000 28.97000
H  10.96000 54.10900 27.69600
H  12.39600 55.20200 28.04300
H  10.24400 54.55100 25.81700
H  10.55700 55.67600 24.44900
H  11.53200 55.79200 25.72900
H  16.25500 52.63100 21.68600
H  17.68600 49.97900 21.40200
H  14.57700 50.13500 21.45300
H  15.86400 50.37200 20.22800
H  14.66900 51.52200 20.36700
H  19.30400 52.07100 22.70000
H  18.50700 52.72000 21.30800
H  19.73700 50.26500 20.54300
H  20.87000 51.33400 21.41000
H  20.09600 51.90900 19.97900
H  21.61300 46.64200 25.16200
H  21.89100 48.32700 25.60100
H  21.30100 47.86000 24.07800
H  20.03400 49.10600 29.95900
H  18.03600 46.05500 32.49400
H  18.61100 47.31800 33.63700
H  19.72400 46.10500 32.90400

