158

Mg 1.51600 7.50900 25.12400
C  2.01700 9.42500 28.03300
C  1.64000 4.61400 27.15500
C  1.05000 5.75600 22.38500
C  2.13000 10.37100 23.20100
N  1.95800 7.06800 27.27900
C  1.91300 8.01200 28.31500
C  1.91700 7.46800 29.70600
C  2.13000 5.95100 29.30400
C  1.82400 5.85700 27.83200
C  3.57900 5.33900 29.58600
C  0.60500 7.63000 30.51800
C  0.29100 6.77700 31.77200
H  1.50500 6.22500 32.51400
N  1.37000 5.44100 24.88100
C  1.46300 4.48000 25.72300
C  1.45300 3.19700 25.01300
C  1.28300 3.46900 23.64300
C  1.18100 4.94500 23.60900
C  1.51800 1.80300 25.66800
C  1.13400 2.56900 22.44000
O  0.97600 2.97500 21.26800
C  1.16000 1.09600 22.49000
N  1.70200 8.02200 23.06400
C  1.21400 7.08800 22.15800
C  1.14900 7.78000 20.73300
C  1.42800 9.31900 21.00600
C  1.80100 9.27200 22.53000
C  2.11300 7.18900 19.66200
C  0.12600 10.13200 20.77100
C  0.27500 11.45000 20.04900
N  2.01100 9.49600 25.48800
C  2.20400 10.58900 24.62000
C  2.34400 11.74400 25.42900
C  2.32700 11.35600 26.74900
C  2.15300 9.94900 26.73400
C  2.40700 13.18400 24.96000
C  2.49200 11.83200 28.07700
O  2.65200 12.92800 28.49800
C  2.25100 10.61100 29.00200
C  3.36800 10.67600 29.98500
O  4.48400 10.28200 29.78300
O  2.94800 11.34300 31.13200
C  3.86300 11.55100 32.20400
H  1.79500 3.75100 27.80600
H  0.80000 5.32100 21.41500
H  2.21900 11.23900 22.54300
H  2.83600 7.84400 30.15500
H  1.42000 5.31800 29.83800
H  4.18900 5.71700 30.40600
H  4.19500 5.26700 28.68900
H  3.59800 4.30200 29.92200
H  -0.16900 7.57800 29.75300
H  0.50600 8.68700 30.76700
H  -0.40200 6.00300 31.44300
H  -0.18700 7.33900 32.57400
H  0.55800 1.36200 25.93500
H  2.08600 1.89500 26.59400
H  2.15200 1.20900 25.01000
H  0.54300 0.71400 23.30400
H  2.17500 0.70000 22.45200
H  0.65000 0.81100 21.57000
H  0.12700 7.58500 20.40800
H  2.22700 9.71700 20.38000
H  2.97400 7.85700 19.68600
H  1.54200 7.25600 18.73600
H  2.38100 6.15600 19.88700
H  -0.30500 10.40100 21.73500
H  -0.54700 9.55300 20.13800
H  0.35600 11.29000 18.97400
H  1.23700 11.84100 20.38200
H  -0.56800 12.12100 20.20800
H  1.41500 13.44500 24.59100
H  3.14600 13.07300 24.16600
H  2.95400 13.92000 25.55000
H  1.29800 10.84600 29.47700
H  4.81100 11.93500 31.82900
H  4.04600 10.56300 32.62500
H  3.55100 12.23100 32.99600
Mg 0.18100 43.29200 25.53600
C  2.65800 42.80900 27.86900
C  -2.16000 42.29100 27.67800
C  -1.99800 43.74100 22.97100
C  2.76100 43.61000 23.09900
N  0.26300 42.47500 27.54400
C  1.39400 42.49200 28.34400
C  0.92800 42.28100 29.81800
C  -0.65600 42.04100 29.71200
C  -0.90800 42.38000 28.20400
C  -1.08400 40.64000 30.07900
C  1.24500 43.55000 30.70700
C  1.82400 43.16100 32.15100
H  1.51100 41.81500 32.83500
N  -1.79900 43.08400 25.41200
C  -2.58800 42.62300 26.38600
C  -3.93900 42.61300 25.96900
C  -3.97600 43.10400 24.58700
C  -2.52900 43.33600 24.26300
C  -5.07600 41.98100 26.86900
C  -5.19900 43.26800 23.69400
O  -5.15100 43.60400 22.47700
C  -6.52600 42.95800 24.26900
N  0.33200 43.46500 23.29500
C  -0.70600 43.78300 22.51900
C  -0.34400 44.09600 21.06900
C  1.19300 44.08700 21.16200
C  1.47700 43.73600 22.62900
C  -1.09100 43.16200 20.06900
C  1.79200 45.34500 20.64500
C  2.29000 46.43800 21.61200
N  2.30300 43.16500 25.42200
C  3.25400 43.34600 24.39100
C  4.64200 43.26300 24.82200
C  4.39300 43.12400 26.21900
C  3.01800 43.03900 26.51100
C  5.84000 43.35900 23.85900
C  5.08000 42.95600 27.51300
O  6.28800 42.81500 27.75500
C  3.90800 42.84800 28.63400
C  4.29300 41.64100 29.45100
O  4.11100 40.45600 29.18900
O  4.71600 42.06200 30.67600
C  5.18100 40.98100 31.56000
H  -2.97300 42.14900 28.39300
H  -2.73300 43.83000 22.16800
H  3.49300 43.92800 22.35400
H  1.38600 41.38300 30.23100
H  -1.14600 42.78300 30.34300
H  -1.25200 40.02500 29.19400
H  -1.94200 40.67600 30.75000
H  -0.24600 40.16300 30.58600
H  0.37900 44.19300 30.86100
H  1.95200 44.25300 30.26700
H  1.42700 44.01100 32.70800
H  2.90000 43.24500 32.30000
H  -5.80600 41.37600 26.33100
H  -5.65600 42.68400 27.46600
H  -4.70900 41.32900 27.66200
H  -7.38000 43.26800 23.66600
H  -6.66500 43.56200 25.16600
H  -6.57900 41.87500 24.38000
H  -0.61100 45.14100 20.91000
H  1.41000 43.19800 20.56900
H  -1.27300 43.71500 19.14800
H  -2.10600 42.86800 20.33700
H  -0.49900 42.28500 19.80500
H  1.05300 45.78200 19.97400
H  2.54000 45.17500 19.87000
H  1.84000 47.36900 21.26600
H  3.37900 46.46200 21.60500
H  1.86500 46.48600 22.61400
H  5.66400 44.06400 23.04600
H  6.19200 42.41000 23.45500
H  6.66000 43.76000 24.45400
H  4.03100 43.70300 29.29900
H  5.98100 40.37400 31.13700
H  4.27400 40.46800 31.88200
H  5.69300 41.42500 32.41400

