158

Mg 1.77100 -1.44300 44.54900
C  5.24500 -0.82200 44.04400
C  1.11800 1.22900 42.65100
C  -1.48800 -2.34800 44.78300
C  2.77600 -4.46600 46.19100
N  3.04100 -0.11200 43.24400
C  4.41700 -0.00000 43.25900
C  4.90500 1.16700 42.39400
C  3.56700 2.01200 42.25100
C  2.51000 0.99600 42.69900
C  3.41500 3.30200 43.06900
C  5.49300 0.61700 41.08500
C  6.86500 1.23600 40.72900
H  7.16600 1.61100 39.30100
N  0.06900 -0.66800 43.80400
C  0.02200 0.52500 43.09000
C  -1.33900 0.88900 42.93200
C  -2.15500 -0.12300 43.57200
C  -1.20300 -1.08700 44.12300
C  -1.78700 2.17800 42.25800
C  -3.73100 -0.12700 43.65100
O  -4.30400 0.77900 43.07300
C  -4.52800 -1.18900 44.27900
N  0.74200 -3.20800 45.27300
C  -0.61500 -3.36400 45.27000
C  -1.09500 -4.76700 45.91400
C  0.35700 -5.30400 46.39700
C  1.34600 -4.29500 45.85300
C  -2.19900 -4.73800 46.99400
C  0.55000 -6.78700 45.80300
C  -0.38400 -7.96300 46.36900
N  3.60300 -2.44400 45.19400
C  3.84200 -3.63700 45.84000
C  5.29700 -3.76400 46.05900
C  5.87600 -2.68300 45.39900
C  4.81600 -1.96000 44.86600
C  6.01100 -4.91700 46.79200
C  7.13400 -2.03100 44.99200
O  8.25100 -2.46000 45.22500
C  6.73300 -0.76600 44.16200
C  7.14800 0.49100 44.90800
O  6.89400 0.71900 46.05100
O  7.82100 1.39100 44.07200
C  8.03100 2.72700 44.66800
H  0.83800 2.17000 42.17300
H  -2.54600 -2.55700 44.95300
H  2.94300 -5.44800 46.63700
H  5.62800 1.79700 42.91100
H  3.43300 2.36100 41.22700
H  4.34500 3.73200 43.44000
H  2.76000 3.19900 43.93400
H  2.91800 4.09300 42.50800
H  4.84100 0.83500 40.23800
H  5.60200 -0.46300 41.18800
H  7.61600 0.45800 40.86800
H  7.16400 2.07300 41.36100
H  -2.69300 2.49900 42.77100
H  -2.05900 1.87300 41.24700
H  -0.99600 2.92700 42.31600
H  -4.41600 -2.17200 43.81900
H  -5.60600 -1.03500 44.32500
H  -4.16200 -1.19900 45.30500
H  -1.36600 -5.31500 45.01100
H  0.34600 -5.27400 47.48600
H  -1.88200 -5.09200 47.97500
H  -3.12400 -5.29400 46.84000
H  -2.43700 -3.67500 46.95600
H  1.59500 -7.01700 46.01300
H  0.44600 -6.70100 44.72100
H  -1.03800 -7.56000 47.14300
H  0.28900 -8.72300 46.76600
H  -1.04000 -8.39000 45.61100
H  5.46700 -5.84300 46.97800
H  6.29100 -4.57000 47.78600
H  6.83900 -5.22900 46.15500
H  7.03400 -0.87300 43.12000
H  7.84200 3.49300 43.91500
H  9.05300 2.72100 45.04600
H  7.40900 2.97000 45.53000
Mg 34.34500 2.83900 28.87400
C  32.34500 3.62500 31.69100
C  36.94900 2.56500 30.92400
C  36.29100 2.74100 26.04000
C  31.64100 3.65100 26.83900
N  34.59800 2.88900 31.10600
C  33.63900 3.15200 32.01900
C  34.25000 3.13000 33.45700
C  35.79900 2.95700 33.10900
C  35.77800 2.74800 31.66200
C  36.65200 4.15900 33.52400
C  33.59300 2.03700 34.32800
C  33.49300 2.32500 35.84200
H  34.25000 3.55700 36.33500
N  36.23700 2.47800 28.54100
C  37.13000 2.25200 29.51900
C  38.36600 1.80200 28.90600
C  38.22700 1.81900 27.50200
C  36.89600 2.44400 27.27100
C  39.45900 1.33700 29.79700
C  39.16200 1.18300 26.44500
O  39.11100 1.62500 25.31000
C  40.20600 0.11000 26.72700
N  34.01400 3.34400 26.72800
C  34.95600 3.09200 25.77200
C  34.41200 3.18800 24.34400
C  32.86900 3.09300 24.60800
C  32.79900 3.37800 26.18200
C  34.68200 4.52100 23.62600
C  32.14900 1.72400 24.22100
C  30.69900 1.83300 23.65900
N  32.37100 3.48900 29.12000
C  31.38500 3.75100 28.17400
C  30.19400 4.04900 28.82300
C  30.47700 3.96800 30.19000
C  31.87200 3.71500 30.34800
C  28.87200 4.40500 28.24500
C  29.91400 4.13900 31.56600
O  28.81800 4.46100 31.96400
C  31.16400 3.90100 32.55400
C  31.29100 5.20000 33.33100
O  32.03900 6.12600 33.03400
O  30.44700 5.25200 34.38900
C  30.52200 6.50900 35.23100
H  37.81600 2.54200 31.58700
H  36.81100 2.67600 25.08200
H  30.75100 3.62800 26.20700
H  34.12500 4.12800 33.87700
H  36.15400 2.04000 33.58000
H  36.96100 4.83500 32.72700
H  37.54300 3.70400 33.95800
H  36.15000 4.69100 34.33200
H  34.16000 1.12000 34.16700
H  32.59400 1.75500 33.99700
H  33.82200 1.46600 36.42600
H  32.43100 2.50400 36.00900
H  39.68800 0.27300 29.73000
H  39.33900 1.56500 30.85600
H  40.38900 1.86100 29.57600
H  41.17700 0.49400 27.04000
H  40.33600 -0.50200 25.83500
H  39.91100 -0.59700 27.50300
H  34.73300 2.31800 23.77100
H  32.30700 3.89200 24.12500
H  35.17400 5.25100 24.26900
H  33.74800 4.94000 23.25200
H  35.32000 4.40100 22.75000
H  31.99000 1.19000 25.15800
H  32.69800 1.21300 23.43000
H  29.95400 1.40000 24.32600
H  30.66300 1.13800 22.82100
H  30.37900 2.81400 23.30800
H  28.83500 4.17900 27.18000
H  28.58300 5.41400 28.53900
H  28.03800 3.74700 28.48800
H  30.95500 3.00000 33.13000
H  30.36800 7.34100 34.54500
H  31.47400 6.47800 35.76100
H  29.70400 6.54800 35.95000

