158

Mg 35.99400 1.00800 30.24100
C  33.40000 1.86600 32.43600
C  38.21300 1.02900 32.98700
C  38.37600 0.02300 28.08700
C  33.77100 1.40200 27.60800
N  35.77400 1.44400 32.42200
C  34.66800 1.64100 33.10000
C  34.95300 1.66100 34.57800
C  36.45200 1.77000 34.71900
C  36.86100 1.34300 33.30900
C  36.97600 3.19000 35.17100
C  34.21400 0.45600 35.24000
C  33.63600 0.66800 36.69800
H  34.04400 1.89300 37.48500
N  37.96300 0.61100 30.47900
C  38.73200 0.73700 31.64200
C  40.10800 0.24000 31.31800
C  40.17600 -0.00600 29.93600
C  38.77900 0.08900 29.46900
C  41.23200 0.20300 32.39000
C  41.39600 -0.38500 29.10300
O  41.32800 -0.62000 27.89300
C  42.79200 -0.45600 29.67800
N  36.09400 0.80300 28.17800
C  37.17400 0.40100 27.49700
C  36.98900 0.45900 25.95700
C  35.52400 0.97200 25.90300
C  35.05900 1.06000 27.32100
C  38.05300 1.41900 25.22600
C  34.62700 -0.02500 25.04800
C  34.16400 -1.45400 25.48900
N  34.00100 1.60700 30.00200
C  33.16500 1.65700 28.88500
C  31.87900 2.27000 29.25500
C  31.95800 2.39800 30.69600
C  33.22900 1.88600 31.08900
C  30.66200 2.56700 28.39500
C  31.23800 2.75600 31.83000
O  30.05400 3.17100 31.88000
C  32.08900 2.34200 33.03300
C  32.19000 3.40800 34.08700
O  33.05900 4.25200 33.99300
O  31.17200 3.36400 34.95200
C  31.02000 4.50200 35.83100
H  38.88700 1.08300 33.84400
H  39.13100 -0.16900 27.32200
H  33.05700 1.51700 26.79000
H  34.53800 2.63000 34.85300
H  36.77800 1.10300 35.51800
H  36.17700 3.57900 35.80300
H  37.11400 3.89300 34.35000
H  37.84300 3.07700 35.82200
H  34.89600 -0.39300 35.29400
H  33.39900 0.15600 34.58100
H  34.01200 -0.18800 37.25800
H  32.55100 0.65900 36.59100
H  41.87300 -0.67600 32.44700
H  40.92900 0.48100 33.39900
H  41.86600 1.02600 32.06000
H  42.77300 -1.33800 30.31800
H  43.15600 0.45500 30.15300
H  43.48700 -0.63100 28.85700
H  37.01500 -0.52700 25.49200
H  35.37400 1.94400 25.43200
H  37.53800 2.30400 24.85000
H  38.50100 0.96900 24.34000
H  38.81400 1.75700 25.92800
H  35.29700 -0.18600 24.20300
H  33.81700 0.53600 24.58200
H  34.40100 -1.70200 26.52300
H  34.57500 -2.22300 24.83400
H  33.07800 -1.54300 25.51900
H  30.95100 2.71000 27.35400
H  30.11400 3.45100 28.72200
H  30.08400 1.64500 28.47000
H  31.66100 1.53200 33.62300
H  30.81000 5.35900 35.19100
H  31.93100 4.65600 36.41100
H  30.26600 4.28000 36.58600
Mg 46.50300 35.44100 28.69400
C  44.55300 33.62100 30.96700
C  46.56200 38.15100 30.82000
C  47.63100 37.37000 26.05000
C  45.84500 32.91400 26.30600
N  45.65300 35.77600 30.55700
C  45.12400 34.79800 31.38700
C  45.45200 35.20800 32.81900
C  45.57700 36.74700 32.67900
C  45.98400 36.95400 31.25200
C  44.34500 37.45300 33.18800
C  46.75300 34.49700 33.31600
C  47.11500 34.79500 34.78200
H  46.08300 35.39300 35.72600
N  47.13300 37.41400 28.52500
C  47.13400 38.30100 29.54200
C  47.81200 39.50900 29.01700
C  48.22700 39.28800 27.66900
C  47.65300 37.95200 27.31900
C  47.99500 40.73000 30.01000
C  49.05700 40.16400 26.65300
O  49.39400 39.72200 25.54100
C  49.45500 41.53900 27.06500
N  46.66200 35.26800 26.46600
C  47.16000 36.20000 25.67900
C  47.28600 35.75900 24.23900
C  46.43900 34.44100 24.25400
C  46.31400 34.09100 25.70500
C  46.82700 36.69800 23.09400
C  47.25300 33.19600 23.67600
C  46.35300 32.18600 22.94700
N  45.61000 33.61000 28.63700
C  45.49800 32.65500 27.68400
C  44.74900 31.53800 28.11000
C  44.36500 31.91000 29.42400
C  44.86300 33.17100 29.64600
C  44.65000 30.26900 27.40500
C  43.65800 31.38700 30.57500
O  43.12800 30.30400 30.82000
C  43.65600 32.55200 31.58500
C  44.10600 31.94200 32.93000
O  44.99900 31.16500 33.07400
O  43.29500 32.40900 33.96500
C  43.77100 31.97800 35.29400
H  46.59100 38.96600 31.54700
H  48.19600 37.85600 25.25100
H  45.69700 32.13500 25.55500
H  44.62100 34.86900 33.43700
H  46.41800 37.07500 33.28900
H  44.62600 38.39200 33.66500
H  43.85000 36.75400 33.86200
H  43.62900 37.74800 32.42100
H  47.63700 34.85900 32.79000
H  46.73600 33.42600 33.11200
H  48.05400 35.34200 34.86000
H  47.20400 33.77700 35.16400
H  47.03700 40.94900 30.48200
H  48.47000 41.62100 29.59800
H  48.61800 40.42700 30.85100
H  50.16500 41.57600 27.89100
H  48.62800 42.19900 27.32900
H  49.93900 41.99800 26.20300
H  48.33900 35.52700 24.07700
H  45.42800 34.51000 23.85400
H  47.65100 37.32700 22.75600
H  46.13500 37.45500 23.46600
H  46.47200 36.22500 22.17800
H  47.86100 32.70600 24.43700
H  48.01100 33.59300 23.00100
H  46.53000 31.21400 23.40900
H  46.38600 32.14600 21.85800
H  45.28600 32.36900 23.07900
H  44.68800 29.40000 28.06200
H  45.50000 30.11800 26.73900
H  43.77100 30.33400 26.76400
H  42.66500 32.98100 31.73700
H  43.28700 31.04100 35.56900
H  43.43500 32.61800 36.11100
H  44.84600 31.80100 35.31900

