158

Mg 24.34700 -5.89500 45.61500
C  26.34500 -3.43400 44.13000
C  21.79500 -4.95000 43.50200
C  22.55300 -8.59700 46.54700
C  27.19400 -7.11500 47.21500
N  24.20600 -4.47600 43.95400
C  25.07900 -3.48400 43.63300
C  24.53600 -2.59700 42.58300
C  22.99100 -2.80400 42.77800
C  22.98800 -4.20100 43.36500
C  22.36600 -1.76700 43.74900
C  25.04200 -3.08000 41.17100
C  25.37200 -2.01300 40.14400
H  26.03800 -2.52400 38.90100
N  22.41900 -6.70900 45.01200
C  21.53600 -6.08100 44.17800
C  20.36700 -6.89300 44.08200
C  20.55200 -8.03800 44.94700
C  21.88000 -7.82900 45.56200
C  19.16500 -6.62400 43.12000
C  19.53900 -9.13300 45.23500
O  18.50600 -9.17600 44.65400
C  19.74700 -10.10200 46.28000
N  24.79600 -7.64600 46.63700
C  23.86100 -8.56200 47.05800
C  24.51400 -9.58000 47.98200
C  25.95300 -9.15000 48.15300
C  25.98100 -7.87000 47.33700
C  23.81700 -10.02700 49.22600
C  27.05600 -10.25600 47.67500
C  28.19100 -10.47200 48.68000
N  26.42100 -5.27900 45.90700
C  27.40500 -5.91400 46.55300
C  28.64200 -5.10600 46.42100
C  28.26100 -4.12400 45.50900
C  26.87700 -4.26700 45.17800
C  29.92700 -5.38800 47.06000
C  28.74500 -3.07100 44.75400
O  29.85300 -2.63400 44.70900
C  27.53600 -2.61500 43.74600
C  27.41100 -1.16400 43.95900
O  27.44900 -0.65200 45.08200
O  27.22000 -0.46000 42.83100
C  27.06600 1.01600 42.97000
H  20.91900 -4.62900 42.93500
H  22.10300 -9.53300 46.88600
H  28.08200 -7.37100 47.79700
H  24.93800 -1.61700 42.83700
H  22.48900 -2.76700 41.81100
H  21.87600 -2.13300 44.65200
H  21.53800 -1.28600 43.22900
H  23.02300 -0.94200 44.02400
H  24.27300 -3.63900 40.63700
H  25.90700 -3.74300 41.18800
H  26.00100 -1.22000 40.54900
H  24.39900 -1.66000 39.80200
H  19.12200 -5.55100 42.93800
H  18.22800 -6.87000 43.62100
H  19.23100 -7.24400 42.22600
H  18.82100 -10.62200 46.52700
H  20.09800 -9.55400 47.15400
H  20.45800 -10.81500 45.86200
H  24.41100 -10.50400 47.41200
H  26.04500 -8.76200 49.16700
H  23.67600 -11.10600 49.15100
H  22.81500 -9.60000 49.18200
H  24.37000 -9.91800 50.15900
H  27.58200 -10.04100 46.74500
H  26.50600 -11.18900 47.54600
H  28.08600 -9.73700 49.47800
H  29.11200 -10.28300 48.12700
H  28.35200 -11.47100 49.08700
H  29.80500 -5.51600 48.13600
H  30.65000 -4.57400 47.00500
H  30.42700 -6.31200 46.77000
H  27.84500 -2.77400 42.71300
H  27.82400 1.30600 43.69800
H  26.15900 1.35200 43.47200
H  27.28600 1.56100 42.05200
Mg 48.42500 46.21200 43.41800
C  45.21800 46.71800 41.91100
C  48.69500 43.37100 41.68400
C  51.68200 46.12600 44.26900
C  48.31800 49.63800 44.39700
N  47.06200 45.12700 41.97500
C  45.74200 45.44000 41.65300
C  45.16200 44.38300 40.64100
C  46.29300 43.27300 40.66400
C  47.48800 43.99600 41.45200
C  45.80200 41.89500 41.11900
C  44.86900 44.90300 39.20200
C  43.60600 44.37300 38.57800
H  43.61400 43.96000 37.13600
N  49.94500 44.87700 43.02900
C  49.76400 43.68700 42.42200
C  51.05200 42.97500 42.40800
C  51.98100 43.80100 43.13000
C  51.23600 45.02400 43.52800
C  51.22900 41.62200 41.71800
C  53.42700 43.37600 43.30600
O  53.91100 42.40600 42.76300
C  54.45100 44.12600 44.10800
N  49.83600 47.71400 44.25800
C  51.11200 47.36200 44.57100
C  51.85100 48.54900 45.31000
C  50.80800 49.71700 45.19200
C  49.57000 49.02100 44.56500
C  52.28800 48.24100 46.80000
C  51.20600 50.90800 44.30400
C  51.16400 52.29300 45.05500
N  47.13100 47.84600 43.27500
C  47.16700 49.13100 43.79800
C  45.92200 49.80300 43.52900
C  45.14200 48.93100 42.75600
C  45.93000 47.71500 42.65800
C  45.50300 51.32800 43.81500
C  43.85900 48.72400 42.01600
O  42.88800 49.47200 41.80500
C  43.87600 47.26900 41.48600
C  42.74100 46.48800 42.02000
O  42.50800 46.22100 43.16200
O  41.96900 45.96300 41.02200
C  41.00100 44.92900 41.34500
H  48.75600 42.37900 41.23100
H  52.68500 45.98500 44.67700
H  48.39600 50.68500 44.69800
H  44.19900 44.04900 41.02700
H  46.68100 43.16500 39.65100
H  45.99100 41.93000 42.19200
H  46.26300 41.00200 40.69600
H  44.73200 41.88600 40.91100
H  45.73300 44.56900 38.62700
H  44.88300 45.98900 39.10500
H  42.91400 45.21400 38.60200
H  43.14800 43.65800 39.26100
H  50.37900 40.98900 41.46200
H  51.66600 40.99800 42.49800
H  51.91500 41.79100 40.88800
H  54.11200 44.18900 45.14200
H  54.45100 45.08400 43.58800
H  55.42400 43.63700 44.06200
H  52.76100 48.77300 44.75200
H  50.49500 50.00800 46.19400
H  52.16200 47.18200 47.02900
H  51.80200 48.90000 47.51900
H  53.36300 48.40100 46.87900
H  50.52500 50.98400 43.45600
H  52.21100 50.82200 43.89300
H  52.14600 52.74800 45.18200
H  50.88100 52.17700 46.10200
H  50.46300 52.91900 44.50300
H  44.44200 51.37800 44.05800
H  45.78600 51.85800 42.90500
H  46.00100 51.78400 44.67100
H  43.88100 47.24600 40.39600
H  41.42700 43.98800 40.99500
H  40.05000 45.16200 40.86600
H  40.83500 44.79100 42.41300

