158

Mg 49.33300 45.20300 43.17300
C  46.01800 45.83100 42.13700
C  49.18300 42.23800 41.53500
C  52.69500 45.12700 43.22800
C  49.48900 48.69200 43.97200
N  47.80200 44.19000 41.96400
C  46.55200 44.65900 41.61200
C  45.83900 43.78200 40.66800
C  46.69400 42.47200 40.74100
C  47.98000 42.98700 41.48100
C  46.02800 41.31300 41.56800
C  45.68200 44.46100 39.22800
C  44.24500 44.45300 38.62200
H  44.03400 43.45700 37.49400
N  50.73300 43.65400 42.82400
C  50.43600 42.48200 42.14000
C  51.66400 41.68300 42.17000
C  52.73700 42.54400 42.69000
C  52.07500 43.85500 42.95700
C  51.74300 40.29200 41.66800
C  54.14200 42.13300 42.87900
O  54.51100 40.97900 42.61200
C  55.11900 43.06700 43.68500
N  50.92300 46.71700 43.50400
C  52.19400 46.43700 43.45900
C  53.06600 47.69400 43.61900
C  52.03600 48.75600 44.10600
C  50.70700 48.08800 43.81100
C  54.40600 47.53900 44.49900
C  52.18700 50.16100 43.35400
C  52.07700 51.50300 44.07100
N  47.98400 46.84800 43.30400
C  48.19600 48.11600 43.73900
C  46.88100 48.78900 43.92400
C  46.02800 47.87900 43.29600
C  46.74800 46.73900 42.87200
C  46.56700 50.21000 44.17700
C  44.69300 47.75200 42.85900
O  43.73000 48.47600 43.11800
C  44.64700 46.47900 41.96000
C  43.47600 45.68100 42.44700
O  42.38300 45.58800 41.89800
O  43.87700 45.10500 43.63400
C  42.79800 44.33700 44.26300
H  48.91200 41.28300 41.08000
H  53.78500 45.08200 43.17400
H  49.38200 49.75500 44.19500
H  44.88300 43.43300 41.05700
H  46.93600 42.03700 39.77200
H  44.97500 41.50600 41.77200
H  46.48500 41.05700 42.52400
H  46.08300 40.45400 40.89900
H  46.33800 43.90300 38.56000
H  46.06700 45.47200 39.35500
H  44.13800 45.49900 38.33300
H  43.48900 44.21600 39.37100
H  52.71300 40.05000 41.23300
H  50.89300 40.13000 41.00600
H  51.65700 39.58100 42.49000
H  54.63000 43.32200 44.62500
H  55.44000 43.89800 43.05700
H  55.98100 42.46200 43.96500
H  53.27900 47.97700 42.58800
H  52.06900 48.90900 45.18500
H  54.39000 46.62000 45.08500
H  54.64600 48.39800 45.12500
H  55.26200 47.38900 43.84100
H  51.39200 50.17800 42.60900
H  53.01700 50.09000 42.65000
H  52.60300 52.33400 43.60200
H  52.44200 51.39100 45.09300
H  51.03800 51.83300 44.08900
H  46.58500 50.47600 45.23400
H  45.54100 50.33600 43.83100
H  47.34200 50.88600 43.81500
H  44.48600 46.78800 40.92800
H  42.72700 43.37200 43.76100
H  41.81700 44.81100 44.28800
H  43.07800 44.15800 45.30100
Mg 30.22500 58.11200 41.22600
C  27.26400 56.39700 40.05300
C  31.96700 55.34500 39.94900
C  32.96100 59.90900 41.44300
C  28.17800 60.91200 41.80300
N  29.62000 56.09400 39.99600
C  28.34800 55.62800 39.73700
C  28.48900 54.25500 39.06200
C  29.98000 53.78100 39.44300
C  30.56000 55.16000 39.81100
C  30.01100 52.53800 40.37400
C  28.02400 54.14200 37.56100
C  28.89600 54.94100 36.56900
H  28.05800 56.00700 35.74400
N  32.17400 57.62000 40.86800
C  32.71500 56.49300 40.28700
C  34.20700 56.65000 40.11600
C  34.46900 57.92800 40.73100
C  33.17000 58.54100 41.07700
C  35.23700 55.60300 39.69200
C  35.85400 58.54200 40.78000
O  36.81800 58.03900 40.30300
C  36.11900 59.85100 41.50800
N  30.52500 60.18700 41.42600
C  31.79800 60.67200 41.63600
C  31.78900 62.07200 42.31900
C  30.21700 62.33600 42.30500
C  29.58900 61.01300 41.85100
C  32.45300 62.26200 43.70200
C  29.76500 63.45100 41.32200
C  28.46300 64.18800 41.82200
N  28.10500 58.56900 41.14000
C  27.49400 59.65200 41.50600
C  26.03100 59.39300 41.50900
C  25.90200 58.13400 40.99200
C  27.19000 57.72000 40.66000
C  24.83800 60.34400 41.88700
C  24.92600 57.18500 40.57800
O  23.67600 57.12100 40.67700
C  25.77100 56.08100 39.85100
C  25.39000 54.78800 40.50600
O  25.93700 54.25400 41.46400
O  24.16600 54.36000 39.94100
C  23.63900 53.08100 40.34500
H  32.69800 54.54200 39.83600
H  33.75500 60.60900 41.71000
H  27.33900 61.46200 42.23600
H  27.74400 53.63100 39.55600
H  30.58000 53.52100 38.57100
H  30.26800 52.83800 41.39000
H  30.83800 51.94300 39.98500
H  29.05600 52.01300 40.36700
H  26.98400 54.45900 37.49300
H  27.98800 53.13400 37.14600
H  29.24000 54.21900 35.82900
H  29.70500 55.50000 37.04000
H  35.80600 55.96700 38.83600
H  34.80900 54.63400 39.43300
H  36.00100 55.38200 40.43700
H  35.81400 60.73200 40.94300
H  37.20700 59.86800 41.58300
H  35.76800 59.83100 42.53900
H  32.28400 62.74600 41.61900
H  29.73200 62.47400 43.27200
H  31.79500 62.73500 44.43100
H  33.36100 62.83800 43.51800
H  32.84000 61.30000 44.03700
H  29.51900 63.10700 40.31700
H  30.54300 64.21000 41.23800
H  28.24300 63.81700 42.82300
H  27.62800 64.05200 41.13500
H  28.68200 65.23300 42.03900
H  25.17200 61.00000 42.69100
H  23.94400 59.79200 42.17800
H  24.65100 61.01700 41.05100
H  25.46500 56.12100 38.80600
H  23.98800 52.44800 39.52900
H  22.56200 53.00300 40.49800
H  24.12200 52.83000 41.28900

