158

Mg 42.54100 41.51100 25.95500
C  41.79900 43.92700 28.44500
C  43.70600 39.50100 28.34600
C  43.42900 39.46300 23.45700
C  41.62500 43.87000 23.58800
N  42.84300 41.81500 28.08600
C  42.24500 42.70400 28.98600
C  42.35000 42.26100 30.46900
C  43.19700 40.97900 30.37500
C  43.23300 40.74100 28.83600
C  44.60800 41.12800 31.04900
C  40.98700 42.15200 31.17100
C  40.80500 42.82200 32.55000
H  39.92600 42.10000 33.64500
N  43.50300 39.61700 25.90200
C  43.87400 38.95400 26.99200
C  44.43500 37.66700 26.55500
C  44.41400 37.62300 25.13000
C  43.76700 38.92000 24.74000
C  45.06200 36.64600 27.49400
C  44.93100 36.60100 24.11600
O  44.67300 36.73000 22.93000
C  45.64500 35.43400 24.53000
N  42.70000 41.71700 23.78800
C  42.87500 40.66400 23.00100
C  42.55900 40.99000 21.54700
C  41.60400 42.17500 21.78900
C  42.01800 42.61500 23.12000
C  43.82700 41.41400 20.75400
C  40.12800 41.73200 21.79000
C  39.70600 40.21600 21.73200
N  41.84900 43.45600 25.99100
C  41.59300 44.29400 24.89800
C  41.26900 45.62900 25.37200
C  41.26600 45.50500 26.81000
C  41.65400 44.18400 27.09400
C  41.06500 46.84700 24.57500
C  41.04000 46.19700 28.01800
O  40.61600 47.31400 28.16200
C  41.23800 45.14800 29.19200
C  42.15000 45.68600 30.26700
O  43.35600 45.89500 30.21200
O  41.49200 45.85800 31.42900
C  42.32800 46.10700 32.61000
H  44.15500 38.77600 29.02700
H  43.68500 38.82600 22.60800
H  41.20700 44.50100 22.80100
H  42.93000 43.01600 31.00000
H  42.66700 40.12300 30.79300
H  44.47300 42.03200 31.64200
H  45.18600 41.42200 30.17300
H  44.96200 40.20100 31.50100
H  40.96900 41.08000 31.36300
H  40.16600 42.35200 30.48200
H  40.26900 43.72900 32.27100
H  41.73200 43.15600 33.01600
H  46.10600 36.43800 27.26000
H  44.51000 35.70600 27.46200
H  44.94000 36.95200 28.53300
H  46.10900 34.90500 23.69800
H  44.97100 34.70000 24.97300
H  46.46400 35.80500 25.14500
H  42.08700 40.14800 21.04100
H  41.75600 42.94500 21.03200
H  44.65900 41.21500 21.43000
H  43.81200 42.44800 20.41000
H  43.90300 40.84200 19.82900
H  39.62100 42.35000 21.05000
H  39.64900 42.10500 22.69600
H  39.51800 39.93200 20.69700
H  38.80500 40.11500 22.33700
H  40.42900 39.51100 22.14200
H  41.46900 46.77200 23.56600
H  41.51800 47.66700 25.13100
H  39.99300 47.02200 24.67200
H  40.27100 44.83700 29.58700
H  41.73200 45.93600 33.50600
H  42.58500 47.16700 32.60300
H  43.21700 45.47800 32.56200
Mg 27.47000 51.23200 25.95900
C  25.31700 52.37200 28.66700
C  29.54600 50.11700 28.31500
C  29.44700 50.52400 23.46500
C  25.24800 52.86100 23.83100
N  27.42500 51.33500 28.23700
C  26.40400 51.62200 29.08600
C  26.83600 51.42600 30.53400
C  28.33500 51.05600 30.42600
C  28.49800 50.84100 28.89400
C  29.29600 52.08900 31.06800
C  25.92300 50.39200 31.19000
C  25.00300 50.90800 32.36000
H  25.22000 50.16800 33.60800
N  29.30500 50.52300 25.96400
C  29.97300 49.95900 26.98900
C  31.23100 49.33500 26.51400
C  31.12600 49.39900 25.09500
C  29.89900 50.21200 24.75900
C  32.25000 48.67600 27.33000
C  32.14100 48.79700 24.12900
O  32.06200 49.08500 22.92500
C  33.22000 47.86900 24.51100
N  27.20100 51.50300 23.96700
C  28.19000 51.14400 23.11800
C  27.93800 51.49400 21.66700
C  26.49300 52.07400 21.73600
C  26.27800 52.18500 23.25800
C  28.92300 52.53000 20.91700
C  25.38100 51.14200 21.19300
C  24.32600 51.87900 20.47600
N  25.66900 52.35100 26.14300
C  24.98900 53.01400 25.15900
C  23.71500 53.63500 25.65900
C  23.88600 53.52000 27.12000
C  25.03100 52.64900 27.28900
C  22.65000 54.37300 24.83300
C  23.29800 53.83000 28.44900
O  22.35000 54.49700 28.80400
C  24.17600 53.06800 29.52300
C  24.70100 54.04300 30.52500
O  25.68900 54.79500 30.36400
O  24.03900 53.95800 31.68100
C  24.59700 54.84000 32.78700
H  30.16500 49.66900 29.09500
H  30.10700 50.22200 22.64800
H  24.52200 53.21000 23.09400
H  26.75400 52.38800 31.04100
H  28.41300 50.08800 30.92200
H  28.83100 52.78300 31.76800
H  29.59300 52.83600 30.33200
H  30.17700 51.60600 31.49000
H  26.53700 49.54900 31.50800
H  25.27700 49.87900 30.47700
H  23.97500 50.85000 32.00400
H  25.30300 51.94200 32.53200
H  32.29700 47.58900 27.27800
H  32.10400 48.95400 28.37400
H  33.24400 49.10800 27.21500
H  34.04100 48.40600 24.98700
H  33.58600 47.54600 23.53600
H  32.88600 46.96500 25.02100
H  27.91300 50.56300 21.10100
H  26.46200 53.09000 21.34100
H  28.42700 53.41400 20.51600
H  29.43800 51.89000 20.20200
H  29.66000 53.00500 21.56500
H  24.81700 50.74600 22.03800
H  25.79700 50.33700 20.58700
H  24.57100 51.82100 19.41500
H  24.25700 52.90300 20.84300
H  23.40700 51.30100 20.58000
H  22.98800 55.23600 24.25900
H  21.79500 54.63900 25.45500
H  22.21000 53.59900 24.20500
H  23.60900 52.28200 30.02100
H  24.18700 54.34400 33.66600
H  24.24800 55.87100 32.73200
H  25.66700 55.04800 32.80400

