158

Mg 9.43300 3.90100 27.92100
C  10.90200 2.40600 30.73600
C  7.36100 5.64100 30.05800
C  7.75300 5.08100 25.32000
C  11.16000 1.78000 25.82000
N  9.17400 3.92300 30.20000
C  9.87600 3.31700 31.09100
C  9.59700 3.88200 32.45800
C  8.22100 4.65600 32.25200
C  8.20100 4.72400 30.72100
C  6.94700 4.14200 32.99400
C  10.78700 4.74900 33.15500
C  11.33900 4.10500 34.41400
H  11.64500 5.04000 35.61000
N  7.95600 5.31000 27.75300
C  7.22300 5.92000 28.73000
C  6.32500 6.86100 28.13900
C  6.51100 6.84700 26.76000
C  7.46100 5.69200 26.57200
C  5.46900 7.75100 28.94800
C  5.87300 7.70400 25.65700
O  6.11200 7.44400 24.45400
C  4.98900 8.86000 25.91400
N  9.40300 3.38200 25.76400
C  8.61800 4.06700 24.88900
C  8.79800 3.58900 23.41000
C  9.93900 2.55300 23.61200
C  10.20000 2.58200 25.10600
C  7.47400 2.93400 22.82500
C  11.18300 2.73400 22.69400
C  11.91900 1.45500 22.12500
N  10.80000 2.33500 28.18500
C  11.52100 1.60200 27.20600
C  12.38900 0.73700 27.87700
C  12.23800 1.07200 29.28400
C  11.20300 2.03500 29.39700
C  13.20800 -0.34700 27.16600
C  12.75300 0.75600 30.58300
O  13.53500 -0.06300 30.95500
C  11.92000 1.70100 31.57900
C  11.26000 0.79600 32.58000
O  10.16500 0.30100 32.37500
O  11.98700 0.67400 33.71700
C  11.43100 -0.06400 34.85500
H  6.72200 6.24800 30.70300
H  7.26800 5.53800 24.45500
H  11.82500 1.12300 25.25600
H  9.36800 3.00200 33.05800
H  8.28700 5.63600 32.72500
H  6.16500 3.76100 32.33800
H  6.43000 5.00100 33.42200
H  7.09700 3.32600 33.70100
H  10.38700 5.73500 33.39400
H  11.55200 4.68900 32.38100
H  12.28100 3.60100 34.19600
H  10.78200 3.25500 34.80700
H  5.40800 7.51900 30.01200
H  4.51300 7.70600 28.42600
H  5.93400 8.73500 28.87400
H  5.40700 9.55300 26.64300
H  4.11800 8.44000 26.41600
H  4.61900 9.34400 25.01000
H  9.13400 4.40600 22.77100
H  9.63800 1.52300 23.42100
H  6.60400 3.40300 23.28500
H  7.55900 1.85100 22.90700
H  7.33700 3.32500 21.81600
H  11.91600 3.22200 23.33600
H  10.88300 3.30000 21.81200
H  11.29200 1.00700 21.35400
H  12.03400 0.64600 22.84700
H  12.86200 1.82200 21.72000
H  12.53600 -1.19400 27.02600
H  14.15700 -0.65200 27.60500
H  13.47200 0.12800 26.22100
H  12.61100 2.40900 32.03800
H  11.05400 0.64600 35.59100
H  12.28900 -0.54700 35.32200
H  10.71200 -0.87600 34.75200
Mg 47.84000 34.05900 27.08300
C  45.91100 32.97500 29.93600
C  48.74600 36.84300 28.85500
C  49.05400 35.44500 24.25700
C  46.74900 31.24500 25.41600
N  47.37800 34.76900 29.09000
C  46.56700 34.25800 30.09600
C  46.61100 35.11000 31.36900
C  47.13800 36.41700 30.74600
C  47.82600 35.98800 29.45300
C  46.05400 37.52500 30.57000
C  47.50800 34.56600 32.56100
C  46.91800 34.91500 33.90100
H  47.87200 35.42000 35.00400
N  48.78600 35.90600 26.58000
C  49.20600 36.78400 27.54800
C  50.07400 37.76600 26.85200
C  50.26200 37.43300 25.49200
C  49.32300 36.22300 25.36900
C  50.66900 38.99700 27.52600
C  51.15500 38.05400 24.37500
O  51.11000 37.61600 23.20800
C  52.15700 39.18600 24.77800
N  47.74300 33.49200 25.20100
C  48.37300 34.20500 24.22600
C  48.09600 33.61500 22.82500
C  47.43500 32.27300 23.14200
C  47.21600 32.35900 24.68600
C  47.23100 34.48100 21.93200
C  48.47600 31.15300 22.80700
C  49.66200 30.74700 23.70200
N  46.74100 32.40600 27.51700
C  46.37600 31.27400 26.75800
C  45.55500 30.37500 27.48900
C  45.33100 31.02900 28.70200
C  46.05700 32.22800 28.69000
C  44.99700 29.08900 27.00600
C  44.55000 30.91400 30.01300
O  43.80800 29.99600 30.43200
C  44.82000 32.19900 30.70800
C  44.96600 32.00200 32.19500
O  45.97600 31.70800 32.73200
O  43.74800 31.92700 32.73100
C  43.81200 31.68900 34.23500
H  49.08400 37.65300 29.50500
H  49.52500 35.69600 23.30400
H  46.35900 30.38600 24.86400
H  45.58400 35.27800 31.69400
H  47.95300 36.84700 31.32700
H  45.99900 37.89400 29.54600
H  46.19900 38.43000 31.15900
H  45.10200 37.03100 30.76800
H  48.50000 35.01300 32.49000
H  47.75700 33.50800 32.48000
H  46.42500 34.00300 34.24000
H  46.05900 35.57800 33.79700
H  51.75500 38.92200 27.55800
H  50.27400 38.92500 28.53900
H  50.36700 39.95300 27.09600
H  52.92300 39.34300 24.01900
H  52.63900 38.83600 25.69100
H  51.79500 40.20100 24.94200
H  49.10200 33.51000 22.41900
H  46.50000 32.11000 22.60500
H  47.24200 35.50100 22.31800
H  46.22400 34.07000 21.86500
H  47.65400 34.47200 20.92800
H  49.01900 31.41900 21.90000
H  47.88000 30.25000 22.67800
H  49.74000 31.42900 24.54900
H  50.62800 30.89100 23.21900
H  49.42300 29.76500 24.11000
H  44.62600 28.43900 27.79800
H  45.68000 28.55100 26.34800
H  44.12600 29.24000 26.36800
H  43.91800 32.80600 30.63800
H  42.92600 32.20200 34.60900
H  44.61600 32.09400 34.85100
H  43.89100 30.61600 34.40900

