158

Mg 16.65300 51.89500 25.27300
C  18.15400 50.57300 28.10200
C  14.10900 53.12300 27.28100
C  14.83900 52.34400 22.37600
C  18.98400 50.20900 23.34200
N  16.21200 51.78600 27.40600
C  17.02000 51.28700 28.38000
C  16.50800 51.62400 29.79000
C  15.08700 52.22100 29.47500
C  15.12500 52.40500 27.92700
C  13.87900 51.26200 29.77800
C  17.50900 52.55900 30.63300
C  17.94900 52.30000 32.07400
H  16.93200 51.52500 32.96600
N  14.75100 52.69900 24.82400
C  13.89300 53.25000 25.83800
C  12.78200 53.85900 25.11600
C  12.95600 53.61000 23.71000
C  14.20700 52.87600 23.53900
C  11.72800 54.59300 25.80900
C  11.98800 53.77500 22.50000
O  12.23800 53.45300 21.29600
C  10.58000 54.34900 22.69800
N  16.75200 51.25500 23.10300
C  15.98600 51.61700 22.14000
C  16.64500 51.47100 20.77800
C  17.82900 50.59600 21.07400
C  17.86200 50.64300 22.61600
C  15.70700 50.91400 19.66600
C  19.19200 51.02600 20.39600
C  19.56100 50.11900 19.21000
N  18.22600 50.57500 25.59600
C  19.13500 50.09600 24.69300
C  20.16500 49.39500 25.43500
C  19.84400 49.52400 26.76100
C  18.64000 50.26200 26.81800
C  21.09300 48.53500 24.69200
C  20.15300 49.24800 28.10400
O  21.07700 48.61300 28.60900
C  19.05500 49.85700 29.08700
C  18.43200 48.79000 29.88600
O  17.34900 48.29600 29.66900
O  19.09600 48.53900 31.07500
C  18.63600 47.55500 32.00100
H  13.43200 53.70900 27.90600
H  14.48700 52.82100 21.45900
H  19.79600 49.78000 22.75100
H  16.51200 50.67800 30.33100
H  14.80800 53.17600 29.92000
H  13.24700 51.15200 28.89600
H  13.17600 51.74900 30.45300
H  14.21000 50.28600 30.13400
H  16.95800 53.49700 30.69400
H  18.33600 52.75600 29.95000
H  18.06600 53.21800 32.65100
H  18.95900 51.89000 32.05800
H  10.73500 54.61500 25.35900
H  12.05700 55.62000 25.96600
H  11.69800 54.20000 26.82500
H  10.02700 54.34300 21.75800
H  10.70700 55.35800 23.08800
H  9.97700 53.83800 23.44800
H  16.97400 52.45400 20.44100
H  17.55000 49.56300 20.86700
H  14.81100 50.57600 20.18800
H  16.11500 50.09500 19.07300
H  15.50600 51.75000 18.99600
H  20.08400 50.97200 21.02100
H  18.90500 51.91200 19.83000
H  19.49900 50.66500 18.26900
H  18.87100 49.27500 19.21800
H  20.56300 49.70500 19.33000
H  21.65000 49.10400 23.94800
H  20.51800 47.78400 24.15100
H  21.92800 48.13100 25.26500
H  19.50300 50.54600 29.80200
H  19.55200 47.02600 32.26400
H  18.01300 46.82200 31.48900
H  18.15300 47.97500 32.88300
Mg -9.63100 39.56400 42.66000
C  -8.84000 36.35700 41.80200
C  -6.64700 40.56200 41.22000
C  -10.84600 42.67000 42.42000
C  -12.90500 38.45900 43.66600
N  -8.12400 38.58900 41.41400
C  -7.90900 37.26300 41.40000
C  -6.57400 36.94200 40.60300
C  -5.78400 38.26200 40.82400
C  -6.91300 39.24800 41.23600
C  -4.60700 38.15100 41.79100
C  -6.74200 36.37900 39.16500
C  -5.92200 35.14500 38.72600
H  -5.09200 35.34200 37.47300
N  -8.78700 41.39300 41.92000
C  -7.53100 41.65600 41.50300
C  -7.26900 43.06700 41.44700
C  -8.52400 43.71100 41.75400
C  -9.44900 42.57700 42.00100
C  -5.89900 43.54300 40.96500
C  -8.79800 45.22600 41.73700
O  -7.88700 45.98000 41.51200
C  -10.12500 45.81800 41.99300
N  -11.61900 40.39100 42.98600
C  -11.83700 41.72900 42.79000
C  -13.26900 42.15100 43.11200
C  -13.88000 40.84000 43.70300
C  -12.79800 39.81900 43.41000
C  -13.41600 43.36200 44.01400
C  -15.33700 40.34100 43.30100
C  -16.21900 39.73200 44.43500
N  -10.62000 37.76900 42.98100
C  -11.89800 37.48500 43.33800
C  -12.01600 36.06100 43.31200
C  -10.83400 35.59800 42.76700
C  -10.02600 36.66700 42.47900
C  -13.30000 35.35600 43.68300
C  -10.13100 34.38900 42.34800
O  -10.41600 33.18200 42.42300
C  -8.75500 34.87500 41.74600
C  -7.67300 34.29200 42.59200
O  -7.24300 34.82700 43.61100
O  -7.00300 33.27900 41.93000
C  -5.61400 33.18100 42.25300
H  -5.60500 40.84200 41.05000
H  -11.26100 43.67600 42.51200
H  -13.84900 38.18400 44.14000
H  -5.97400 36.16800 41.08000
H  -5.36600 38.48300 39.84200
H  -3.70400 38.21100 41.18400
H  -4.64100 37.27900 42.44400
H  -4.58400 39.06500 42.38400
H  -6.57100 37.12100 38.38500
H  -7.77900 36.09300 38.98800
H  -6.63300 34.32200 38.79500
H  -5.07900 34.91000 39.37600
H  -5.16200 43.35300 41.74400
H  -5.98400 44.59700 40.69900
H  -5.62800 43.05500 40.02800
H  -10.51200 45.54500 42.97500
H  -10.65500 45.40200 41.13700
H  -10.17300 46.86600 41.69600
H  -13.75800 42.42600 42.17800
H  -13.95800 40.98200 44.78100
H  -12.48300 43.59500 44.52700
H  -14.19300 43.07000 44.72000
H  -13.74900 44.23200 43.44800
H  -15.24300 39.48700 42.63100
H  -15.91700 41.14100 42.83900
H  -16.57800 38.73300 44.18700
H  -17.05500 40.42200 44.54200
H  -15.74000 39.61400 45.40800
H  -13.74400 35.72600 44.60700
H  -13.03400 34.32100 43.89500
H  -14.00300 35.25400 42.85700
H  -8.60800 34.49500 40.73500
H  -5.15500 34.06400 42.69700
H  -5.14200 32.72400 41.38300
H  -5.56100 32.36100 42.97000

