158

Mg 17.22700 52.41700 26.60700
C  19.14500 50.42800 28.88500
C  15.12900 53.25100 29.15700
C  15.39600 53.68700 24.39800
C  19.33700 50.90200 24.00100
N  17.08900 51.74300 28.73000
C  18.10000 51.19000 29.48300
C  17.83700 51.41200 31.00400
C  16.41000 51.95500 31.03900
C  16.18500 52.37600 29.54900
C  15.38900 50.84700 31.46700
C  18.89400 52.39000 31.62900
C  19.30200 52.00600 33.05600
H  18.20500 51.43200 33.97600
N  15.51200 53.46600 26.77900
C  14.77500 53.71700 27.89900
C  13.76300 54.65800 27.52400
C  13.83900 54.93500 26.14800
C  14.92000 54.01500 25.71500
C  12.80000 55.20300 28.54900
C  13.09400 55.89300 25.32700
O  13.21300 56.00900 24.07200
C  12.29300 56.96900 26.13400
N  17.33200 52.20400 24.54000
C  16.43800 52.93400 23.86800
C  16.79000 52.99300 22.36800
C  18.00600 52.06500 22.23100
C  18.27600 51.67700 23.67200
C  15.53200 52.84600 21.44600
C  19.24400 52.66900 21.47800
C  20.21200 53.62200 22.16200
N  18.96200 51.04200 26.42800
C  19.66900 50.51200 25.32900
C  20.67000 49.54900 25.77700
C  20.52000 49.59600 27.12800
C  19.46800 50.46500 27.49700
C  21.64600 48.81800 24.88100
C  21.08700 49.04300 28.32400
O  21.96700 48.19300 28.47000
C  20.30500 49.68100 29.50900
C  19.89300 48.62000 30.47100
O  19.03700 47.77300 30.33900
O  20.49200 48.92100 31.68500
C  20.27300 48.09800 32.93200
H  14.45500 53.45500 29.99200
H  14.68300 54.19500 23.74600
H  19.90100 50.44700 23.18400
H  17.78300 50.45700 31.52700
H  16.28400 52.78200 31.73800
H  14.93300 50.40800 30.57900
H  14.55300 51.26400 32.02900
H  15.91000 50.10800 32.07500
H  18.54500 53.42300 31.64200
H  19.77700 52.37500 30.99000
H  19.75400 52.81700 33.62800
H  20.03500 51.20000 33.02600
H  11.76200 54.93400 28.35200
H  12.81400 56.29300 28.56100
H  13.01700 54.89700 29.57200
H  13.10700 57.37100 26.73700
H  11.40100 56.51500 26.56400
H  11.93900 57.76900 25.48400
H  17.13400 53.97400 22.03900
H  17.66600 51.22200 21.62900
H  14.75500 52.35700 22.03400
H  15.75600 52.11000 20.67400
H  15.16600 53.79800 21.06100
H  18.87500 53.09500 20.54400
H  19.83300 51.82800 21.11300
H  21.10500 52.99800 22.16400
H  19.75400 53.90100 23.11100
H  20.23500 54.42400 21.42500
H  22.55000 49.36900 24.62400
H  21.11100 48.57000 23.96500
H  21.93500 47.89100 25.37700
H  20.93500 50.43200 29.98400
H  20.92900 48.30500 33.77700
H  20.31900 47.03000 32.71700
H  19.23700 48.29100 33.21000
Mg 9.58600 48.11200 26.38500
C  7.68600 47.86800 29.24700
C  12.33800 49.08200 28.22100
C  11.25200 48.54500 23.45900
C  6.73400 47.28800 24.50100
N  9.89000 48.47900 28.52600
C  9.04300 48.24700 29.52900
C  9.67600 48.51400 30.86800
C  11.12200 49.10400 30.51900
C  11.13600 48.89600 28.98300
C  11.44000 50.60200 30.98800
C  9.77300 47.40400 32.02000
C  10.56400 47.70800 33.24000
H  9.95300 47.45000 34.61400
N  11.53300 48.63400 25.86500
C  12.51600 48.96700 26.80700
C  13.72500 49.08400 26.11500
C  13.45800 48.99200 24.69400
C  12.00600 48.69100 24.60500
C  15.07300 49.39500 26.82300
C  14.44400 49.11500 23.50600
O  14.07700 49.26100 22.34100
C  15.92400 49.06100 23.72900
N  9.02100 48.18100 24.23000
C  9.93700 48.40100 23.25400
C  9.33100 48.22500 21.89300
C  7.95900 47.59700 22.22000
C  7.89500 47.58800 23.75500
C  9.30600 49.57400 21.16500
C  7.70200 46.18200 21.53700
C  7.84500 44.88600 22.39300
N  7.52200 47.88000 26.71400
C  6.54000 47.48100 25.85400
C  5.27600 47.21000 26.56900
C  5.69200 47.31200 27.94600
C  7.09600 47.66600 27.97000
C  3.91300 46.76600 26.10700
C  5.18800 47.26300 29.30400
O  4.05500 47.14100 29.80900
C  6.54600 47.52300 30.19900
C  6.74500 46.25600 30.97200
O  7.49400 45.35600 30.55100
O  6.09700 46.38500 32.18600
C  6.24000 45.07400 32.99800
H  13.11200 49.43500 28.90600
H  11.77600 48.58300 22.50200
H  5.81200 47.06400 23.96100
H  8.96200 49.29100 31.14200
H  11.98400 48.49700 30.79500
H  12.26500 50.65400 31.69900
H  10.61100 51.18000 31.39500
H  11.80000 51.26800 30.20400
H  9.97700 46.39200 31.67100
H  8.76900 47.27200 32.42500
H  10.90000 48.74500 33.21400
H  11.37500 46.98600 33.14400
H  15.57700 48.43000 26.76700
H  15.00300 49.61100 27.88900
H  15.62300 50.19100 26.32200
H  16.29700 49.77400 24.46500
H  16.37500 49.12300 22.73900
H  16.20500 48.04900 24.02100
H  9.94200 47.52700 21.32200
H  7.08100 48.16800 21.91900
H  8.27700 49.77600 20.86700
H  9.97800 49.58500 20.30700
H  9.53700 50.47800 21.72900
H  8.31200 46.12700 20.63500
H  6.66300 46.12600 21.21000
H  8.63600 44.30600 21.91800
H  6.89300 44.35800 22.34000
H  8.08300 45.10700 23.43300
H  3.89600 46.79900 25.01800
H  3.27100 47.53100 26.54400
H  3.71400 45.79000 26.55000
H  6.35700 48.30000 30.94100
H  5.29100 44.54200 32.94900
H  6.35500 45.23000 34.07100
H  6.89800 44.29700 32.60800

