158

Mg 1.88300 -1.97700 43.79900
C  5.05400 -0.62500 43.25900
C  0.63300 0.78800 42.07200
C  -1.11800 -3.48700 43.80300
C  3.36900 -4.74700 45.14800
N  2.74500 -0.21400 42.69900
C  4.04900 0.16600 42.67600
C  4.26700 1.50800 41.93900
C  2.78800 2.11500 42.08500
C  2.02100 0.84700 42.22600
C  2.59200 3.18500 43.20400
C  4.78600 1.37900 40.49100
C  5.46200 2.64400 39.83600
H  5.58900 2.63700 38.28000
N  -0.00500 -1.39200 43.13000
C  -0.27500 -0.27600 42.37100
C  -1.75400 -0.22100 42.11100
C  -2.29400 -1.38000 42.70200
C  -1.13000 -2.19000 43.24600
C  -2.45700 0.92400 41.43300
C  -3.73800 -1.87400 42.77300
O  -4.64700 -1.23500 42.19800
C  -4.22300 -3.12100 43.49200
N  1.18100 -3.85200 44.41100
C  -0.11900 -4.27400 44.39900
C  -0.29100 -5.72800 44.90200
C  1.21800 -6.10100 45.38200
C  1.97200 -4.77400 45.05400
C  -1.37800 -5.93400 45.97400
C  1.71200 -7.27000 44.48600
C  1.48300 -8.63800 45.15500
N  3.77200 -2.60700 44.18700
C  4.20000 -3.75700 44.73100
C  5.62900 -3.73200 44.87200
C  6.01300 -2.53100 44.32900
C  4.83400 -1.88400 43.90100
C  6.43400 -4.78700 45.59300
C  7.10700 -1.65900 44.03600
O  8.30000 -1.87300 44.19700
C  6.53300 -0.39700 43.30800
C  6.82400 0.73100 44.27700
O  6.38800 0.83500 45.40400
O  7.85800 1.52100 43.80200
C  8.34400 2.55900 44.65400
H  0.16100 1.69500 41.68800
H  -1.98100 -4.13100 43.62100
H  3.90100 -5.62800 45.51200
H  4.87400 2.17700 42.54800
H  2.37100 2.56500 41.18400
H  3.50300 3.59100 43.64600
H  1.99300 2.75100 44.00500
H  1.91200 3.95000 42.83200
H  4.00400 1.00200 39.83100
H  5.63100 0.68900 40.49000
H  6.52900 2.53900 40.03000
H  5.01800 3.50800 40.33100
H  -2.27300 0.79600 40.36600
H  -2.20400 1.85200 41.94600
H  -3.54300 0.86900 41.51100
H  -4.10200 -3.96800 42.81600
H  -5.24500 -2.92100 43.81500
H  -3.68600 -3.31000 44.42100
H  -0.61600 -6.41000 44.11600
H  1.32400 -6.30900 46.44700
H  -2.12300 -5.14000 46.01900
H  -1.01100 -6.11300 46.98400
H  -1.78700 -6.92200 45.76100
H  2.75400 -7.11400 44.20600
H  1.13600 -7.29000 43.56100
H  0.83500 -8.76500 46.02300
H  2.52100 -8.92200 45.32200
H  0.92500 -9.31800 44.51200
H  5.95400 -5.16100 46.49800
H  7.44800 -4.49000 45.86100
H  6.48100 -5.62200 44.89400
H  7.10600 -0.24800 42.39300
H  9.01900 2.24800 45.45200
H  7.47800 3.02500 45.12300
H  8.86400 3.23300 43.97400
Mg -12.06300 16.27400 41.14700
C  -9.14500 14.58000 40.33000
C  -10.85400 19.03500 39.62100
C  -15.12400 17.68800 41.29700
C  -13.46500 13.13900 42.11600
N  -10.17600 16.70900 39.98100
C  -9.09500 15.92400 39.94100
C  -7.95000 16.63800 39.29700
C  -8.42200 18.13900 39.15800
C  -9.92400 17.98900 39.53500
C  -7.66000 19.14900 40.13900
C  -7.40700 16.02000 37.93800
C  -6.10700 16.62100 37.55800
H  -5.61100 16.43900 36.12100
N  -12.80900 18.15600 40.70300
C  -12.14400 19.14000 40.09300
C  -13.03100 20.33500 39.97600
C  -14.26800 19.95900 40.58500
C  -14.11300 18.56400 40.94900
C  -12.54100 21.67500 39.43100
C  -15.45100 20.86600 40.80400
O  -15.45200 21.95700 40.29300
C  -16.50300 20.48900 41.72200
N  -14.00700 15.45300 41.55600
C  -15.14100 16.28800 41.54700
C  -16.41400 15.52200 41.88200
C  -15.87400 14.08900 42.22900
C  -14.36700 14.21000 41.92900
C  -17.34900 16.10100 43.01800
C  -16.46700 12.93900 41.30000
C  -16.79600 11.61900 41.93700
N  -11.47100 14.29800 41.40700
C  -12.08800 13.15600 41.80200
C  -11.05800 12.05200 41.85200
C  -9.97400 12.56300 41.28400
C  -10.23000 13.90800 40.98800
C  -11.21400 10.67100 42.49300
C  -8.57400 12.26800 41.00700
O  -7.96800 11.21900 41.26200
C  -7.95500 13.56000 40.48500
C  -6.87300 14.03200 41.39200
O  -7.06900 14.31400 42.58500
O  -5.65300 14.07600 40.77100
C  -4.52400 13.97000 41.70000
H  -10.42800 19.96900 39.24800
H  -16.16100 18.02200 41.21300
H  -13.88400 12.23900 42.57100
H  -7.12100 16.66300 40.00400
H  -8.53400 18.47400 38.12700
H  -7.35700 18.64400 41.05600
H  -8.22700 20.05800 40.34200
H  -6.77600 19.52900 39.62800
H  -8.03200 16.43200 37.14600
H  -7.42500 14.93100 37.89300
H  -5.36900 16.32900 38.30600
H  -6.22400 17.70000 37.66000
H  -13.38300 22.28700 39.10900
H  -11.97200 21.40600 38.54200
H  -11.89300 22.26400 40.08100
H  -17.37900 20.15000 41.17000
H  -16.73600 21.38400 42.29900
H  -16.25100 19.65900 42.38100
H  -16.94300 15.45300 40.93100
H  -15.98400 13.89800 43.29600
H  -17.66300 15.25200 43.62600
H  -18.33700 16.42000 42.68600
H  -16.90000 16.79700 43.72600
H  -15.82200 12.84100 40.42700
H  -17.38200 13.31300 40.84100
H  -16.49300 10.77500 41.31700
H  -17.86000 11.50000 42.14200
H  -16.29200 11.45300 42.88900
H  -11.49400 10.03000 41.65700
H  -11.93300 10.62800 43.31100
H  -10.23400 10.35300 42.84900
H  -7.48900 13.42000 39.51000
H  -4.49800 14.86100 42.32800
H  -3.73600 14.02100 40.95000
H  -4.42700 13.00000 42.18800

