158

Mg -1.89900 18.06700 26.92700
C  -2.45400 15.88900 29.71200
C  -2.13900 20.79300 29.21100
C  -1.48400 20.05300 24.38200
C  -1.96500 15.22000 24.83700
N  -2.14300 18.32300 29.16300
C  -2.36100 17.28200 30.11400
C  -2.57700 17.80700 31.49800
C  -2.71600 19.28900 31.25700
C  -2.21600 19.51000 29.80500
C  -4.08100 19.98400 31.66000
C  -1.40000 17.46700 32.59800
C  -1.86200 16.78100 33.83200
H  -0.80700 16.46100 34.92900
N  -1.73300 20.12000 26.77900
C  -1.87600 21.06400 27.82000
C  -1.83400 22.41100 27.19500
C  -1.62700 22.27500 25.73900
C  -1.64300 20.76300 25.57700
C  -1.84900 23.69900 27.92300
C  -1.45700 23.29900 24.61600
O  -1.19000 23.03900 23.46000
C  -1.35800 24.69500 24.98200
N  -1.94500 17.72800 24.94100
C  -1.63300 18.73500 24.07800
C  -1.56600 18.16700 22.62300
C  -1.88300 16.66400 22.70200
C  -1.98700 16.45300 24.27000
C  -2.60700 18.89200 21.57900
C  -0.71000 15.83200 22.05100
C  0.57400 15.65600 22.83700
N  -2.22200 16.00500 27.12300
C  -2.17000 14.95700 26.20300
C  -2.29000 13.68300 26.92500
C  -2.32900 14.01100 28.29700
C  -2.34900 15.39500 28.36200
C  -2.31800 12.37100 26.26800
C  -2.48600 13.44600 29.64700
O  -2.57300 12.32700 30.04900
C  -2.55100 14.65800 30.61500
C  -1.36400 14.37600 31.47800
O  -0.21600 14.62100 31.19300
O  -1.74100 13.73600 32.58700
C  -0.73800 13.22800 33.46000
H  -2.27400 21.60400 29.93000
H  -1.26800 20.70200 23.53200
H  -2.06200 14.41700 24.10400
H  -3.44800 17.31000 31.92500
H  -2.05800 19.81800 31.94700
H  -4.44000 20.54600 30.79700
H  -3.97400 20.64000 32.52400
H  -4.78600 19.22200 31.99200
H  -0.73600 18.25900 32.94600
H  -0.76500 16.78700 32.03100
H  -2.28900 15.80900 33.58700
H  -2.69500 17.39700 34.17400
H  -1.95600 23.55600 28.99800
H  -2.71100 24.33200 27.71400
H  -0.90900 24.22200 27.74300
H  -2.05300 25.01700 25.75800
H  -1.57700 25.37000 24.15500
H  -0.36500 24.86500 25.39700
H  -0.53900 18.32100 22.29400
H  -2.74200 16.42700 22.07500
H  -3.11000 19.72000 22.07900
H  -3.34400 18.18300 21.20300
H  -2.06100 19.13800 20.66800
H  -0.40400 16.33100 21.13100
H  -0.97300 14.83000 21.71200
H  1.16600 16.54500 22.61900
H  1.05200 14.71300 22.57000
H  0.35900 15.48800 23.89300
H  -2.13100 11.50600 26.90500
H  -1.58900 12.37900 25.45800
H  -3.30400 12.31900 25.80600
H  -3.42300 14.56400 31.26200
H  0.11300 13.86500 33.70100
H  -0.45500 12.25400 33.06100
H  -1.29200 13.00300 34.37200
Mg 0.21800 44.11000 26.08200
C  2.24300 44.30700 28.91900
C  -2.55400 43.60200 28.35200
C  -1.76200 43.26100 23.44800
C  2.90500 44.08000 24.10200
N  -0.05400 44.05000 28.33100
C  0.90000 44.12400 29.25600
C  0.32700 44.03700 30.63600
C  -1.13900 43.64600 30.50400
C  -1.30200 43.83700 28.98700
C  -1.47200 42.18600 31.00200
C  0.59100 45.28700 31.55600
C  0.83200 45.11500 33.08900
H  0.46500 43.83100 33.84300
N  -1.83100 43.68800 25.90600
C  -2.83400 43.59200 26.95300
C  -4.15700 43.48200 26.39100
C  -3.90900 43.37200 24.95200
C  -2.47100 43.42000 24.68300
C  -5.45300 43.40700 27.26100
C  -5.02800 43.31900 23.89400
O  -4.75900 43.46600 22.69200
C  -6.46100 43.07000 24.34200
N  0.54800 43.50700 24.10100
C  -0.43300 43.35600 23.12200
C  0.14600 43.31700 21.75800
C  1.49000 44.01600 21.99300
C  1.69600 43.84100 23.51600
C  0.15300 41.90600 21.26800
C  1.52000 45.51900 21.53200
C  2.51600 45.88000 20.47100
N  2.27700 44.19600 26.37800
C  3.24300 44.17400 25.45600
C  4.52000 44.39400 26.13700
C  4.20300 44.50500 27.49900
C  2.80200 44.22900 27.63300
C  5.85900 44.54300 25.42000
C  4.71300 44.64500 28.86600
O  5.86200 44.77300 29.25100
C  3.43200 44.48600 29.87000
C  3.72500 43.26700 30.68300
O  3.81300 42.13600 30.18100
O  4.10000 43.64500 31.95400
C  4.82800 42.52000 32.63900
H  -3.37700 43.41900 29.04600
H  -2.43500 42.99200 22.63100
H  3.73500 44.32000 23.43400
H  0.77600 43.18000 31.13900
H  -1.77500 44.40300 30.96200
H  -2.32000 42.33200 31.67100
H  -0.65900 41.76400 31.59300
H  -1.62800 41.54000 30.13900
H  -0.34000 45.85200 31.50700
H  1.32400 45.99000 31.15900
H  0.27000 45.82300 33.69800
H  1.89400 45.17000 33.32700
H  -6.05300 44.30000 27.08900
H  -5.29000 43.33400 28.33700
H  -5.97400 42.47600 27.03700
H  -6.70600 42.04800 24.63100
H  -7.10800 43.16300 23.47000
H  -6.88500 43.68300 25.13800
H  -0.48800 43.83500 21.03900
H  2.32500 43.54800 21.47100
H  -0.10600 41.11300 21.97000
H  1.18600 41.63100 21.05400
H  -0.41600 41.87400 20.33900
H  1.87500 46.14400 22.35200
H  0.55000 45.99600 21.39200
H  2.02800 46.51600 19.73300
H  2.82700 45.03800 19.85200
H  3.31800 46.48700 20.89100
H  6.57700 45.22300 25.87900
H  5.65600 44.94800 24.42900
H  6.26400 43.53400 25.35100
H  3.32400 45.39200 30.46700
H  5.78500 42.26400 32.18500
H  4.18100 41.64600 32.71600
H  5.05600 42.80200 33.66700

