158

Mg 8.12400 2.48900 28.40100
C  9.55800 1.03900 31.25900
C  6.48100 4.72700 30.36500
C  6.16100 3.32100 25.77000
C  9.35200 -0.31100 26.46000
N  7.93000 2.73900 30.62100
C  8.68700 2.09900 31.59200
C  8.54500 2.79300 32.93600
C  7.35200 3.83500 32.58800
C  7.24800 3.82700 31.09700
C  6.00400 3.53100 33.27600
C  9.79300 3.44000 33.56700
C  10.39800 2.76300 34.82100
H  10.79100 3.72800 35.89800
N  6.76700 4.04900 27.99400
C  6.21600 4.90900 28.93800
C  5.27100 5.78800 28.24300
C  5.23800 5.42800 26.85600
C  6.11500 4.28500 26.83500
C  4.47200 6.97200 28.93300
C  4.44600 6.04700 25.63000
O  4.47900 5.68300 24.46900
C  3.51100 7.26400 25.84800
N  7.85200 1.61900 26.38800
C  6.92500 2.17400 25.58400
C  7.13000 1.59300 24.12100
C  8.00500 0.35500 24.37900
C  8.39400 0.55700 25.84800
C  5.87700 1.12400 23.37500
C  9.07700 0.08900 23.26200
C  9.02800 -1.18400 22.37800
N  9.23900 0.77100 28.73600
C  9.65700 -0.23600 27.83600
C  10.48600 -1.20800 28.60600
C  10.48800 -0.70300 29.89300
C  9.70900 0.45900 29.94900
C  11.29800 -2.33400 28.02500
C  10.93400 -0.95900 31.31200
O  11.74200 -1.75300 31.80100
C  10.32400 0.15200 32.17600
C  9.43800 -0.58800 33.16100
O  8.31600 -1.00100 32.97800
O  10.12300 -0.63600 34.34600
C  9.38500 -1.41400 35.41200
H  6.09400 5.54000 30.98200
H  5.60800 3.63200 24.88100
H  9.73600 -1.05700 25.76000
H  8.20800 2.16400 33.76000
H  7.63700 4.79500 33.01800
H  6.09000 2.47300 33.52200
H  5.21800 3.47200 32.52300
H  5.78500 4.36700 33.94000
H  9.71100 4.51600 33.71900
H  10.57700 3.36400 32.81300
H  11.29100 2.25500 34.45500
H  9.75500 1.96800 35.19700
H  4.81800 7.94200 28.57600
H  4.85400 7.05400 29.95000
H  3.43100 6.89300 28.62000
H  2.75100 7.06100 26.60300
H  2.93900 7.55800 24.96800
H  4.10300 8.08900 26.24500
H  7.68300 2.23900 23.43900
H  7.34300 -0.50700 24.45800
H  5.07800 1.33800 24.08600
H  5.77300 0.10700 22.99900
H  5.72100 1.93500 22.66300
H  10.09300 0.20600 23.63800
H  9.03000 0.83500 22.46800
H  8.95300 -0.98700 21.30800
H  8.15900 -1.80400 22.59800
H  9.92800 -1.78900 22.48400
H  12.02400 -2.03600 27.26900
H  10.75200 -3.17600 27.59800
H  11.80800 -2.67400 28.92600
H  11.23200 0.62200 32.55300
H  8.88500 -2.27300 34.96500
H  8.60300 -0.83400 35.90000
H  9.98200 -1.85600 36.21000
Mg -5.42000 24.68700 25.96300
C  -4.09400 26.08100 28.84100
C  -7.17500 22.41700 27.96400
C  -6.43900 23.21500 23.30500
C  -3.39100 26.77200 24.12300
N  -5.63600 24.42100 28.17700
C  -5.01600 25.13500 29.14900
C  -5.55600 24.78700 30.55900
C  -6.32000 23.41200 30.26300
C  -6.36500 23.36900 28.70000
C  -5.67700 22.10500 30.86300
C  -6.48200 25.81600 31.24300
C  -6.21200 26.12500 32.72800
H  -7.19400 25.41400 33.69100
N  -6.70300 23.20000 25.68200
C  -7.39100 22.43200 26.57400
C  -8.39400 21.72000 25.94200
C  -8.24000 21.92400 24.55400
C  -7.03500 22.79500 24.45700
C  -9.44100 20.93700 26.60600
C  -9.01200 21.35500 23.40000
O  -8.59200 21.40000 22.22400
C  -10.33600 20.54600 23.54000
N  -4.76500 24.79300 24.01400
C  -5.41900 24.10800 23.09500
C  -4.89700 24.48500 21.72400
C  -4.09100 25.72500 21.96800
C  -4.05500 25.79700 23.44300
C  -4.20800 23.37500 20.91600
C  -4.41900 27.05200 21.14300
C  -3.24000 27.85100 20.56400
N  -3.89100 26.10700 26.34200
C  -3.24900 26.99300 25.51900
C  -2.30500 27.86600 26.22900
C  -2.70000 27.57200 27.57700
C  -3.65500 26.51700 27.59200
C  -1.27300 28.87600 25.65700
C  -2.51800 28.07000 28.96400
O  -1.82800 28.98200 29.41100
C  -3.40600 27.13300 29.84300
C  -2.53800 26.49200 30.92800
O  -1.68400 25.64600 30.77100
O  -2.79800 27.18900 32.10200
C  -1.79600 26.91600 33.15800
H  -7.64500 21.65400 28.58700
H  -6.70800 22.65600 22.40600
H  -2.81400 27.43600 23.47700
H  -4.65200 24.53900 31.11500
H  -7.38700 23.55600 30.43400
H  -6.46400 21.52000 31.33900
H  -4.98900 22.39100 31.65900
H  -5.06900 21.51700 30.17600
H  -7.49600 25.42700 31.14500
H  -6.44600 26.74900 30.68000
H  -6.28700 27.19700 32.90900
H  -5.23000 25.73500 32.99800
H  -10.41900 21.14800 26.17400
H  -9.43300 21.10900 27.68300
H  -9.27900 19.87100 26.44100
H  -10.78900 20.37400 22.56300
H  -11.00600 21.28300 23.98200
H  -10.27000 19.62500 24.11800
H  -5.80500 24.68800 21.15500
H  -3.08200 25.41300 21.70000
H  -4.45700 22.40500 21.34700
H  -3.12500 23.49100 20.94700
H  -4.48200 23.41900 19.86100
H  -5.15300 27.71200 21.60400
H  -5.06100 26.59800 20.38900
H  -3.53900 27.97200 19.52200
H  -2.34000 27.23600 20.55600
H  -2.98700 28.82700 20.97800
H  -0.63400 29.18100 26.48600
H  -1.79000 29.80800 25.43100
H  -0.71200 28.44100 24.83000
H  -4.06300 27.80700 30.39200
H  -2.10900 26.08200 33.78500
H  -1.94900 27.77200 33.81600
H  -0.77400 26.78800 32.80100

