158

Mg 43.23900 4.22100 47.38600
C  40.70000 6.61000 46.98800
C  40.74900 1.72600 47.23800
C  45.65800 1.95600 47.25800
C  45.59000 6.88800 47.53200
N  41.02100 4.19000 47.05100
C  40.18900 5.26400 46.86800
C  38.69300 4.94400 46.65200
C  38.77700 3.43300 47.03300
C  40.27400 3.01700 47.12500
C  38.12700 3.02700 48.35400
C  38.29200 5.30200 45.19500
C  37.12500 6.32500 44.96500
H  37.25900 7.41500 43.84300
N  43.17600 2.14100 47.18300
C  42.07500 1.28700 47.09100
C  42.55900 -0.05800 46.84900
C  43.98200 -0.03200 46.76400
C  44.32300 1.39000 47.08800
C  41.70000 -1.22300 46.63500
C  44.84400 -1.20600 46.58100
O  44.43400 -2.32000 46.48100
C  46.29100 -0.96500 46.41000
N  45.37400 4.43500 47.31500
C  46.10400 3.29600 47.44400
C  47.58700 3.65200 47.66200
C  47.53300 5.19400 47.93600
C  46.08100 5.55000 47.60900
C  48.19100 2.88200 48.85600
C  48.56800 6.09300 47.20300
C  49.96800 5.40100 46.93600
N  43.22800 6.36200 47.24700
C  44.24700 7.26000 47.32800
C  43.70500 8.64000 47.15200
C  42.27300 8.42700 47.04800
C  42.04100 6.97900 47.08500
C  44.63200 9.86200 47.14900
C  41.03500 9.08300 46.99000
O  40.78200 10.30000 47.05900
C  39.99000 7.93000 46.92900
C  39.05300 8.04700 48.15700
O  39.20900 7.43800 49.23700
O  37.91500 8.71900 47.77800
C  36.78200 8.34200 48.62200
H  39.99800 0.94800 47.39100
H  46.52600 1.29300 47.27400
H  46.41000 7.60500 47.61900
H  38.20200 5.64400 47.32800
H  38.28200 2.84100 46.26300
H  37.75100 3.88800 48.90700
H  38.75500 2.42600 49.01200
H  37.17500 2.49600 48.30800
H  38.01400 4.36600 44.71200
H  39.15700 5.71900 44.68000
H  36.70300 6.84800 45.82300
H  36.39400 5.63100 44.55100
H  41.64100 -1.69900 47.61400
H  41.96600 -1.93800 45.85700
H  40.65900 -0.97600 46.42800
H  46.41200 -0.14400 45.70400
H  46.78100 -1.86100 46.03000
H  46.63400 -0.78800 47.42900
H  48.13700 3.37600 46.76200
H  47.63500 5.48400 48.98200
H  47.50600 2.17100 49.31700
H  48.69500 3.55400 49.55200
H  48.96700 2.21100 48.48800
H  48.73200 6.91500 47.90000
H  48.18000 6.52400 46.28000
H  49.81600 4.78100 46.05300
H  50.32100 4.79300 47.76900
H  50.74700 6.15500 46.82500
H  44.37700 10.49000 46.29500
H  45.70100 9.71900 46.98800
H  44.35700 10.44300 48.02900
H  39.44800 8.13300 46.00500
H  36.57900 7.27700 48.50600
H  35.86400 8.77200 48.22400
H  36.88800 8.61100 49.67300
Mg 36.13500 48.85900 24.10200
C  36.44900 47.30100 27.30800
C  34.61900 51.55300 25.71200
C  35.87200 50.18800 21.15700
C  37.64200 46.06800 22.68700
N  35.56600 49.31100 26.35400
C  35.88200 48.56000 27.44700
C  35.45200 49.30000 28.74400
C  34.95000 50.73600 28.17800
C  34.98600 50.52600 26.62000
C  33.47600 51.14200 28.69600
C  36.70900 49.37200 29.74500
C  36.34300 49.20100 31.26900
H  34.90000 49.11100 31.73000
N  35.25400 50.59500 23.51700
C  34.74500 51.59900 24.24200
C  34.40300 52.70300 23.40200
C  34.79600 52.39500 22.06200
C  35.31900 50.98600 22.14600
C  33.87300 53.93500 23.92400
C  34.82200 53.18800 20.74900
O  34.95900 52.62600 19.64600
C  34.60100 54.69600 20.79800
N  36.51000 48.16200 22.18500
C  36.39400 48.95900 21.14600
C  36.80300 48.30400 19.86100
C  37.46900 47.00600 20.36100
C  37.24900 47.09800 21.82300
C  35.57900 48.07700 18.90500
C  38.91500 46.91700 20.08900
C  39.84000 47.93000 20.79500
N  36.89100 47.00300 24.78400
C  37.41300 45.94900 24.07800
C  37.74300 44.86000 24.97100
C  37.34600 45.34200 26.22900
C  36.95100 46.69600 26.10400
C  38.26300 43.51400 24.63700
C  37.14000 44.99500 27.62500
O  37.31400 43.89800 28.19500
C  36.64500 46.25200 28.40100
C  35.42200 46.00300 29.29500
O  34.25400 45.84400 28.90000
O  35.84300 45.96100 30.58800
C  34.96700 45.21200 31.54900
H  34.30400 52.47900 26.19700
H  35.84800 50.55900 20.13000
H  38.25300 45.27700 22.24700
H  34.58100 48.78300 29.14800
H  35.71600 51.48700 28.37000
H  33.46800 52.15600 29.09700
H  33.15800 50.44800 29.47400
H  32.75200 51.11700 27.88200
H  37.05500 50.40200 29.65800
H  37.47600 48.67500 29.40700
H  36.62900 50.15200 31.71800
H  36.91300 48.51400 31.89500
H  34.20000 54.78700 23.32900
H  34.28600 54.07900 24.92300
H  32.78400 53.89800 23.89300
H  34.75200 55.01300 19.76600
H  35.38900 55.16000 21.39100
H  33.58100 54.88600 21.13300
H  37.50600 49.03400 19.46100
H  36.96000 46.10100 20.02900
H  34.72500 48.02900 19.58100
H  35.63400 47.16700 18.30700
H  35.47900 48.84100 18.13400
H  39.00700 46.91900 19.00300
H  39.16300 45.89000 20.35600
H  39.21700 48.62700 21.35500
H  40.51200 48.43600 20.10200
H  40.41000 47.43700 21.58200
H  39.33200 43.62400 24.45900
H  37.64200 43.06700 23.86000
H  38.02200 42.94100 25.53300
H  37.43100 46.53800 29.09900
H  34.36700 45.84800 32.19900
H  35.49200 44.52200 32.21000
H  34.25900 44.59300 31.00000

