158

Mg 24.46600 -5.25900 45.99600
C  26.60600 -2.69300 44.33300
C  22.05700 -4.30400 43.83700
C  22.84000 -7.97500 46.98800
C  27.42100 -6.21700 47.66500
N  24.42300 -3.68700 44.25200
C  25.31400 -2.77500 43.78500
C  24.71200 -1.92600 42.67600
C  23.13500 -2.21100 42.76900
C  23.18600 -3.52600 43.63700
C  22.15700 -1.01800 43.25600
C  25.28600 -2.28400 41.28600
C  26.23900 -1.25500 40.55900
H  26.17000 -1.21200 39.02300
N  22.65300 -5.96400 45.53700
C  21.77600 -5.39700 44.69100
C  20.50900 -6.24100 44.71100
C  20.77500 -7.39100 45.56100
C  22.14200 -7.10400 46.12200
C  19.26200 -5.96500 43.84600
C  19.82800 -8.66000 45.83500
O  18.78600 -8.67700 45.22100
C  20.12200 -9.78300 46.69600
N  25.05900 -6.89700 47.13400
C  24.20400 -7.85100 47.43700
C  24.98300 -8.96100 48.38100
C  26.33500 -8.26800 48.65300
C  26.24700 -7.09600 47.72000
C  24.32300 -9.32000 49.72100
C  27.47900 -9.17400 48.21000
C  28.59200 -9.29800 49.16500
N  26.59100 -4.60400 46.08600
C  27.57500 -5.09500 46.86400
C  28.78800 -4.32700 46.57900
C  28.38700 -3.38300 45.66600
C  27.07300 -3.59300 45.34300
C  30.18900 -4.49300 47.11500
C  28.94500 -2.27800 44.85000
O  30.06500 -1.73000 44.81800
C  27.72100 -1.75600 44.08500
C  27.59700 -0.32800 44.49300
O  26.68000 0.07800 45.21000
O  28.37700 0.49300 43.76300
C  27.90400 1.86500 43.73900
H  21.23500 -3.96000 43.20500
H  22.37000 -8.90400 47.32000
H  28.34000 -6.49000 48.18800
H  24.84400 -0.86200 42.87400
H  22.77800 -2.48700 41.77700
H  21.44500 -1.38700 43.99400
H  21.67900 -0.65800 42.34500
H  22.76200 -0.21800 43.68100
H  24.44000 -2.44000 40.61600
H  25.89100 -3.18700 41.35700
H  27.28700 -1.25900 40.85800
H  25.93500 -0.29700 40.98200
H  19.34900 -5.09900 43.19000
H  18.43600 -5.86700 44.55000
H  19.05400 -6.77200 43.14400
H  19.21800 -10.38500 46.79900
H  20.21300 -9.35900 47.69600
H  20.93700 -10.44200 46.39700
H  24.93900 -9.85900 47.76300
H  26.59600 -7.84800 49.62500
H  23.76700 -10.23500 49.52000
H  23.62100 -8.58000 50.10400
H  25.03400 -9.47400 50.53200
H  27.80600 -8.81800 47.23300
H  27.13900 -10.19800 48.05700
H  28.87400 -8.29500 49.48400
H  29.43600 -9.73300 48.62800
H  28.16200 -9.86500 49.99000
H  30.26100 -4.64100 48.19200
H  30.79700 -3.59100 47.04900
H  30.64200 -5.27800 46.50900
H  27.75700 -1.65800 43.00000
H  27.99600 2.20500 44.77000
H  26.90600 1.97300 43.31300
H  28.53400 2.43300 43.05500
Mg -11.67200 15.64400 42.11500
C  -8.79500 13.78100 41.68700
C  -10.35500 18.19700 40.51800
C  -14.79100 17.11100 41.95400
C  -13.29900 12.61100 43.26400
N  -9.69500 15.87800 41.10400
C  -8.70500 15.09200 41.18000
C  -7.47600 15.80100 40.48000
C  -7.96300 17.29100 40.35600
C  -9.46100 17.12600 40.66000
C  -7.24800 18.33700 41.28600
C  -6.97400 15.15100 39.15100
C  -5.46400 14.96500 38.91600
H  -4.97500 15.62200 37.65500
N  -12.42200 17.46200 41.44700
C  -11.70600 18.34800 40.70800
C  -12.51900 19.44600 40.29600
C  -13.82600 19.19600 40.74900
C  -13.74600 17.88600 41.45900
C  -11.96700 20.63600 39.54700
C  -14.98300 20.12800 40.57400
O  -14.86800 21.18500 39.91500
C  -16.30400 19.88700 41.19700
N  -13.76700 15.02400 42.58800
C  -14.80900 15.79600 42.35100
C  -16.17800 15.07500 42.65600
C  -15.67500 13.66400 43.13200
C  -14.18200 13.69400 42.97800
C  -17.21700 15.66700 43.61500
C  -16.31900 12.47600 42.27900
C  -16.41700 11.10000 42.93400
N  -11.18300 13.54900 42.53400
C  -11.90900 12.48500 42.96200
C  -10.93400 11.39600 43.16600
C  -9.71700 11.80000 42.61700
C  -9.91500 13.15000 42.27400
C  -11.22600 10.02300 43.69000
C  -8.34100 11.45200 42.25800
O  -7.72300 10.40600 42.32700
C  -7.64700 12.70500 41.72900
C  -6.62300 13.10100 42.72100
O  -6.71500 13.42900 43.90000
O  -5.41600 12.86500 42.11700
C  -4.23300 13.43200 42.73900
H  -9.83500 19.03300 40.04500
H  -15.83500 17.33400 41.72600
H  -13.79200 11.69100 43.58500
H  -6.72500 15.69200 41.26200
H  -7.85900 17.68200 39.34400
H  -6.18700 18.08900 41.25900
H  -7.64700 18.24500 42.29600
H  -7.41600 19.34500 40.90700
H  -7.45500 15.57600 38.27000
H  -7.49200 14.19200 39.14000
H  -5.27500 13.89200 38.90000
H  -4.92900 15.38300 39.76900
H  -12.56600 20.83900 38.65900
H  -11.03000 20.31900 39.09000
H  -11.72500 21.51500 40.14400
H  -17.00600 20.70200 41.02400
H  -16.07500 19.74600 42.25300
H  -16.75700 18.99700 40.76000
H  -16.59000 14.97500 41.65200
H  -15.92200 13.47600 44.17700
H  -17.57000 15.00900 44.40900
H  -18.07900 15.94800 43.00900
H  -16.80200 16.57500 44.05100
H  -15.75900 12.29700 41.36100
H  -17.37300 12.66700 42.07700
H  -17.23100 10.57400 42.43600
H  -16.60500 11.29400 43.99000
H  -15.51200 10.52300 42.74400
H  -11.89500 10.01100 44.55000
H  -10.37100 9.49200 44.10900
H  -11.73200 9.47700 42.89400
H  -7.17200 12.51500 40.76700
H  -3.46300 13.43700 41.96800
H  -3.86500 12.81200 43.55700
H  -4.41700 14.43300 43.13000

