158

Mg 47.27600 16.04000 28.47200
C  45.18000 15.61300 31.19100
C  49.56800 17.71100 30.57300
C  49.03200 16.89100 25.79700
C  44.62300 14.92700 26.45200
N  47.37100 16.50000 30.63700
C  46.35700 16.23300 31.53600
C  46.85700 16.66800 32.95300
C  48.22100 17.50500 32.72700
C  48.38600 17.19900 31.20800
C  47.94500 19.00900 33.06400
C  47.06700 15.48400 33.97700
C  46.49400 15.65300 35.36000
H  46.16900 17.07700 35.87600
N  49.13600 16.88300 28.24800
C  49.89300 17.58200 29.17300
C  51.11700 18.06200 28.55900
C  51.05000 17.77200 27.22700
C  49.73800 17.12600 27.03300
C  52.16000 18.69400 29.30800
C  52.06000 18.01400 26.13900
O  51.93000 17.60900 25.02200
C  53.24500 18.90400 26.34200
N  46.89500 15.97900 26.46000
C  47.79200 16.33200 25.49500
C  47.18900 16.06200 24.06700
C  46.03800 15.15500 24.32900
C  45.81700 15.32800 25.84000
C  46.72600 17.34600 23.34300
C  46.35600 13.63300 24.09700
C  45.18300 12.92200 23.50500
N  45.31700 15.42700 28.66200
C  44.37300 15.02500 27.79900
C  43.28300 14.47300 28.54500
C  43.51800 14.63000 29.87000
C  44.76200 15.29400 29.88500
C  42.07400 13.81100 28.01300
C  43.05400 14.47000 31.26600
O  42.11100 13.92400 31.78300
C  44.04800 15.23600 32.13400
C  43.22900 16.31000 32.77100
O  42.80600 17.39000 32.25400
O  42.80900 15.96200 33.98900
C  41.75600 16.74800 34.64100
H  50.26700 18.20200 31.25500
H  49.65700 17.25900 24.98200
H  43.88900 14.42500 25.81800
H  46.01000 17.27600 33.27400
H  49.09300 17.21200 33.31300
H  47.98200 19.55200 32.12000
H  48.82600 19.26400 33.65400
H  47.06200 19.16700 33.68300
H  48.12700 15.27100 34.11600
H  46.65400 14.58100 33.52800
H  47.26900 15.30400 36.04200
H  45.78500 14.83300 35.48100
H  53.10200 18.19200 29.08900
H  51.95700 18.46600 30.35500
H  52.32100 19.76800 29.21300
H  52.83300 19.88900 26.55900
H  53.87200 19.00600 25.45600
H  53.73700 18.46800 27.21100
H  47.96500 15.49100 23.55600
H  45.11300 15.49000 23.85900
H  47.43200 18.14200 23.58000
H  45.67000 17.54100 23.53000
H  46.85400 17.26000 22.26400
H  46.49500 13.21600 25.09500
H  47.23200 13.40100 23.49300
H  44.78100 12.33900 24.33400
H  45.59700 12.24100 22.76200
H  44.40200 13.51500 23.02800
H  41.66800 14.32000 27.13900
H  41.24500 13.82900 28.72000
H  42.23300 12.74800 27.83300
H  44.45400 14.49500 32.82400
H  40.87200 17.07700 34.09400
H  42.25500 17.61400 35.07700
H  41.42500 16.07900 35.43500
Mg 48.72600 44.99500 42.27400
C  45.67400 45.46400 40.82000
C  48.55100 41.68000 41.35700
C  52.02300 44.75000 42.98400
C  48.99700 48.60500 42.53500
N  47.24600 43.72300 41.31900
C  46.05000 44.12000 40.82200
C  45.34600 42.99400 40.11000
C  46.21700 41.73200 40.42100
C  47.37800 42.42100 41.14500
C  45.52300 40.81300 41.45100
C  45.04100 43.09600 38.56700
C  43.70000 42.48900 37.99300
H  43.54900 41.96300 36.56900
N  50.11300 43.42700 42.22600
C  49.81100 42.14400 41.86500
C  51.06400 41.40300 41.94900
C  52.09100 42.22700 42.49200
C  51.46800 43.51600 42.63600
C  51.14000 39.99500 41.47900
C  53.51800 41.82300 42.76200
O  53.90600 40.66700 42.54800
C  54.48300 42.78900 43.32100
N  50.29500 46.52400 42.72000
C  51.55700 46.09500 42.94000
C  52.48300 47.32200 43.28900
C  51.40200 48.45300 43.30900
C  50.16700 47.83500 42.80700
C  53.30900 47.23500 44.61000
C  51.89000 49.75500 42.71100
C  51.62600 50.99100 43.54400
N  47.58100 46.73000 41.82900
C  47.74800 48.08200 42.11400
C  46.46400 48.72800 41.95000
C  45.69200 47.73800 41.31800
C  46.34900 46.53600 41.36300
C  46.09100 50.10200 42.12700
C  44.42800 47.47800 40.60400
O  43.50500 48.25100 40.46700
C  44.41500 45.97300 40.20900
C  43.17200 45.46300 40.77400
O  42.18600 45.09900 40.17000
O  43.17400 45.55500 42.14500
C  41.92300 45.79600 42.87100
H  48.45200 40.62500 41.09400
H  53.09100 44.78600 43.21100
H  49.01000 49.68400 42.70600
H  44.45100 42.87600 40.72100
H  46.46800 41.17500 39.51900
H  46.02500 39.87100 41.67300
H  44.61400 40.46700 40.95900
H  45.24800 41.29900 42.38700
H  45.78300 42.55900 37.97700
H  45.06400 44.09100 38.12300
H  42.91400 43.22400 38.17200
H  43.45500 41.65300 38.64800
H  52.07800 39.65500 41.04000
H  50.37400 39.63800 40.79200
H  50.90200 39.45000 42.39300
H  54.74600 43.67200 42.73900
H  55.45900 42.30900 43.39800
H  54.19100 43.04300 44.34000
H  53.13800 47.48400 42.43200
H  51.03800 48.67800 44.31100
H  54.19700 47.84900 44.45800
H  53.65500 46.25300 44.93300
H  52.84900 47.79000 45.42700
H  51.56400 49.97300 41.69400
H  52.97500 49.70300 42.61500
H  52.02300 50.94100 44.55800
H  50.59700 51.34100 43.62000
H  52.16200 51.80300 43.05400
H  45.58800 50.23900 43.08400
H  45.45700 50.33100 41.27000
H  46.99400 50.71100 42.09100
H  44.29800 45.94500 39.12600
H  42.13500 45.85000 43.93900
H  41.08200 45.11900 42.72300
H  41.68800 46.84800 42.70800

