158

Mg 52.73100 24.35600 44.48100
C  49.83200 26.34000 44.07700
C  51.03800 21.52200 43.73300
C  55.67200 22.63100 44.54900
C  54.39500 27.29200 45.61700
N  50.72700 23.96200 43.76900
C  49.69800 24.92500 43.79100
C  48.36300 24.23000 43.58300
C  48.71500 22.73000 43.78400
C  50.27500 22.67600 43.76100
C  48.16000 22.08000 44.98400
C  47.72100 24.57000 42.18300
C  48.46200 24.00800 40.94500
H  48.35700 24.73000 39.53800
N  53.28600 22.32000 44.00500
C  52.42400 21.31200 43.81200
C  53.18900 20.12600 43.55800
C  54.56300 20.45700 43.62500
C  54.58200 21.81700 44.11200
C  52.47300 18.78700 43.24600
C  55.71400 19.46100 43.52000
O  55.56100 18.26600 43.31700
C  57.17400 19.85300 43.60000
N  54.77300 24.84600 44.83500
C  55.77700 23.98900 44.91500
C  57.05700 24.56200 45.49900
C  56.70200 26.11100 45.81400
C  55.19500 26.07400 45.42000
C  57.76700 23.83500 46.70900
C  57.48600 27.28300 45.06100
C  57.99600 28.37100 45.91800
N  52.24600 26.45700 44.74000
C  53.04000 27.53400 45.24000
C  52.21100 28.76500 45.26200
C  50.94100 28.33300 44.77800
C  51.03200 26.90600 44.52700
C  52.59200 30.14200 45.80500
C  49.61800 28.75300 44.54600
O  49.08200 29.86700 44.65000
C  48.84300 27.47800 43.99700
C  48.46700 27.82400 42.61900
O  49.23500 27.93400 41.70400
O  47.13100 28.18500 42.67200
C  46.51000 28.72500 41.47600
H  50.47300 20.58700 43.72300
H  56.67000 22.18700 44.55200
H  54.84100 28.20400 46.01900
H  47.59700 24.50200 44.30900
H  48.41400 22.21700 42.87100
H  48.96100 21.86600 45.69000
H  47.67600 21.12500 44.77900
H  47.38300 22.68500 45.45200
H  47.50200 25.63200 42.07300
H  46.82500 23.95100 42.22200
H  48.08800 22.99800 40.78000
H  49.50200 24.02200 41.27300
H  52.87000 18.15700 42.45000
H  51.41400 18.82500 42.99100
H  52.48300 18.14200 44.12500
H  57.90600 19.13200 43.23500
H  57.37300 19.95300 44.66700
H  57.25200 20.81800 43.10000
H  57.81100 24.62500 44.71500
H  56.80300 26.17400 46.89800
H  57.16600 23.03900 47.14900
H  58.11500 24.49900 47.50000
H  58.67200 23.41500 46.27000
H  56.85600 27.72400 44.28900
H  58.33200 26.82800 44.54600
H  57.23100 28.67300 46.63400
H  58.36100 29.26100 45.40500
H  58.83600 27.93800 46.46100
H  53.63800 30.17200 46.11000
H  52.06200 30.19000 46.75600
H  52.47100 30.92200 45.05300
H  47.93600 27.26800 44.56500
H  47.05900 29.64000 41.25200
H  45.44100 28.86900 41.62800
H  46.52300 27.99500 40.66600
Mg 47.23500 25.27000 28.52400
C  47.43800 27.62100 31.19200
C  46.00000 23.01700 30.73600
C  47.50600 22.87500 26.13500
C  48.88400 27.49200 26.45000
N  46.89800 25.39300 30.74400
C  46.92500 26.42000 31.65000
C  46.41300 25.99300 33.02300
C  46.28500 24.38600 32.86400
C  46.41800 24.27500 31.32600
C  47.36100 23.51700 33.57800
C  45.05500 26.74400 33.34200
C  45.00600 27.37000 34.76300
H  43.96300 26.86100 35.78000
N  46.63300 23.28200 28.38200
C  46.07500 22.51600 29.42400
C  45.68700 21.22700 28.89800
C  46.11400 21.23500 27.50000
C  46.80200 22.50300 27.29300
C  44.97100 20.12500 29.73400
C  45.93200 20.16700 26.38500
O  46.38900 20.21500 25.26300
C  44.99800 19.04900 26.60900
N  48.25500 25.08900 26.66500
C  48.13500 24.10500 25.80000
C  48.69400 24.40700 24.38500
C  49.01000 25.87300 24.50600
C  48.69500 26.22100 25.99900
C  49.87000 23.46100 23.96900
C  48.18700 26.76300 23.54000
C  46.66900 26.87800 23.79200
N  48.02900 27.16600 28.68200
C  48.57200 27.98600 27.75300
C  48.59300 29.36300 28.31100
C  48.23200 29.26000 29.66100
C  47.88900 27.86700 29.83100
C  49.16700 30.56800 27.62200
C  48.03700 29.97800 30.91100
O  48.24700 31.16600 31.15900
C  47.54100 28.89600 31.92400
C  48.58400 28.79300 32.94700
O  49.65000 28.21500 32.82100
O  48.24400 29.32700 34.21900
C  49.09800 29.00500 35.35000
H  45.63000 22.25100 31.42100
H  47.74600 22.04800 25.46500
H  49.18100 28.30600 25.78600
H  47.17200 26.31200 33.73700
H  45.27700 24.12000 33.18200
H  47.94700 23.05400 32.78300
H  46.80100 22.79000 34.16500
H  48.03200 24.03800 34.26100
H  44.20100 26.06700 33.32300
H  44.83200 27.50300 32.59200
H  44.66300 28.40000 34.66200
H  46.00600 27.43900 35.19300
H  45.71700 19.35400 29.92600
H  44.03800 19.83500 29.25100
H  44.66000 20.44400 30.72900
H  45.12800 18.45200 27.51200
H  45.08700 18.52700 25.65700
H  43.94600 19.31700 26.71000
H  47.93100 24.19200 23.63600
H  50.08200 26.01900 24.37600
H  49.91100 22.62800 24.67100
H  50.88900 23.84300 24.00900
H  49.69100 23.07600 22.96500
H  48.35400 26.24200 22.59700
H  48.56200 27.78500 23.59400
H  46.09400 26.69800 22.88300
H  46.35100 27.90700 23.96200
H  46.39900 26.17100 24.57600
H  50.02600 30.15800 27.09100
H  49.55000 31.25300 28.37900
H  48.42500 30.99500 26.94800
H  46.56800 29.20500 32.30600
H  50.11200 28.76000 35.03400
H  48.67200 28.13900 35.85600
H  49.09700 29.86700 36.01700

