158

Mg 47.74100 16.81900 29.02000
C  45.85200 16.45500 31.90400
C  50.21700 18.37300 30.98000
C  49.54500 17.36700 26.25100
C  45.14800 15.56600 27.14600
N  47.98300 17.33500 31.17800
C  47.12300 17.07600 32.15300
C  47.71600 17.44000 33.53300
C  48.94200 18.43100 33.16600
C  49.06600 18.02800 31.66100
C  48.66000 19.94100 33.40500
C  48.05400 16.22200 34.43400
C  47.53000 16.28300 35.86500
H  47.48900 17.69300 36.49900
N  49.62700 17.71700 28.67300
C  50.57700 18.16800 29.57000
C  51.81400 18.58200 28.87900
C  51.42300 18.40700 27.47100
C  50.15000 17.77200 27.41600
C  53.10700 18.98200 29.61500
C  52.29400 18.82300 26.35900
O  52.00100 18.81800 25.17800
C  53.68200 19.37500 26.62600
N  47.39500 16.50900 27.06600
C  48.27000 16.80100 26.06500
C  47.73300 16.60800 24.62100
C  46.56700 15.66600 24.96800
C  46.30300 15.92400 26.47500
C  47.33900 17.91000 23.99100
C  46.74500 14.19100 24.73600
C  45.76800 13.51400 23.77100
N  45.84100 16.20100 29.42800
C  44.89000 15.69100 28.55700
C  43.69300 15.30000 29.30900
C  44.04900 15.50300 30.68700
C  45.32400 16.14800 30.65400
C  42.49300 14.75700 28.73600
C  43.60000 15.39500 32.08800
O  42.63600 14.82100 32.59800
C  44.76800 16.02000 32.88500
C  44.18900 17.00800 33.87200
O  43.81200 18.10200 33.44400
O  44.06100 16.54000 35.14400
C  43.10000 17.24600 36.05200
H  50.84500 18.93800 31.67200
H  50.04000 17.64800 25.31900
H  44.39500 15.12000 26.49200
H  47.00400 18.07100 34.06500
H  49.87600 18.09200 33.61300
H  48.60500 20.41300 32.42400
H  49.56600 20.35200 33.85000
H  47.78300 20.15700 34.01600
H  49.08300 15.86400 34.39100
H  47.52100 15.39000 33.97400
H  48.21700 15.68700 36.46500
H  46.51500 15.89000 35.79300
H  53.85600 18.23600 29.35000
H  52.95300 19.00100 30.69400
H  53.44800 19.97800 29.33200
H  53.65400 20.29700 27.20700
H  53.98000 19.70300 25.63000
H  54.43500 18.65000 26.93500
H  48.51400 16.03000 24.12700
H  45.67700 16.00300 24.43700
H  47.72700 17.94300 22.97300
H  47.83000 18.67700 24.59100
H  46.26600 18.09100 23.92000
H  46.71500 13.66300 25.68900
H  47.72500 14.07100 24.27600
H  46.31300 13.29100 22.85300
H  44.96300 14.20700 23.53000
H  45.32700 12.57500 24.10600
H  41.62100 15.21700 29.20100
H  42.56300 13.67000 28.78500
H  42.60100 15.12600 27.71700
H  45.00800 15.17500 33.53000
H  42.28100 17.70400 35.49700
H  43.72200 18.03500 36.47400
H  42.79100 16.58100 36.85800
Mg 1.46200 42.59100 25.78200
C  2.98200 42.76100 29.02200
C  -1.42700 41.61200 27.35300
C  0.22500 41.86800 22.83800
C  4.49300 43.40300 24.40100
N  0.85000 42.31900 28.00500
C  1.58900 42.54000 29.15300
C  0.76200 42.33100 30.42800
C  -0.65700 41.74100 29.85400
C  -0.39800 41.87200 28.31700
C  -1.04400 40.27200 30.28000
C  0.51700 43.60300 31.22700
C  0.83300 43.47100 32.67900
H  0.58700 42.21000 33.51800
N  -0.36100 41.87600 25.21100
C  -1.43600 41.62600 25.94600
C  -2.59500 41.31200 25.10600
C  -2.10300 41.21800 23.81400
C  -0.69800 41.72200 23.87500
C  -4.02900 41.06100 25.68400
C  -2.70200 40.69600 22.58000
O  -2.27900 40.63200 21.44500
C  -4.14900 40.26800 22.77300
N  2.30800 42.49700 23.90800
C  1.53600 42.23300 22.77300
C  2.35100 42.62100 21.45700
C  3.57300 43.37400 22.05600
C  3.48100 43.03900 23.53900
C  2.67800 41.39300 20.60300
C  3.37600 44.86300 21.66400
C  2.17200 45.57300 22.29500
N  3.36000 42.87800 26.51900
C  4.52600 43.27800 25.87000
C  5.61900 43.56600 26.79100
C  4.98000 43.31900 28.01100
C  3.68900 42.94900 27.81400
C  7.04700 43.65900 26.53600
C  5.23900 43.31600 29.41100
O  6.28000 43.58400 30.00500
C  3.94600 42.89800 30.17400
C  4.24500 41.64700 30.97600
O  4.10600 40.45100 30.62200
O  4.93800 41.96600 32.11400
C  5.68200 40.91100 32.73900
H  -2.41900 41.42500 27.77000
H  -0.24300 41.82900 21.85200
H  5.37000 43.75300 23.85100
H  1.32900 41.56100 30.95100
H  -1.52400 42.36500 30.07600
H  -1.38100 39.63200 29.46400
H  -1.82000 40.24700 31.04500
H  -0.10800 39.79400 30.56900
H  -0.52800 43.85800 31.05200
H  1.17700 44.39000 30.86100
H  0.46700 44.32600 33.24900
H  1.92100 43.49200 32.62200
H  -4.87700 41.52900 25.18400
H  -4.16300 41.56400 26.64100
H  -4.29700 40.04000 25.95800
H  -4.33700 39.67600 23.66800
H  -4.37300 39.69000 21.87600
H  -4.74500 41.18000 22.81600
H  1.83600 43.27900 20.75700
H  4.47800 42.96100 21.61000
H  2.28200 40.56100 21.18600
H  3.75800 41.36900 20.45700
H  2.08900 41.48500 19.69000
H  3.23600 44.87900 20.58300
H  4.27300 45.46800 21.79400
H  2.59300 46.31700 22.97100
H  1.58700 44.92000 22.94300
H  1.51200 46.10300 21.60800
H  7.42700 44.63500 26.23300
H  7.13500 42.93100 25.73000
H  7.47200 43.25200 27.45400
H  3.74100 43.76900 30.79700
H  6.55000 40.66500 32.12700
H  5.05900 40.01700 32.75900
H  5.84800 41.19400 33.77800

