158

Mg 1.90200 -1.29400 44.61200
C  5.35900 -0.61700 44.11600
C  1.18600 1.77100 43.01000
C  -1.17600 -2.24400 44.42000
C  2.90700 -4.51700 45.82100
N  3.14600 0.29800 43.61400
C  4.53000 0.38300 43.60400
C  4.97300 1.67900 42.79800
C  3.74300 2.64200 42.87500
C  2.60800 1.53500 43.18600
C  3.76300 3.73900 44.04500
C  5.49500 1.42400 41.39400
C  6.70600 2.15600 40.89100
H  6.67000 3.21800 39.71600
N  0.24100 -0.35500 43.90400
C  0.14300 0.85400 43.26300
C  -1.17000 1.11800 42.91300
C  -1.96300 0.05800 43.42200
C  -0.97000 -0.91400 43.98600
C  -1.55600 2.35900 42.27200
C  -3.46100 -0.08100 43.36100
O  -4.16400 0.76000 42.81700
C  -4.20700 -1.13100 44.12800
N  1.02400 -3.14900 44.99100
C  -0.34400 -3.22300 44.89300
C  -0.82700 -4.59500 45.37200
C  0.40600 -5.22600 46.04700
C  1.54400 -4.27400 45.66800
C  -2.07000 -4.45700 46.28200
C  0.63200 -6.82100 45.69100
C  1.01100 -7.71800 46.88200
N  3.70100 -2.38800 44.91300
C  3.96900 -3.61200 45.48900
C  5.39700 -3.85600 45.54900
C  5.98900 -2.65500 45.06800
C  4.87600 -1.78800 44.70300
C  6.04700 -5.15000 45.80900
C  7.27000 -1.93500 44.82800
O  8.46900 -2.17700 45.04800
C  6.85700 -0.59100 44.12600
C  7.32100 0.51500 44.92800
O  7.06300 0.82800 46.09200
O  8.04400 1.32400 44.08900
C  8.25600 2.66600 44.63800
H  0.95900 2.79600 42.71300
H  -2.23500 -2.51100 44.39000
H  3.11800 -5.43800 46.36800
H  5.69800 2.22400 43.40200
H  3.45000 3.02600 41.89800
H  3.41000 3.35700 45.00300
H  3.06600 4.54500 43.82000
H  4.78600 4.10100 44.15500
H  4.79100 1.72500 40.61800
H  5.76500 0.38700 41.19000
H  7.46700 1.46600 40.52700
H  7.07700 2.64500 41.79200
H  -2.56400 2.54000 42.64400
H  -1.60000 2.39000 41.18300
H  -0.99800 3.21800 42.64600
H  -5.26600 -0.88800 44.21600
H  -3.76100 -1.20100 45.12000
H  -4.00800 -2.09200 43.65300
H  -1.03200 -5.10000 44.42800
H  0.38300 -5.04600 47.12100
H  -2.16800 -5.40200 46.81600
H  -2.84700 -4.16600 45.57500
H  -2.19000 -3.73500 47.08900
H  1.31100 -6.85300 44.83900
H  -0.30700 -7.16700 45.25800
H  1.86800 -8.36600 46.70100
H  0.16800 -8.38500 47.06300
H  1.05300 -7.15000 47.81200
H  5.56700 -5.96200 45.26200
H  5.84800 -5.32400 46.86600
H  7.12400 -5.22600 45.66000
H  7.21400 -0.59200 43.09600
H  7.31300 3.21300 44.63200
H  8.95900 3.14600 43.95700
H  8.67200 2.58600 45.64300
Mg 35.40100 2.44100 30.31900
C  32.74000 3.17400 32.46800
C  37.62800 2.53600 32.90900
C  37.95500 1.97500 28.10300
C  33.19200 2.70600 27.64800
N  35.19900 2.75600 32.39500
C  33.96800 2.98700 33.10500
C  34.24900 3.10700 34.63700
C  35.77400 3.19300 34.68400
C  36.26600 2.74100 33.24200
C  36.37000 4.55800 35.20800
C  33.70300 1.92500 35.50200
C  33.16400 2.19000 36.91800
H  33.91600 3.23100 37.82500
N  37.49100 2.10300 30.53000
C  38.17900 2.20300 31.70500
C  39.52500 1.73400 31.42100
C  39.65400 1.40200 30.09200
C  38.37400 1.85800 29.48800
C  40.64100 1.58100 32.42900
C  40.74200 0.76000 29.29600
O  40.63400 0.61200 28.05700
C  41.97800 0.23100 29.86100
N  35.59200 2.59200 28.16400
C  36.72400 2.32600 27.54300
C  36.55300 2.28200 26.00500
C  34.96300 2.42600 25.87000
C  34.54400 2.61000 27.30700
C  37.40500 3.44000 25.34200
C  34.22900 1.19000 25.31600
C  32.92800 1.32200 24.44300
N  33.37800 2.78400 30.06400
C  32.58300 2.82600 28.85500
C  31.20300 3.05000 29.24200
C  31.21400 3.35400 30.62500
C  32.56500 3.12100 31.09500
C  30.16200 3.23600 28.28200
C  30.43600 3.78000 31.77400
O  29.27900 4.20700 31.89700
C  31.42700 3.62100 32.98500
C  31.63700 4.94300 33.64200
O  32.00400 6.03100 33.14200
O  31.48900 4.78000 34.95000
C  31.61300 5.94900 35.91100
H  38.21100 2.58800 33.83100
H  38.73900 1.74000 27.38000
H  32.51000 2.78300 26.79800
H  33.83600 4.01500 35.07700
H  36.28600 2.37500 35.19100
H  35.75000 5.15800 35.87400
H  36.50300 5.20200 34.33800
H  37.33400 4.34500 35.67000
H  34.48100 1.16200 35.51800
H  32.83100 1.54900 34.96600
H  33.35300 1.21700 37.37200
H  32.08400 2.33200 36.92300
H  41.55600 1.81200 31.88300
H  40.63300 0.53800 32.74500
H  40.68100 2.23600 33.30000
H  42.50500 -0.40400 29.14900
H  41.70700 -0.29500 30.77700
H  42.60800 1.09100 30.08600
H  36.90500 1.38700 25.49200
H  34.70100 3.24300 25.19700
H  36.82100 3.92400 24.55900
H  38.32400 3.09200 24.86900
H  37.67200 4.19600 26.08100
H  33.89800 0.61000 26.17700
H  34.91200 0.57400 24.73100
H  32.68500 2.33000 24.10700
H  32.05800 0.95000 24.98500
H  33.16300 0.72600 23.56200
H  30.44500 3.53500 27.27300
H  29.41200 3.93700 28.64900
H  29.69200 2.26300 28.14300
H  30.89200 3.03000 33.72800
H  30.93100 5.90500 36.76000
H  31.36500 6.88600 35.41200
H  32.64100 5.99700 36.27000

