158

Mg -1.67600 17.76500 27.94000
C  -2.00100 15.62700 30.64300
C  -2.19900 20.44600 30.05900
C  -1.26900 19.89000 25.34700
C  -1.47000 15.03900 25.82200
N  -2.10100 17.96200 30.08500
C  -2.15600 16.94200 30.98700
C  -2.52800 17.41800 32.42500
C  -2.57100 18.97900 32.18500
C  -2.37800 19.15100 30.62400
C  -3.84600 19.66400 32.76900
C  -1.57300 17.01100 33.65800
C  -1.53800 17.82700 34.99300
H  -0.39000 17.40800 35.99000
N  -1.77000 19.86100 27.63600
C  -1.91700 20.78300 28.72300
C  -1.84300 22.09600 28.19400
C  -1.75000 21.98800 26.78400
C  -1.57600 20.54300 26.51800
C  -2.09800 23.36400 29.01500
C  -1.81800 23.10000 25.70500
O  -1.64000 22.87900 24.47500
C  -2.13800 24.51600 26.19600
N  -1.42500 17.48800 25.87000
C  -1.33900 18.51300 24.97100
C  -1.20200 17.96600 23.53300
C  -0.98600 16.39800 23.75100
C  -1.30100 16.26100 25.21800
C  -2.46400 18.41900 22.70500
C  0.27800 15.72200 23.29900
C  1.49500 15.85100 24.22500
N  -1.83200 15.77500 28.14300
C  -1.68300 14.77600 27.17900
C  -1.66900 13.58900 27.86300
C  -1.74200 13.81800 29.22100
C  -1.88400 15.20100 29.33000
C  -1.42500 12.27600 27.24800
C  -1.78900 13.19100 30.55200
O  -1.72400 11.97900 30.91200
C  -2.00400 14.37200 31.52100
C  -0.80200 14.30200 32.45600
O  0.27800 14.75100 32.25400
O  -1.29100 13.58900 33.57600
C  -0.23800 13.08700 34.54100
H  -2.46900 21.21300 30.78800
H  -1.00700 20.45700 24.45100
H  -1.27600 14.18900 25.16500
H  -3.52900 17.06200 32.67000
H  -1.69400 19.34300 32.71900
H  -3.72800 20.63700 33.24700
H  -4.43800 18.97900 33.37500
H  -4.47100 19.84200 31.89400
H  -0.58200 16.92900 33.21000
H  -1.76400 16.03600 34.10700
H  -2.40400 17.42300 35.51600
H  -1.76900 18.89200 35.01200
H  -2.33800 23.08800 30.04100
H  -2.92300 23.89500 28.54000
H  -1.20200 23.98400 28.99400
H  -3.18500 24.47300 26.49400
H  -2.13400 25.22800 25.37100
H  -1.36600 24.88300 26.87300
H  -0.35300 18.33800 22.96100
H  -1.71900 15.83900 23.16900
H  -2.94800 19.27900 23.16900
H  -3.17100 17.58900 22.70200
H  -2.07000 18.64800 21.71500
H  0.49000 15.98300 22.26200
H  -0.00800 14.68100 23.15100
H  1.38900 16.21200 25.24800
H  1.98200 16.62400 23.63200
H  2.15800 14.99100 24.12300
H  -0.73400 12.31600 26.40500
H  -2.41700 12.02300 26.87400
H  -1.01500 11.53700 27.93600
H  -2.98000 14.33500 32.00400
H  -0.24800 11.99800 34.51500
H  -0.49300 13.37900 35.56000
H  0.71700 13.57100 34.33600
Mg 0.13800 43.68700 25.52500
C  2.21900 43.44500 28.32500
C  -2.49200 43.13700 27.72300
C  -1.76000 43.17900 22.80300
C  3.09900 43.91200 23.50700
N  -0.15300 43.51300 27.74100
C  0.87700 43.36200 28.63900
C  0.30700 43.48000 30.09700
C  -1.26600 43.31400 29.90000
C  -1.28800 43.19800 28.34300
C  -1.86500 42.03000 30.63600
C  0.73900 44.81100 30.75700
C  0.88400 44.70500 32.27000
H  0.44000 43.45800 33.11500
N  -1.87300 43.29500 25.32200
C  -2.81500 43.17900 26.31700
C  -4.18600 43.10200 25.69900
C  -3.92400 42.83900 24.33300
C  -2.50400 43.18000 24.05800
C  -5.45900 43.07900 26.61000
C  -4.97200 42.56600 23.22600
O  -4.63600 42.20700 22.06000
C  -6.43800 42.63400 23.59100
N  0.60100 43.31500 23.38400
C  -0.37600 43.24100 22.46000
C  0.24300 43.39300 21.06900
C  1.57500 44.19100 21.39500
C  1.81200 43.77700 22.88500
C  0.44700 41.98600 20.33300
C  1.72000 45.73000 21.20400
C  2.54500 46.20500 19.90700
N  2.24700 43.73100 25.86500
C  3.32300 43.84200 24.93300
C  4.55200 43.90500 25.61600
C  4.20100 43.73000 26.96600
C  2.82200 43.62400 27.02000
C  5.86800 44.12600 24.99700
C  4.75600 43.55900 28.28300
O  5.88800 43.47000 28.71000
C  3.49600 43.58000 29.20700
C  3.66100 42.52800 30.22600
O  3.51800 41.30800 30.16400
O  4.13000 43.12200 31.36200
C  4.49900 42.27800 32.43800
H  -3.40100 42.98400 28.31000
H  -2.44200 43.24200 21.95300
H  3.96500 44.12200 22.87600
H  0.66400 42.62900 30.67600
H  -1.85000 44.19900 30.15000
H  -2.56000 41.57200 29.93300
H  -2.45700 42.55000 31.38900
H  -1.10100 41.33200 30.98000
H  0.01700 45.61500 30.61300
H  1.68300 45.11300 30.30400
H  0.37100 45.55800 32.71300
H  1.91900 44.89600 32.55400
H  -6.27100 43.49100 26.01000
H  -5.40400 43.63400 27.54700
H  -5.66800 42.02700 26.80400
H  -7.05800 42.37000 22.73400
H  -6.59100 43.68900 23.81400
H  -6.52300 41.87800 24.37200
H  -0.28200 44.14400 20.47900
H  2.37100 43.72000 20.81700
H  1.46000 41.61200 20.18400
H  -0.01100 42.08200 19.34900
H  -0.18100 41.19600 20.74600
H  2.13100 46.20700 22.09300
H  0.77100 46.26400 21.15200
H  3.33000 46.87900 20.24800
H  1.92100 46.69300 19.15700
H  3.07900 45.44200 19.34200
H  5.79400 43.97900 23.91900
H  6.50400 43.38200 25.47700
H  6.13300 45.16500 25.19200
H  3.62000 44.54200 29.70400
H  4.37900 42.92200 33.30900
H  5.55600 42.01500 32.39600
H  3.83300 41.44200 32.65100

