158

Mg 0.84200 8.44800 26.15900
C  1.81500 9.99900 29.20600
C  0.84000 5.47500 27.91900
C  0.19800 6.78000 23.24800
C  1.26900 11.31900 24.49100
N  1.35100 7.81900 28.32500
C  1.60300 8.63200 29.41200
C  1.58800 7.83900 30.71500
C  1.37000 6.36500 30.34700
C  1.14500 6.53400 28.80400
C  2.45800 5.37500 30.66600
C  0.60900 8.34500 31.79500
C  1.14400 8.36900 33.26000
H  2.37900 7.57700 33.61400
N  0.42600 6.40300 25.70000
C  0.48500 5.33800 26.61400
C  0.12900 4.13300 25.91600
C  -0.04000 4.42100 24.51000
C  0.24200 5.94100 24.42200
C  0.10500 2.76700 26.57800
C  -0.13300 3.52500 23.32300
O  -0.01600 3.98300 22.18300
C  -0.34800 2.06400 23.48000
N  0.88200 8.92400 24.13100
C  0.45600 8.12600 23.15600
C  0.32900 8.89800 21.81300
C  0.69100 10.36900 22.22900
C  0.96800 10.23500 23.73500
C  1.24800 8.24300 20.72500
C  -0.27300 11.58800 21.88700
C  -1.08100 11.44200 20.56700
N  1.37200 10.28900 26.71900
C  1.53900 11.44000 25.88700
C  1.91100 12.59900 26.72300
C  2.05200 12.02000 28.00900
C  1.75300 10.65700 27.93800
C  2.05800 14.02300 26.26900
C  2.41100 12.36500 29.39200
O  2.67800 13.38100 30.00900
C  2.01300 11.09400 30.19600
C  3.11400 10.77300 31.15700
O  4.07100 10.06700 30.94400
O  2.91500 11.43400 32.34100
C  3.98100 11.61800 33.30600
H  0.92000 4.52900 28.45900
H  -0.08200 6.39400 22.26500
H  1.48300 12.22700 23.92300
H  2.63100 7.96900 31.00500
H  0.39300 6.01300 30.67900
H  2.75300 4.78800 29.79600
H  2.00400 4.64400 31.33500
H  3.36300 5.81000 31.08900
H  -0.29300 7.73500 31.84900
H  0.33600 9.38000 31.58700
H  0.37400 7.95300 33.91000
H  1.22000 9.39100 33.63100
H  1.09600 2.31600 26.53100
H  -0.61400 2.10100 26.10200
H  -0.30500 2.79100 27.58800
H  -0.33600 1.63300 22.48000
H  -1.31300 1.77300 23.89600
H  0.51700 1.75300 24.06500
H  -0.70400 8.78000 21.48600
H  1.70600 10.61200 21.91500
H  1.54200 9.08800 20.10100
H  0.69100 7.54700 20.09700
H  2.20000 7.84600 21.07800
H  0.34500 12.47100 21.72400
H  -0.95800 11.66700 22.73000
H  -0.69100 12.16600 19.85200
H  -2.14800 11.61000 20.71100
H  -0.98200 10.43500 20.16100
H  2.70500 14.70700 26.81800
H  1.06000 14.45800 26.20900
H  2.45400 13.92000 25.25900
H  1.14600 11.37500 30.79400
H  4.29800 12.66100 33.29900
H  4.85700 11.01400 33.07100
H  3.58700 11.37600 34.29400
Mg 27.02400 50.60100 26.40300
C  24.85200 51.32900 29.17000
C  29.21700 49.29500 28.63200
C  29.14400 50.14000 23.87200
C  24.46700 51.71000 24.23200
N  26.94300 50.19200 28.62800
C  25.92400 50.57500 29.53300
C  26.39100 50.26900 30.95500
C  27.87700 49.80900 30.75700
C  27.98800 49.64500 29.22800
C  28.98100 50.73400 31.38900
C  25.35100 49.27300 31.68200
C  24.49500 49.75600 32.86600
H  24.34200 48.74300 33.99700
N  28.92800 49.87400 26.24300
C  29.68700 49.38000 27.31800
C  30.99700 48.96500 26.88300
C  31.07700 49.33500 25.51400
C  29.70300 49.79700 25.13800
C  31.99400 48.13400 27.70200
C  32.20600 49.36100 24.55600
O  31.97900 49.67500 23.38000
C  33.63300 49.02600 25.05400
N  26.84900 50.86300 24.37500
C  27.84600 50.58100 23.57200
C  27.39100 50.81100 22.13100
C  25.83600 51.13100 22.22700
C  25.66800 51.13300 23.67400
C  28.33200 51.87000 21.43500
C  24.93800 50.04000 21.50000
C  23.51700 50.46600 21.09100
N  25.08700 51.35600 26.60500
C  24.20800 51.84000 25.64300
C  23.01700 52.39400 26.22700
C  23.36100 52.30100 27.60200
C  24.55400 51.60000 27.78500
C  21.79400 52.96200 25.60700
C  22.80200 52.62400 28.94000
O  21.86400 53.35200 29.25900
C  23.77300 51.89900 30.00000
C  24.24400 53.01100 30.86400
O  25.15500 53.76500 30.63100
O  23.59700 52.84600 32.05800
C  23.98400 53.94700 33.03000
H  30.06300 49.16800 29.31000
H  29.72200 49.90700 22.97500
H  23.69400 51.94100 23.49700
H  26.37100 51.19100 31.53600
H  27.95500 48.81300 31.19400
H  29.76800 50.08600 31.77600
H  28.51800 51.23700 32.23800
H  29.41000 51.40600 30.64500
H  26.01000 48.47400 32.02200
H  24.79100 48.73800 30.91500
H  23.48300 50.00400 32.54700
H  24.97800 50.65900 33.23800
H  32.73400 48.81200 28.12700
H  32.51200 47.34500 27.15700
H  31.43500 47.64400 28.50000
H  33.62900 47.96100 25.28200
H  33.80000 49.66800 25.91900
H  34.22500 49.28300 24.17500
H  27.54000 49.95300 21.47500
H  25.66200 52.12700 21.81800
H  27.81100 52.78000 21.13900
H  28.81500 51.45600 20.55000
H  29.19900 52.09000 22.05800
H  24.83000 49.28400 22.27700
H  25.52800 49.56500 20.71700
H  23.46600 51.49500 21.44700
H  22.75800 49.85300 21.57600
H  23.28000 50.52800 20.02900
H  21.80000 54.05100 25.55900
H  20.93400 52.63500 26.19200
H  21.72800 52.54700 24.60100
H  23.25500 51.10400 30.53700
H  23.94700 54.99900 32.74900
H  24.94500 53.68100 33.47100
H  23.16400 53.86100 33.74300

