158

Mg 49.81900 46.67600 42.41300
C  46.42800 47.04000 41.83000
C  49.67600 43.45600 41.15200
C  53.18200 46.40200 42.74100
C  50.03500 50.05900 43.13100
N  48.20800 45.41700 41.46800
C  46.90300 45.85100 41.26500
C  46.02600 44.74600 40.58400
C  47.11400 43.56600 40.52100
C  48.41300 44.18500 41.09000
C  46.67900 42.36400 41.28400
C  45.42900 45.19400 39.25400
C  43.95300 45.31600 39.26400
H  43.17800 45.01700 38.02700
N  51.27000 45.14100 42.16400
C  50.97900 43.89000 41.55900
C  52.20100 43.07500 41.50000
C  53.27900 43.87900 42.09000
C  52.61000 45.15200 42.34600
C  52.31400 41.67900 40.84400
C  54.75900 43.51300 42.24700
O  55.10000 42.36300 41.95900
C  55.75200 44.38000 43.00400
N  51.37700 48.06600 42.58400
C  52.67000 47.70000 42.86800
C  53.60100 48.90400 43.20900
C  52.58700 50.13500 43.14300
C  51.25500 49.39800 42.92300
C  54.17700 48.76300 44.64600
C  52.78200 51.05000 41.95200
C  52.41900 52.52400 42.16600
N  48.51000 48.21100 42.48500
C  48.71500 49.54200 42.99100
C  47.47000 50.21800 43.03800
C  46.49300 49.30600 42.69200
C  47.18700 48.13600 42.30000
C  47.27000 51.64100 43.50700
C  45.09200 49.16500 42.36800
O  44.20000 49.95000 42.44700
C  45.05000 47.66200 41.80300
C  44.09900 46.86700 42.68400
O  44.32300 46.21600 43.76700
O  42.88400 46.98700 42.09800
C  41.77600 46.39100 42.76000
H  49.72900 42.42400 40.79900
H  54.25000 46.41200 42.96500
H  50.08800 51.12400 43.36500
H  45.22000 44.55900 41.29400
H  47.33800 43.27300 39.49500
H  47.04300 41.52000 40.69900
H  45.60000 42.25300 41.18000
H  47.01300 42.26900 42.31800
H  45.84100 44.55600 38.47200
H  45.86900 46.18200 39.11700
H  43.75500 46.35600 39.52200
H  43.47000 44.65800 39.98600
H  52.52400 41.00400 41.67300
H  53.15900 41.63900 40.15800
H  51.51300 41.32800 40.19300
H  56.00800 45.23400 42.37600
H  56.65000 43.79200 43.19400
H  55.40400 44.86400 43.91600
H  54.42100 48.99400 42.49800
H  52.52800 50.68800 44.08000
H  54.47100 47.77500 45.00000
H  53.59500 49.30000 45.39600
H  55.15500 49.21800 44.48700
H  52.13000 50.68000 41.16100
H  53.80100 50.93300 41.58200
H  53.24900 53.19300 41.93800
H  52.35200 52.61200 43.25000
H  51.60500 52.85400 41.52000
H  47.71900 52.33200 42.79400
H  47.72900 51.75100 44.49000
H  46.21400 51.80700 43.71800
H  44.68100 47.67000 40.77800
H  40.92300 46.10100 42.14600
H  41.42800 47.13700 43.47500
H  41.99300 45.51800 43.37500
Mg 36.15100 48.78200 25.06500
C  36.28200 46.65600 27.85100
C  34.76600 51.20700 27.14600
C  35.38200 50.56600 22.25200
C  37.10600 46.04400 22.99700
N  35.37000 48.84700 27.25900
C  35.72400 47.86700 28.19400
C  35.51300 48.51700 29.61200
C  34.75000 49.86300 29.38400
C  34.99400 50.04500 27.89800
C  33.25800 49.82700 29.92900
C  36.87600 48.53100 30.35400
C  36.81600 48.79700 31.86400
H  35.44000 48.82900 32.62900
N  35.24700 50.63100 24.73700
C  34.85600 51.54400 25.72700
C  34.64200 52.81300 25.07700
C  34.71100 52.57900 23.69800
C  35.03400 51.20200 23.50600
C  34.41100 54.01500 25.88900
C  34.31300 53.57500 22.65300
O  34.11600 53.22500 21.44500
C  33.91800 54.99800 22.91100
N  36.08000 48.26400 23.00000
C  35.85800 49.28800 22.01900
C  36.25800 48.76000 20.58500
C  37.10000 47.47400 20.92000
C  36.79900 47.29600 22.39100
C  35.11400 48.47600 19.61700
C  38.61200 47.75400 20.93000
C  39.36000 47.50400 19.62000
N  36.61500 46.75200 25.28200
C  37.00900 45.73200 24.42000
C  37.25800 44.55300 25.16600
C  37.05900 44.87500 26.50500
C  36.52400 46.18600 26.49600
C  37.68400 43.17000 24.61400
C  37.04600 44.32800 27.77500
O  37.32300 43.21100 28.21600
C  36.69900 45.52200 28.78300
C  35.65900 45.02100 29.78200
O  34.49900 44.70600 29.57900
O  36.22600 44.94900 30.95600
C  35.22500 44.77700 32.06800
H  34.41100 51.96900 27.84200
H  35.24600 51.22100 21.38900
H  37.59200 45.31000 22.35200
H  34.81600 47.88400 30.16000
H  35.38900 50.61600 29.84500
H  32.48300 49.95300 29.17300
H  33.18700 50.68300 30.60000
H  33.04600 48.93300 30.51500
H  37.43300 49.39900 30.00200
H  37.55400 47.68500 30.24100
H  37.34200 49.70500 32.15800
H  37.24500 47.86200 32.22500
H  33.64600 54.66700 25.46800
H  35.25400 54.69000 25.74200
H  34.24300 53.82700 26.94900
H  32.94200 55.21700 23.34300
H  34.04300 55.41400 21.91100
H  34.69300 55.54800 23.44500
H  36.84400 49.54700 20.11200
H  36.93000 46.56700 20.34100
H  35.10300 47.40100 19.44100
H  35.40900 48.86500 18.64200
H  34.10700 48.77900 19.90400
H  39.14200 47.28200 21.75700
H  38.72000 48.82200 21.11900
H  38.78500 47.05600 18.81000
H  40.24800 46.90700 19.82400
H  39.62700 48.47300 19.19600
H  37.21900 43.08000 23.63200
H  37.29200 42.33700 25.19800
H  38.76300 43.04200 24.52800
H  37.62700 45.83200 29.26400
H  35.63700 45.34500 32.90200
H  35.00800 43.73400 32.30000
H  34.22400 45.13900 31.83200

