158

Mg 0.08100 8.11600 26.20900
C  1.21100 9.65500 29.16300
C  -0.23000 5.16900 27.92100
C  -0.52400 6.60700 23.30500
C  0.70900 11.20100 24.48300
N  0.41800 7.43400 28.38900
C  0.74600 8.25500 29.38900
C  0.92700 7.47700 30.65500
C  0.52000 5.97200 30.22000
C  0.13800 6.15900 28.78600
C  1.65200 4.98600 30.59900
C  0.20500 8.06600 31.86700
C  0.86200 7.99000 33.28800
H  2.00200 6.97100 33.52900
N  -0.35000 6.23600 25.70300
C  -0.46900 5.11800 26.53500
C  -0.72600 3.91300 25.78700
C  -0.93000 4.31100 24.44300
C  -0.62000 5.74600 24.42200
C  -0.99800 2.48400 26.38700
C  -1.40100 3.45000 23.25900
O  -1.68800 3.98900 22.20200
C  -1.73700 2.01300 23.47100
N  0.15000 8.83300 24.18700
C  -0.00700 7.93300 23.18500
C  0.26700 8.62700 21.81500
C  0.27100 10.13200 22.16500
C  0.43900 10.07100 23.73800
C  1.56500 8.15000 21.08800
C  -0.94500 10.95300 21.65600
C  -0.57900 12.36700 21.32100
N  0.74100 10.07200 26.64700
C  1.00700 11.17000 25.88700
C  1.48700 12.30200 26.69700
C  1.51200 11.76300 27.99600
C  1.09100 10.42300 27.92100
C  1.90700 13.61500 26.25500
C  1.85800 12.08500 29.38100
O  2.28800 13.10800 29.90300
C  1.58400 10.77100 30.21600
C  2.63300 10.56400 31.26900
O  3.69000 9.95500 31.17100
O  2.34500 11.22000 32.45100
C  3.40300 11.07200 33.44100
H  -0.39700 4.21800 28.43200
H  -0.75800 6.13600 22.34800
H  0.85600 12.11300 23.90200
H  2.00200 7.51200 30.83400
H  -0.22500 5.54000 30.88800
H  2.02500 4.63300 29.63700
H  1.34000 4.07100 31.10200
H  2.52800 5.43600 31.06500
H  -0.73400 7.52400 31.98000
H  0.03000 9.12300 31.66300
H  0.05900 7.63200 33.93200
H  1.15300 8.95900 33.69300
H  -2.06500 2.37800 26.58400
H  -0.59100 2.48600 27.39800
H  -0.55900 1.74900 25.71100
H  -0.76600 1.52700 23.57000
H  -2.08000 1.68300 22.49000
H  -2.48000 1.78600 24.23500
H  -0.57100 8.42600 21.14800
H  1.20300 10.51400 21.74800
H  1.29300 7.43900 20.30800
H  2.07500 7.59200 21.87400
H  2.17500 8.91800 20.61300
H  -1.69100 10.91600 22.44900
H  -1.18800 10.43600 20.72700
H  -0.61000 12.56500 20.25000
H  0.36800 12.74300 21.70900
H  -1.28200 13.09800 21.72000
H  1.17500 14.26300 25.77300
H  2.64600 13.46700 25.46800
H  2.32800 14.22300 27.05600
H  0.62200 11.10000 30.60700
H  3.50200 10.02400 33.72300
H  3.07300 11.48900 34.39200
H  4.31700 11.45400 32.98400
Mg 25.95400 0.95000 29.10600
C  27.99900 0.25000 31.96200
C  23.21400 0.81300 31.31500
C  23.94000 0.95100 26.44800
C  28.71400 0.13200 27.09200
N  25.72300 0.55600 31.40200
C  26.68900 0.50700 32.37500
C  26.04900 0.51200 33.76400
C  24.51500 0.43700 33.49600
C  24.45400 0.62000 31.97000
C  23.82700 -0.83500 34.02500
C  26.57700 1.75200 34.56200
C  27.27700 1.47800 35.89300
H  27.29800 2.56700 36.97500
N  23.87900 0.97400 28.85700
C  22.91400 0.79300 29.89700
C  21.63000 0.86800 29.28000
C  21.74100 1.02700 27.87400
C  23.20300 1.02900 27.64400
C  20.30600 0.75300 30.04000
C  20.72300 0.97400 26.81200
O  20.95900 0.98400 25.57200
C  19.31800 0.83400 27.11800
N  26.20700 0.34400 27.11000
C  25.24800 0.62200 26.15500
C  25.82400 0.61200 24.69400
C  27.36800 0.49900 25.02800
C  27.41500 0.23700 26.50200
C  25.28900 -0.58900 23.91400
C  28.34700 1.55200 24.39100
C  29.29600 0.98800 23.34600
N  28.01100 0.42600 29.41600
C  28.97700 0.16400 28.51000
C  30.21300 -0.20400 29.21000
C  29.92200 -0.10000 30.56100
C  28.55000 0.14400 30.64400
C  31.46900 -0.70900 28.65200
C  30.49100 -0.28000 31.93000
O  31.55700 -0.58500 32.34900
C  29.27000 0.10200 32.84700
C  29.16300 -1.08600 33.80900
O  28.57100 -2.14200 33.53000
O  29.60000 -0.77900 35.06300
C  28.95500 -1.65800 36.04800
H  22.37500 0.95700 31.99900
H  23.46500 1.02800 25.46800
H  29.63400 0.02100 26.51600
H  26.36700 -0.41400 34.24200
H  24.02600 1.31600 33.91500
H  22.75100 -0.75800 34.17600
H  24.36800 -1.17500 34.90900
H  23.93500 -1.60000 33.25600
H  25.78400 2.45900 34.80900
H  27.18800 2.36300 33.89800
H  28.30400 1.36800 35.54400
H  26.93300 0.56000 36.36900
H  19.87700 -0.24400 29.94300
H  19.59100 1.50600 29.70700
H  20.47200 0.85400 31.11300
H  19.27300 -0.15400 27.57600
H  18.71400 0.81100 26.21200
H  18.91800 1.61200 27.76900
H  25.42100 1.49700 24.20100
H  27.80400 -0.42500 24.64500
H  24.86800 -0.26300 22.96300
H  24.55300 -1.16000 24.48000
H  26.05700 -1.28500 23.57800
H  28.90200 2.01900 25.20400
H  27.74900 2.32000 23.89900
H  28.72300 0.57100 22.51800
H  29.94200 0.16500 23.65200
H  30.01700 1.71400 22.96900
H  31.65100 -0.47700 27.60300
H  31.37700 -1.79400 28.71300
H  32.22400 -0.31200 29.33000
H  29.48200 1.00200 33.42400
H  29.15500 -1.27400 37.04800
H  29.34300 -2.66900 35.92100
H  27.87100 -1.67800 35.93700

