158

Mg 25.68100 51.22500 25.65500
C  23.40000 51.91900 28.02000
C  28.04800 50.64900 28.09700
C  27.97300 50.64400 23.28600
C  23.48400 52.21500 23.09700
N  25.70000 51.20600 27.80400
C  24.57600 51.35600 28.59900
C  24.86000 51.22100 30.07700
C  26.38000 50.86700 29.98300
C  26.75100 50.93300 28.53200
C  27.25700 51.75100 30.84800
C  23.85400 50.18300 30.76900
C  23.39200 50.54500 32.24000
H  23.80000 49.42800 33.34900
N  27.69900 50.74700 25.64900
C  28.55600 50.49800 26.75400
C  29.93300 50.11600 26.33600
C  29.87600 50.11000 24.91600
C  28.43400 50.49800 24.53700
C  31.04500 49.80500 27.33100
C  30.92600 49.72100 23.93300
O  30.85700 49.92200 22.73200
C  32.25500 49.40100 24.37700
N  25.71000 51.38400 23.49000
C  26.74800 51.00700 22.68800
C  26.49100 51.08700 21.19200
C  25.00400 51.53600 21.16800
C  24.66900 51.68800 22.67300
C  27.42300 52.12000 20.43400
C  24.04800 50.49000 20.43700
C  23.36500 50.97700 19.18700
N  23.94600 51.99800 25.54500
C  23.15200 52.39000 24.48700
C  21.90800 52.99900 24.93300
C  21.97400 52.85000 26.35300
C  23.18200 52.19200 26.67100
C  20.83300 53.53100 24.15400
C  21.22500 52.96600 27.57400
O  20.07200 53.41900 27.74500
C  22.08000 52.28700 28.74600
C  22.33400 53.36800 29.67100
O  23.11300 54.25500 29.45900
O  21.49400 53.18700 30.75100
C  21.69600 54.07900 31.91300
H  28.70300 50.24900 28.87300
H  28.57500 50.37600 22.41600
H  22.75500 52.58900 22.37600
H  24.62600 52.18900 30.51900
H  26.64900 49.89600 30.39900
H  26.68600 52.57500 31.27800
H  28.09400 52.12600 30.26000
H  27.61100 51.11600 31.66000
H  24.38200 49.22900 30.75600
H  22.99400 49.95800 30.13800
H  22.30600 50.53100 32.32400
H  23.64700 51.53800 32.61000
H  31.79200 49.09000 26.98600
H  30.66200 49.23700 28.17900
H  31.46700 50.77200 27.60400
H  32.62800 50.02300 25.19000
H  33.03800 49.39500 23.61800
H  32.17500 48.37700 24.74300
H  26.54200 50.03500 20.91300
H  24.99300 52.52000 20.69800
H  27.98300 52.80500 21.07000
H  26.93600 52.72300 19.66900
H  28.16900 51.48000 19.96200
H  23.27300 50.33600 21.18800
H  24.52800 49.52500 20.27500
H  23.11000 50.11600 18.57000
H  23.93700 51.66900 18.56900
H  22.43900 51.39100 19.58600
H  19.99700 53.49600 24.85200
H  20.81300 53.12700 23.14200
H  21.05800 54.58800 24.01300
H  21.46200 51.45400 29.08200
H  22.08700 54.95200 31.39000
H  22.50200 53.74500 32.56500
H  20.77500 54.33300 32.43800
Mg -2.70100 34.28400 27.19000
C  -4.17500 32.33600 29.91500
C  -1.31100 36.29700 29.59500
C  -1.71800 36.28100 24.68400
C  -4.48600 32.28000 24.96700
N  -2.90500 34.32900 29.52700
C  -3.42600 33.40700 30.49100
C  -3.08500 33.73300 31.90200
C  -2.17700 35.05500 31.73400
C  -2.17300 35.29500 30.17000
C  -2.50500 36.38300 32.61200
C  -2.41200 32.53200 32.65600
C  -3.03700 32.18600 34.07000
H  -1.99000 31.85300 35.17200
N  -1.59200 36.03900 27.11500
C  -1.06000 36.69100 28.23700
C  -0.29700 37.76900 27.78200
C  -0.35100 37.77200 26.36200
C  -1.29200 36.69200 25.98300
C  0.35800 38.73100 28.79200
C  0.47300 38.66200 25.40300
O  0.58100 38.49100 24.21200
C  1.11000 39.90500 25.95900
N  -2.94700 34.24300 25.03300
C  -2.45300 35.19700 24.20600
C  -2.85000 34.96400 22.76500
C  -3.48600 33.55000 22.82400
C  -3.64000 33.28900 24.37400
C  -3.93700 35.98100 22.29400
C  -2.55200 32.45300 22.27600
C  -1.14200 32.28900 22.83600
N  -4.09500 32.60900 27.34900
C  -4.72400 31.97500 26.31500
C  -5.44400 30.82300 26.82500
C  -5.31700 30.89300 28.23800
C  -4.46400 32.04900 28.57000
C  -6.40500 29.88100 26.01600
C  -5.72700 30.36000 29.52300
O  -6.50700 29.44200 29.75500
C  -5.09200 31.29500 30.62300
C  -6.22800 31.81700 31.36100
O  -6.95600 32.75000 31.14400
O  -6.22800 31.10500 32.53900
C  -6.79500 31.80800 33.69600
H  -0.75600 36.92200 30.29800
H  -1.37400 37.06100 24.00100
H  -5.10500 31.69900 24.28100
H  -4.01800 34.05100 32.36700
H  -1.16900 34.76000 32.02700
H  -3.53300 36.33800 32.97300
H  -2.26700 37.27400 32.03100
H  -1.91800 36.37000 33.53000
H  -1.39000 32.85000 32.86300
H  -2.42400 31.68300 31.97300
H  -3.84500 31.46500 33.95000
H  -3.58900 33.08300 34.35100
H  -0.24700 38.83400 29.69300
H  0.35400 39.76200 28.44000
H  1.30300 38.36100 29.19000
H  0.42400 40.41700 26.63300
H  1.42000 40.59300 25.17300
H  2.01000 39.59400 26.49000
H  -2.09800 35.04000 21.98100
H  -4.39300 33.55400 22.21900
H  -4.74800 36.06600 23.01700
H  -4.32100 35.69100 21.31700
H  -3.46800 36.95600 22.16300
H  -2.42700 32.60400 21.20400
H  -3.07200 31.50400 22.40500
H  -0.54500 32.51100 21.95200
H  -0.91300 31.24500 23.05400
H  -0.93000 33.00500 23.62900
H  -6.30800 29.95600 24.93200
H  -7.39200 30.09200 26.42700
H  -6.31600 28.81100 26.20200
H  -4.48900 30.65700 31.26800
H  -6.01900 32.42300 34.15300
H  -7.19300 31.13700 34.45800
H  -7.71700 32.34100 33.46100

