158

Mg 23.95800 -4.52500 45.78200
C  26.14200 -2.13900 44.26800
C  21.64600 -3.61700 43.58400
C  22.32800 -7.40300 46.53300
C  26.78800 -5.73300 47.58600
N  23.90300 -2.98300 44.13000
C  24.87200 -2.15100 43.65000
C  24.41100 -1.38100 42.40400
C  22.84900 -1.67100 42.45100
C  22.74900 -2.76600 43.50700
C  22.04600 -0.38300 42.93900
C  25.08600 -1.95200 41.11400
C  25.69400 -0.94000 40.16700
H  25.20500 -0.96300 38.72100
N  22.20900 -5.41900 45.12900
C  21.39400 -4.89800 44.21500
C  20.30500 -5.78500 43.95900
C  20.42400 -6.85200 44.93600
C  21.64300 -6.57100 45.63600
C  19.20100 -5.44100 43.03000
C  19.41900 -7.95200 45.08400
O  18.50400 -8.04300 44.24200
C  19.43700 -8.90400 46.29200
N  24.55500 -6.38900 46.88400
C  23.63400 -7.35700 47.09800
C  24.26800 -8.49500 47.86000
C  25.65200 -7.91600 48.35500
C  25.68600 -6.63800 47.52300
C  23.44100 -9.01200 49.11200
C  26.91000 -8.83200 48.10200
C  27.90400 -8.98700 49.31700
N  26.01900 -4.00200 45.98900
C  26.99900 -4.56000 46.82600
C  28.22400 -3.83700 46.60100
C  27.92700 -2.82800 45.64500
C  26.61600 -3.01700 45.23200
C  29.51400 -4.21800 47.27300
C  28.44500 -1.65600 44.97300
O  29.58500 -1.16300 45.05400
C  27.33700 -1.23400 44.01000
C  27.14200 0.20500 44.16000
O  26.36800 0.72100 44.95300
O  27.85800 0.92400 43.30400
C  27.43300 2.37700 43.23300
H  20.86400 -3.24700 42.91700
H  21.81400 -8.30900 46.85800
H  27.60400 -6.11800 48.20100
H  24.53800 -0.33000 42.66200
H  22.39700 -1.95600 41.50100
H  22.63700 0.52700 43.03800
H  21.54300 -0.57000 43.88800
H  21.38600 -0.24700 42.08200
H  24.40000 -2.55100 40.51500
H  25.94700 -2.55500 41.40300
H  26.77700 -1.06000 40.13200
H  25.46400 0.05800 40.54100
H  18.26700 -5.65800 43.55000
H  19.38200 -5.99400 42.10900
H  19.12600 -4.37400 42.82300
H  19.73300 -8.38600 47.20400
H  20.02700 -9.79600 46.07700
H  18.38400 -9.18200 46.34000
H  24.47200 -9.27900 47.13100
H  25.62300 -7.64000 49.40900
H  22.89000 -9.92800 48.89900
H  22.75000 -8.24400 49.45900
H  24.09600 -9.19600 49.96400
H  27.50600 -8.50900 47.24800
H  26.54300 -9.80900 47.78800
H  28.78200 -8.44700 48.96300
H  28.15200 -10.03400 49.49600
H  27.51700 -8.51100 50.21900
H  29.23100 -4.49600 48.28800
H  30.30300 -3.47200 47.18400
H  29.73100 -5.11400 46.69200
H  27.59200 -1.37900 42.96000
H  28.32300 3.00500 43.26900
H  26.73500 2.80800 43.95000
H  27.14500 2.35500 42.18200
Mg 47.55900 24.97100 28.83000
C  48.25500 27.23700 31.52300
C  46.54000 22.66800 31.01500
C  47.20300 22.79300 26.29200
C  49.28800 27.16400 26.68400
N  47.60300 24.96700 31.03400
C  47.75900 25.95400 31.90900
C  47.30300 25.56500 33.29800
C  46.80900 24.12100 33.06400
C  47.07700 23.81200 31.64000
C  47.56000 23.10600 34.03200
C  46.28500 26.51000 34.00800
C  46.68700 26.80100 35.47900
H  45.61700 26.86200 36.56900
N  46.85200 23.02700 28.65000
C  46.44100 22.22800 29.68300
C  45.94100 20.95100 29.13500
C  46.14300 21.00600 27.74200
C  46.73300 22.24600 27.51700
C  45.49400 19.89800 30.03100
C  45.89600 19.93100 26.71200
O  45.98800 20.21200 25.49100
C  45.16100 18.59000 27.04800
N  48.20200 24.92800 26.76200
C  47.71700 24.01800 25.93500
C  47.98700 24.40700 24.47100
C  48.60600 25.76000 24.55900
C  48.73500 26.00300 26.08900
C  48.69000 23.27500 23.59700
C  47.82400 27.00000 23.89100
C  47.74800 27.03000 22.37500
N  48.55600 26.86300 29.03500
C  49.17300 27.57600 28.04600
C  49.73000 28.78100 28.56700
C  49.32900 28.76400 29.95700
C  48.65300 27.59500 30.15100
C  50.50000 29.83500 27.78200
C  49.51400 29.43300 31.24200
O  50.08900 30.44200 31.48600
C  48.72500 28.48500 32.29900
C  49.73900 28.10700 33.39300
O  50.32900 27.06100 33.44500
O  49.72500 28.97500 34.39600
C  50.47300 28.60300 35.62300
H  46.05200 21.97200 31.70100
H  47.06200 22.05200 25.50100
H  49.71500 27.84600 25.94500
H  48.18300 25.53100 33.93900
H  45.74000 24.01400 33.24900
H  48.09700 22.46600 33.33200
H  46.75100 22.64700 34.59900
H  48.29200 23.59000 34.67900
H  45.27700 26.10000 33.94300
H  46.28300 27.47200 33.49700
H  47.22000 27.74500 35.59200
H  47.45300 26.14900 35.89800
H  44.44300 19.73300 29.79300
H  45.55400 20.07400 31.10500
H  46.02100 18.97500 29.78800
H  44.33900 18.80500 27.73100
H  45.93700 17.97400 27.50300
H  44.83300 18.03900 26.16700
H  47.01300 24.49600 23.99000
H  49.63300 25.70900 24.19800
H  49.09100 22.56200 24.31800
H  49.45600 23.57000 22.88000
H  47.94500 22.72000 23.02700
H  48.28800 27.92800 24.22500
H  46.79300 27.01000 24.24400
H  48.11100 27.96000 21.93700
H  46.70000 26.87000 22.11800
H  48.40500 26.23100 22.03300
H  50.07600 30.83800 27.73700
H  50.67300 29.65400 26.72100
H  51.46400 29.82200 28.29000
H  47.88400 29.00000 32.76300
H  50.17000 29.38600 36.31800
H  51.53400 28.77500 35.44300
H  50.31400 27.55700 35.88700

