158

Mg 49.18400 44.90200 43.12900
C  45.83100 45.43900 42.20500
C  48.92900 41.67900 41.79800
C  52.57400 44.58100 43.48600
C  49.33400 48.09700 44.36800
N  47.51900 43.71400 41.91200
C  46.25600 44.10400 41.81400
C  45.50800 42.90700 41.34600
C  46.44700 41.69700 41.46300
C  47.71100 42.37600 41.77900
C  45.95000 40.70700 42.45000
C  44.88200 43.16200 39.94500
C  43.48600 42.72100 39.55000
H  43.25900 41.87400 38.28600
N  50.53800 43.39300 42.69000
C  50.25600 42.13600 42.16500
C  51.42900 41.44100 41.92400
C  52.53800 42.26200 42.38300
C  51.91500 43.44100 42.98200
C  51.39700 40.05700 41.20000
C  53.99100 41.88900 42.19500
O  54.35900 40.81000 41.79800
C  55.11500 42.74700 42.73600
N  50.85400 46.28600 43.70400
C  52.11700 45.84500 43.94600
C  52.95700 47.04300 44.46100
C  51.82700 48.01800 44.98800
C  50.59000 47.43700 44.31100
C  54.04300 46.66700 45.46400
C  52.13300 49.48000 44.79500
C  51.67200 50.39900 46.00900
N  47.83700 46.49300 43.33500
C  48.08100 47.73500 43.78400
C  46.83600 48.47700 43.75800
C  45.90400 47.64900 43.13100
C  46.58000 46.45900 42.87600
C  46.60800 49.88400 44.08200
C  44.56700 47.49900 42.57500
O  43.62400 48.28500 42.52100
C  44.47200 46.11400 41.95600
C  43.25000 45.40100 42.37100
O  42.14600 45.49400 41.78500
O  43.46400 44.54200 43.43600
C  42.33600 43.66500 43.77100
H  48.93700 40.64600 41.44300
H  53.65400 44.56600 43.64200
H  49.28900 49.10100 44.79300
H  44.62300 42.77600 41.96800
H  46.57800 41.18300 40.51100
H  45.47200 39.82300 42.02900
H  45.26300 41.06000 43.21800
H  46.73500 40.21700 43.02600
H  45.48100 42.51500 39.30500
H  45.03200 44.19800 39.64000
H  42.92500 43.63800 39.37000
H  42.93600 42.12700 40.28100
H  52.36500 39.57600 41.06000
H  50.88000 40.15300 40.24500
H  50.65200 39.37000 41.59900
H  54.98800 42.77500 43.81800
H  55.16500 43.70200 42.21300
H  56.08200 42.32300 42.46400
H  53.40300 47.54200 43.60000
H  51.45700 47.92700 46.00900
H  55.07200 46.92100 45.20800
H  54.04500 45.65100 45.85700
H  53.83700 47.39800 46.24600
H  51.80600 49.81800 43.81200
H  53.20200 49.67400 44.88000
H  50.92500 51.12100 45.67800
H  52.52800 50.97400 46.36200
H  51.42600 49.81200 46.89400
H  47.07700 50.10700 45.04000
H  45.54500 50.11400 44.00800
H  47.10400 50.48500 43.31900
H  44.47100 46.12600 40.86700
H  41.79400 44.27900 44.49000
H  42.75300 42.70600 44.07700
H  41.69400 43.35800 42.94400
Mg 5.32100 54.78900 40.41000
C  4.76200 51.28300 40.30800
C  8.60500 54.08500 39.56200
C  5.74000 57.98700 40.16600
C  1.89900 55.16100 40.99200
N  6.54300 52.92100 39.94100
C  6.05300 51.61100 39.85500
C  7.17900 50.63500 39.42200
C  8.44300 51.51600 39.53000
C  7.84600 52.95200 39.72400
C  9.44900 50.99600 40.56600
C  7.04300 49.91400 38.01200
C  6.15900 50.66500 36.98900
H  6.87900 51.31900 35.85700
N  7.03700 55.90500 39.96300
C  8.27700 55.45500 39.65300
C  9.12400 56.61200 39.49000
C  8.32800 57.79000 39.74400
C  6.92700 57.24100 39.88800
C  10.65900 56.51300 39.25600
C  8.86700 59.17900 39.63200
O  10.06100 59.42000 39.45700
C  7.96600 60.32200 39.82800
N  4.01700 56.39200 40.52200
C  4.43300 57.65300 40.49200
C  3.29100 58.66700 40.80500
C  2.04700 57.72100 40.89400
C  2.69300 56.35100 40.80100
C  3.56300 59.48900 42.07800
C  0.93100 57.74700 39.78700
C  -0.52200 57.78500 40.17100
N  3.58700 53.52700 40.59300
C  2.35700 53.79400 40.96000
C  1.60600 52.57600 41.13600
C  2.51300 51.59600 41.02900
C  3.70700 52.16700 40.64500
C  0.09000 52.46300 41.22200
C  2.77000 50.14400 41.09900
O  2.01700 49.24000 41.37500
C  4.26800 49.96500 40.61800
C  4.08500 49.23500 39.35700
O  3.56500 49.73000 38.35400
O  4.55000 47.92500 39.53700
C  4.29600 46.94000 38.45800
H  9.66000 53.90800 39.34700
H  5.79100 59.07700 40.17100
H  0.84100 55.33000 41.20200
H  7.19800 49.88800 40.21600
H  8.98900 51.51800 38.58700
H  10.46300 50.86300 40.18800
H  9.21100 50.09700 41.13400
H  9.53600 51.74200 41.35600
H  6.61100 48.91900 38.11300
H  7.99700 49.85200 37.48800
H  5.55000 51.45700 37.42500
H  5.46400 49.99200 36.48800
H  11.07300 57.06600 38.41200
H  10.92400 55.46400 39.12700
H  11.04600 56.82900 40.22500
H  8.45100 61.29700 39.77700
H  7.45100 60.24500 40.78600
H  7.32800 60.33400 38.94500
H  3.11900 59.27900 39.92000
H  1.62600 57.61900 41.89400
H  2.72500 59.40100 42.77000
H  3.54900 60.54600 41.81400
H  4.45900 59.25100 42.65100
H  1.06900 56.95200 39.05300
H  1.06900 58.62000 39.15000
H  -0.61400 58.11700 41.20500
H  -1.17100 56.91700 40.05500
H  -0.96700 58.58500 39.57900
H  -0.41300 53.37500 40.90100
H  -0.11100 52.34300 42.28700
H  -0.36900 51.63200 40.68700
H  4.91500 49.54100 41.38600
H  4.51400 47.36900 37.48000
H  3.30600 46.49900 38.34200
H  4.94300 46.09500 38.69300

