158

Mg 9.00800 3.02100 27.51000
C  10.19600 1.27600 30.26100
C  7.17700 5.03800 29.54900
C  7.55400 4.48500 24.76300
C  10.13100 0.45400 25.45900
N  8.74200 3.08100 29.66900
C  9.40500 2.35800 30.64200
C  9.04700 2.82700 32.07900
C  7.92300 3.85900 31.77200
C  7.93300 4.02400 30.21200
C  6.41500 3.61100 32.31000
C  10.34200 3.24400 32.81100
C  10.19800 4.25000 34.00200
H  11.08900 4.15500 35.22100
N  7.59900 4.64500 27.22500
C  6.90000 5.36600 28.20900
C  6.09100 6.44600 27.62300
C  6.22100 6.25200 26.19900
C  7.19400 5.09700 25.97100
C  5.35400 7.57100 28.35600
C  5.56400 7.05700 25.08000
O  5.66900 6.73500 23.86200
C  4.71400 8.23700 25.43000
N  8.78000 2.53400 25.43200
C  8.21200 3.27600 24.53200
C  8.36000 2.65800 23.12800
C  9.19400 1.41100 23.44300
C  9.36400 1.45000 24.86100
C  7.01500 2.24000 22.44100
C  10.55400 1.29700 22.70500
C  10.94800 -0.09400 22.14000
N  10.03300 1.30000 27.75800
C  10.37600 0.34200 26.85300
C  11.02200 -0.71400 27.47800
C  11.09900 -0.31700 28.80500
C  10.37900 0.86200 28.94500
C  11.68500 -1.89800 26.80800
C  11.59900 -0.69500 30.08200
O  12.39100 -1.59100 30.42900
C  11.02500 0.34900 31.10700
C  10.15200 -0.17800 32.11700
O  8.97300 -0.54200 31.89900
O  10.75600 -0.09900 33.33200
C  9.87700 -0.29000 34.45600
H  6.63800 5.61600 30.30300
H  7.24500 4.92700 23.81300
H  10.47200 -0.37100 24.83000
H  8.53800 2.06700 32.67300
H  8.24000 4.84600 32.11000
H  5.74100 3.49900 31.46100
H  5.96400 4.47200 32.80400
H  6.38300 2.60200 32.72100
H  11.13900 3.62600 32.17200
H  10.75900 2.38200 33.33100
H  9.17600 4.21400 34.37800
H  10.31900 5.21200 33.50300
H  5.78000 8.51900 28.02900
H  5.39200 7.34700 29.42200
H  4.31700 7.64800 28.02800
H  3.86600 7.77200 25.93400
H  4.37600 8.78000 24.54800
H  5.28300 9.02400 25.92400
H  8.99800 3.33800 22.56300
H  8.59100 0.50400 23.39400
H  6.12600 2.39700 23.05100
H  6.95700 1.18800 22.16300
H  6.77100 2.73200 21.49900
H  11.37800 1.49400 23.39000
H  10.62000 1.93700 21.82500
H  11.80600 -0.40400 22.73600
H  11.33100 -0.16900 21.12200
H  10.09700 -0.77600 22.14600
H  11.17300 -2.18600 25.89000
H  11.60100 -2.68700 27.55600
H  12.67000 -1.54700 26.50100
H  11.76600 0.85800 31.72300
H  8.96800 -0.88600 34.37600
H  9.56000 0.72500 34.69700
H  10.46500 -0.58000 35.32700
Mg 36.51700 0.67800 29.58700
C  34.19700 1.83700 32.04400
C  39.00800 0.79600 31.90600
C  38.73000 -0.35800 27.21800
C  33.96300 0.76500 27.32300
N  36.59700 1.26800 31.69200
C  35.55400 1.75200 32.51800
C  36.06100 1.78300 33.99000
C  37.63800 1.67300 33.78300
C  37.75800 1.24000 32.31900
C  38.35900 2.99200 33.94400
C  35.47300 0.60800 34.85900
C  34.96800 0.95200 36.32900
H  35.54200 2.17000 37.05300
N  38.58900 0.22300 29.56500
C  39.41000 0.28700 30.62500
C  40.77300 -0.06200 30.22300
C  40.80100 -0.37100 28.86000
C  39.34900 -0.17700 28.50800
C  41.92100 -0.01500 31.20600
C  41.90200 -0.71000 27.86200
O  41.59300 -0.88300 26.66900
C  43.36200 -0.99800 28.25900
N  36.39300 0.49600 27.45300
C  37.40500 -0.15400 26.78000
C  36.89900 -0.44600 25.36800
C  35.31400 -0.35700 25.44900
C  35.23500 0.43300 26.83100
C  37.56400 0.50400 24.29200
C  34.50100 -1.71000 25.26900
C  33.67800 -1.84500 23.96400
N  34.47900 1.20500 29.58400
C  33.58900 1.15800 28.57600
C  32.33600 1.58800 29.07000
C  32.49200 1.89300 30.38200
C  33.86800 1.62200 30.68500
C  31.07300 1.55600 28.23200
C  31.87200 2.29100 31.57300
O  30.70300 2.68200 31.84100
C  32.91800 2.31400 32.73100
C  32.96800 3.64000 33.35400
O  33.40100 4.64100 32.88700
O  32.34100 3.49900 34.59800
C  32.47000 4.74700 35.40300
H  39.77300 0.64100 32.67000
H  39.30500 -0.86300 26.43900
H  33.22100 0.72800 26.52300
H  35.73300 2.70400 34.47100
H  38.24200 0.99900 34.39100
H  38.91600 2.86400 34.87300
H  37.64000 3.78900 34.13400
H  39.08000 3.30200 33.18800
H  36.13800 -0.24700 34.98100
H  34.56500 0.30800 34.33500
H  35.05400 0.05600 36.94400
H  33.90800 1.20000 36.39100
H  42.52900 -0.91900 31.21900
H  41.57900 0.06600 32.23800
H  42.59100 0.80600 30.94900
H  43.58800 -0.54000 29.22200
H  44.15300 -0.61600 27.61300
H  43.46400 -2.06000 28.48100
H  37.22100 -1.44200 25.06200
H  34.99100 0.31500 24.65400
H  36.75600 1.15600 23.95900
H  38.04700 -0.05200 23.48800
H  38.30300 1.12400 24.79900
H  33.76900 -1.72100 26.07600
H  35.17300 -2.55100 25.43700
H  34.04500 -1.00300 23.37700
H  32.60800 -1.74900 24.15200
H  33.91800 -2.71100 23.34600
H  30.27100 1.00300 28.72300
H  31.31100 1.10300 27.27000
H  30.73900 2.57200 28.02300
H  32.65400 1.62500 33.53300
H  31.85700 5.50800 34.92000
H  33.48600 5.05400 35.64900
H  31.85100 4.52100 36.27100

