158

Mg 9.12100 3.66400 27.89200
C  10.62700 2.23700 30.77500
C  7.35000 5.74000 29.97900
C  7.82100 4.98700 25.28000
C  10.77400 1.22900 25.93100
N  8.84000 3.72800 30.18200
C  9.63400 3.17200 31.18100
C  9.46100 3.86000 32.56200
C  8.30400 4.86900 32.22200
C  8.17900 4.80100 30.68200
C  6.92500 4.77600 32.97800
C  10.75500 4.65300 33.08100
C  11.33800 4.09300 34.47400
H  11.71400 5.20900 35.49200
N  7.74000 5.19900 27.65600
C  7.10000 5.93300 28.61100
C  6.18800 6.86200 27.96700
C  6.28100 6.68400 26.57200
C  7.34000 5.59300 26.45000
C  5.32500 7.78500 28.82400
C  5.62200 7.30500 25.35200
O  5.95900 6.97000 24.20700
C  4.45200 8.28000 25.58800
N  9.43300 3.22500 25.81600
C  8.59500 3.89400 24.96700
C  8.82600 3.32300 23.49100
C  9.75400 2.08000 23.76800
C  10.04800 2.21300 25.26900
C  7.46300 2.88700 22.79400
C  11.04300 2.20200 22.97100
C  11.26100 1.03200 21.94900
N  10.32700 2.00200 28.18800
C  10.96100 1.14100 27.29100
C  11.85800 0.35100 28.04300
C  11.71600 0.78900 29.35800
C  10.79500 1.76000 29.45300
C  12.56500 -0.82800 27.48400
C  12.30000 0.48800 30.67200
O  13.05000 -0.36600 31.08100
C  11.57300 1.49100 31.65700
C  10.77400 0.64000 32.65700
O  9.80600 -0.08400 32.52100
O  11.37900 0.96300 33.86700
C  10.63300 0.42400 35.00100
H  6.95800 6.55600 30.59000
H  7.40300 5.42800 24.37300
H  11.27500 0.50700 25.28400
H  9.24800 3.04200 33.25100
H  8.51400 5.90600 32.48400
H  6.03600 4.80100 32.34700
H  6.88600 5.53700 33.75700
H  6.99200 3.80600 33.47200
H  10.64800 5.72500 33.24900
H  11.56200 4.44100 32.38000
H  12.20200 3.46000 34.27500
H  10.56900 3.47600 34.94100
H  5.80000 8.76600 28.82900
H  5.23800 7.41500 29.84600
H  4.35900 7.85100 28.32300
H  3.63900 7.94500 26.23200
H  4.05800 8.56800 24.61300
H  4.91500 9.12200 26.10300
H  9.26200 4.06800 22.82500
H  9.17500 1.17600 23.58300
H  6.61000 2.93100 23.47200
H  7.53300 1.85400 22.45200
H  7.24400 3.48200 21.90800
H  11.87600 2.32300 23.66400
H  10.94900 3.10500 22.36800
H  11.39200 1.45300 20.95200
H  10.32600 0.48600 21.82400
H  11.98100 0.23300 22.12600
H  13.61200 -0.83100 27.78700
H  12.44900 -0.93200 26.40600
H  12.14000 -1.75600 27.86700
H  12.26600 2.10600 32.23200
H  10.27900 -0.59000 34.81700
H  9.76700 1.03100 35.26400
H  11.31300 0.32500 35.84800
Mg 26.80100 51.13600 26.56200
C  24.82800 52.02900 29.21400
C  29.33200 50.22400 28.83100
C  28.65200 49.97500 23.90500
C  24.33900 52.12000 24.32500
N  27.09100 51.29400 28.81100
C  26.02300 51.52700 29.68100
C  26.43600 51.17400 31.10700
C  27.94800 50.85300 30.97600
C  28.20400 50.79700 29.43600
C  28.83100 51.91100 31.64900
C  25.56400 50.05400 31.73100
C  24.84800 50.26300 33.11700
H  25.61900 50.90100 34.29500
N  28.75900 50.27300 26.38000
C  29.55900 49.91900 27.40400
C  30.73300 49.22400 26.86700
C  30.60200 49.12800 25.46100
C  29.24200 49.82900 25.14300
C  31.81500 48.50100 27.67200
C  31.50200 48.48000 24.43300
O  31.10000 48.37700 23.25600
C  32.85800 47.81400 24.63500
N  26.59300 51.22100 24.39800
C  27.44700 50.60100 23.53300
C  26.94500 50.74500 22.07600
C  25.52800 51.38500 22.24000
C  25.44600 51.59500 23.75700
C  27.87400 51.51100 21.12100
C  24.43300 50.38100 21.66000
C  23.32600 51.06500 20.90600
N  25.12300 52.11100 26.61300
C  24.13200 52.41300 25.71800
C  22.97300 52.96600 26.29600
C  23.17400 52.80100 27.66200
C  24.47000 52.23900 27.81100
C  21.81600 53.59000 25.58700
C  22.61200 52.96700 28.94400
O  21.56500 53.48700 29.21700
C  23.58100 52.43700 30.02500
C  23.90800 53.56000 30.97900
O  24.64200 54.44600 30.75100
O  23.13400 53.32700 32.07200
C  23.34100 54.24400 33.23500
H  30.12700 49.94400 29.52500
H  29.20300 49.56900 23.05400
H  23.56000 52.39500 23.61000
H  26.32300 52.07100 31.71600
H  28.11500 49.82700 31.30300
H  28.56300 52.88700 31.24300
H  29.84400 51.60300 31.38900
H  28.81700 51.88600 32.73900
H  26.02500 49.07500 31.86000
H  24.75700 49.97000 31.00200
H  24.35900 49.35600 33.47200
H  24.07200 50.96600 32.81100
H  32.70100 49.11600 27.82700
H  32.07900 47.58200 27.14800
H  31.39500 48.31200 28.66000
H  33.32500 47.66100 23.66200
H  32.73300 46.84500 25.11800
H  33.36600 48.47900 25.33400
H  26.84400 49.71000 21.75000
H  25.38700 52.39000 21.84200
H  27.44500 52.41900 20.69700
H  28.38300 50.84400 20.42600
H  28.62300 51.87800 21.82200
H  24.00800 49.76600 22.45300
H  24.85700 49.70500 20.91700
H  23.12200 50.53500 19.97600
H  23.59400 52.06200 20.55700
H  22.39400 50.96200 21.46100
H  22.14100 54.55500 25.19900
H  21.07800 53.64800 26.38800
H  21.51300 52.84900 24.84600
H  23.01000 51.66300 30.53800
H  23.67200 55.23900 32.93700
H  24.03300 53.77600 33.93500
H  22.40900 54.44800 33.76300

