158

Mg 35.90500 2.06100 29.93800
C  33.29900 2.80500 31.96500
C  37.99600 2.08600 32.58300
C  38.45000 1.40600 27.76400
C  33.66000 2.14500 27.16400
N  35.62500 2.35700 31.98500
C  34.47500 2.61000 32.63800
C  34.70800 2.70800 34.16500
C  36.19600 2.83000 34.28300
C  36.66200 2.39300 32.86500
C  36.69500 4.30100 34.40300
C  34.12600 1.53400 35.09500
C  33.91000 1.97100 36.54400
H  34.51200 3.30100 37.19000
N  37.99700 1.80000 30.14700
C  38.64000 1.80800 31.35900
C  40.06300 1.48200 31.11200
C  40.15200 1.20700 29.70200
C  38.84900 1.47700 29.16300
C  41.05600 1.33200 32.14300
C  41.34800 0.70900 28.84300
O  41.41900 0.46800 27.65200
C  42.65000 0.50300 29.62600
N  35.93000 1.63800 27.83700
C  37.18600 1.54000 27.19800
C  37.04500 1.38000 25.65800
C  35.40500 1.55800 25.48800
C  34.92500 1.78000 26.89500
C  37.72500 2.53600 24.88200
C  34.82400 0.27500 24.88600
C  34.29700 0.40000 23.43600
N  33.87000 2.24400 29.53700
C  33.14400 2.46800 28.38200
C  31.80600 2.88500 28.71300
C  31.84600 3.03200 30.09900
C  33.12400 2.66300 30.56400
C  30.69300 3.14300 27.78600
C  31.07100 3.45300 31.22900
O  29.96900 3.96400 31.22800
C  31.94300 3.17600 32.49000
C  32.00500 4.40900 33.37100
O  32.44600 5.52100 33.13400
O  31.39100 4.06100 34.59600
C  31.18800 5.18000 35.50800
H  38.55700 2.20700 33.51200
H  39.32100 1.26200 27.12200
H  32.98300 2.11600 26.30900
H  34.21200 3.60700 34.53200
H  36.64500 2.20700 35.05500
H  37.50400 4.29700 35.13400
H  35.88400 4.95600 34.72100
H  37.10800 4.64300 33.45400
H  34.77400 0.66300 34.99800
H  33.13200 1.22300 34.77400
H  34.11000 1.08300 37.14300
H  32.83100 2.04800 36.68000
H  41.35100 0.29400 32.29600
H  40.62900 1.73000 33.06400
H  41.93400 1.92900 31.89900
H  43.33700 0.17500 28.84600
H  42.50700 -0.24900 30.40200
H  42.88000 1.50000 30.00200
H  37.49900 0.45500 25.30100
H  35.04200 2.39400 24.89100
H  38.62500 2.85000 25.41100
H  37.04800 3.34200 24.59900
H  38.15100 2.14000 23.96100
H  34.05100 -0.10400 25.55400
H  35.62200 -0.46200 24.97300
H  34.98400 -0.13200 22.77700
H  34.10900 1.41700 23.09300
H  33.32200 -0.04100 23.22800
H  31.12800 3.43900 26.83200
H  30.03400 3.94200 28.12500
H  30.05700 2.26500 27.67200
H  31.44800 2.47500 33.16100
H  32.14400 5.57400 35.85300
H  30.53800 5.01500 36.36800
H  30.82900 6.08800 35.02400
Mg 54.35100 23.73700 44.94800
C  51.90300 26.05100 43.79700
C  52.33900 21.19700 43.65200
C  56.87400 21.64400 45.46100
C  56.23200 26.59500 45.78100
N  52.42500 23.63700 43.76100
C  51.73900 24.72800 43.27000
C  50.70100 24.24100 42.28300
C  50.44200 22.77300 42.75400
C  51.78400 22.46900 43.38900
C  49.27200 22.57100 43.71800
C  51.27900 24.28500 40.85100
C  50.54800 25.15600 39.80800
H  51.42600 25.71400 38.62000
N  54.52400 21.68200 44.66900
C  53.58200 20.79100 44.21300
C  54.10600 19.48400 44.26800
C  55.38900 19.51900 44.86100
C  55.67200 20.95100 45.01900
C  53.42700 18.28400 43.60000
C  56.24600 18.35100 45.38800
O  55.81700 17.23800 45.27100
C  57.56700 18.52700 46.19300
N  56.31700 24.09400 45.28200
C  57.15200 23.05300 45.53400
C  58.58800 23.63900 45.94000
C  58.32300 25.18600 45.88800
C  56.85300 25.30600 45.69800
C  59.09500 23.17600 47.34500
C  59.12800 25.86800 44.76900
C  59.81400 27.19000 45.23900
N  54.05300 25.88300 44.99700
C  54.85900 26.84100 45.45500
C  54.10500 28.05800 45.68100
C  52.89800 27.82100 45.00500
C  52.92900 26.45900 44.56000
C  54.61000 29.23800 46.62900
C  51.66300 28.41600 44.56100
O  51.10200 29.49000 44.74300
C  50.94900 27.29400 43.78200
C  50.58200 27.84800 42.39500
O  51.38000 27.90300 41.47500
O  49.30600 28.18800 42.27600
C  48.79000 28.93800 41.09600
H  51.58800 20.44000 43.41400
H  57.76600 21.04400 45.65400
H  56.90500 27.43800 45.94700
H  49.85600 24.91800 42.41400
H  50.30600 22.10100 41.90600
H  48.56200 21.78000 43.47800
H  48.76400 23.53500 43.73700
H  49.65000 22.40000 44.72600
H  51.14900 23.30100 40.40200
H  52.34600 24.50600 40.82100
H  50.10000 25.92000 40.44300
H  49.80000 24.46200 39.42500
H  52.91100 18.56300 42.68200
H  52.69200 17.84300 44.27300
H  54.18800 17.54600 43.34700
H  57.41800 19.18700 47.04800
H  58.36100 18.93600 45.56900
H  57.83000 17.52700 46.53700
H  59.36000 23.30000 45.24900
H  58.51600 25.61100 46.87300
H  58.78700 22.13600 47.45100
H  58.68800 23.78500 48.15300
H  60.18000 23.27300 47.37900
H  58.52300 26.13700 43.90200
H  59.84300 25.20000 44.28900
H  59.22100 28.05000 44.92600
H  60.76600 27.31500 44.72200
H  59.94700 27.15400 46.32100
H  55.68500 29.40600 46.56900
H  54.37800 28.92100 47.64600
H  54.13500 30.19100 46.39800
H  50.03100 26.94200 44.25200
H  49.28600 29.88500 40.88300
H  47.70900 29.07800 41.09900
H  49.02100 28.47500 40.13600

