158

Mg 45.98600 25.30900 28.26700
C  46.83100 27.36700 30.91100
C  45.04900 22.89700 30.69100
C  45.13400 23.27300 25.76800
C  47.36800 27.56800 26.02800
N  45.94700 25.09800 30.57100
C  46.29000 26.13900 31.44800
C  46.14300 25.74900 32.94300
C  45.78100 24.15000 32.81500
C  45.56600 24.05400 31.27000
C  46.76600 23.27200 33.56000
C  45.15600 26.67500 33.66500
C  45.54300 27.01100 35.09000
H  44.52900 27.27800 36.17400
N  45.11700 23.45400 28.23400
C  44.83100 22.60200 29.29700
C  44.19000 21.42500 28.79400
C  44.26000 21.45000 27.38800
C  44.89800 22.71900 27.04100
C  43.66400 20.31400 29.66600
C  43.91500 20.31600 26.41800
O  44.13700 20.40000 25.19400
C  43.25200 19.03200 26.93600
N  46.14900 25.44700 26.16000
C  45.71200 24.51600 25.33900
C  46.07700 24.85100 23.89300
C  46.54300 26.33600 24.00800
C  46.71700 26.50800 25.51800
C  47.10500 23.93700 23.10500
C  45.48100 27.46100 23.54800
C  46.00100 28.46700 22.49500
N  47.10100 26.94200 28.36300
C  47.59900 27.81200 27.41700
C  48.26200 28.90300 28.10100
C  47.86000 28.77100 29.40900
C  47.21900 27.56900 29.60200
C  49.02200 30.06200 27.58400
C  48.16200 29.40200 30.67400
O  48.75400 30.46200 30.92600
C  47.25000 28.58500 31.69900
C  48.12100 28.43700 32.92200
O  49.06500 27.68500 32.96100
O  47.82400 29.42500 33.89600
C  48.87200 29.67900 34.93600
H  44.75200 22.23200 31.50500
H  44.82600 22.66700 24.91400
H  47.67800 28.37200 25.35800
H  47.08600 25.86700 33.47800
H  44.81800 24.08100 33.32200
H  46.24800 22.67000 34.30600
H  47.59000 23.86800 33.95400
H  47.18000 22.46900 32.95000
H  44.24700 26.08400 33.77800
H  44.88000 27.49800 33.00600
H  46.17600 27.89400 35.00400
H  46.06600 26.14800 35.50200
H  42.57500 20.31400 29.64400
H  43.93400 20.43500 30.71500
H  44.17200 19.39000 29.38900
H  44.01100 18.46500 27.47600
H  42.86800 18.44800 26.10000
H  42.50000 19.43900 27.61100
H  45.12800 24.91100 23.36200
H  47.48100 26.56400 23.50100
H  47.83000 24.50100 22.51700
H  46.59000 23.35000 22.34400
H  47.60100 23.18800 23.72100
H  45.09300 28.07400 24.36000
H  44.59700 26.96600 23.14700
H  47.07300 28.33100 22.35200
H  45.87600 29.52300 22.73600
H  45.61700 28.33400 21.48400
H  49.82600 30.13800 28.31600
H  48.42800 30.94400 27.82300
H  49.32400 30.00000 26.53900
H  46.33600 29.13800 31.91700
H  49.90500 29.47000 34.65900
H  48.60600 28.96500 35.71600
H  48.77700 30.74200 35.15800
Mg 9.86900 49.22000 26.67300
C  8.25800 49.00200 29.58100
C  12.77500 50.00200 28.22200
C  11.45100 48.95300 23.73100
C  6.94000 48.50700 24.85500
N  10.46300 49.63100 28.66900
C  9.57000 49.36400 29.70900
C  10.32000 49.56000 31.06100
C  11.77100 49.99500 30.61500
C  11.72200 49.86000 29.09400
C  12.10700 51.48400 30.98400
C  10.42700 48.37800 32.01800
C  9.81300 48.50400 33.48400
H  10.76300 48.87300 34.57400
N  11.79200 49.65700 25.94000
C  12.86800 49.87300 26.80400
C  14.08900 49.81300 26.01700
C  13.76600 49.50600 24.64900
C  12.28100 49.32100 24.72600
C  15.44300 50.03200 26.64400
C  14.71400 49.24700 23.40600
O  14.28300 49.03900 22.28700
C  16.17900 49.32500 23.61600
N  9.18600 49.13600 24.43100
C  10.10700 48.86400 23.53200
C  9.56300 48.38300 22.23200
C  8.10200 48.09800 22.61800
C  8.03400 48.68700 24.00100
C  9.67600 49.34500 21.06400
C  7.76500 46.66900 22.70200
C  8.49300 45.79800 23.66500
N  8.00500 48.80300 27.14000
C  6.86000 48.57700 26.32100
C  5.69600 48.35000 27.17700
C  6.20100 48.57800 28.44300
C  7.62200 48.64700 28.37600
C  4.33000 48.04900 26.82700
C  5.80200 48.73800 29.83100
O  4.76500 48.70300 30.42000
C  7.16100 48.85500 30.66500
C  7.32300 47.76400 31.59500
O  7.81800 46.70100 31.29600
O  6.67200 48.11600 32.71500
C  6.44100 47.04600 33.70800
H  13.63400 50.20900 28.86400
H  12.06300 48.56600 22.91400
H  5.99800 48.18000 24.41000
H  9.81300 50.36300 31.59600
H  12.51300 49.31900 31.03900
H  11.28600 52.19100 31.10000
H  12.67200 51.91700 30.15900
H  12.69800 51.56700 31.89500
H  11.48600 48.24700 32.23800
H  10.13900 47.45200 31.52000
H  9.31000 47.56600 33.72100
H  9.03300 49.22400 33.23700
H  15.45700 49.91300 27.72800
H  15.89700 51.02000 26.56500
H  16.09300 49.23500 26.28400
H  16.68500 49.38800 22.65300
H  16.50100 48.42400 24.13900
H  16.37900 50.23400 24.18300
H  10.06100 47.50500 21.82100
H  7.39100 48.70000 22.05100
H  10.56500 49.97600 21.06300
H  8.96900 50.17400 21.10000
H  9.65500 48.78700 20.12800
H  7.92800 46.20100 21.73100
H  6.72700 46.59200 23.02400
H  8.99600 46.37100 24.44400
H  9.26500 45.25400 23.12000
H  7.79000 45.10700 24.13100
H  3.56300 48.59700 27.37500
H  4.24400 46.98000 27.02100
H  4.18000 48.23500 25.76400
H  7.08500 49.71800 31.32600
H  5.35700 46.96000 33.78700
H  6.83500 47.28400 34.69500
H  6.70700 46.03600 33.39400

