158

Mg 6.56800 55.97300 42.23400
C  5.80700 52.53500 42.38800
C  9.79700 54.98700 41.01400
C  7.21900 59.07500 41.38400
C  3.19900 56.72800 42.70900
N  7.63200 53.97400 41.73700
C  7.08100 52.71900 41.86800
C  8.11900 51.65800 41.45300
C  9.45100 52.46500 41.40600
C  8.96600 53.90700 41.34300
C  10.52800 52.12500 42.46000
C  7.78800 50.78600 40.22600
C  7.34200 51.53100 38.99800
H  6.16400 50.87800 38.25400
N  8.25900 56.88200 41.43800
C  9.45200 56.35200 41.03900
C  10.31000 57.35500 40.56600
C  9.59200 58.60100 40.67200
C  8.31400 58.25000 41.24000
C  11.74800 57.06300 40.20500
C  10.20900 59.94000 40.38700
O  11.32600 60.07100 39.91500
C  9.43500 61.21700 40.64100
N  5.35300 57.64400 42.01600
C  5.96700 58.85400 41.89600
C  4.95000 59.95800 42.27100
C  3.52000 59.22400 42.33800
C  4.08200 57.73200 42.37000
C  5.23200 60.59500 43.66400
C  2.63600 59.55300 41.09400
C  1.61100 60.65700 41.40400
N  4.81800 54.94900 42.55400
C  3.51800 55.39000 42.87200
C  2.74200 54.25800 43.24700
C  3.55700 53.16100 43.19300
C  4.84600 53.56700 42.67600
C  1.35800 54.42300 43.70100
C  3.58900 51.73900 43.37000
O  2.75500 50.94700 43.84900
C  5.05500 51.26000 42.96100
C  4.81900 50.14100 42.13600
O  4.09000 50.07600 41.18800
O  5.62100 49.09600 42.55900
C  5.81200 47.88200 41.75800
H  10.81300 54.68100 40.75800
H  7.20300 60.12400 41.08200
H  2.16000 56.97400 42.94000
H  8.05800 50.96700 42.29400
H  9.91900 52.17800 40.46400
H  10.11900 51.41300 43.17700
H  10.93000 52.99600 42.97900
H  11.44000 51.71100 42.02900
H  7.00300 50.06500 40.45200
H  8.73700 50.32700 39.94700
H  8.18800 51.79600 38.36300
H  7.08200 52.53800 39.32300
H  11.91200 56.99300 39.13000
H  12.11100 56.14000 40.65700
H  12.26800 57.88500 40.69800
H  9.01000 61.23000 41.64400
H  8.56500 61.25300 39.98500
H  10.02300 62.12100 40.47900
H  4.92400 60.81700 41.60100
H  3.10500 59.50600 43.30600
H  4.52600 61.38800 43.90900
H  6.21300 61.05200 43.54000
H  5.23500 59.82000 44.43100
H  2.01100 58.69000 40.86700
H  3.10500 59.77100 40.13500
H  0.56600 60.36900 41.28700
H  1.78300 61.40400 40.63000
H  1.52500 61.08200 42.40400
H  0.60300 54.65300 42.95000
H  1.27800 55.14500 44.51400
H  0.99700 53.51100 44.17600
H  5.68900 50.90900 43.77500
H  6.82000 47.84200 41.34500
H  5.08600 47.71200 40.96300
H  5.64200 47.00600 42.38300
Mg -6.69500 24.81800 26.67200
C  -4.40200 26.12500 28.92200
C  -7.57300 22.51600 29.11800
C  -8.41900 23.18500 24.31300
C  -5.11800 26.77800 24.14800
N  -6.01300 24.34000 28.61700
C  -5.23700 25.17300 29.43000
C  -5.56400 25.00200 30.89100
C  -6.21800 23.57400 30.87100
C  -6.57200 23.44000 29.41600
C  -5.21300 22.42600 31.23000
C  -6.34100 26.18200 31.56700
C  -5.87900 26.73400 32.92800
H  -5.90000 25.77900 34.10500
N  -7.91000 23.22000 26.72600
C  -8.23200 22.47800 27.85400
C  -9.29400 21.57400 27.58100
C  -9.60200 21.79600 26.18500
C  -8.60300 22.74500 25.66900
C  -9.92900 20.54400 28.46600
C  -10.75800 21.25100 25.29500
O  -10.99000 21.55200 24.13900
C  -11.70900 20.18800 25.91600
N  -6.82500 24.98500 24.59500
C  -7.59800 24.22700 23.79300
C  -7.53900 24.63500 22.25100
C  -6.65600 25.93800 22.33700
C  -6.21000 25.92900 23.78800
C  -7.05300 23.49600 21.25900
C  -7.37900 27.19300 22.01800
C  -7.69600 27.40800 20.44100
N  -5.06100 26.15600 26.52600
C  -4.55100 26.87000 25.43100
C  -3.49000 27.75700 25.93700
C  -3.43600 27.49900 27.28600
C  -4.42300 26.54100 27.56600
C  -2.64500 28.78400 25.24700
C  -2.81200 27.95700 28.44500
O  -1.90900 28.71000 28.63300
C  -3.33800 27.05200 29.56400
C  -2.18400 26.34200 30.15200
O  -1.68600 25.38000 29.60500
O  -2.02300 26.73300 31.48600
C  -1.09300 25.87400 32.23800
H  -7.98000 21.88000 29.90800
H  -9.00400 22.81000 23.47000
H  -4.67100 27.48900 23.45000
H  -4.61400 24.96600 31.42400
H  -7.06500 23.50200 31.55300
H  -4.25200 22.74400 31.63600
H  -5.03500 21.77600 30.37300
H  -5.80000 21.82600 31.92400
H  -7.37900 25.86200 31.64900
H  -6.20600 27.11100 31.01300
H  -6.41700 27.62900 33.23800
H  -4.88300 27.16200 32.81300
H  -10.97300 20.78500 28.66600
H  -9.59700 20.58300 29.50400
H  -9.72000 19.55000 28.07100
H  -11.16300 19.32000 26.28700
H  -12.46400 19.73300 25.27500
H  -12.22300 20.65100 26.75800
H  -8.51000 25.03900 21.96600
H  -5.79100 25.80000 21.68900
H  -7.10800 22.53700 21.77400
H  -5.98300 23.66300 21.13900
H  -7.73000 23.41000 20.40900
H  -6.89500 28.03900 22.50600
H  -8.32100 27.20800 22.56600
H  -7.46200 26.55700 19.80200
H  -7.10700 28.22200 20.01800
H  -8.73100 27.70600 20.27300
H  -3.23200 29.28500 24.47700
H  -1.74100 28.34300 24.82600
H  -2.31400 29.56900 25.92700
H  -3.76500 27.62900 30.38400
H  -0.20600 25.66100 31.64100
H  -1.61800 25.00300 32.63000
H  -0.71100 26.34300 33.14400

