158

Mg -2.39100 17.26600 26.26700
C  -2.97400 14.74300 28.72300
C  -3.09300 19.57800 28.43200
C  -2.44000 19.44400 23.73800
C  -2.80800 14.63100 23.88900
N  -3.15200 17.14900 28.32200
C  -3.06200 16.05100 29.22300
C  -3.13700 16.55300 30.64900
C  -3.41900 18.06400 30.46700
C  -3.27500 18.31100 28.99800
C  -4.69600 18.53700 31.14200
C  -1.88800 16.18000 31.52700
C  -1.82200 16.98100 32.82900
H  -1.76300 16.22300 34.12200
N  -2.45300 19.30700 26.18500
C  -2.72200 20.12800 27.25900
C  -2.45500 21.53000 26.79800
C  -2.23100 21.45300 25.35100
C  -2.37800 20.04900 25.00300
C  -2.67900 22.68100 27.70200
C  -1.81300 22.51700 24.33400
O  -1.67200 22.32800 23.15000
C  -1.60400 23.89400 24.78200
N  -2.60100 17.04500 24.14900
C  -2.52900 18.12000 23.32400
C  -2.74500 17.76500 21.87400
C  -2.76300 16.21900 21.93800
C  -2.68200 15.92100 23.43300
C  -4.05300 18.43800 21.40100
C  -1.65200 15.56000 21.06400
C  -2.14200 14.81400 19.85900
N  -2.68000 15.13800 26.28200
C  -2.69000 14.24000 25.23600
C  -2.77300 12.86000 25.74700
C  -2.81700 12.99300 27.11700
C  -2.89200 14.41800 27.37400
C  -2.98800 11.55300 24.93600
C  -2.94500 12.30100 28.35600
O  -2.96700 11.06500 28.57200
C  -3.09700 13.36300 29.43100
C  -1.90400 13.09800 30.34800
O  -0.86200 13.68900 30.31500
O  -2.33100 12.17600 31.28400
C  -1.50600 12.10700 32.55700
H  -3.14700 20.21300 29.31900
H  -2.36100 20.08400 22.85700
H  -2.84900 13.85100 23.12600
H  -3.93600 16.06300 31.20600
H  -2.51500 18.56000 30.82000
H  -5.37600 18.86400 30.35600
H  -4.48200 19.41200 31.75600
H  -5.16100 17.73100 31.71000
H  -0.93700 16.26300 31.00100
H  -1.88100 15.13000 31.82100
H  -2.62700 17.70700 32.93900
H  -0.90300 17.55600 32.71400
H  -3.02500 22.46800 28.71400
H  -3.41000 23.38900 27.31000
H  -1.70200 23.14800 27.82200
H  -0.97700 23.96300 25.67100
H  -2.54400 24.33200 25.11900
H  -1.24900 24.48600 23.93900
H  -1.90900 18.19700 21.32400
H  -3.73800 15.85900 21.60800
H  -4.38900 19.15400 22.15000
H  -4.81700 17.70200 21.14700
H  -3.86800 19.09100 20.54800
H  -1.12200 14.81700 21.66100
H  -0.86200 16.23900 20.74500
H  -2.72500 13.93000 20.11600
H  -1.21800 14.50900 19.36900
H  -2.66400 15.47300 19.16500
H  -4.04000 11.27600 24.87300
H  -2.43600 10.71000 25.35000
H  -2.58700 11.67800 23.93000
H  -4.04200 13.12200 29.91900
H  -1.31500 13.11800 32.91900
H  -0.59100 11.57700 32.29500
H  -1.93100 11.46300 33.32700
Mg -10.65400 16.55800 42.90600
C  -7.15700 17.06900 42.93500
C  -11.17700 19.86800 42.50400
C  -13.91500 15.87700 42.18600
C  -9.90100 13.02300 42.66100
N  -9.31900 18.25700 42.65500
C  -7.92000 18.24000 42.70400
C  -7.39700 19.73700 42.56900
C  -8.72600 20.61100 42.68300
C  -9.81700 19.52000 42.64400
C  -8.85400 21.51400 43.89600
C  -6.52900 19.98900 41.21900
C  -5.03400 20.22100 41.45300
H  -4.13600 19.38500 40.58600
N  -12.29900 17.71200 42.33000
C  -12.36900 19.08100 42.26000
C  -13.70100 19.45400 41.86700
C  -14.51100 18.30900 41.79400
C  -13.55600 17.23000 42.05700
C  -14.16400 20.88300 41.47500
C  -16.04900 18.31200 41.42200
O  -16.62400 19.38000 41.48900
C  -16.78600 17.12200 41.15700
N  -11.65900 14.66300 42.21100
C  -13.05000 14.74700 42.35100
C  -13.57500 13.31200 42.68500
C  -12.30900 12.38000 42.49200
C  -11.21300 13.42100 42.46500
C  -14.38100 13.23700 44.07500
C  -12.40700 11.55200 41.15500
C  -11.92200 10.07200 41.21500
N  -8.89800 15.24600 42.88700
C  -8.77300 13.85200 42.85700
C  -7.43400 13.54500 42.98600
C  -6.70500 14.78500 43.07900
C  -7.69400 15.76100 42.89600
C  -6.99000 12.20700 42.99800
C  -5.39200 15.35400 43.14200
O  -4.29600 14.82400 43.14200
C  -5.62600 16.92000 43.22500
C  -5.27700 17.18700 44.65800
O  -6.03000 17.06300 45.61800
O  -4.03200 17.77400 44.67800
C  -3.58500 18.29600 45.98900
H  -11.16700 20.95500 42.40400
H  -14.97700 15.67000 42.33000
H  -9.77600 11.94100 42.74400
H  -6.83000 20.00100 43.46200
H  -8.85300 21.27900 41.83100
H  -7.86700 21.97000 43.97700
H  -9.21800 20.88300 44.70600
H  -9.51600 22.34200 43.64600
H  -7.00600 20.76100 40.61600
H  -6.71400 19.11400 40.59500
H  -4.80700 19.99900 42.49600
H  -4.87600 21.28200 41.25700
H  -13.19900 21.37200 41.34600
H  -14.80000 21.30700 42.25200
H  -14.69600 20.76200 40.53100
H  -17.77900 17.45800 40.85800
H  -16.85500 16.63000 42.12700
H  -16.18900 16.50400 40.48600
H  -14.34600 12.93200 42.01400
H  -12.19400 11.72400 43.35500
H  -14.41600 14.20100 44.58100
H  -13.61500 12.82800 44.73400
H  -15.30900 12.67100 44.00000
H  -11.82500 12.14300 40.44800
H  -13.46400 11.54300 40.88800
H  -11.66300 9.85000 42.25000
H  -11.07800 9.92700 40.54100
H  -12.70300 9.34900 40.97800
H  -7.65000 11.35300 43.15200
H  -6.22500 12.19900 43.77500
H  -6.40800 12.18200 42.07700
H  -4.92400 17.41900 42.55800
H  -3.06300 19.21200 45.71400
H  -2.94600 17.49900 46.37100
H  -4.33500 18.64600 46.69800

