158

Mg 35.73200 1.44600 30.54200
C  33.37200 2.59800 32.93400
C  38.15400 1.55200 33.00700
C  37.83500 0.71300 28.20200
C  33.03900 1.71600 28.18200
N  35.80400 2.17100 32.68400
C  34.70500 2.50600 33.45400
C  35.14700 2.68400 34.96200
C  36.69300 2.80600 34.78000
C  36.90700 2.06800 33.44200
C  37.24200 4.29200 34.91300
C  34.61800 1.51200 35.85500
C  33.84600 2.01700 37.12000
H  34.33400 3.40400 37.69800
N  37.68500 0.96800 30.66400
C  38.50300 0.98700 31.77600
C  39.71600 0.38800 31.38000
C  39.56100 0.01800 30.03300
C  38.32400 0.57800 29.56100
C  40.82900 0.17700 32.42000
C  40.47600 -0.79500 29.17400
O  40.24800 -0.98000 28.02400
C  41.87400 -1.33300 29.66300
N  35.47800 1.31900 28.49800
C  36.57800 1.10000 27.71900
C  36.27800 1.29300 26.20600
C  34.72600 1.28300 26.17400
C  34.36700 1.45500 27.71200
C  36.92200 2.53200 25.44500
C  34.05000 -0.02400 25.66500
C  32.70800 0.27500 25.01200
N  33.57700 1.94900 30.50300
C  32.68500 2.00300 29.46800
C  31.38000 2.45100 29.93100
C  31.61400 2.62200 31.34300
C  32.95600 2.37900 31.55500
C  30.08300 2.64400 29.23500
C  30.99000 3.00400 32.62700
O  29.80200 3.20900 32.89300
C  32.10000 2.92000 33.76200
C  31.91600 4.25400 34.46600
O  32.34600 5.34400 34.15100
O  31.23200 4.09500 35.61400
C  31.00100 5.29500 36.35200
H  38.89200 1.76500 33.78300
H  38.57100 0.51200 27.42000
H  32.19300 1.77000 27.49400
H  34.73000 3.65400 35.23400
H  37.12100 2.19800 35.57700
H  37.79800 4.57900 34.02100
H  37.95600 4.31900 35.73600
H  36.57900 5.11200 35.18900
H  35.44200 0.92000 36.25200
H  33.96200 0.91900 35.21800
H  33.75900 1.27200 37.91100
H  32.85200 2.14500 36.69100
H  40.79500 -0.80400 32.89500
H  40.79100 1.00700 33.12500
H  41.75200 0.20000 31.84100
H  41.75200 -2.00900 30.51000
H  42.61100 -0.54000 29.78900
H  42.29800 -1.97500 28.89100
H  36.66500 0.47700 25.59600
H  34.26600 2.16600 25.73100
H  36.22400 3.11400 24.84300
H  37.82000 2.16100 24.95100
H  37.29500 3.19600 26.22400
H  34.02100 -0.76200 26.46600
H  34.70400 -0.48100 24.92200
H  32.27100 1.23600 25.28500
H  31.99600 -0.49900 25.29900
H  32.86300 0.07700 23.95200
H  30.31200 2.87700 28.19400
H  29.55900 3.51600 29.62800
H  29.54800 1.69700 29.17500
H  31.92800 2.14900 34.51200
H  30.81000 5.03200 37.39200
H  30.21900 5.96000 35.98500
H  31.94000 5.84900 36.33300
Mg 54.75500 22.56600 44.53600
C  52.07200 24.73800 43.69700
C  52.64600 19.97300 43.49200
C  57.24500 20.41600 44.88800
C  56.70600 25.24600 45.32800
N  52.65500 22.38800 43.45100
C  51.75300 23.41100 43.21400
C  50.41700 22.92000 42.83700
C  50.47500 21.36500 43.17600
C  52.04000 21.21000 43.37400
C  49.70300 20.99800 44.59000
C  50.02100 23.22700 41.36300
C  48.54000 23.34200 41.21000
H  47.81000 23.23000 39.80700
N  54.94000 20.45000 44.31500
C  53.99100 19.63400 43.82800
C  54.53500 18.31600 43.85700
C  55.84000 18.31300 44.39100
C  56.12800 19.74100 44.48800
C  53.62900 17.20400 43.36800
C  56.79400 17.17500 44.68500
O  56.45500 16.05500 44.35100
C  58.13300 17.39000 45.29000
N  56.73400 22.81900 44.89600
C  57.48900 21.79000 45.23700
C  58.78100 22.25500 45.80400
C  58.61700 23.76400 45.90900
C  57.22000 23.94600 45.39100
C  59.13600 21.51000 47.16200
C  59.78200 24.66000 45.24600
C  60.04900 26.04600 45.81100
N  54.44900 24.63300 44.58500
C  55.36400 25.59400 45.03900
C  54.62300 26.85400 45.05600
C  53.37200 26.53700 44.61500
C  53.29200 25.15400 44.28100
C  55.16000 28.13500 45.64500
C  52.01600 27.07000 44.37300
O  51.52000 28.16500 44.55700
C  51.17400 25.93600 43.71700
C  50.81500 26.34700 42.31900
O  51.62100 26.50000 41.42400
O  49.43900 26.63700 42.14100
C  48.97500 27.02000 40.83000
H  51.88400 19.24200 43.21100
H  58.05700 19.70400 45.04900
H  57.23900 26.12400 45.69900
H  49.59500 23.34200 43.41500
H  50.01400 20.73500 42.41500
H  49.33200 21.86800 45.13200
H  50.33600 20.67300 45.41600
H  48.86200 20.31300 44.48800
H  50.28200 22.34000 40.78600
H  50.46500 24.16500 41.02700
H  48.25200 24.33300 41.56200
H  47.99900 22.64100 41.84600
H  53.29000 17.40100 42.35100
H  52.81200 16.93300 44.03800
H  54.30000 16.35100 43.27100
H  58.03000 17.93900 46.22600
H  58.87900 17.74400 44.57700
H  58.40600 16.40200 45.66100
H  59.63300 21.93500 45.20500
H  58.60400 24.06000 46.95800
H  60.18000 21.34200 47.42700
H  58.58100 20.57200 47.13700
H  58.76000 21.98200 48.07000
H  59.43700 24.70300 44.21300
H  60.69900 24.07200 45.21300
H  59.84100 26.83800 45.09200
H  61.05900 26.04300 46.22000
H  59.40600 26.33700 46.64200
H  54.87600 28.12400 46.69700
H  54.65400 28.98500 45.18700
H  56.23500 28.21600 45.48100
H  50.25000 25.71500 44.25100
H  49.67500 26.90000 40.00300
H  48.74400 28.08000 40.93400
H  48.01700 26.55200 40.60100

