158

Mg 40.77200 8.88500 29.84700
C  42.60300 10.46300 32.40100
C  38.68900 7.51500 32.29400
C  38.89800 7.78500 27.39400
C  43.32900 9.69100 27.64700
N  40.66300 9.10300 32.11700
C  41.44900 9.81400 32.91700
C  41.08800 9.65800 34.34700
C  39.85500 8.62600 34.37900
C  39.70600 8.31800 32.86700
C  40.14800 7.29900 35.05000
C  40.50900 11.02400 34.82200
C  39.95000 11.00500 36.30700
H  40.51600 12.00600 37.28700
N  39.03000 7.73500 29.82400
C  38.36200 7.24200 30.92200
C  37.22200 6.49100 30.43100
C  37.17400 6.73500 28.99400
C  38.32400 7.42900 28.65900
C  36.21900 5.72700 31.26500
C  36.05200 6.33900 27.92700
O  36.19100 6.44000 26.72800
C  34.74700 5.72600 28.39700
N  41.08200 8.70800 27.81900
C  40.09400 8.28600 26.97900
C  40.63600 8.31100 25.53300
C  42.08400 8.80400 25.64700
C  42.14700 9.08300 27.13700
C  40.56100 6.85400 24.84200
C  42.33200 9.99500 24.74300
C  41.64300 11.35800 25.00300
N  42.49200 9.95400 29.94500
C  43.38800 10.29200 28.93500
C  44.49600 11.06900 29.52500
C  44.18000 11.23000 30.87500
C  42.99200 10.51600 31.08200
C  45.81600 11.45200 28.96000
C  44.63600 11.78700 32.14300
O  45.69500 12.34400 32.39400
C  43.61100 11.40400 33.19300
C  44.34200 10.75300 34.26100
O  45.10600 9.79700 34.17900
O  43.91900 11.37100 35.44000
C  44.08500 10.62000 36.62000
H  38.05600 6.97100 32.99700
H  38.28800 7.39000 26.57800
H  44.18600 9.80600 26.98000
H  41.96800 9.45000 34.95500
H  38.87000 8.93600 34.72900
H  40.04700 6.53200 34.28200
H  39.33100 7.37500 35.76700
H  41.12800 7.36000 35.52200
H  39.72500 11.27100 34.10600
H  41.35300 11.69200 34.65000
H  40.22300 10.02900 36.70700
H  38.87600 11.18500 36.25900
H  36.10500 4.78200 30.73500
H  35.30500 6.29000 31.45800
H  36.49200 5.56100 32.30700
H  34.23800 5.27000 27.54800
H  34.22600 6.38300 29.09300
H  35.07900 4.84700 28.94900
H  40.10500 8.97100 24.84600
H  42.71600 7.96600 25.35500
H  40.65100 6.12300 25.64600
H  41.37200 6.59900 24.15900
H  39.62600 6.88300 24.28300
H  42.23100 9.60100 23.73200
H  43.38200 10.28000 24.68500
H  40.76300 11.05000 25.56800
H  41.20400 11.76000 24.09000
H  42.34800 12.12100 25.33300
H  45.47600 12.13900 28.18500
H  46.40200 10.61300 28.58700
H  46.38700 11.94600 29.74600
H  43.20100 12.37800 33.45800
H  43.81100 11.25600 37.46200
H  45.14800 10.38700 36.55700
H  43.35900 9.82700 36.43900
Mg 48.55600 34.89200 26.49400
C  46.42200 33.60600 29.00300
C  49.02500 37.65100 28.42000
C  50.15600 36.24800 23.88800
C  47.64500 32.13000 24.51700
N  47.71000 35.54600 28.48000
C  47.08400 34.73400 29.39500
C  47.14100 35.36400 30.75800
C  47.85800 36.73300 30.54700
C  48.26200 36.58000 29.06700
C  46.98000 37.98900 30.84100
C  47.97100 34.37200 31.71300
C  47.64600 34.49800 33.19500
H  46.72800 35.58700 33.57800
N  49.50500 36.76500 26.18100
C  49.58500 37.76300 27.13700
C  50.37300 38.82000 26.53700
C  50.49800 38.56500 25.15600
C  50.04600 37.18000 24.96400
C  50.83500 40.03700 27.30800
C  51.07200 39.47100 23.96300
O  51.08700 39.05300 22.82600
C  51.43200 40.88300 24.22300
N  48.79900 34.29700 24.52200
C  49.61600 34.99200 23.63000
C  50.07200 34.21000 22.42400
C  49.22900 32.85200 22.61100
C  48.51700 33.08600 23.99100
C  49.88900 34.97600 21.12900
C  50.17600 31.54200 22.58200
C  50.87500 31.19300 21.24000
N  47.30500 33.21200 26.67500
C  47.02800 32.17000 25.76300
C  46.00900 31.25700 26.29700
C  45.78500 31.78600 27.55800
C  46.53700 32.98900 27.73400
C  45.49200 30.02800 25.57400
C  44.92400 31.62700 28.75300
O  44.08900 30.76200 29.04200
C  45.25100 32.85000 29.73100
C  45.54400 32.30000 31.09700
O  46.38400 31.39600 31.35500
O  44.51000 32.76300 31.98600
C  44.57800 32.38200 33.43200
H  49.31000 38.48200 29.06800
H  50.73800 36.60500 23.03600
H  47.52200 31.20000 23.95800
H  46.11800 35.51900 31.09900
H  48.78500 36.88000 31.10100
H  47.70100 38.74400 31.15400
H  46.28600 37.80200 31.66100
H  46.48900 38.18900 29.88900
H  49.04000 34.57000 31.78700
H  47.88500 33.33800 31.38000
H  48.54900 34.73100 33.76000
H  47.21900 33.59100 33.62300
H  50.54700 40.09500 28.35800
H  50.50700 40.95500 26.82100
H  51.91500 40.16300 27.23000
H  52.02700 40.92100 25.13600
H  50.49300 41.42200 24.35200
H  51.85900 41.35200 23.33700
H  51.11000 34.00000 22.68200
H  48.44300 32.77000 21.86100
H  49.03600 34.57200 20.58200
H  50.87500 34.85200 20.68300
H  49.51400 35.99600 21.21400
H  49.52700 30.73000 22.90800
H  50.93700 31.63600 23.35700
H  50.68100 31.97100 20.50100
H  50.47700 30.26600 20.82700
H  51.95400 31.24000 21.38500
H  44.42000 30.02900 25.77400
H  45.94200 29.17600 26.08300
H  45.66300 29.94000 24.50100
H  44.37300 33.49400 29.67600
H  44.95700 33.24200 33.98500
H  45.13100 31.47100 33.65900
H  43.51700 32.24200 33.63700

