158

Mg 29.92000 58.53000 39.11400
C  27.14500 56.58100 38.12100
C  32.00600 55.92100 38.24800
C  32.54200 60.64000 39.03500
C  27.72100 61.29700 39.32400
N  29.61100 56.55700 38.25000
C  28.42900 55.95600 37.86000
C  28.74000 54.57800 37.24000
C  30.19400 54.34500 37.59500
C  30.64400 55.67600 38.07600
C  30.43600 53.19500 38.61400
C  28.49700 54.60500 35.68400
C  27.44400 53.73600 35.00200
H  26.62900 54.31000 33.87500
N  32.04500 58.36000 38.83400
C  32.66600 57.15100 38.51000
C  34.04700 57.43500 38.23000
C  34.30200 58.79500 38.62900
C  32.94500 59.35000 38.79900
C  35.15200 56.43000 37.83300
C  35.63600 59.49000 38.74600
O  36.65200 59.01600 38.28700
C  35.69800 60.80000 39.44300
N  30.09100 60.66400 39.12200
C  31.31000 61.29100 39.15100
C  31.20500 62.72900 39.10800
C  29.71300 63.05700 39.45000
C  29.12000 61.62200 39.20400
C  32.17600 63.43800 40.09100
C  29.01400 64.22700 38.53900
C  29.13100 65.60400 39.26800
N  27.85100 58.95700 38.88700
C  27.10500 60.09600 39.12800
C  25.67300 59.77100 39.08300
C  25.63800 58.42700 38.64600
C  26.93600 57.95500 38.55900
C  24.53000 60.69200 39.13500
C  24.81300 57.33400 38.22600
O  23.60400 57.23300 38.19300
C  25.75500 56.04700 37.93800
C  25.44100 54.91000 38.85200
O  25.33300 54.98500 40.08800
O  25.33800 53.77300 38.15400
C  25.09000 52.52800 38.90500
H  32.58600 55.05800 37.91200
H  33.33700 61.38400 38.96100
H  27.04400 62.15400 39.29200
H  28.02300 53.85300 37.62400
H  30.81300 54.08000 36.73800
H  31.37300 52.67900 38.40400
H  29.59800 52.50000 38.66000
H  30.53600 53.65500 39.59700
H  29.39000 54.28400 35.14700
H  28.42900 55.64900 35.37800
H  26.69300 53.30400 35.66400
H  27.92500 52.89900 34.49600
H  35.59500 56.70200 36.87500
H  35.00300 55.35100 37.82600
H  35.91600 56.63800 38.58200
H  36.64200 60.95600 39.96400
H  34.94800 60.91000 40.22700
H  35.51600 61.56500 38.68800
H  31.42500 63.09600 38.10600
H  29.43600 63.37900 40.45400
H  33.07000 62.94700 40.47400
H  31.75700 64.04800 40.89100
H  32.77000 64.12000 39.48300
H  28.05200 64.01600 38.07100
H  29.71900 64.36200 37.71900
H  29.68100 66.28700 38.62100
H  29.64700 65.50100 40.22300
H  28.21100 66.15000 39.47800
H  23.93600 60.68700 38.22100
H  24.85500 61.71000 39.35100
H  23.71600 60.36700 39.78200
H  25.57100 55.70400 36.92000
H  24.41500 52.05200 38.19400
H  24.66200 52.70100 39.89200
H  26.06900 52.05100 38.95700
Mg 26.09900 49.37800 25.93400
C  24.13400 51.01200 28.36200
C  28.57900 48.95000 28.20500
C  28.12700 48.48100 23.43300
C  23.69800 50.51700 23.45600
N  26.27700 49.79000 28.05700
C  25.28100 50.36800 28.80300
C  25.61400 50.16800 30.25800
C  27.19200 49.79200 30.15500
C  27.44400 49.56100 28.72100
C  28.22000 50.77500 30.78100
C  24.67200 49.19000 31.10100
C  24.11000 49.76800 32.40100
H  25.13800 50.11800 33.46800
N  28.02800 48.62000 25.84200
C  28.92900 48.56500 26.85000
C  30.14200 47.99400 26.41800
C  30.05400 47.95500 24.99100
C  28.68700 48.38300 24.65800
C  31.31100 47.74100 27.38000
C  31.22400 47.69000 23.95300
O  30.98200 47.78900 22.75400
C  32.57900 47.45300 24.38500
N  25.89900 49.54100 23.78700
C  26.84900 48.90900 22.98800
C  26.40000 48.92700 21.46800
C  24.90500 49.42900 21.58700
C  24.78000 49.82000 23.02200
C  27.33800 49.81600 20.58400
C  23.87500 48.23100 21.33300
C  23.93200 46.95100 22.24600
N  24.31100 50.55700 25.89100
C  23.41800 50.85100 24.85400
C  22.33600 51.61900 25.44400
C  22.52600 51.66400 26.79500
C  23.76800 51.10400 27.03200
C  21.19300 52.12800 24.68600
C  21.96900 52.08800 28.03800
O  20.93500 52.68500 28.19600
C  22.90400 51.51800 29.12700
C  23.28300 52.61700 30.07900
O  24.35000 53.19100 30.13800
O  22.42500 52.60800 31.13600
C  22.80500 53.52900 32.22300
H  29.37200 48.74800 28.92800
H  28.74900 48.11900 22.61100
H  23.08900 50.92400 22.64600
H  25.57800 51.14000 30.75000
H  27.27300 48.85600 30.70800
H  27.68200 51.36700 31.52100
H  28.85400 51.28800 30.05700
H  28.88300 50.14900 31.37800
H  25.34000 48.36500 31.34700
H  23.75800 48.85300 30.61100
H  23.40500 49.06300 32.84000
H  23.62200 50.71200 32.15800
H  31.90800 46.94700 26.93200
H  31.07200 47.36800 28.37600
H  31.89100 48.65000 27.54000
H  33.13800 47.70200 23.48300
H  32.62100 46.38400 24.59300
H  32.85400 48.09800 25.22000
H  26.48100 47.92100 21.05600
H  24.74100 50.30800 20.96400
H  28.34200 49.73800 20.99900
H  26.91400 50.81700 20.50500
H  27.26600 49.30400 19.62400
H  24.04900 47.84000 20.33000
H  22.86000 48.63000 21.33000
H  23.96900 46.12600 21.53500
H  23.01500 46.82700 22.82100
H  24.78600 46.93300 22.92400
H  21.57500 52.99600 24.14700
H  20.35800 52.38900 25.33600
H  20.96500 51.37000 23.93700
H  22.44900 50.85100 29.86000
H  23.40000 52.95500 32.93300
H  21.88600 53.77500 32.75400
H  23.36000 54.44600 32.02600

