158

Mg 25.09300 0.87000 29.97000
C  27.18200 0.60400 32.77700
C  22.43800 1.36600 32.20900
C  22.88900 0.52800 27.35500
C  27.66000 -0.33500 27.94800
N  24.85600 1.05100 32.19200
C  25.86200 0.89600 33.10300
C  25.40700 1.23500 34.55200
C  23.83800 1.36200 34.33100
C  23.68900 1.27900 32.80800
C  22.98100 0.28400 35.10600
C  26.10200 2.53400 35.09300
C  26.58300 2.33300 36.54000
H  26.02800 3.20100 37.67800
N  22.98100 0.94600 29.81800
C  22.10300 1.23300 30.87400
C  20.76500 1.31300 30.36800
C  20.90200 0.92400 28.97900
C  22.29100 0.75600 28.65700
C  19.55100 1.59800 31.13700
C  19.74500 0.70700 28.00800
O  19.94000 0.19800 26.90000
C  18.38100 0.94900 28.39300
N  25.24900 0.16900 27.98000
C  24.19200 0.23300 27.06400
C  24.71100 0.04400 25.60100
C  26.24200 0.00200 25.76400
C  26.43900 -0.01900 27.31800
C  24.05100 -1.20900 24.88300
C  27.03100 1.20500 25.13000
C  27.45600 2.46700 25.95800
N  27.08200 0.39500 30.18200
C  27.96300 -0.09200 29.33000
C  29.24800 -0.33200 30.01000
C  28.97800 -0.11600 31.33400
C  27.65300 0.28000 31.43600
C  30.58300 -0.71700 29.29900
C  29.52100 -0.19000 32.63600
O  30.61900 -0.49700 33.05100
C  28.46500 0.40100 33.60700
C  28.26500 -0.55200 34.72800
O  27.61600 -1.58700 34.73900
O  28.97600 -0.12400 35.78000
C  28.67000 -0.80400 37.02800
H  21.60800 1.63100 32.86700
H  22.23600 0.64300 26.48700
H  28.44100 -0.59200 27.22900
H  25.58900 0.42500 35.25900
H  23.42800 2.33800 34.59400
H  22.94400 -0.71000 34.66000
H  21.95200 0.64400 35.11500
H  23.30200 0.04500 36.12000
H  25.39600 3.34800 34.92300
H  27.02300 2.71200 34.53800
H  27.67200 2.29200 36.57600
H  26.27100 1.33100 36.83300
H  19.67100 1.81400 32.19900
H  19.06000 0.62500 31.16700
H  18.94000 2.39700 30.71800
H  17.73500 0.62600 27.57700
H  18.24500 1.98900 28.68800
H  18.15000 0.28100 29.22300
H  24.44800 0.89300 24.97000
H  26.65000 -0.93000 25.37400
H  23.09700 -1.07200 24.37400
H  23.81600 -1.94800 25.64900
H  24.79700 -1.59000 24.18600
H  26.42200 1.67700 24.35900
H  27.91100 0.84700 24.59700
H  28.53500 2.61000 26.02300
H  27.16300 2.30100 26.99500
H  26.87300 3.30400 25.57600
H  30.78300 -0.12900 28.40400
H  30.30500 -1.73600 29.03100
H  31.49300 -0.70300 29.90000
H  28.86900 1.33000 34.00900
H  27.63100 -0.55700 37.24500
H  29.35200 -0.44100 37.79700
H  28.78800 -1.88400 36.93500
Mg 39.83600 9.14300 29.16100
C  41.92200 10.14500 31.73300
C  37.66700 7.67000 31.55000
C  38.00600 7.82300 26.70100
C  42.26500 10.22600 26.88000
N  39.83600 8.90500 31.38900
C  40.72100 9.53100 32.25300
C  40.26300 9.55400 33.70900
C  39.02600 8.62800 33.61400
C  38.78500 8.33600 32.10100
C  39.16200 7.37100 34.53800
C  39.75300 11.07200 34.10000
C  39.25200 11.17400 35.57200
H  40.01700 12.23400 36.41800
N  38.02100 8.05200 29.15400
C  37.39000 7.47900 30.21800
C  36.22700 6.75000 29.71700
C  36.10900 6.96900 28.34600
C  37.43100 7.63100 27.99500
C  35.21100 6.13500 30.67900
C  35.08600 6.53300 27.42400
O  35.28200 6.64400 26.20400
C  33.74400 5.92900 27.88700
N  40.20900 8.93700 27.03500
C  39.22600 8.35700 26.28200
C  39.56000 8.50900 24.82600
C  40.86700 9.43400 24.85400
C  41.16200 9.51800 26.31100
C  39.65400 7.19100 24.05500
C  40.64700 10.77900 24.15800
C  39.83900 11.86000 24.89600
N  41.75800 10.02500 29.22600
C  42.62200 10.46700 28.22800
C  43.69800 11.24600 28.75300
C  43.50400 11.09300 30.13500
C  42.32300 10.33400 30.40100
C  44.70800 11.84000 27.91700
C  43.97500 11.39500 31.44700
O  44.97200 12.01900 31.79900
C  43.06900 10.75800 32.53000
C  43.94100 9.79700 33.39600
O  44.45200 8.75900 33.02900
O  44.06600 10.32100 34.65800
C  44.94700 9.52100 35.57300
H  37.01400 7.35300 32.36600
H  37.41000 7.39000 25.89600
H  42.90500 10.72700 26.15000
H  41.03500 9.15400 34.36600
H  38.06700 9.09600 33.83500
H  38.66200 7.60600 35.47800
H  40.20900 7.19000 34.78200
H  38.65800 6.47100 34.18500
H  38.82300 11.37400 33.61800
H  40.50500 11.85200 33.98700
H  39.31400 10.19600 36.04800
H  38.17700 11.34300 35.62800
H  34.21900 6.58800 30.65700
H  35.43600 5.93200 31.72600
H  34.93800 5.14200 30.32400
H  33.25900 6.52600 28.66000
H  33.97900 4.94000 28.28100
H  33.06000 5.82300 27.04500
H  38.67700 8.99100 24.40500
H  41.69400 8.91300 24.37200
H  40.54200 7.04500 23.43900
H  38.75500 7.10100 23.44500
H  39.62200 6.31800 24.70700
H  40.03600 10.49200 23.30100
H  41.54800 11.28700 23.81600
H  40.47600 12.73500 24.77100
H  39.81500 11.62500 25.96000
H  38.83700 11.95400 24.47700
H  45.40600 11.08300 27.56000
H  45.21100 12.59500 28.52000
H  44.28300 12.43500 27.10900
H  42.71300 11.59600 33.12900
H  44.63800 9.48300 36.61800
H  45.93500 9.98100 35.59900
H  45.12600 8.49900 35.23800

