158

Mg -1.66800 17.28500 26.13400
C  -2.38000 15.21200 28.92800
C  -2.23900 19.99100 28.15000
C  -1.35600 19.25600 23.31900
C  -1.90100 14.42300 24.03400
N  -2.33200 17.57200 28.27400
C  -2.42400 16.59500 29.27900
C  -2.67300 17.27300 30.63700
C  -2.89400 18.81900 30.29700
C  -2.38500 18.76200 28.81100
C  -4.33300 19.38000 30.42800
C  -1.53800 17.07900 31.61900
C  -1.66400 17.93700 32.88200
H  -2.01400 17.11000 34.19000
N  -1.77100 19.32400 25.78700
C  -1.94200 20.31100 26.76300
C  -1.88500 21.63600 26.19900
C  -1.62300 21.39300 24.81500
C  -1.55200 19.95800 24.57900
C  -2.02100 22.90300 27.05000
C  -1.46300 22.47900 23.67200
O  -1.28300 22.21500 22.51000
C  -1.66800 23.84400 24.04200
N  -1.51400 16.81000 23.97300
C  -1.35100 17.83800 23.04300
C  -1.16800 17.24700 21.58300
C  -1.05700 15.69600 21.90600
C  -1.42400 15.60100 23.39700
C  -2.27800 17.59300 20.62400
C  0.33200 14.93100 21.66800
C  1.58600 15.73000 21.99000
N  -2.11000 15.25900 26.37000
C  -2.17000 14.18500 25.45400
C  -2.46800 12.93000 26.05900
C  -2.45900 13.28800 27.43100
C  -2.24000 14.69800 27.54900
C  -2.62500 11.61800 25.45200
C  -2.58000 12.75500 28.81500
O  -2.75100 11.61400 29.23000
C  -2.48900 14.05000 29.83000
C  -1.33000 13.87200 30.63400
O  -0.17300 14.14300 30.22600
O  -1.65100 13.24600 31.83200
C  -0.51800 13.28400 32.80700
H  -2.37400 20.84000 28.82400
H  -1.36600 19.79000 22.36700
H  -1.92400 13.56600 23.35800
H  -3.54800 16.80900 31.09300
H  -2.13600 19.36300 30.86100
H  -4.97700 18.67700 30.95700
H  -4.79600 19.65600 29.48000
H  -4.34200 20.27500 31.05000
H  -0.65000 17.33700 31.04200
H  -1.45900 16.05800 31.99100
H  -2.35900 18.76100 32.71900
H  -0.69400 18.39300 33.08200
H  -1.22900 23.61700 26.82500
H  -2.04800 22.78400 28.13300
H  -2.92300 23.41900 26.72000
H  -2.63600 24.00500 24.51600
H  -1.64900 24.48100 23.15700
H  -0.84000 24.15400 24.67900
H  -0.19400 17.55800 21.20300
H  -1.89400 15.16000 21.45900
H  -2.53500 18.64600 20.74300
H  -3.07300 16.86900 20.80200
H  -1.84300 17.53200 19.62600
H  0.40300 14.58200 20.63700
H  0.35600 14.03800 22.29300
H  2.10200 15.87200 21.04000
H  2.22800 15.17000 22.67000
H  1.40900 16.69800 22.45900
H  -3.48100 11.05400 25.82400
H  -1.70100 11.05100 25.55900
H  -2.79000 11.70000 24.37800
H  -3.45500 13.95500 30.32600
H  -1.05100 13.73400 33.64400
H  0.31900 13.93600 32.55500
H  -0.11700 12.31700 33.11000
Mg 25.72300 0.09300 29.29900
C  27.47600 -0.20300 32.33700
C  22.91600 0.46300 31.02000
C  24.21800 0.35300 26.38000
C  28.65700 -0.85600 27.67000
N  25.35500 0.26900 31.44800
C  26.17400 0.15500 32.53800
C  25.44200 0.49200 33.81900
C  23.90200 0.63200 33.38300
C  24.06000 0.41100 31.87000
C  22.84800 -0.31600 34.15600
C  25.94800 1.82600 34.43300
C  27.03600 1.79300 35.52500
H  26.88800 2.53100 36.73400
N  23.81200 0.36500 28.79300
C  22.81900 0.69200 29.62700
C  21.59700 0.91200 28.87300
C  21.95600 0.81000 27.52100
C  23.41700 0.59100 27.51900
C  20.24400 0.87100 29.54900
C  20.99500 0.85700 26.28200
O  21.32300 0.79100 25.11000
C  19.51400 1.08800 26.43900
N  26.31700 -0.30100 27.37100
C  25.55200 0.02700 26.29400
C  26.20900 -0.24600 24.94900
C  27.66500 -0.58300 25.40800
C  27.54100 -0.65700 26.89200
C  25.59300 -1.40900 24.02400
C  28.75600 0.36700 24.81300
C  28.88600 1.68200 25.58900
N  27.73700 -0.50900 29.82700
C  28.80100 -0.77700 29.10800
C  29.98500 -1.02600 29.87100
C  29.55100 -0.86100 31.20600
C  28.16600 -0.51600 31.11800
C  31.38300 -1.34500 29.39800
C  29.85800 -0.96100 32.59800
O  30.89200 -1.33300 33.11600
C  28.58100 -0.48400 33.33800
C  28.22000 -1.52300 34.33700
O  27.36800 -2.44400 34.16500
O  28.88900 -1.35300 35.51600
C  28.51900 -2.40800 36.52600
H  21.92700 0.50000 31.48200
H  23.76000 0.37700 25.38900
H  29.49600 -1.11400 27.02000
H  25.48000 -0.35200 34.50800
H  23.54300 1.65900 33.44300
H  22.01500 0.34200 34.40500
H  23.13800 -0.63500 35.15700
H  22.44600 -1.11700 33.53500
H  25.14200 2.39500 34.89700
H  26.19500 2.49200 33.60600
H  27.96300 2.05600 35.01500
H  27.30200 0.75000 35.69600
H  20.30100 1.55600 30.39500
H  20.14100 -0.10600 30.02200
H  19.31400 1.12900 29.04300
H  18.92300 1.02800 25.52500
H  19.38700 2.15000 26.65100
H  19.14000 0.46100 27.24800
H  26.13800 0.66100 24.34800
H  28.02200 -1.58400 25.16400
H  26.13800 -2.30700 24.31500
H  25.66500 -1.22600 22.95200
H  24.55500 -1.41900 24.35800
H  28.52500 0.57700 23.76900
H  29.70400 -0.17100 24.81100
H  28.41300 1.64100 26.57000
H  28.47100 2.50000 25.00000
H  29.93200 1.97000 25.69700
H  31.55100 -0.82000 28.45800
H  31.41000 -2.42200 29.23700
H  32.03400 -0.93000 30.16700
H  28.83400 0.38400 33.94700
H  29.15100 -2.17300 37.38300
H  28.86200 -3.40000 36.23200
H  27.48900 -2.45200 36.88000

