158

Mg 47.43000 25.72700 28.79200
C  48.52300 27.97000 31.20800
C  46.96200 23.38100 31.30700
C  46.94700 23.38800 26.37800
C  48.75900 27.94500 26.34600
N  47.64800 25.71900 31.00700
C  47.92600 26.81500 31.80100
C  47.53000 26.53700 33.23000
C  47.10400 24.97700 33.23500
C  47.20500 24.67500 31.73900
C  47.96800 23.97000 34.13300
C  46.41100 27.59800 33.71400
C  45.64800 27.33700 35.01000
H  45.85400 28.08900 36.31700
N  46.85300 23.70900 28.86300
C  46.73800 22.89100 30.00800
C  46.44400 21.53300 29.59900
C  46.23900 21.54900 28.17300
C  46.73500 22.91800 27.73500
C  46.17500 20.46400 30.52700
C  45.85600 20.44100 27.25000
O  45.67600 20.61300 26.00800
C  45.44300 19.13800 27.73100
N  47.87400 25.67000 26.67700
C  47.41700 24.66300 25.90500
C  47.27700 25.08600 24.40700
C  47.71500 26.57700 24.44100
C  48.15800 26.75000 25.92800
C  48.23300 24.23400 23.51800
C  46.59900 27.58400 24.01000
C  47.02200 28.67500 23.05800
N  48.50100 27.55500 28.71100
C  48.90700 28.32200 27.63900
C  49.50700 29.55600 28.13900
C  49.35600 29.42800 29.55900
C  48.75900 28.20000 29.89500
C  50.20800 30.57500 27.37400
C  49.57300 30.14400 30.81200
O  50.06900 31.29400 30.98000
C  48.92500 29.30600 31.87800
C  49.69800 29.17600 33.19700
O  50.75100 28.51700 33.30800
O  49.20800 30.01200 34.22000
C  49.95200 29.90100 35.47400
H  46.56000 22.77300 32.12100
H  46.56200 22.74700 25.58300
H  49.02400 28.69100 25.59400
H  48.37400 26.66000 33.90800
H  46.05600 24.88300 33.52100
H  48.58300 23.34200 33.48800
H  47.36600 23.23100 34.66200
H  48.65300 24.55000 34.75100
H  45.70800 27.54800 32.88200
H  46.83000 28.60100 33.64500
H  46.12600 26.42900 35.37700
H  44.59700 27.11500 34.82400
H  46.23900 20.73200 31.58100
H  46.77200 19.59800 30.24100
H  45.14300 20.21800 30.27800
H  46.18700 18.74000 28.42200
H  45.48300 18.48300 26.86100
H  44.59700 19.19700 28.41500
H  46.31400 24.95700 23.91300
H  48.54300 26.69000 23.74100
H  48.44200 23.26800 23.97800
H  49.23600 24.59100 23.28500
H  47.64700 23.93000 22.65100
H  46.13900 28.01800 24.89800
H  45.76200 27.09700 23.51100
H  46.36600 29.45100 23.45400
H  46.78200 28.47100 22.01500
H  48.05800 28.98300 23.20400
H  50.48000 31.48500 27.90900
H  49.46900 30.94500 26.66400
H  51.11900 30.21800 26.89400
H  48.01000 29.77600 32.23900
H  49.98100 28.85600 35.78300
H  49.44800 30.36500 36.32300
H  50.97400 30.28000 35.47200
Mg 50.43100 46.83300 43.10100
C  47.21400 47.36800 41.74100
C  50.53100 43.79800 41.84400
C  53.70300 46.97400 43.70400
C  50.38600 50.40400 43.85500
N  48.99500 45.77700 41.94900
C  47.76400 46.11900 41.43900
C  47.08800 44.82800 40.86900
C  48.01900 43.70800 41.22400
C  49.27500 44.47500 41.75000
C  47.52800 42.67900 42.27700
C  46.72700 44.92300 39.33600
C  45.27200 44.65700 38.95900
H  45.01000 43.48800 37.99700
N  51.96300 45.58700 42.78900
C  51.77500 44.32500 42.29600
C  53.02500 43.62300 42.22600
C  54.00100 44.53800 42.86400
C  53.28000 45.76500 43.14800
C  53.15000 42.30800 41.51000
C  55.48000 44.14600 43.06300
O  55.95900 43.11900 42.66500
C  56.39000 44.94100 44.01900
N  51.73400 48.44400 43.88800
C  53.05200 48.15100 44.03100
C  53.89400 49.41000 44.41700
C  52.75600 50.47600 44.66100
C  51.58400 49.77000 43.99300
C  54.80800 49.30700 45.63800
C  53.09600 51.89400 43.99400
C  52.40800 53.11300 44.61400
N  49.03500 48.53400 42.93500
C  49.18000 49.85900 43.36100
C  47.93100 50.59500 43.09400
C  47.09000 49.60000 42.44500
C  47.84400 48.41200 42.40500
C  47.69100 52.07700 43.35400
C  45.78700 49.33700 41.90600
O  44.80300 50.02900 41.81800
C  45.79700 47.85200 41.42800
C  44.76700 47.22600 42.28200
O  44.58700 47.30100 43.49500
O  43.86600 46.66400 41.35300
C  42.56300 46.25200 41.87900
H  50.55900 42.76800 41.48200
H  54.79200 46.98800 43.78100
H  50.35200 51.44300 44.18900
H  46.14500 44.77400 41.41200
H  48.25500 43.25500 40.26100
H  46.44000 42.62800 42.29900
H  47.88800 42.71900 43.30500
H  47.80400 41.70900 41.86200
H  47.42100 44.33800 38.73200
H  46.77400 45.97200 39.04300
H  44.92100 45.52900 38.40600
H  44.65400 44.57400 39.85200
H  54.05700 42.40500 40.91400
H  52.33700 42.11900 40.80900
H  53.34800 41.48200 42.19200
H  56.76500 45.91300 43.69800
H  57.28500 44.34800 44.20800
H  56.07400 45.03500 45.05800
H  54.51900 49.65000 43.55700
H  52.46100 50.62600 45.70000
H  55.77900 49.70500 45.34200
H  55.00700 48.29600 45.99300
H  54.43000 49.88800 46.48000
H  52.87600 51.80300 42.93000
H  54.14700 52.12400 44.16800
H  53.16100 53.75700 45.06800
H  51.51800 52.87500 45.19800
H  52.08500 53.80400 43.83600
H  48.60500 52.63000 43.56800
H  46.85500 52.06200 44.05300
H  47.33500 52.50600 42.41800
H  45.65300 47.75600 40.35200
H  42.65700 45.43100 42.58900
H  41.89900 45.98700 41.05700
H  42.13500 47.02200 42.52000

