158

Mg 48.47700 34.96600 27.42000
C  46.29500 33.50400 29.74900
C  48.83900 37.68800 29.33800
C  49.89900 36.53400 24.78500
C  47.81900 32.20100 25.30300
N  47.65700 35.51300 29.30400
C  46.94200 34.68800 30.22900
C  47.09200 35.27300 31.60800
C  47.63600 36.74600 31.30400
C  48.14200 36.61300 29.90000
C  46.51000 37.80200 31.50700
C  48.10000 34.32400 32.44500
C  48.18200 34.39700 33.96900
H  47.20100 35.33400 34.68000
N  49.11800 36.90100 27.14500
C  49.20900 37.87500 28.02400
C  49.71200 39.02600 27.46000
C  50.06900 38.71100 26.12300
C  49.69700 37.32500 25.95500
C  49.83600 40.35700 28.20000
C  50.73600 39.69400 25.19400
O  50.92000 39.39200 23.99400
C  51.40200 41.04200 25.73300
N  48.88200 34.49100 25.35900
C  49.49400 35.28300 24.48700
C  49.83600 34.58700 23.15400
C  49.04500 33.21800 23.27700
C  48.58100 33.24500 24.73200
C  49.58900 35.31700 21.89400
C  49.85200 31.93100 22.89500
C  49.40400 31.05700 21.63400
N  47.39000 33.16800 27.51500
C  47.18600 32.15900 26.56800
C  46.20000 31.20000 27.01800
C  45.91000 31.58700 28.29400
C  46.56600 32.84200 28.51900
C  45.76100 29.90700 26.36500
C  45.08100 31.29600 29.44800
O  44.34200 30.40200 29.73600
C  45.21500 32.60900 30.39600
C  45.47000 32.13100 31.76600
O  46.29400 31.27300 32.16200
O  44.58300 32.65600 32.58800
C  44.51600 32.06700 33.89600
H  49.05500 38.50300 30.03200
H  50.53100 37.04600 24.05600
H  47.70800 31.34600 24.63300
H  46.09800 35.23800 32.05400
H  48.39300 36.95500 32.06000
H  45.60600 37.36100 31.92600
H  46.39000 38.48500 30.66500
H  46.88200 38.51500 32.24400
H  49.09000 34.44400 32.00600
H  47.98800 33.31400 32.05000
H  49.17600 34.72300 34.27600
H  47.92100 33.43300 34.40400
H  49.50800 41.25000 27.66700
H  50.89400 40.43700 28.44800
H  49.29000 40.44000 29.13900
H  52.19100 41.33000 25.03800
H  51.96500 40.81000 26.63700
H  50.74100 41.90000 25.85800
H  50.90400 34.37200 23.11900
H  48.14400 33.22400 22.66500
H  48.97200 34.68500 21.25600
H  50.49600 35.48100 21.31200
H  49.07500 36.26100 22.07200
H  50.04200 31.27700 23.74600
H  50.86800 32.23400 22.64200
H  49.37500 30.04100 22.03000
H  50.14200 31.16700 20.84000
H  48.43000 31.34700 21.24100
H  46.01600 29.02500 26.95200
H  46.00600 30.07800 25.31700
H  44.67300 29.84300 26.37800
H  44.22700 33.06800 30.42700
H  44.74500 31.00600 33.80300
H  43.55800 32.19100 34.40100
H  45.31000 32.57500 34.44400
Mg 36.12100 49.34200 24.99800
C  36.51900 47.47600 28.04100
C  35.29200 52.09600 26.93100
C  35.57900 51.19600 22.16500
C  37.03200 46.51700 23.15900
N  35.73700 49.62300 27.28300
C  36.07900 48.81100 28.29400
C  36.01500 49.60500 29.62500
C  35.59000 51.03000 29.20000
C  35.53000 50.92800 27.68400
C  34.20000 51.46500 29.83000
C  37.37000 49.52400 30.43400
C  37.28000 48.82000 31.81100
H  35.94200 48.87000 32.51900
N  35.54300 51.39600 24.63200
C  35.27200 52.31500 25.54300
C  34.97600 53.56200 24.90100
C  35.08700 53.33600 23.51200
C  35.39200 51.89600 23.35200
C  34.68900 54.81200 25.65300
C  34.95900 54.33100 22.35400
O  35.15600 54.03200 21.15400
C  34.62700 55.86300 22.70300
N  36.12100 48.78000 23.03800
C  36.02800 49.79700 22.01400
C  36.18800 49.16300 20.57600
C  36.72700 47.73900 20.98800
C  36.66500 47.62400 22.46200
C  34.97200 49.11200 19.62000
C  37.97900 47.25700 20.30100
C  39.21300 47.84300 20.95900
N  36.70100 47.43800 25.42100
C  37.06600 46.36000 24.58100
C  37.49700 45.20400 25.35400
C  37.15400 45.56000 26.68800
C  36.79600 46.97300 26.73100
C  38.09200 43.89500 24.66000
C  37.11400 45.06000 28.11800
O  37.43600 44.01500 28.67500
C  36.77700 46.32400 29.00500
C  35.52900 46.01100 29.85400
O  34.44300 46.57600 29.69400
O  35.82900 45.13700 30.85500
C  34.70200 44.58000 31.61100
H  35.08800 52.91500 27.62300
H  35.53300 51.81800 21.26900
H  37.47100 45.78000 22.48200
H  35.25800 49.10600 30.23100
H  36.39200 51.76600 29.25500
H  34.17300 52.51300 30.12600
H  34.01100 50.96500 30.78000
H  33.29000 51.17300 29.30500
H  37.80400 50.52200 30.50100
H  38.14400 49.03000 29.84600
H  38.10900 49.15400 32.43500
H  37.38500 47.75100 31.62500
H  35.54500 55.46900 25.80100
H  34.15700 54.63300 26.58700
H  33.92500 55.43000 25.18100
H  35.40000 56.21800 23.38400
H  33.65500 55.93800 23.19100
H  34.71900 56.36600 21.74000
H  36.95000 49.71100 20.02100
H  36.00200 47.01500 20.61700
H  33.99900 49.11800 20.11200
H  35.01200 48.16500 19.08100
H  35.02300 49.90400 18.87300
H  38.07000 47.67400 19.29700
H  37.96700 46.17000 20.22900
H  39.91400 48.33100 20.28200
H  39.67400 46.91400 21.29500
H  39.04000 48.43300 21.85900
H  37.44500 43.48500 23.88400
H  38.35400 43.18700 25.44600
H  39.09700 44.11000 24.29600
H  37.68600 46.58300 29.54700
H  34.26700 43.78200 31.01000
H  33.95200 45.32800 31.86900
H  35.04100 44.27100 32.60000

