158

Mg -2.63300 17.24500 27.10100
C  -3.14100 15.04100 29.76000
C  -3.06300 19.84700 29.18500
C  -2.53800 19.20200 24.37100
C  -2.79600 14.36600 24.94500
N  -3.25300 17.40400 29.27600
C  -3.28900 16.41000 30.15100
C  -3.38100 16.93400 31.62600
C  -3.52300 18.46700 31.35300
C  -3.30400 18.65700 29.84100
C  -4.76500 19.22700 31.79400
C  -2.22900 16.63400 32.61000
C  -2.66600 16.13800 33.98200
H  -1.74300 16.16000 35.25600
N  -2.61000 19.24500 26.83900
C  -2.86700 20.11400 27.84100
C  -2.59900 21.41300 27.22800
C  -2.46100 21.32600 25.85300
C  -2.51400 19.89300 25.60300
C  -2.79300 22.68400 27.95200
C  -2.24300 22.33700 24.69400
O  -2.20700 22.01500 23.47500
C  -2.09900 23.81400 25.02400
N  -2.91300 16.83600 24.94300
C  -2.70300 17.85500 24.05400
C  -2.60900 17.34500 22.58000
C  -2.56400 15.74800 22.77300
C  -2.79300 15.62000 24.31400
C  -3.65700 17.86800 21.54100
C  -1.42100 14.99700 22.18800
C  -0.08600 15.31000 22.86100
N  -2.98400 15.15800 27.23400
C  -2.92500 14.11500 26.32500
C  -2.95900 12.84700 26.92300
C  -3.03300 13.18100 28.26700
C  -3.07200 14.53800 28.41100
C  -2.92200 11.59000 26.27400
C  -3.22500 12.59300 29.50400
O  -3.34700 11.45100 29.89200
C  -3.18400 13.80700 30.55900
C  -1.89400 13.57600 31.29900
O  -0.74200 13.64000 30.85800
O  -2.14800 13.22600 32.63300
C  -0.93600 12.92400 33.42400
H  -3.11100 20.71800 29.84100
H  -2.35200 19.66300 23.39900
H  -2.81500 13.53700 24.23500
H  -4.31000 16.48000 31.97100
H  -2.66300 18.96800 31.79800
H  -5.45100 19.44100 30.97500
H  -4.45100 20.14900 32.28200
H  -5.37900 18.58200 32.42400
H  -1.48500 17.43100 32.63200
H  -1.74300 15.82800 32.06100
H  -3.10500 15.14300 33.89900
H  -3.43100 16.77100 34.43000
H  -3.24400 23.52700 27.42800
H  -1.81300 22.89400 28.37900
H  -3.34400 22.46800 28.86700
H  -1.58300 24.34500 24.22300
H  -1.54200 23.91100 25.95600
H  -3.09800 24.17900 25.26000
H  -1.60000 17.59900 22.25700
H  -3.47600 15.34400 22.33200
H  -4.10000 18.78100 21.93800
H  -4.53300 17.22100 21.50700
H  -3.24600 18.02600 20.54400
H  -1.29800 15.30300 21.14900
H  -1.58500 13.92000 22.24000
H  -0.14400 15.67100 23.88700
H  0.56800 16.01400 22.34600
H  0.53700 14.41800 22.79700
H  -2.45900 11.50100 25.29100
H  -3.98600 11.45400 26.08100
H  -2.57400 10.82400 26.96600
H  -4.01900 13.79200 31.25900
H  -0.81900 11.85800 33.23400
H  -1.09900 13.02000 34.49700
H  0.00800 13.40100 33.16100
Mg 34.22900 3.76800 29.61500
C  32.17300 4.74300 32.25900
C  36.88100 3.56500 31.75900
C  36.13000 2.84500 27.02300
C  31.47200 4.29700 27.41300
N  34.49400 4.29500 31.66600
C  33.51100 4.49200 32.60700
C  34.08600 4.37500 34.06500
C  35.59300 4.40200 33.79700
C  35.65800 3.99200 32.32000
C  36.27100 5.76500 34.25800
C  33.44500 3.19400 34.86800
C  33.34200 3.22500 36.35500
H  33.97200 4.40400 37.08700
N  36.21000 3.37600 29.36700
C  37.15500 3.29400 30.37000
C  38.43100 2.94100 29.77100
C  38.27100 2.65700 28.42400
C  36.77700 2.94200 28.22700
C  39.75200 2.91100 30.54000
C  39.31200 2.28500 27.37500
O  39.06500 2.44800 26.19600
C  40.59200 1.65400 27.75100
N  33.76000 3.38900 27.61000
C  34.80000 3.08100 26.69700
C  34.30700 3.10600 25.29100
C  32.85200 3.61300 25.36100
C  32.64200 3.73300 26.90300
C  35.17000 3.94100 24.34900
C  31.96100 2.61000 24.57900
C  31.39000 1.37000 25.28100
N  32.22400 4.31900 29.78500
C  31.23700 4.54000 28.81500
C  29.97600 4.92400 29.42600
C  30.26200 5.02200 30.83500
C  31.62200 4.66700 30.98100
C  28.61200 5.18100 28.68000
C  29.76600 5.28200 32.16700
O  28.61800 5.58200 32.51000
C  30.99500 5.18000 33.14100
C  31.10500 6.49000 33.82200
O  31.25500 7.60600 33.27000
O  31.04000 6.32600 35.13000
C  31.41400 7.47800 35.97800
H  37.79800 3.45200 32.34000
H  36.81700 2.58600 26.21500
H  30.70400 4.60000 26.69800
H  33.62000 5.22300 34.56600
H  35.94600 3.55000 34.37800
H  37.00800 5.56500 35.03600
H  35.42900 6.39300 34.54800
H  36.69400 6.19200 33.34900
H  33.96400 2.28700 34.55800
H  32.44100 3.01000 34.48500
H  33.73000 2.29200 36.76500
H  32.27700 3.30400 36.57400
H  39.64400 3.56100 31.40900
H  40.60300 3.20400 29.92500
H  40.07900 1.90500 30.80100
H  40.99400 1.02000 26.96100
H  40.40800 0.99400 28.59900
H  41.37800 2.37300 27.98100
H  34.40800 2.09000 24.90800
H  32.82300 4.56700 24.83400
H  35.92000 4.51000 24.89800
H  34.61600 4.67600 23.76600
H  35.69300 3.30800 23.63200
H  32.40200 2.33000 23.62300
H  31.09500 3.19200 24.26200
H  31.37600 0.54100 24.57300
H  30.36800 1.56500 25.60500
H  32.10900 1.00100 26.01300
H  27.87100 5.40900 29.44700
H  28.23100 4.31000 28.14800
H  28.71900 6.01100 27.98100
H  30.80100 4.35900 33.83200
H  31.61300 7.05000 36.96100
H  30.65800 8.26300 35.96200
H  32.35500 7.87900 35.60100

