158

Mg 9.02200 3.32300 27.40800
C  10.28800 1.62400 30.23600
C  7.30500 5.41200 29.50200
C  7.85000 4.73300 24.68900
C  10.56500 0.84700 25.42000
N  8.73400 3.40800 29.72000
C  9.47200 2.70900 30.65900
C  9.18400 3.19100 32.10200
C  8.24500 4.45400 31.80300
C  8.08600 4.44500 30.27100
C  6.83000 4.47800 32.46900
C  10.49000 3.60600 32.96000
C  10.11200 4.14400 34.31900
H  11.08900 3.87900 35.43500
N  7.87000 4.83800 27.14600
C  7.19400 5.62000 28.06700
C  6.38800 6.61500 27.44900
C  6.53100 6.47200 26.03600
C  7.44100 5.29100 25.88000
C  5.66400 7.72100 28.16600
C  5.94800 7.22600 24.81700
O  6.19600 6.90200 23.67300
C  4.89600 8.26200 24.98200
N  9.07700 2.77500 25.37600
C  8.55400 3.56700 24.40600
C  8.92700 3.17300 22.99300
C  9.90800 1.91300 23.30400
C  9.88200 1.81700 24.76900
C  7.83800 2.94000 21.96500
C  11.35600 2.07100 22.67800
C  11.57100 1.25300 21.36300
N  10.12000 1.59500 27.66600
C  10.66400 0.76700 26.77300
C  11.41800 -0.27200 27.47600
C  11.28700 0.02500 28.82500
C  10.49700 1.17300 28.95100
C  12.08100 -1.54500 26.91900
C  11.62600 -0.36500 30.19000
O  12.33000 -1.28800 30.58200
C  11.01200 0.60400 31.11300
C  10.13600 0.03700 32.14300
O  9.00600 -0.36100 31.92700
O  10.70000 0.11000 33.43300
C  9.87600 -0.10300 34.61400
H  6.77400 6.13100 30.13000
H  7.61300 5.20300 23.73200
H  11.01700 0.04400 24.83500
H  8.78000 2.32800 32.63000
H  8.75100 5.38300 32.06700
H  6.54600 5.43100 32.91500
H  6.92600 3.73700 33.26300
H  6.06000 4.13200 31.78000
H  11.00600 4.38100 32.39300
H  11.24300 2.81800 32.95000
H  9.17000 3.71400 34.66200
H  9.84000 5.19800 34.26500
H  5.86500 7.73200 29.23700
H  4.59700 7.72200 27.94500
H  6.18000 8.60400 27.78900
H  5.38500 9.08600 25.50200
H  4.12400 7.76500 25.56900
H  4.43200 8.72500 24.11100
H  9.66500 3.85600 22.57200
H  9.36500 1.07200 22.87300
H  7.51000 3.94900 21.71400
H  6.99900 2.30600 22.25100
H  8.41900 2.50000 21.15500
H  12.14600 1.78300 23.37200
H  11.64600 3.05700 22.31500
H  11.84700 1.88000 20.51500
H  10.66300 0.74000 21.04600
H  12.39800 0.57700 21.58400
H  11.58400 -1.78900 25.98100
H  11.98000 -2.35300 27.64300
H  13.10200 -1.25300 26.67400
H  11.80300 1.16800 31.60800
H  10.39500 -0.83400 35.23400
H  8.92300 -0.61000 34.46500
H  9.82700 0.81400 35.20300
Mg 30.75700 59.28800 38.83100
C  27.83200 57.37600 38.10700
C  32.59600 56.52000 38.17600
C  33.37700 61.18900 38.79700
C  28.62600 62.03200 39.26200
N  30.21800 57.26800 37.91700
C  28.94700 56.66700 37.92200
C  29.09500 55.21200 37.43400
C  30.55000 54.86800 37.99900
C  31.20900 56.31700 38.04800
C  30.54700 54.41400 39.48400
C  28.77300 55.14400 35.85600
C  27.55500 54.34100 35.46500
H  26.71100 55.03300 34.33600
N  32.65200 58.98300 38.28100
C  33.23500 57.71900 38.10500
C  34.64400 57.84200 37.82200
C  34.94800 59.26500 38.03000
C  33.62900 59.90500 38.40000
C  35.57900 56.71500 37.53200
C  36.34400 59.90800 37.93600
O  37.23200 59.11700 37.63500
C  36.69800 61.37000 38.26600
N  31.00300 61.32900 38.98300
C  32.19300 61.87000 39.11300
C  32.11000 63.35200 39.43500
C  30.58700 63.60100 39.67700
C  30.02300 62.23600 39.27400
C  33.06200 63.73600 40.64100
C  29.98000 64.73600 38.80900
C  28.87600 65.62400 39.43000
N  28.66200 59.66400 38.83500
C  27.97200 60.80900 39.06200
C  26.58300 60.56300 38.87200
C  26.40400 59.25600 38.51500
C  27.73300 58.72300 38.52300
C  25.43000 61.48900 39.06200
C  25.42800 58.26200 38.09700
O  24.17200 58.28000 38.12100
C  26.37600 56.97300 37.81100
C  26.02000 55.82900 38.67100
O  26.29000 55.71500 39.84800
O  25.23400 54.90400 38.02200
C  24.37200 54.13900 38.90400
H  33.16600 55.58900 38.19700
H  34.20400 61.90000 38.83900
H  27.99900 62.89300 39.50300
H  28.41100 54.60700 38.02900
H  31.11700 54.24200 37.31000
H  29.61900 53.91800 39.76700
H  30.64400 55.30500 40.10400
H  31.39800 53.73800 39.56900
H  29.73200 54.79700 35.47200
H  28.61200 56.11400 35.38600
H  27.00800 54.18900 36.39500
H  27.97500 53.43200 35.03500
H  35.13000 55.80300 37.14000
H  36.19900 56.39100 38.36800
H  36.24500 57.01300 36.72200
H  37.75000 61.47600 37.99900
H  36.51400 61.74600 39.27200
H  36.07800 61.92400 37.56100
H  32.44200 63.94600 38.58400
H  30.32000 63.75500 40.72300
H  34.02600 64.04300 40.23500
H  33.25800 62.89700 41.30900
H  32.59400 64.50200 41.25800
H  29.58700 64.30100 37.89000
H  30.74800 65.44700 38.50500
H  29.16900 66.59100 39.84000
H  28.34400 65.09800 40.22200
H  28.27700 65.83100 38.54300
H  24.87900 61.72700 38.15200
H  25.64700 62.24200 39.81900
H  24.72500 60.83600 39.57500
H  26.27500 56.68900 36.76300
H  23.99900 53.29600 38.32300
H  23.44800 54.70700 39.01400
H  24.72800 53.73100 39.84900

