158

Mg 2.05800 -2.26100 44.28300
C  5.35900 -1.35800 43.59900
C  0.94000 0.31400 42.32600
C  -0.99400 -3.71700 44.48600
C  3.38000 -5.37900 45.55200
N  3.12700 -0.80200 42.87000
C  4.43800 -0.46100 42.99400
C  4.74800 0.85000 42.32500
C  3.26100 1.45000 42.14300
C  2.36000 0.25600 42.40200
C  3.05000 2.62300 43.15300
C  5.60600 0.66400 41.04800
C  6.89400 1.52600 40.96000
H  7.29700 2.19900 39.58800
N  0.20800 -1.69400 43.57600
C  -0.09200 -0.57500 42.78400
C  -1.52900 -0.46500 42.54000
C  -2.10200 -1.60100 43.30700
C  -0.93200 -2.37800 43.89900
C  -2.27900 0.61900 41.87700
C  -3.61500 -1.87300 43.46500
O  -4.47700 -1.21100 42.85500
C  -4.11500 -3.04000 44.26300
N  1.26500 -4.23900 45.08500
C  -0.02800 -4.56800 45.02500
C  -0.24900 -6.10100 45.18800
C  1.16600 -6.65200 45.35000
C  2.01300 -5.31200 45.35100
C  -1.39400 -6.50500 46.25700
C  1.70800 -7.61000 44.26300
C  1.06700 -8.96400 44.20000
N  3.98200 -3.12800 44.86100
C  4.30600 -4.33800 45.35500
C  5.78300 -4.31300 45.54400
C  6.23100 -3.14700 44.99000
C  5.11500 -2.51500 44.43300
C  6.61000 -5.38700 46.22400
C  7.34200 -2.31100 44.74300
O  8.53700 -2.46000 45.02600
C  6.90800 -1.25100 43.70000
C  7.34000 0.07700 44.31200
O  6.96600 0.57700 45.34700
O  8.32900 0.59600 43.54200
C  8.81200 1.92800 43.93700
H  0.45000 1.18100 41.88000
H  -1.92500 -4.28700 44.44200
H  3.82400 -6.36600 45.70100
H  5.35200 1.39000 43.05400
H  3.01800 1.86500 41.16500
H  3.95300 3.19800 43.35900
H  2.74300 2.26700 44.13600
H  2.30600 3.27000 42.68800
H  4.92900 0.94600 40.24200
H  5.82200 -0.40500 41.02100
H  7.68900 0.82100 41.20500
H  6.88300 2.29700 41.73000
H  -2.74200 0.24500 40.96400
H  -1.60200 1.42800 41.60300
H  -3.07600 0.94400 42.54600
H  -5.17400 -2.96500 44.51000
H  -3.54400 -2.88700 45.17900
H  -3.99900 -3.90700 43.61200
H  -0.57600 -6.57800 44.26400
H  1.19100 -7.20300 46.29000
H  -2.11300 -5.69000 46.34200
H  -1.00300 -6.71600 47.25200
H  -2.00700 -7.24400 45.74100
H  2.74600 -7.81500 44.52600
H  1.59200 -7.07500 43.32100
H  0.65500 -8.93600 43.19100
H  0.19400 -9.02800 44.85000
H  1.77600 -9.77000 44.38700
H  5.95000 -5.70900 47.02900
H  7.52800 -4.98800 46.65600
H  6.69200 -6.17200 45.47200
H  7.45600 -1.59300 42.82200
H  9.86800 2.02400 43.68100
H  8.66900 2.27200 44.96100
H  8.35900 2.65800 43.26700
Mg 53.57200 23.41400 44.63400
C  51.15800 25.78400 43.90600
C  51.69300 21.06700 43.00900
C  56.08200 21.08300 45.02000
C  55.78700 25.89400 45.33800
N  51.74500 23.42800 43.66800
C  50.91600 24.52200 43.39900
C  49.79700 24.17200 42.37300
C  49.76500 22.60700 42.59400
C  51.18600 22.36100 43.06600
C  48.66500 22.14600 43.51400
C  50.30000 24.44400 40.93100
C  49.33200 24.66200 39.78500
H  49.90200 25.20800 38.49300
N  53.82100 21.31900 44.28900
C  52.91600 20.56900 43.51800
C  53.38800 19.15600 43.54000
C  54.65100 19.13200 44.20400
C  54.90400 20.54000 44.57900
C  52.54200 18.05800 43.02000
C  55.43900 17.89800 44.32300
O  55.25900 16.85900 43.73400
C  56.72900 17.93600 45.25300
N  55.61600 23.42100 45.07400
C  56.49500 22.39600 45.27500
C  57.94100 22.85700 45.66500
C  57.79400 24.36900 45.51700
C  56.28100 24.58600 45.30400
C  58.54400 22.35600 46.99100
C  58.75400 25.09400 44.43300
C  58.98600 26.63800 44.36800
N  53.49000 25.45000 44.90200
C  54.47500 26.34300 45.15900
C  53.80500 27.65700 45.24300
C  52.58100 27.52600 44.69300
C  52.39600 26.11600 44.57200
C  54.44900 28.95100 45.69900
C  51.27400 28.17000 44.31000
O  50.92100 29.36500 44.41100
C  50.30800 27.09900 43.80200
C  49.90100 27.58200 42.46300
O  50.52500 27.88000 41.46300
O  48.55900 27.63900 42.49300
C  47.76600 27.91300 41.28000
H  51.14600 20.30600 42.45000
H  56.86200 20.32700 44.91100
H  56.43600 26.73400 45.59400
H  48.85200 24.62700 42.66900
H  49.74800 22.17300 41.59400
H  47.90100 22.90300 43.69200
H  48.97000 21.69600 44.45900
H  48.08400 21.45700 42.90200
H  50.95800 23.60800 40.69400
H  50.93400 25.33100 40.93900
H  48.51800 25.28000 40.16200
H  49.00400 23.62900 39.66700
H  52.50000 17.22800 43.72400
H  52.78900 17.63700 42.04500
H  51.47500 18.27300 43.07500
H  56.45200 18.60200 46.07000
H  57.63000 18.13600 44.67300
H  56.72500 16.92500 45.66000
H  58.58000 22.55300 44.83600
H  57.93000 24.93600 46.43800
H  58.02800 22.85800 47.80900
H  59.59600 22.61100 47.12000
H  58.45800 21.27100 47.05100
H  58.27400 24.87600 43.47800
H  59.67000 24.51600 44.31700
H  59.97100 26.97200 44.69200
H  58.39400 26.95300 45.22800
H  58.73500 27.03400 43.38400
H  55.30600 29.27900 45.11100
H  54.68300 29.08900 46.75500
H  53.71400 29.70000 45.40400
H  49.41100 27.07100 44.42000
H  48.19500 27.45900 40.38800
H  47.58200 28.98700 41.23400
H  46.87000 27.32400 41.47400

