158

Mg 16.82600 -2.34300 27.81800
C  15.75500 -0.27800 30.61300
C  18.45700 -4.31200 30.14000
C  18.04100 -4.00500 25.31600
C  15.07900 -0.18800 25.84600
N  16.99100 -2.32600 30.07500
C  16.53800 -1.39800 30.97400
C  16.99300 -1.75700 32.34800
C  18.01500 -2.91500 32.19600
C  17.90900 -3.18900 30.68400
C  19.47300 -2.56500 32.64000
C  15.84100 -2.01000 33.38600
C  16.01000 -1.32900 34.70800
H  17.40100 -1.05900 35.30600
N  18.18100 -3.86600 27.71900
C  18.63900 -4.62300 28.79000
C  19.41200 -5.69100 28.25300
C  19.33700 -5.76000 26.86600
C  18.51400 -4.53000 26.52800
C  20.25100 -6.61200 29.18300
C  19.99000 -6.71900 25.88800
O  19.77000 -6.59800 24.70400
C  20.80100 -7.83800 26.35900
N  16.61900 -2.12600 25.83000
C  17.21600 -2.94500 24.95400
C  16.96600 -2.48600 23.55500
C  15.82700 -1.47500 23.65200
C  15.86900 -1.19700 25.19300
C  18.22000 -2.03700 22.83400
C  14.43500 -1.97900 23.23500
C  14.20600 -1.96800 21.71100
N  15.63700 -0.62900 28.10800
C  14.98400 0.13700 27.20800
C  14.34400 1.31100 27.84200
C  14.58200 1.13000 29.20800
C  15.34600 -0.06300 29.30100
C  13.68000 2.43900 27.19500
C  14.37000 1.70600 30.53700
O  13.80600 2.73900 30.94000
C  15.18700 0.79300 31.47300
C  16.19400 1.63400 32.14000
O  17.16100 2.07900 31.64500
O  15.77500 1.86300 33.40400
C  16.49200 2.93200 34.08400
H  18.82300 -4.95600 30.94200
H  18.33300 -4.57000 24.42900
H  14.40200 0.33600 25.16800
H  17.50500 -0.85500 32.68300
H  17.70800 -3.79200 32.76700
H  19.63900 -2.93900 33.65000
H  19.52100 -1.47600 32.62600
H  20.20600 -2.86800 31.89100
H  15.70100 -3.08000 33.53800
H  14.90500 -1.61200 32.99400
H  15.37200 -1.90200 35.38100
H  15.49200 -0.37000 34.67000
H  19.58000 -7.44700 29.38800
H  20.60500 -6.23300 30.14200
H  21.20700 -7.01600 28.85200
H  20.27300 -8.25200 27.21900
H  21.76500 -7.45900 26.69900
H  20.92800 -8.49400 25.49800
H  16.61300 -3.36200 23.01000
H  16.13200 -0.53200 23.20000
H  18.31900 -1.06800 22.34600
H  18.59300 -2.67800 22.03500
H  19.01100 -2.08500 23.58300
H  13.68300 -1.41000 23.78200
H  14.39800 -3.04300 23.46800
H  13.81600 -0.99300 21.42000
H  13.47000 -2.72900 21.45300
H  15.17800 -2.11600 21.24100
H  12.65100 2.13900 26.99700
H  14.07400 2.76900 26.23400
H  13.69300 3.33500 27.81700
H  14.57700 0.24600 32.19100
H  16.94500 3.67900 33.43200
H  17.36200 2.49100 34.57100
H  15.82900 3.45800 34.77100
Mg 46.81200 34.86700 27.84200
C  45.09800 33.09000 30.21900
C  46.77500 37.59700 29.89100
C  47.61400 36.80100 25.25800
C  46.13900 32.17900 25.61200
N  46.28500 35.13400 29.88600
C  45.53700 34.30300 30.69200
C  45.56900 34.86300 32.12300
C  45.71900 36.36800 31.88700
C  46.41400 36.38600 30.52000
C  44.41200 37.14400 31.82200
C  46.83500 34.24600 32.84800
C  46.86000 34.21200 34.47400
H  45.88200 35.08600 35.23200
N  47.27300 36.81200 27.61500
C  47.28600 37.81700 28.59800
C  47.88400 39.03000 28.08200
C  48.15100 38.83400 26.75300
C  47.65700 37.46800 26.50600
C  48.24500 40.24800 28.92300
C  48.78600 39.75100 25.72600
O  48.97900 39.39800 24.52900
C  49.30500 41.09700 26.14000
N  46.95300 34.39500 25.83800
C  47.25500 35.45400 25.00200
C  47.34600 35.00500 23.51700
C  47.09000 33.44900 23.60800
C  46.66900 33.35700 25.07200
C  46.32100 35.63400 22.62300
C  48.32000 32.56100 23.18300
C  49.55500 32.58000 24.05300
N  45.91600 32.93800 27.93200
C  45.78500 31.93700 26.98200
C  45.10800 30.78700 27.59100
C  44.81300 31.18300 28.88900
C  45.32000 32.49400 29.04100
C  44.71600 29.51100 27.02400
C  44.22200 30.70500 30.08400
O  43.62000 29.64000 30.22500
C  44.13600 32.08700 30.93900
C  44.39000 31.65800 32.38300
O  45.35700 31.09300 32.82900
O  43.33700 32.06400 33.15300
C  43.46200 31.64700 34.58600
H  46.88300 38.44600 30.56900
H  47.89300 37.44000 24.41800
H  45.96700 31.34400 24.92900
H  44.65600 34.72000 32.70000
H  46.18200 36.88800 32.72600
H  43.61600 36.47000 32.13800
H  44.26700 37.53700 30.81500
H  44.42800 37.95200 32.55400
H  47.69300 34.91000 32.74700
H  47.03000 33.23300 32.49800
H  47.85000 34.54600 34.78500
H  46.87700 33.16800 34.78900
H  47.53400 41.05700 28.75500
H  49.22100 40.70300 28.76100
H  48.21300 39.94700 29.97000
H  49.78700 41.63000 25.32000
H  50.11400 40.98800 26.86200
H  48.46600 41.71400 26.46300
H  48.34500 35.20300 23.12600
H  46.24000 33.09300 23.02600
H  45.61500 36.29400 23.12800
H  45.71700 34.87500 22.12600
H  46.83700 36.21000 21.85500
H  48.66000 32.58000 22.14700
H  48.07200 31.53400 23.45100
H  49.71600 33.58900 24.43200
H  50.49700 32.38600 23.54000
H  49.45400 31.90500 24.90300
H  43.99500 29.66600 26.22200
H  44.34100 28.81400 27.77400
H  45.54700 29.02200 26.51500
H  43.16400 32.58100 30.92300
H  42.56400 32.08500 35.02100
H  44.34500 32.14200 34.98800
H  43.53400 30.59600 34.86600

