158

Mg 40.37500 9.05800 29.83600
C  42.12600 10.13600 32.52300
C  38.08400 7.65300 31.72600
C  38.74900 7.91100 26.99900
C  42.93700 10.29700 27.70600
N  40.32000 8.78000 31.89900
C  41.05500 9.36900 32.88600
C  40.34900 9.29100 34.24900
C  39.16500 8.41800 33.95400
C  39.19600 8.26200 32.40300
C  39.17200 7.07500 34.81900
C  39.85900 10.71400 34.77000
C  39.55900 10.74700 36.31300
H  40.09400 11.76700 37.30800
N  38.61400 7.88900 29.42500
C  37.78300 7.47100 30.38900
C  36.59900 6.90900 29.82700
C  36.81200 6.86900 28.39200
C  38.10400 7.60000 28.24800
C  35.57100 6.24400 30.68600
C  36.01500 6.22900 27.25400
O  36.40500 6.30200 26.09600
C  34.78200 5.45400 27.56800
N  40.75200 9.16900 27.57700
C  39.94500 8.52300 26.68200
C  40.37200 8.96900 25.27100
C  41.84500 9.53600 25.48500
C  41.86800 9.72700 27.01800
C  40.32200 7.87000 24.12700
C  42.04200 10.83400 24.66700
C  41.14800 12.02900 25.06700
N  42.16200 9.98500 30.04200
C  43.08900 10.46800 29.11300
C  44.26200 11.05400 29.79300
C  43.80300 10.98500 31.12100
C  42.58300 10.35300 31.22400
C  45.42600 11.79700 29.27600
C  44.25400 11.42100 32.45400
O  45.28500 11.97300 32.84600
C  43.15700 10.91400 33.41300
C  43.83100 10.05200 34.44100
O  44.43600 8.99600 34.20600
O  43.71300 10.63900 35.66400
C  44.41000 9.96900 36.76800
H  37.29600 7.34400 32.41700
H  38.23800 7.70200 26.05700
H  43.78100 10.69400 27.13600
H  41.07200 8.84500 34.93300
H  38.25600 8.98000 34.16600
H  39.40200 6.22800 34.17300
H  38.15800 6.96400 35.20300
H  39.85400 7.02100 35.66800
H  38.94900 11.05000 34.27300
H  40.59300 11.52000 34.78600
H  39.69000 9.75100 36.73400
H  38.47500 10.81700 36.22800
H  34.59700 6.22600 30.19500
H  35.61900 6.76800 31.64000
H  35.82300 5.19100 30.81700
H  34.84800 4.63800 28.28800
H  34.32900 5.19400 26.61200
H  34.16800 6.20600 28.06500
H  39.67900 9.74300 24.94100
H  42.62700 8.78800 25.35400
H  40.27400 6.91800 24.65500
H  41.21100 7.95800 23.50100
H  39.42400 7.90400 23.51000
H  41.81600 10.54800 23.64000
H  43.09000 11.12700 24.72500
H  40.50800 12.21800 24.20600
H  41.77400 12.87200 25.35900
H  40.48000 11.74900 25.88200
H  46.11700 11.10100 28.80000
H  46.00800 12.26700 30.06800
H  45.13000 12.58500 28.58300
H  42.61800 11.66500 33.99100
H  43.79500 9.96400 37.66800
H  45.34100 10.49200 36.98400
H  44.63300 8.92400 36.55300
Mg -11.43000 38.80400 41.35000
C  -9.51000 35.91100 40.41600
C  -9.21700 40.67100 39.59600
C  -13.57800 41.30700 41.44700
C  -13.92100 36.43500 42.47500
N  -9.62200 38.24300 40.01300
C  -8.96600 37.07300 39.91500
C  -7.69500 37.26400 39.11800
C  -7.64200 38.79200 38.88300
C  -8.87300 39.32700 39.61300
C  -6.30900 39.57500 39.19000
C  -7.62500 36.38200 37.80900
C  -6.26700 35.74900 37.44500
H  -5.70300 36.01500 35.98700
N  -11.35800 40.78800 40.71800
C  -10.34500 41.32700 39.99100
C  -10.64700 42.78200 39.71200
C  -11.90400 42.98400 40.32600
C  -12.33900 41.70800 40.97300
C  -9.70100 43.64700 38.87300
C  -12.60800 44.33200 40.19300
O  -12.14700 45.31200 39.63700
C  -13.91600 44.58300 40.91100
N  -13.52300 38.80900 41.66400
C  -14.15400 39.98200 41.66200
C  -15.57000 39.73000 42.12300
C  -15.75300 38.21300 42.34100
C  -14.28300 37.77200 42.20700
C  -16.00400 40.63600 43.23500
C  -16.70500 37.45700 41.35500
C  -17.85100 36.58400 42.06000
N  -11.71100 36.57000 41.48500
C  -12.65200 35.78900 42.11800
C  -12.18300 34.39800 42.26900
C  -10.92300 34.39900 41.58300
C  -10.74500 35.72700 41.12800
C  -12.86700 33.34900 43.08300
C  -9.77200 33.64600 41.18500
O  -9.52800 32.47200 41.41700
C  -8.83100 34.57900 40.19800
C  -7.39100 34.45600 40.71100
O  -6.56200 33.62500 40.33500
O  -7.20900 35.29000 41.75500
C  -5.91000 35.36900 42.34000
H  -8.45100 41.22700 39.05100
H  -14.25600 42.16200 41.42800
H  -14.69300 35.88500 43.01600
H  -6.86300 37.18400 39.81600
H  -7.76500 39.08600 37.84000
H  -6.12600 40.13700 38.27400
H  -5.42400 38.93900 39.20800
H  -6.52900 40.18400 40.06700
H  -7.71500 37.15600 37.04600
H  -8.42100 35.64200 37.72400
H  -6.35400 34.66400 37.51000
H  -5.40400 35.77800 38.11000
H  -10.22000 44.12300 38.04100
H  -8.88900 43.06500 38.43800
H  -9.31900 44.40700 39.55500
H  -14.07800 45.65900 40.98500
H  -13.80800 44.13800 41.90000
H  -14.82900 44.17200 40.48100
H  -16.06500 40.06500 41.21200
H  -16.05900 37.89200 43.33700
H  -16.90100 40.17200 43.64400
H  -16.14300 41.61400 42.77400
H  -15.31900 40.73400 44.07700
H  -16.11100 36.77600 40.74500
H  -17.15400 38.09500 40.59400
H  -17.88000 35.65500 41.49100
H  -18.79800 37.12300 42.09900
H  -17.52100 36.21000 43.02900
H  -12.07500 32.67300 43.40800
H  -13.57300 32.71700 42.54500
H  -13.36400 33.77100 43.95600
H  -8.88600 34.25100 39.15900
H  -5.17000 35.76700 41.64500
H  -5.66300 34.35200 42.64400
H  -5.90800 36.00900 43.22200

