158

Mg 16.29300 -1.48100 27.88200
C  15.13400 0.47500 30.50300
C  18.42300 -3.10800 30.03300
C  17.90400 -3.00800 25.29600
C  14.58700 0.43600 25.58800
N  16.69000 -1.22200 30.05400
C  16.15200 -0.41300 30.97000
C  16.79200 -0.58900 32.39000
C  17.86300 -1.62100 32.08600
C  17.63700 -1.97300 30.58500
C  19.36900 -1.32200 32.31300
C  15.73200 -0.96800 33.39500
C  15.73100 -0.13300 34.75100
H  16.94200 0.66600 35.14700
N  17.75700 -3.14200 27.67900
C  18.43700 -3.67600 28.76700
C  19.22400 -4.80900 28.26600
C  19.23400 -4.66600 26.85000
C  18.22200 -3.64500 26.55200
C  20.09300 -5.66600 29.15300
C  20.04300 -5.35000 25.66100
O  19.68500 -5.35200 24.48300
C  21.08100 -6.29400 26.08200
N  16.39600 -1.20800 25.78300
C  17.06200 -2.00500 24.94300
C  16.79300 -1.63500 23.47000
C  15.60900 -0.69000 23.50400
C  15.49800 -0.50300 25.06500
C  18.08000 -1.13400 22.75900
C  14.28100 -1.15300 22.71600
C  13.49500 -0.07000 21.96800
N  14.96900 -0.06700 27.96300
C  14.35600 0.68800 26.94100
C  13.50600 1.67000 27.54100
C  13.75100 1.63600 28.90700
C  14.74900 0.61500 29.14500
C  12.65700 2.68600 26.87900
C  13.48900 2.31000 30.18700
O  12.70600 3.23300 30.45100
C  14.37000 1.55400 31.26300
C  15.21900 2.57900 31.86400
O  16.15500 3.13500 31.29300
O  14.59700 3.02700 32.99600
C  15.16000 4.20400 33.60200
H  19.17900 -3.44400 30.74500
H  18.54100 -3.39900 24.50000
H  14.05900 0.96400 24.79200
H  17.31000 0.34300 32.61500
H  17.66300 -2.57200 32.58000
H  19.45600 -0.61500 33.13800
H  19.81000 -0.94200 31.39100
H  19.90000 -2.19500 32.69300
H  15.86400 -2.01500 33.66600
H  14.74600 -0.79700 32.96300
H  15.44300 -0.75900 35.59600
H  14.96500 0.60200 34.50500
H  20.13700 -6.65600 28.69900
H  19.67100 -5.74500 30.15400
H  21.07400 -5.19100 29.19200
H  20.67800 -7.19000 26.55400
H  21.82100 -5.75300 26.67200
H  21.64600 -6.55800 25.18900
H  16.51000 -2.59300 23.03400
H  15.93300 0.28700 23.14400
H  18.55800 -0.36100 23.35900
H  17.98100 -0.63700 21.79400
H  18.86700 -1.85500 22.53700
H  13.68700 -1.58900 23.52000
H  14.57000 -1.94800 22.02800
H  13.70000 -0.21000 20.90700
H  13.91000 0.84800 22.38500
H  12.41600 -0.21500 22.03100
H  12.83800 2.62600 25.80500
H  12.92400 3.68400 27.22600
H  11.59800 2.44300 26.95500
H  13.78000 1.08000 32.04600
H  14.75200 4.23900 34.61200
H  14.81500 5.05100 33.00900
H  16.24800 4.20300 33.66700
Mg 34.98700 3.55800 30.42600
C  33.08900 4.56000 32.95300
C  37.81500 3.58900 32.42600
C  37.06200 2.91100 27.70400
C  32.30200 3.91100 28.17600
N  35.38300 3.90500 32.40600
C  34.41000 4.28400 33.31600
C  35.04000 4.44400 34.75000
C  36.53900 4.43100 34.42400
C  36.59900 4.04400 32.93400
C  37.31300 5.72000 34.78300
C  34.51800 3.33400 35.64100
C  33.98100 3.72600 37.05300
H  34.70100 4.95600 37.66900
N  37.08700 3.02100 30.23400
C  38.07400 3.02900 31.14500
C  39.36700 2.56800 30.62700
C  39.12400 2.39500 29.25600
C  37.67900 2.76700 29.01800
C  40.58600 2.32700 31.51000
C  40.14100 2.00300 28.20900
O  39.91100 2.02100 27.02000
C  41.52100 1.60500 28.52000
N  34.71100 3.42800 28.32000
C  35.72400 3.18700 27.40200
C  35.24000 3.24100 25.94700
C  33.68500 3.15700 26.17700
C  33.53600 3.50700 27.64700
C  35.62500 4.55900 25.14800
C  33.09300 1.79200 25.78800
C  31.57100 1.73700 25.43100
N  33.13200 4.18500 30.51200
C  32.13700 4.29800 29.52400
C  30.95800 4.72900 30.16600
C  31.29600 4.99300 31.52900
C  32.61400 4.55400 31.63900
C  29.66500 4.91400 29.46000
C  30.80200 5.36300 32.82900
O  29.73600 5.77000 33.24100
C  31.93900 5.12100 33.82400
C  32.23100 6.47900 34.42000
O  32.75500 7.49200 33.90200
O  31.75900 6.46300 35.67200
C  31.68900 7.78300 36.34300
H  38.64600 3.59800 33.13400
H  37.51700 2.57000 26.77200
H  31.43100 3.88000 27.51700
H  34.69100 5.41300 35.10800
H  37.04500 3.67200 35.02100
H  37.52200 6.41500 33.97000
H  38.24900 5.46900 35.28300
H  36.79000 6.21600 35.60000
H  35.25700 2.53600 35.72000
H  33.74600 2.80800 35.07900
H  34.01100 2.95400 37.82200
H  32.92700 3.93500 36.87100
H  40.49700 1.31000 31.89200
H  40.66500 3.07700 32.29600
H  41.48300 2.45600 30.90500
H  41.99000 2.55000 28.79500
H  42.02500 1.17100 27.65600
H  41.54800 0.89200 29.34500
H  35.76000 2.39900 25.49200
H  33.13400 3.88300 25.57900
H  34.81000 5.11800 24.68800
H  36.37800 4.26400 24.41800
H  36.13500 5.21300 25.85600
H  33.31100 1.11600 26.61500
H  33.60600 1.46500 24.88400
H  31.33600 2.79900 25.35900
H  31.07800 1.28500 26.29200
H  31.38000 1.14000 24.53900
H  29.24300 3.91400 29.35400
H  29.85100 5.45300 28.53100
H  28.99600 5.43900 30.14300
H  31.63100 4.41300 34.59300
H  32.09100 7.53500 37.32600
H  30.65800 8.11300 36.47400
H  32.23800 8.58500 35.85100

