158

Mg 16.45900 -2.03800 27.53600
C  15.42200 -0.04900 30.27700
C  18.77600 -3.46600 29.75700
C  17.56600 -3.90500 25.01700
C  14.63700 0.03400 25.39500
N  17.02500 -1.72800 29.81600
C  16.42600 -0.90200 30.67400
C  17.00100 -1.12000 32.05700
C  18.15500 -2.15800 31.89600
C  17.97100 -2.50200 30.39100
C  19.54600 -1.73900 32.32600
C  15.94200 -1.39300 33.11400
C  15.88000 -0.42000 34.32400
H  17.15300 0.26100 34.72100
N  17.83500 -3.56900 27.37000
C  18.71900 -3.93700 28.36700
C  19.53400 -5.09000 27.86100
C  19.18500 -5.23200 26.45900
C  18.12900 -4.23800 26.21300
C  20.59800 -5.75500 28.56900
C  19.64800 -6.21500 25.40400
O  19.22500 -6.20200 24.26100
C  20.62600 -7.25300 25.78300
N  16.01400 -1.95800 25.49200
C  16.67600 -2.85300 24.64500
C  16.33900 -2.48100 23.15700
C  15.27200 -1.33500 23.30400
C  15.35400 -1.02900 24.79700
C  17.61800 -2.17200 22.36300
C  13.78900 -1.56900 22.85800
C  13.07100 -2.67500 23.66800
N  15.26100 -0.40200 27.72700
C  14.52700 0.28100 26.76100
C  13.61800 1.22800 27.40700
C  14.00400 1.14800 28.79900
C  14.96500 0.12100 28.91900
C  12.64900 2.24900 26.70600
C  13.76900 1.72700 30.12000
O  13.01100 2.66200 30.41800
C  14.65700 1.00700 31.13900
C  15.49900 2.10600 31.67900
O  16.59200 2.42300 31.20200
O  14.93400 2.64800 32.76100
C  15.60100 3.71800 33.42500
H  19.38900 -3.96500 30.51100
H  17.98900 -4.32600 24.10200
H  14.03300 0.70700 24.78300
H  17.29500 -0.08000 32.20200
H  17.92600 -3.09700 32.40000
H  20.07500 -1.59700 31.38300
H  19.94400 -2.57200 32.90500
H  19.52200 -0.78200 32.84700
H  15.90800 -2.41400 33.49500
H  14.97500 -1.18900 32.65400
H  15.47700 -0.97800 35.16800
H  15.21600 0.39600 34.03600
H  20.99800 -5.24700 29.44700
H  21.42200 -6.01000 27.90200
H  20.30100 -6.73800 28.93500
H  20.39800 -7.83300 26.67800
H  21.63800 -6.85600 25.86500
H  20.62600 -7.90000 24.90600
H  15.96100 -3.41300 22.73700
H  15.61900 -0.47200 22.73600
H  18.50000 -2.34700 22.97900
H  17.43900 -1.16100 21.99600
H  17.72800 -2.87000 21.53300
H  13.63500 -1.52000 21.78000
H  13.29900 -0.65600 23.19800
H  12.21100 -2.23500 24.17300
H  13.77300 -3.04500 24.41400
H  12.73900 -3.48800 23.02100
H  11.70600 1.83800 27.06700
H  12.54300 2.02100 25.64500
H  12.73300 3.33500 26.74100
H  14.00900 0.67700 31.95100
H  15.35500 4.70600 33.03600
H  16.66600 3.49200 33.45600
H  15.16000 3.81300 34.41800
Mg 50.34600 45.17900 42.70800
C  47.19400 46.05100 41.58800
C  50.02800 42.10100 41.70200
C  53.74800 44.90100 42.94200
C  50.85200 48.78100 43.16600
N  48.86400 44.28000 41.66900
C  47.55200 44.74200 41.37900
C  46.65500 43.67300 40.77600
C  47.64600 42.39800 40.81600
C  48.92000 42.92700 41.46100
C  47.04200 41.18300 41.64900
C  46.27000 44.03200 39.28400
C  47.31900 44.65600 38.35500
H  47.82300 43.86100 37.16100
N  51.71400 43.66900 42.48500
C  51.34400 42.38100 42.09300
C  52.50000 41.48300 41.98800
C  53.61000 42.31600 42.39200
C  53.03500 43.67800 42.67200
C  52.33200 40.02000 41.62600
C  55.04000 41.72200 42.55800
O  55.25800 40.60500 42.19800
C  56.09600 42.47500 43.34800
N  51.99300 46.69400 43.01300
C  53.29900 46.21300 43.20900
C  54.22000 47.48200 43.37600
C  53.28600 48.68100 43.65700
C  51.98300 48.02700 43.17800
C  55.33500 47.46500 44.48900
C  53.65100 50.16300 43.17700
C  53.93400 51.09000 44.33400
N  49.29900 47.11800 42.36500
C  49.57600 48.45800 42.72000
C  48.33200 49.24100 42.67300
C  47.36400 48.28400 42.26900
C  47.96700 47.05700 42.06200
C  48.18200 50.63500 43.24800
C  45.95900 48.16100 41.84700
O  45.09500 48.97300 41.63700
C  45.73500 46.66900 41.54900
C  44.76900 46.07300 42.48800
O  43.56300 45.93600 42.23400
O  45.34300 45.63700 43.68000
C  44.39000 45.07400 44.62300
H  49.82300 41.10500 41.30500
H  54.83000 44.76000 42.89700
H  50.86100 49.85600 43.36100
H  45.78400 43.45800 41.39500
H  47.84900 41.95500 39.84100
H  46.21000 41.54500 42.25200
H  47.74600 40.94100 42.44600
H  46.94900 40.38100 40.91700
H  45.48500 44.77200 39.43900
H  45.81900 43.09500 38.95600
H  48.28800 44.71700 38.85200
H  47.00300 45.61000 37.93300
H  52.95000 39.71600 40.78100
H  51.28400 39.83100 41.39300
H  52.58400 39.49200 42.54500
H  56.61900 43.20900 42.73600
H  56.82500 41.74600 43.70100
H  55.61200 42.92800 44.21400
H  54.74700 47.46600 42.42100
H  53.10000 48.72300 44.73000
H  56.22900 47.12000 43.96900
H  55.08100 46.66700 45.18800
H  55.53200 48.45300 44.90600
H  52.86900 50.55200 42.52600
H  54.54500 50.15700 42.55200
H  54.55700 50.54600 45.04400
H  52.94800 51.29700 44.75100
H  54.46300 51.93000 43.88300
H  48.75000 51.19500 42.50500
H  48.61800 50.77300 44.23700
H  47.14200 50.96100 43.29600
H  45.30600 46.52100 40.55800
H  44.97300 44.55600 45.38500
H  43.63200 44.40300 44.21700
H  43.85700 45.85300 45.16900

