158

Mg 44.25400 3.29500 47.56800
C  42.14200 6.11700 46.97100
C  41.29600 1.24000 47.25300
C  46.10900 0.67000 47.69200
C  47.02300 5.51100 47.00500
N  42.03300 3.65900 47.18200
C  41.41000 4.88500 47.13600
C  39.83700 4.76600 47.19600
C  39.65700 3.21700 47.30200
C  41.08300 2.68000 47.27600
C  38.96900 2.75300 48.65500
C  39.01200 5.46800 46.00700
C  39.71700 5.52300 44.64300
H  39.34100 4.63600 43.46000
N  43.77700 1.18300 47.53500
C  42.53600 0.52500 47.37900
C  42.75900 -0.92600 47.34900
C  44.14400 -1.13300 47.58800
C  44.73900 0.26800 47.62200
C  41.57400 -1.91400 47.25500
C  44.87900 -2.42200 47.70200
O  44.25400 -3.49800 47.69200
C  46.35100 -2.60700 47.71600
N  46.27800 3.05600 47.26500
C  46.81700 1.87300 47.47200
C  48.32200 1.87400 47.47900
C  48.64500 3.38000 47.23100
C  47.19500 4.05200 47.15000
C  48.89100 1.50300 48.84900
C  49.59000 3.81800 46.00100
C  50.52000 2.81500 45.26300
N  44.56600 5.37900 47.18500
C  45.72500 6.03900 46.95000
C  45.43800 7.45600 46.81300
C  44.05300 7.50400 46.78800
C  43.55100 6.27000 46.99700
C  46.50900 8.53700 46.68500
C  42.94900 8.40400 46.78000
O  42.85100 9.63900 46.77900
C  41.64900 7.51900 46.73300
C  40.75100 7.99600 47.89800
O  40.87000 7.61500 49.07200
O  39.75400 8.90000 47.43700
C  38.90900 9.39900 48.51300
H  40.49200 0.50200 47.23000
H  46.72700 -0.21800 47.83800
H  47.95600 6.07800 46.96400
H  39.52900 5.39800 48.02900
H  39.13800 2.81500 46.43200
H  39.56200 2.26600 49.42900
H  38.23000 1.99300 48.39900
H  38.42200 3.60900 49.05000
H  38.78500 6.47600 46.35400
H  38.04100 4.98300 45.90900
H  40.78800 5.33200 44.70800
H  39.66500 6.54700 44.27200
H  40.79700 -1.55600 46.57900
H  41.03200 -1.98200 48.19800
H  41.89200 -2.92900 47.01400
H  46.82300 -2.05400 46.90400
H  46.55100 -3.67600 47.63600
H  46.75700 -2.22400 48.65200
H  48.75300 1.17700 46.76100
H  49.13100 3.88000 48.06800
H  49.46900 0.60200 48.64400
H  48.14400 1.48100 49.64300
H  49.65400 2.21800 49.15700
H  50.23600 4.61600 46.36700
H  48.99300 4.38000 45.28300
H  51.54800 3.12200 45.45400
H  50.44300 2.80400 44.17500
H  50.41900 1.81800 45.69200
H  47.15300 8.26600 45.84900
H  46.93000 8.63900 47.68600
H  45.93200 9.44300 46.49900
H  41.08600 7.66400 45.81100
H  38.03900 9.85300 48.03900
H  39.46100 10.10800 49.13100
H  38.47200 8.62400 49.14300
Mg 36.24100 0.96500 29.84700
C  34.24200 2.14300 32.58800
C  38.81400 0.71700 31.97500
C  37.96500 -0.06900 27.29100
C  33.43300 1.54500 27.77600
N  36.46100 1.31900 32.08200
C  35.45200 1.70200 33.05600
C  36.08200 1.67300 34.35700
C  37.59700 1.52900 34.14000
C  37.69000 1.13300 32.67000
C  38.39300 2.73600 34.59700
C  35.41300 0.52100 35.15900
C  35.08200 0.86700 36.60000
H  36.05000 1.76200 37.32700
N  38.20800 0.51500 29.67400
C  39.14800 0.40800 30.64900
C  40.38300 -0.15000 30.08800
C  40.11100 -0.29400 28.63500
C  38.67800 0.04800 28.47600
C  41.60900 -0.36000 30.96700
C  41.04500 -0.69200 27.43600
O  40.65900 -0.92800 26.27600
C  42.43100 -0.98100 27.75000
N  35.71400 0.78000 27.82700
C  36.65000 0.26700 27.01900
C  36.12100 0.39800 25.53200
C  34.65900 0.68400 25.73700
C  34.57600 1.05800 27.16800
C  37.02400 1.33900 24.62400
C  33.56700 -0.29400 25.13800
C  32.29300 0.24200 24.62400
N  34.27000 1.71500 30.03300
C  33.21300 1.81600 29.12600
C  32.05200 2.25400 29.80000
C  32.40900 2.26800 31.17900
C  33.77300 2.03500 31.25200
C  30.75800 2.59700 29.13100
C  31.87900 2.74900 32.43300
O  30.82300 3.26200 32.77400
C  33.07300 2.55400 33.40400
C  33.34700 3.75200 34.20500
O  33.55400 4.89800 33.78300
O  33.29800 3.35600 35.49800
C  33.54800 4.48100 36.44900
H  39.63600 0.63500 32.68900
H  38.54600 -0.47400 26.46000
H  32.68100 1.81900 27.03300
H  35.81900 2.59300 34.87800
H  37.86000 0.69300 34.78800
H  37.98300 3.39200 35.36500
H  38.50400 3.40900 33.74800
H  39.35900 2.37600 34.95300
H  35.99600 -0.40000 35.18200
H  34.52900 0.19500 34.61200
H  34.85700 -0.04800 37.14900
H  34.12200 1.38300 36.58000
H  42.17200 0.57100 31.04100
H  42.21000 -1.21600 30.66100
H  41.27000 -0.69500 31.94700
H  43.00300 -0.90000 26.82500
H  42.35100 -1.97700 28.18600
H  42.74500 -0.31000 28.55000
H  36.08300 -0.55000 24.99300
H  34.45700 1.69200 25.37400
H  37.83300 1.72500 25.24400
H  36.50500 2.23200 24.27500
H  37.45600 0.72800 23.83100
H  33.36700 -0.97400 25.96600
H  34.08000 -0.70400 24.26900
H  32.45300 0.06300 23.56100
H  32.14700 1.31700 24.72400
H  31.43200 -0.19300 25.13200
H  29.86200 2.47300 29.73800
H  30.55400 2.05200 28.20900
H  30.73700 3.65500 28.87100
H  32.73200 1.78600 34.09700
H  34.47200 5.00800 36.21100
H  33.39800 4.06800 37.44600
H  32.66800 5.11200 36.33100

