158

Mg -3.37500 17.15900 26.70200
C  -3.75000 14.95900 29.31500
C  -3.48500 19.76300 28.87400
C  -3.30500 19.33600 24.10700
C  -3.72400 14.51300 24.50700
N  -3.65700 17.21600 28.84000
C  -3.70700 16.22200 29.74400
C  -3.66100 16.75100 31.26300
C  -3.61300 18.28800 31.06900
C  -3.60600 18.45900 29.48800
C  -4.74700 19.11600 31.73500
C  -2.43800 16.14400 32.08500
C  -1.88400 16.95800 33.28300
H  -1.49000 16.29500 34.60800
N  -3.23100 19.19300 26.53000
C  -3.30500 20.12900 27.52300
C  -2.96100 21.44200 26.96500
C  -2.73900 21.28200 25.55800
C  -3.07200 19.85200 25.36800
C  -2.74100 22.69200 27.80200
C  -2.17900 22.16700 24.46900
O  -2.02900 21.77500 23.36700
C  -1.67900 23.59500 24.82000
N  -3.72600 16.92200 24.61400
C  -3.56100 18.00500 23.77000
C  -3.63400 17.54100 22.31500
C  -3.83600 16.03300 22.46000
C  -3.68900 15.78900 23.97100
C  -4.76300 18.24700 21.51200
C  -2.77700 15.21800 21.67200
C  -1.24100 15.23700 22.11900
N  -3.59300 15.09500 26.79400
C  -3.80900 14.17000 25.88600
C  -3.90900 12.86800 26.43100
C  -3.75800 13.06100 27.81200
C  -3.69600 14.48100 27.96200
C  -4.15100 11.54200 25.77300
C  -3.67000 12.45500 29.05300
O  -3.63700 11.24900 29.19600
C  -3.84900 13.66700 30.13200
C  -2.74800 13.37700 31.03700
O  -1.60000 13.63300 30.70200
O  -3.16200 12.72300 32.14700
C  -2.08800 12.35000 33.14600
H  -3.47900 20.68400 29.46100
H  -3.54000 20.05300 23.31800
H  -3.84100 13.58300 23.94800
H  -4.59800 16.46100 31.73900
H  -2.69800 18.79100 31.38300
H  -5.22400 19.76200 30.99800
H  -4.39000 19.88000 32.42600
H  -5.39700 18.45900 32.31200
H  -1.60500 15.91400 31.42000
H  -2.73300 15.21700 32.57600
H  -2.59000 17.73400 33.58000
H  -1.00400 17.46800 32.89300
H  -3.29600 23.54300 27.40800
H  -1.68700 22.96800 27.83500
H  -3.12000 22.55500 28.81500
H  -0.74600 23.57600 25.38200
H  -2.52100 24.08800 25.30600
H  -1.44300 24.15600 23.91600
H  -2.68200 17.84900 21.88200
H  -4.82500 15.64600 22.21300
H  -5.29600 19.00400 22.08800
H  -5.45600 17.56700 21.01700
H  -4.25100 18.79400 20.72100
H  -2.79800 15.67700 20.68400
H  -3.20800 14.21700 21.64700
H  -1.04300 15.93500 22.93300
H  -0.70800 15.69400 21.28600
H  -0.77800 14.27000 22.31800
H  -3.18000 11.11500 25.52200
H  -4.76500 11.67000 24.88100
H  -4.65800 10.90200 26.49500
H  -4.84700 13.65400 30.57000
H  -1.83100 11.30300 32.98400
H  -2.55700 12.56400 34.10700
H  -1.16700 12.92800 33.06700
Mg 53.94500 25.17300 44.27200
C  51.31200 27.57200 43.61200
C  51.86100 22.76700 43.06900
C  56.67900 23.24300 44.16200
C  55.97300 27.98000 45.20300
N  51.89100 25.25600 43.26400
C  51.00500 26.32400 43.09000
C  49.69800 25.85400 42.43600
C  49.85200 24.29300 42.61100
C  51.30500 24.04100 42.95100
C  48.87400 23.78900 43.74400
C  49.48500 26.22400 40.92100
C  50.75000 26.56000 40.09300
H  50.95200 25.64000 38.84400
N  54.25300 23.19200 43.65300
C  53.21800 22.33600 43.36000
C  53.79800 21.01700 43.17700
C  55.21700 21.12100 43.51100
C  55.47000 22.53400 43.84000
C  53.03900 19.77100 42.79500
C  56.19300 20.00300 43.54800
O  55.69100 18.84400 43.35500
C  57.60800 20.15300 43.89400
N  56.01100 25.59300 44.56600
C  56.94900 24.58300 44.43700
C  58.37400 25.10900 44.59900
C  58.10400 26.66600 44.68400
C  56.61100 26.78600 44.83400
C  59.27700 24.53600 45.75700
C  58.58300 27.52300 43.50100
C  59.28600 28.86600 43.83200
N  53.65100 27.33900 44.55700
C  54.56200 28.27400 45.07400
C  53.81300 29.52200 45.30900
C  52.60700 29.23000 44.74100
C  52.52000 27.92800 44.22500
C  54.44200 30.74200 45.80400
C  51.35100 29.79500 44.45600
O  51.04600 30.93100 44.70900
C  50.47600 28.77800 43.72000
C  50.10600 29.30000 42.35400
O  50.86600 29.28500 41.38600
O  48.75300 29.67500 42.35500
C  48.19000 30.11700 40.99600
H  51.31100 21.86400 42.79700
H  57.68500 22.82400 44.23400
H  56.54000 28.89300 45.39700
H  48.91500 26.25300 43.08100
H  49.80700 23.76300 41.66000
H  48.71900 24.51500 44.54200
H  49.34900 22.85600 44.04600
H  47.92200 23.62300 43.24000
H  48.87600 27.12700 40.87400
H  48.89300 25.50200 40.36000
H  51.72500 26.56300 40.58000
H  50.56600 27.59200 39.79300
H  52.17500 20.08300 42.20900
H  52.62400 19.33900 43.70600
H  53.62300 19.03000 42.24900
H  58.11000 19.28700 44.32600
H  57.80400 20.83100 44.72400
H  58.13000 20.57100 43.03300
H  58.94500 24.87200 43.70100
H  58.42300 27.08900 45.63600
H  58.64500 23.95400 46.42700
H  59.75400 25.27900 46.39600
H  60.07600 23.89400 45.38700
H  57.86600 27.60900 42.68400
H  59.36800 26.91400 43.05300
H  59.33500 29.42500 42.89700
H  60.27400 28.67200 44.25100
H  58.78200 29.43000 44.61700
H  55.09400 30.36900 46.59300
H  53.86200 31.63400 46.04200
H  54.99800 31.00800 44.90400
H  49.53200 28.62600 44.24500
H  48.44700 29.37700 40.23800
H  48.58400 31.10500 40.75700
H  47.10400 30.20400 41.04500

