158

Mg 2.55600 -2.20300 43.94900
C  5.89500 -1.07900 44.30700
C  1.70300 0.88400 42.56000
C  -0.35900 -3.35100 42.83600
C  3.68900 -5.45600 44.73600
N  3.69200 -0.29200 43.38500
C  5.02700 -0.10400 43.65000
C  5.39300 1.40800 43.50200
C  3.98800 2.02700 43.26900
C  3.04800 0.82500 43.04900
C  3.43600 3.03000 44.33900
C  6.39000 1.63800 42.31300
C  6.05300 0.87400 40.99500
H  6.13400 1.59800 39.64800
N  0.78500 -1.26300 43.12300
C  0.71700 -0.07400 42.49200
C  -0.54400 0.11900 41.88100
C  -1.25300 -1.07000 42.08000
C  -0.25300 -1.98600 42.66000
C  -0.92800 1.25500 41.09500
C  -2.67100 -1.36900 41.70700
O  -3.34500 -0.46600 41.15500
C  -3.41200 -2.72000 42.08200
N  1.73400 -4.09600 43.91000
C  0.48800 -4.27600 43.46200
C  0.03800 -5.71200 43.76000
C  1.31000 -6.40900 44.44100
C  2.33000 -5.26500 44.42300
C  -1.29000 -5.84900 44.51900
C  1.78500 -7.67100 43.66400
C  2.60800 -7.52000 42.29600
N  4.46300 -3.21400 44.44100
C  4.72800 -4.50600 44.71100
C  6.10200 -4.57800 45.09900
C  6.63900 -3.29500 45.03900
C  5.61000 -2.49600 44.52900
C  6.80600 -5.84300 45.63600
C  7.78000 -2.46800 45.30900
O  8.92500 -2.69400 45.65700
C  7.32100 -1.00700 44.84900
C  7.40000 -0.03300 45.96900
O  6.67400 -0.04300 46.98700
O  8.29400 0.97300 45.68200
C  8.45900 1.88600 46.78900
H  1.42300 1.87900 42.20600
H  -1.32000 -3.77000 42.52900
H  3.92600 -6.47800 45.04100
H  5.76000 1.75700 44.46700
H  3.95600 2.63200 42.36300
H  2.88500 3.84400 43.86900
H  4.28300 3.46700 44.86800
H  2.92900 2.46900 45.12400
H  7.33300 1.26700 42.71100
H  6.52600 2.69300 42.07300
H  5.05700 0.43700 40.93900
H  6.73300 0.02800 41.08900
H  -1.62900 0.95200 40.31800
H  -0.13900 1.73600 40.51700
H  -1.22200 2.00000 41.83500
H  -4.49700 -2.75700 41.98800
H  -3.20000 -2.96700 43.12300
H  -2.94500 -3.50200 41.48400
H  -0.24100 -6.08600 42.77500
H  1.16000 -6.68100 45.48500
H  -1.02600 -6.10700 45.54400
H  -1.89800 -6.61900 44.04300
H  -1.84400 -4.91500 44.43200
H  0.93400 -8.32300 43.46700
H  2.26900 -8.30200 44.40900
H  3.60200 -7.91400 42.50500
H  2.64700 -6.49000 41.94000
H  2.03400 -8.06500 41.54600
H  6.08400 -6.16400 46.38600
H  7.85700 -5.70700 45.89400
H  6.72500 -6.59700 44.85300
H  7.99500 -0.59700 44.09700
H  7.80400 1.83300 47.65800
H  8.59700 2.89300 46.39500
H  9.41800 1.60500 47.22400
Mg 47.57300 24.96100 27.94200
C  48.64500 27.50600 30.11100
C  46.42800 23.11800 30.60300
C  46.82400 22.44900 25.89900
C  49.50200 26.51700 25.47100
N  47.38100 25.37700 30.15000
C  47.98700 26.43200 30.82100
C  47.78000 26.25000 32.30100
C  47.08500 24.81100 32.46100
C  46.96900 24.37000 31.00900
C  47.86100 23.83000 33.29300
C  46.92400 27.35500 32.93900
C  47.32300 27.92800 34.32600
H  46.22100 27.85800 35.37600
N  46.67500 23.08900 28.18800
C  46.34400 22.46400 29.38600
C  45.81600 21.11000 29.10500
C  45.84200 20.94600 27.70100
C  46.44000 22.18700 27.19000
C  45.51500 20.13100 30.22100
C  45.40100 19.74500 26.94700
O  45.66100 19.69400 25.72900
C  44.65100 18.65200 27.62800
N  48.09500 24.51400 25.93900
C  47.49800 23.50900 25.24800
C  47.90800 23.44200 23.78400
C  48.64800 24.81400 23.63300
C  48.78300 25.33400 25.09200
C  48.72400 22.19900 23.47000
C  47.88900 25.96000 22.89700
C  48.90900 26.89500 22.16600
N  48.80900 26.71900 27.69600
C  49.45900 27.26700 26.65200
C  50.15300 28.49300 26.95300
C  49.77200 28.67400 28.33700
C  49.01900 27.56700 28.75800
C  50.98900 29.42000 26.20200
C  49.90100 29.52300 29.52700
O  50.48600 30.60800 29.62500
C  49.20400 28.75000 30.70900
C  50.22400 28.57000 31.77600
O  51.26400 27.93300 31.68900
O  49.72900 29.21200 32.84400
C  50.61400 29.09700 34.03500
H  46.03400 22.56100 31.45500
H  46.58600 21.71800 25.12300
H  50.00200 27.01500 24.63900
H  48.79600 26.23500 32.69500
H  46.12300 24.90300 32.96700
H  48.50600 24.36300 33.99200
H  48.45900 23.11700 32.72600
H  47.05800 23.33600 33.84000
H  45.86100 27.11600 32.94500
H  46.93000 28.26800 32.34500
H  47.60300 28.96700 34.14800
H  48.17200 27.38700 34.74400
H  44.53700 19.71400 29.98000
H  45.64000 20.48800 31.24400
H  46.22100 19.30400 30.28600
H  44.09700 18.06500 26.89600
H  43.85000 19.09700 28.21800
H  45.36100 18.11100 28.25400
H  47.10500 23.45400 23.04700
H  49.63800 24.78400 23.18000
H  49.70100 22.37000 23.01900
H  48.21700 21.48800 22.81800
H  49.02200 21.72100 24.40300
H  47.31900 26.57700 23.59200
H  47.32800 25.51600 22.07400
H  49.92400 26.67700 22.49800
H  48.69400 27.94300 22.37500
H  48.81600 26.77200 21.08700
H  51.88200 28.88100 25.88900
H  51.39600 30.27400 26.74300
H  50.40300 29.71900 25.33300
H  48.42600 29.44100 31.03200
H  50.36600 30.01700 34.56400
H  51.69700 29.18600 33.95700
H  50.46200 28.23100 34.68000

