158

Mg -3.18200 17.47100 26.75100
C  -2.97100 15.53100 29.77600
C  -3.19800 20.21600 28.69100
C  -3.53900 19.14100 23.98500
C  -3.38900 14.40900 24.94600
N  -2.98600 17.84900 28.95900
C  -2.87400 16.94300 29.96700
C  -2.83000 17.59200 31.35100
C  -2.70100 19.11800 30.96100
C  -3.09200 19.09800 29.49300
C  -3.57000 20.17800 31.73300
C  -1.70300 16.97700 32.35500
C  -1.07300 17.94400 33.45500
H  -1.01700 17.46900 34.87200
N  -3.18700 19.46600 26.41200
C  -3.28800 20.48100 27.30300
C  -3.36000 21.79300 26.57800
C  -3.27700 21.48600 25.19700
C  -3.31900 19.93600 25.16800
C  -3.29800 23.17400 27.08400
C  -3.04500 22.29300 23.91600
O  -2.88900 21.81500 22.77900
C  -3.00400 23.77200 24.01800
N  -3.52600 16.84800 24.79300
C  -3.74800 17.72900 23.77500
C  -3.93100 17.10600 22.42100
C  -3.74800 15.59000 22.76700
C  -3.52600 15.57900 24.27200
C  -5.09200 17.61000 21.58200
C  -2.74000 14.74700 21.84000
C  -1.30900 15.18700 22.08400
N  -3.33800 15.34700 27.20000
C  -3.34000 14.23600 26.34600
C  -3.40100 13.04200 27.17600
C  -3.45400 13.50000 28.51400
C  -3.25900 14.93000 28.44600
C  -3.45400 11.62800 26.77500
C  -3.46000 13.04800 29.85600
O  -3.59800 11.91100 30.29600
C  -3.13500 14.29600 30.74600
C  -1.91300 13.95500 31.48100
O  -0.74300 14.02200 31.06900
O  -2.34000 13.45600 32.70300
C  -1.25400 13.12300 33.58300
H  -3.05900 21.19800 29.14700
H  -3.78200 19.79500 23.14600
H  -3.45000 13.56700 24.25300
H  -3.80100 17.50300 31.83900
H  -1.63600 19.28500 31.12100
H  -2.84400 20.79500 32.26300
H  -4.24300 19.67200 32.42500
H  -4.14900 20.84900 31.09800
H  -0.92700 16.63600 31.67000
H  -2.13900 16.13600 32.89300
H  -1.43500 18.97000 33.38400
H  -0.04700 17.97500 33.08800
H  -2.43000 23.54200 26.53700
H  -3.16600 23.29200 28.15900
H  -4.14400 23.74200 26.69800
H  -3.90300 24.16900 24.49000
H  -3.01500 24.26800 23.04800
H  -2.07400 24.00900 24.53400
H  -3.04100 17.50700 21.93700
H  -4.69300 15.06200 22.63900
H  -5.72900 16.78500 21.26400
H  -4.81400 18.24900 20.74400
H  -5.75700 18.19400 22.21900
H  -3.00800 14.82600 20.78600
H  -2.92000 13.69000 22.03400
H  -0.94000 15.61900 21.15400
H  -0.69100 14.34500 22.39600
H  -1.30400 15.99200 22.81800
H  -2.46700 11.22500 26.54500
H  -4.28000 11.73900 26.07300
H  -3.87300 11.10600 27.63500
H  -3.94400 14.48300 31.45200
H  -1.67400 12.18700 33.95100
H  -1.36200 13.83600 34.40100
H  -0.22200 13.12500 33.23300
Mg -2.09800 34.50300 26.50400
C  -3.36100 32.80900 29.31100
C  -0.41200 36.60100 28.54200
C  -0.91400 36.14400 23.71800
C  -4.06000 32.43000 24.46600
N  -1.97600 34.62700 28.63400
C  -2.54100 33.89500 29.63600
C  -2.14700 34.34800 30.98100
C  -1.24600 35.59200 30.75200
C  -1.26100 35.65700 29.18500
C  -1.51000 37.02500 31.43200
C  -1.60200 33.16600 31.82200
C  -0.66300 33.46200 33.06400
H  -1.08600 32.95700 34.48900
N  -0.82300 36.15300 26.16800
C  -0.14800 36.88600 27.15700
C  0.64600 37.92700 26.49700
C  0.43000 37.86400 25.13600
C  -0.45600 36.68500 24.94300
C  1.54400 38.84200 27.28200
C  0.95400 38.79800 24.01600
O  0.71000 38.64400 22.85700
C  1.78200 39.91500 24.36500
N  -2.45100 34.32500 24.43400
C  -1.83100 35.09800 23.47300
C  -2.16100 34.54700 22.05800
C  -3.19100 33.45200 22.26400
C  -3.24700 33.40600 23.82700
C  -2.49200 35.60800 20.87700
C  -2.83900 32.16800 21.45800
C  -1.81800 31.13500 22.07800
N  -3.44600 32.84700 26.75900
C  -4.09300 32.10500 25.84700
C  -4.72000 30.98800 26.56700
C  -4.48100 31.22400 27.91800
C  -3.71600 32.41400 27.99900
C  -5.49800 29.91900 25.97900
C  -4.90500 30.81500 29.26400
O  -5.58100 29.87300 29.75900
C  -4.17300 31.85500 30.22300
C  -5.30900 32.71000 30.91500
O  -6.17000 33.33500 30.37200
O  -5.11800 32.73400 32.27200
C  -6.00000 33.45000 33.18500
H  0.09200 37.29600 29.21700
H  -0.51600 36.74100 22.89500
H  -4.49600 31.69700 23.78500
H  -3.10100 34.61100 31.44000
H  -0.26100 35.39900 31.17600
H  -1.88200 37.68100 30.64500
H  -0.63500 37.41100 31.95300
H  -2.25700 36.99100 32.22600
H  -1.16900 32.31900 31.29100
H  -2.46900 32.66000 32.24700
H  -0.41600 34.52300 33.08100
H  0.25700 32.93500 32.80800
H  1.48200 38.65900 28.35500
H  1.28200 39.88200 27.08800
H  2.59500 38.70300 27.02900
H  2.09000 40.34500 23.41200
H  2.68000 39.80500 24.97300
H  1.08500 40.66600 24.73900
H  -1.23400 34.01500 21.84400
H  -4.08600 34.00100 21.97000
H  -2.86300 36.55200 21.27500
H  -3.08600 35.14400 20.09000
H  -1.52500 35.73500 20.39000
H  -2.39300 32.50100 20.52100
H  -3.81800 31.77700 21.17900
H  -1.25600 31.59800 22.88900
H  -1.11100 30.80600 21.31700
H  -2.39800 30.26900 22.39700
H  -6.52500 30.27000 25.87500
H  -5.54100 29.09500 26.69100
H  -5.05600 29.68100 25.01200
H  -3.47100 31.23400 30.77800
H  -6.87800 33.77800 32.62800
H  -5.41900 34.29300 33.55900
H  -6.21300 32.75200 33.99500

