158

Mg 35.27500 1.47700 29.05200
C  32.90700 2.28000 31.59700
C  37.58000 1.20800 31.42400
C  37.45900 1.26500 26.57600
C  32.96000 2.65400 26.77500
N  35.22600 1.73700 31.21900
C  34.18000 2.04900 32.10200
C  34.60700 1.99100 33.60200
C  36.17800 1.88100 33.42700
C  36.33900 1.52600 31.96300
C  36.93400 3.13700 33.90900
C  34.06700 0.80400 34.49000
C  34.19700 1.03900 36.00900
H  35.00800 2.18500 36.63400
N  37.26000 1.15200 29.01400
C  38.04100 0.99400 30.12200
C  39.40200 0.77700 29.73400
C  39.35400 0.67200 28.24900
C  37.96800 1.08600 27.87400
C  40.54000 0.55300 30.70500
C  40.59100 0.20800 27.31500
O  40.47800 0.24400 26.09200
C  41.90000 -0.29100 27.82700
N  35.14500 1.81700 26.91300
C  36.20600 1.60200 26.16200
C  36.04400 2.04500 24.71900
C  34.54600 2.41100 24.71300
C  34.17200 2.22000 26.17800
C  37.03500 3.11700 24.27900
C  33.70800 1.56800 23.69900
C  33.46800 0.03000 24.07000
N  33.28600 2.14200 29.11300
C  32.45800 2.49700 28.03300
C  31.08800 2.71100 28.51200
C  31.23000 2.73800 29.91100
C  32.54500 2.32500 30.22100
C  29.93200 2.99900 27.69500
C  30.56000 3.03100 31.15900
O  29.42100 3.43100 31.39700
C  31.60000 2.72300 32.28700
C  31.72700 4.04300 33.00700
O  32.32700 4.99600 32.59200
O  31.23200 3.86300 34.27100
C  31.51600 4.95100 35.18900
H  38.31200 1.12600 32.23000
H  38.17100 1.15500 25.75500
H  32.32500 2.84700 25.90800
H  34.47100 2.95900 34.08500
H  36.54500 0.92700 33.80700
H  36.31800 3.77000 34.54800
H  37.47000 3.69400 33.14100
H  37.64300 2.70700 34.61700
H  34.44200 -0.17100 34.17800
H  33.00700 0.71300 34.25500
H  34.35400 0.12800 36.58700
H  33.15800 1.20300 36.29300
H  40.22200 0.20400 31.68800
H  41.02600 1.51600 30.86300
H  41.25100 -0.06900 30.16200
H  41.63800 -1.12600 28.47700
H  42.31800 0.59500 28.30600
H  42.61400 -0.52700 27.03800
H  36.17500 1.28800 23.94600
H  34.30800 3.46200 24.54800
H  37.70500 2.78900 23.48400
H  37.59100 3.41000 25.16900
H  36.56000 3.99400 23.83800
H  34.44100 1.50900 22.89500
H  32.80100 2.06100 23.34800
H  34.15400 -0.21600 24.88100
H  33.76000 -0.62000 23.24600
H  32.40600 -0.09800 24.27900
H  30.05700 3.84100 27.01400
H  29.01000 2.98200 28.27700
H  30.14800 2.12700 27.07700
H  31.12700 1.97100 32.91900
H  30.98200 5.85100 34.88300
H  32.56100 5.12200 34.93300
H  31.42800 4.64200 36.23100
Mg 46.94600 24.97500 29.18300
C  47.72100 27.39000 31.65800
C  46.03400 22.80000 31.58900
C  46.81100 22.65300 26.79000
C  48.22200 27.27700 26.93700
N  46.83600 25.10000 31.38300
C  47.23200 26.18200 32.21400
C  46.80600 25.88200 33.69500
C  46.36900 24.37600 33.67300
C  46.34800 24.03800 32.12300
C  47.09800 23.29900 34.46100
C  45.67900 26.88600 34.22400
C  46.10100 27.74400 35.38900
H  45.06400 27.87200 36.53300
N  46.35700 23.01400 29.19300
C  46.00900 22.25500 30.26900
C  45.56000 20.96600 29.89900
C  45.79800 20.90900 28.49900
C  46.27900 22.21800 28.04400
C  44.93600 19.93900 30.94300
C  45.48000 19.79700 27.49300
O  45.69400 19.94700 26.28600
C  44.91300 18.53300 27.88500
N  47.46300 24.99400 27.11800
C  47.32600 23.90400 26.40600
C  47.72500 24.13600 24.85600
C  47.81800 25.74300 24.96800
C  47.83500 26.04800 26.40200
C  49.09600 23.39000 24.49100
C  46.61400 26.41400 24.27100
C  45.27500 26.17800 24.92900
N  47.75300 26.97900 29.23100
C  48.32400 27.71400 28.23900
C  48.86700 28.96800 28.74400
C  48.59100 28.86900 30.12400
C  47.94200 27.68600 30.33900
C  49.64600 30.05900 27.96500
C  48.70400 29.54200 31.43000
O  49.13600 30.63900 31.74700
C  48.18400 28.59500 32.49300
C  49.31900 28.30100 33.39200
O  50.23900 27.52600 33.13400
O  49.02100 28.90100 34.63400
C  50.05500 28.62200 35.68300
H  45.49600 22.22500 32.34600
H  46.89000 21.83200 26.07300
H  48.73400 27.88700 26.19000
H  47.69700 25.84600 34.32300
H  45.33500 24.23100 33.98700
H  46.56500 23.17500 35.40400
H  48.09400 23.67900 34.69100
H  47.00800 22.33100 33.96900
H  44.77900 26.32700 34.48500
H  45.41900 27.65500 33.49700
H  46.19000 28.77300 35.04100
H  47.06100 27.42000 35.79100
H  45.13000 18.90100 30.67400
H  43.87300 20.06900 31.14500
H  45.29600 20.12800 31.95500
H  45.74700 17.88600 28.15700
H  44.43500 17.98800 27.07100
H  44.15600 18.59000 28.66700
H  46.97800 23.84900 24.11500
H  48.77100 26.07400 24.55600
H  49.55400 23.05000 25.42000
H  49.86700 24.04500 24.08700
H  48.87500 22.56800 23.81000
H  46.59000 26.00100 23.26300
H  46.74200 27.49300 24.18800
H  44.47600 26.10900 24.19100
H  45.11000 27.03400 25.58400
H  45.26500 25.18800 25.38600
H  50.52000 30.35400 28.54600
H  48.93200 30.87800 27.88400
H  50.00400 29.79800 26.96900
H  47.39800 29.14900 33.00700
H  50.01700 29.43700 36.40700
H  51.07900 28.58800 35.31100
H  49.79500 27.73200 36.25600

