158

Mg 6.89200 53.46400 40.92500
C  6.61500 49.93300 40.94500
C  10.28000 53.00700 40.13600
C  6.96100 56.65300 39.86400
C  3.37300 53.59000 40.80300
N  8.16900 51.63600 40.43000
C  7.90500 50.35600 40.67400
C  9.18700 49.48600 40.69300
C  10.36600 50.56500 40.72100
C  9.56100 51.83100 40.39900
C  11.18200 50.62600 42.04600
C  9.30900 48.47800 39.51200
C  9.11700 49.03000 38.08500
H  7.81400 48.76300 37.31100
N  8.47300 54.69700 40.20400
C  9.80100 54.35400 39.94400
C  10.54400 55.54800 39.65400
C  9.58300 56.62100 39.55300
C  8.26700 56.05600 39.87900
C  12.03500 55.57100 39.53800
C  9.90700 58.12700 39.36300
O  11.07400 58.41400 39.13600
C  8.93300 59.21400 39.58400
N  5.37800 54.93000 40.39600
C  5.69500 56.15000 40.08200
C  4.52100 57.10100 40.07900
C  3.33700 56.07000 40.30900
C  4.07400 54.79600 40.56600
C  4.63900 58.22800 41.16800
C  2.21800 55.92400 39.17400
C  0.75500 56.08600 39.64300
N  5.21800 52.11900 41.09200
C  3.89400 52.29200 41.09300
C  3.18200 51.14600 41.54700
C  4.21800 50.19900 41.45500
C  5.42400 50.82600 41.09900
C  1.71900 50.95500 41.97900
C  4.52400 48.76500 41.59700
O  3.83200 47.79200 41.92900
C  6.04800 48.63200 41.37100
C  6.09700 47.60800 40.31800
O  5.72300 47.78800 39.13600
O  6.57100 46.45300 40.88400
C  6.51100 45.29300 40.01200
H  11.33800 52.79200 40.29700
H  6.86900 57.67000 39.47800
H  2.28900 53.72400 40.79000
H  9.16600 49.00600 41.67200
H  11.16600 50.31000 40.02600
H  11.70600 49.68500 42.21700
H  10.58000 50.80100 42.93800
H  11.76300 51.54800 42.02900
H  8.71700 47.57000 39.62500
H  10.30500 48.03800 39.45700
H  9.90600 48.64200 37.44100
H  9.28400 50.08700 38.29600
H  12.44400 56.18800 40.33900
H  12.35000 56.04800 38.61000
H  12.41100 54.55600 39.66500
H  8.60600 59.04300 40.60900
H  8.06700 59.21200 38.92200
H  9.43000 60.18100 39.66000
H  4.43300 57.49000 39.06400
H  2.80200 56.43500 41.18600
H  4.04600 58.14000 42.07800
H  4.57600 59.19800 40.67600
H  5.67900 58.25100 41.49600
H  2.30900 54.96900 38.65700
H  2.36800 56.69700 38.42000
H  0.23600 55.14300 39.47100
H  0.26000 56.86700 39.06600
H  0.67300 56.31500 40.70600
H  1.30700 50.17100 41.34300
H  1.10900 51.84800 41.84600
H  1.75000 50.67800 43.03300
H  6.41300 48.31600 42.34800
H  7.20300 45.51600 39.20000
H  5.50800 45.15600 39.60900
H  6.77800 44.42100 40.60900
Mg 0.83200 42.64900 25.38600
C  2.90200 42.09800 28.12100
C  -1.88700 41.70400 27.23300
C  -1.14600 42.93300 22.52900
C  3.61000 43.27200 23.29600
N  0.58200 41.81700 27.43700
C  1.50300 41.92200 28.37200
C  0.82700 41.83800 29.77000
C  -0.63400 41.33600 29.44000
C  -0.68400 41.69100 27.97000
C  -1.04600 39.90700 30.02500
C  0.89900 43.15400 30.45200
C  1.59800 43.11800 31.78500
H  1.34300 41.99600 32.74500
N  -1.18700 42.36800 24.97500
C  -2.19500 42.07600 25.88700
C  -3.48700 42.04900 25.24500
C  -3.27100 42.55400 23.91700
C  -1.81400 42.68300 23.74200
C  -4.70500 41.48600 25.91400
C  -4.36700 42.88100 22.80600
O  -4.20000 43.48300 21.75300
C  -5.86600 42.64100 23.05900
N  1.25000 42.79700 23.09200
C  0.19000 42.99100 22.29300
C  0.72600 43.38000 20.94800
C  2.21200 43.80000 21.21700
C  2.41300 43.23000 22.65300
C  0.42500 42.19400 19.98500
C  2.54700 45.27500 21.03400
C  2.97800 45.64400 19.55900
N  2.91100 42.73600 25.57600
C  3.90500 42.95800 24.65500
C  5.21800 42.82700 25.34100
C  4.87400 42.57500 26.70900
C  3.43700 42.43200 26.78600
C  6.67200 43.25600 24.84800
C  5.38200 42.42500 28.03600
O  6.59300 42.41200 28.35900
C  4.09200 42.27200 29.05000
C  4.38700 41.06100 29.91500
O  4.36700 39.86400 29.56700
O  4.73300 41.48000 31.18600
C  4.95600 40.33000 32.15300
H  -2.76700 41.58500 27.86800
H  -1.86700 43.15600 21.74000
H  4.39800 43.81200 22.76600
H  1.38500 41.09500 30.33900
H  -1.43700 41.90800 29.90500
H  -1.47000 39.32600 29.20600
H  -1.83200 40.21200 30.71500
H  -0.29300 39.35000 30.58200
H  -0.10100 43.56600 30.58700
H  1.52900 43.89600 29.96100
H  1.19800 43.92700 32.39600
H  2.63500 43.38900 31.59100
H  -4.39000 41.12500 26.89300
H  -5.05600 40.69500 25.25100
H  -5.51400 42.21600 25.94900
H  -6.44300 42.91200 22.17400
H  -6.21900 43.34100 23.81600
H  -5.89000 41.57200 23.26800
H  0.14000 44.20200 20.53900
H  2.90900 43.17400 20.65900
H  1.39700 41.74700 19.77700
H  0.01600 42.72200 19.12400
H  -0.28700 41.46300 20.37000
H  3.39100 45.52900 21.67600
H  1.72000 45.95000 21.25300
H  3.97500 46.08300 19.54200
H  2.28500 46.28700 19.01500
H  3.06400 44.74100 18.95500
H  7.39300 43.74200 25.50500
H  6.52200 43.85900 23.95300
H  7.08300 42.31100 24.49200
H  3.99900 43.15500 29.68200
H  5.39100 40.61700 33.11000
H  5.68600 39.70000 31.64400
H  4.07800 39.73300 32.40000

