158

Mg -0.35000 8.32800 25.92300
C  0.66900 10.12000 28.74200
C  -0.18700 5.53900 27.91300
C  -0.39000 6.47400 23.15100
C  0.21200 11.10700 24.07500
N  0.27700 7.92100 28.13600
C  0.47700 8.80200 29.08400
C  0.51800 8.12800 30.51900
C  0.48100 6.60200 30.17400
C  0.06000 6.65300 28.69800
C  1.75100 5.89500 30.51700
C  -0.70600 8.72400 31.40400
C  -0.26900 9.26800 32.77700
H  -0.83200 8.49100 33.96500
N  -0.42700 6.32200 25.61500
C  -0.46700 5.34900 26.57000
C  -0.59500 4.05100 25.92700
C  -0.53900 4.25000 24.55000
C  -0.40100 5.70000 24.36900
C  -0.81500 2.81000 26.73800
C  -0.76400 3.36500 23.42500
O  -0.83100 3.70700 22.28300
C  -0.84000 1.90400 23.67900
N  -0.19400 8.74500 23.91300
C  -0.26900 7.83100 22.96000
C  -0.45100 8.56500 21.52800
C  -0.39300 10.06300 21.80800
C  -0.10900 10.00700 23.32200
C  0.49700 8.14600 20.36200
C  -1.65600 10.82800 21.33400
C  -2.91200 10.99000 22.26400
N  0.17300 10.20200 26.27000
C  0.40600 11.23300 25.36600
C  0.67700 12.44400 26.08700
C  0.81900 12.03400 27.38400
C  0.52400 10.67900 27.47300
C  0.90500 13.74800 25.50500
C  1.14300 12.53600 28.71700
O  1.48600 13.64100 29.08700
C  0.90600 11.23300 29.63400
C  2.15100 11.14900 30.40500
O  3.28300 10.88200 30.03600
O  1.83100 11.58600 31.65600
C  2.96000 11.82600 32.56500
H  -0.12700 4.59500 28.45800
H  -0.33900 5.89000 22.23000
H  0.46400 11.90000 23.36700
H  1.45600 8.57000 30.85500
H  -0.35700 6.16200 30.71400
H  2.16500 6.36000 31.41200
H  2.47200 6.04200 29.71200
H  1.59100 4.83700 30.72100
H  -1.49300 7.99300 31.58500
H  -1.18000 9.54000 30.85900
H  -0.51000 10.32600 32.88100
H  0.79200 9.02400 32.81800
H  -1.78400 2.50200 26.34500
H  -1.03900 2.99200 27.78900
H  -0.01400 2.08400 26.59900
H  -1.64600 1.70900 24.38600
H  0.05900 1.49200 24.13800
H  -1.05600 1.32300 22.78200
H  -1.42000 8.21600 21.17000
H  0.50800 10.49600 21.37300
H  0.67900 8.87900 19.57600
H  0.09400 7.27100 19.85400
H  1.42000 7.89600 20.88500
H  -2.06800 10.27000 20.49300
H  -1.27800 11.82900 21.12400
H  -3.04100 12.05000 22.48300
H  -2.82300 10.46900 23.21700
H  -3.84900 10.68600 21.79600
H  1.33100 14.51600 26.14900
H  -0.06700 13.99500 25.07700
H  1.52400 13.58100 24.62400
H  -0.00300 11.32400 30.22900
H  3.48200 12.66400 32.10400
H  3.67100 11.00000 32.56600
H  2.75600 12.14000 33.58900
Mg 1.69900 42.61800 25.36100
C  3.58700 42.07600 28.20600
C  -1.08200 41.48600 26.95000
C  0.20900 42.43700 22.33200
C  4.75100 43.35300 23.59400
N  1.35000 41.87900 27.37400
C  2.20700 41.91200 28.44100
C  1.50100 41.76900 29.81700
C  0.03500 41.47200 29.30300
C  0.10300 41.58500 27.75600
C  -0.62900 40.16100 29.80000
C  1.70300 43.03300 30.69800
C  2.25900 42.81500 32.12100
H  1.85100 41.57100 32.94600
N  -0.21700 42.17900 24.72500
C  -1.26100 41.70200 25.52700
C  -2.44500 41.61800 24.67800
C  -2.03500 41.82000 23.34400
C  -0.62200 42.20200 23.42800
C  -3.82100 41.25000 25.18800
C  -2.79600 41.83600 22.06200
O  -2.41100 42.32200 21.01600
C  -4.08100 41.13100 22.03800
N  2.43400 42.76700 23.22500
C  1.56200 42.78200 22.25000
C  2.17700 43.24100 20.88300
C  3.53500 43.77500 21.42700
C  3.60800 43.27100 22.84200
C  2.20800 42.11000 19.86400
C  3.48700 45.34300 21.37800
C  3.53500 46.04600 20.03100
N  3.74900 42.65800 25.73900
C  4.81700 43.05800 24.97100
C  6.05800 43.07000 25.75900
C  5.60900 42.67600 27.02300
C  4.21300 42.40100 26.96900
C  7.52000 43.33700 25.35400
C  6.06900 42.32500 28.36700
O  7.17500 42.36300 28.84500
C  4.79800 41.98300 29.15400
C  4.93500 40.72600 29.88400
O  4.52100 39.61600 29.54500
O  5.65400 40.89100 31.08500
C  5.68500 39.75700 31.98100
H  -1.97300 41.11400 27.45900
H  -0.14200 42.53000 21.30200
H  5.68500 43.68200 23.13500
H  1.99700 40.93200 30.30900
H  -0.56700 42.34100 29.57000
H  -1.63800 40.45200 30.09400
H  -0.02400 39.83100 30.64400
H  -0.80800 39.47000 28.97600
H  0.80000 43.63700 30.78300
H  2.50600 43.61800 30.25100
H  2.14600 43.72200 32.71500
H  3.33900 42.82000 31.97400
H  -4.58100 41.86000 24.69900
H  -4.00800 41.48800 26.23500
H  -4.01600 40.20500 24.95100
H  -4.78500 41.65600 22.68400
H  -3.90700 40.11700 22.39600
H  -4.54200 41.00400 21.05900
H  1.72700 44.04900 20.30600
H  4.42500 43.37800 20.93800
H  3.20500 41.67100 19.88800
H  1.98100 42.48000 18.86400
H  1.46000 41.36600 20.13800
H  4.28200 45.73200 22.01500
H  2.58200 45.61000 21.92500
H  3.62200 45.31700 19.22500
H  4.34800 46.76900 20.10300
H  2.63500 46.65400 19.93700
H  7.77900 44.30000 25.79400
H  7.70300 43.30400 24.28000
H  8.11400 42.49700 25.71400
H  4.77400 42.74100 29.93700
H  5.30600 40.39100 32.78300
H  6.67000 39.40000 32.28000
H  4.99600 38.97400 31.66300

