158

Mg 10.27400 48.78900 25.05900
C  8.24900 48.83000 27.84300
C  12.63600 50.29100 26.79900
C  12.27400 48.59000 22.26700
C  7.46600 48.01500 22.97000
N  10.39300 49.54000 27.09400
C  9.54100 49.28700 28.11300
C  10.11600 49.75700 29.42300
C  11.34900 50.56200 28.97800
C  11.48000 50.16500 27.50100
C  11.28900 52.11100 29.23100
C  10.31700 48.50500 30.43100
C  9.67600 48.58500 31.87400
H  10.37700 49.43500 32.93100
N  12.15600 49.43500 24.59200
C  12.98600 49.91200 25.53700
C  14.39900 49.85600 25.03400
C  14.35300 49.32600 23.72500
C  12.93700 49.15200 23.49300
C  15.54400 50.26000 25.95000
C  15.42000 49.01700 22.76500
O  15.16000 48.72000 21.60000
C  16.88200 49.11800 23.15500
N  9.87100 48.58100 22.86000
C  10.91500 48.39400 21.96500
C  10.40900 47.77900 20.63400
C  8.91000 47.40900 20.98800
C  8.68500 48.11400 22.33100
C  10.72700 48.61500 19.39800
C  8.65400 45.80900 21.06200
C  9.37100 45.03400 22.23300
N  8.23300 48.58600 25.26900
C  7.25500 48.20300 24.34800
C  5.99000 48.05400 25.10200
C  6.39100 48.32500 26.45700
C  7.72500 48.66600 26.53900
C  4.66600 47.64100 24.66200
C  5.82300 48.35800 27.81100
O  4.69700 48.15500 28.24000
C  7.10500 48.70000 28.80300
C  7.15800 47.51100 29.72800
O  7.38100 46.34300 29.40600
O  6.74000 47.81300 30.99800
C  6.62800 46.59700 31.87500
H  13.46600 50.62800 27.42400
H  12.97400 48.23900 21.50500
H  6.74500 47.50200 22.33000
H  9.31900 50.39500 29.80400
H  12.18500 50.09500 29.49700
H  10.25300 52.32500 29.49300
H  11.48400 52.60100 28.27700
H  11.96000 52.36600 30.05200
H  11.32400 48.48600 30.84900
H  10.22000 47.51900 29.97700
H  9.34700 47.60300 32.21400
H  8.84800 49.21900 31.55800
H  16.40200 49.59900 25.83200
H  15.39700 50.24100 27.03000
H  15.88100 51.27700 25.74700
H  17.05400 50.05000 23.69500
H  17.41400 48.94000 22.22100
H  17.09200 48.25300 23.78300
H  11.00100 46.86500 20.58500
H  8.25900 47.82000 20.21700
H  9.80000 48.82700 18.86600
H  11.40800 48.12000 18.70500
H  11.23000 49.50100 19.78400
H  9.08000 45.27800 20.21200
H  7.58100 45.64900 20.96000
H  8.56600 44.78800 22.92600
H  10.14200 45.62300 22.72900
H  9.86700 44.16000 21.81000
H  4.06000 47.20800 25.45800
H  4.93200 46.87800 23.93000
H  4.04100 48.40700 24.20300
H  7.02200 49.58100 29.44000
H  5.80800 45.96600 31.53400
H  6.38000 46.94700 32.87700
H  7.54500 46.02100 32.00100
Mg 1.83000 42.82200 25.35500
C  3.45000 42.86900 28.53300
C  -0.92700 41.81300 26.90200
C  0.63200 42.66200 22.23600
C  5.13400 43.68000 23.91600
N  1.36200 42.29000 27.53200
C  2.09000 42.50500 28.64700
C  1.18300 42.35300 29.88800
C  -0.16300 41.86500 29.27000
C  0.09500 42.02800 27.79700
C  -0.59100 40.40200 29.60100
C  1.05300 43.81400 30.53600
C  1.48800 43.98200 32.03500
H  0.90100 43.18000 33.15800
N  0.12400 42.38300 24.70600
C  -0.94400 41.97100 25.50200
C  -2.05300 41.80500 24.63600
C  -1.65000 42.18800 23.33000
C  -0.24100 42.41400 23.33300
C  -3.39800 41.24700 25.18200
C  -2.49100 42.30000 22.00800
O  -1.97500 42.68300 20.92100
C  -4.00300 42.10800 22.14500
N  2.81600 42.97300 23.38100
C  1.98900 42.99000 22.25500
C  2.80600 43.23900 21.00300
C  4.14300 43.74900 21.55100
C  4.06300 43.43600 23.03200
C  3.03200 41.96800 20.11700
C  4.40200 45.23100 21.30000
C  4.70900 45.65200 19.87600
N  3.83700 43.37300 25.99200
C  5.01600 43.60800 25.32800
C  6.04200 43.82800 26.31900
C  5.50200 43.44900 27.59300
C  4.16200 43.18300 27.32700
C  7.35500 44.32200 26.12800
C  5.84900 43.20500 28.98300
O  6.87300 43.28600 29.54600
C  4.47000 43.02800 29.70100
C  4.52100 41.77300 30.52200
O  4.87300 40.66800 30.19900
O  4.21400 42.10200 31.83100
C  4.51100 41.22800 32.91100
H  -1.88300 41.56600 27.36900
H  0.23000 42.65100 21.22100
H  6.15500 43.86800 23.57800
H  1.59000 41.62100 30.58600
H  -1.01300 42.49800 29.52400
H  -1.67300 40.28900 29.67000
H  -0.25400 40.07700 30.58600
H  -0.29500 39.73100 28.79500
H  0.00400 44.10800 30.51400
H  1.72400 44.41200 29.91900
H  1.26500 45.03000 32.23500
H  2.56900 43.88800 32.14500
H  -4.26000 41.89800 25.04100
H  -3.36400 41.04200 26.25200
H  -3.69400 40.36500 24.61500
H  -4.50800 42.04700 21.18100
H  -4.36200 42.86900 22.83700
H  -4.15200 41.14400 22.63100
H  2.34600 44.06300 20.45800
H  5.08700 43.29100 21.25500
H  4.07000 41.64900 20.02300
H  2.81000 42.18400 19.07200
H  2.59900 41.07200 20.56200
H  5.23400 45.49800 21.95200
H  3.53500 45.86100 21.49900
H  4.97900 44.85700 19.18000
H  5.56600 46.32600 19.89300
H  3.79500 46.14400 19.54300
H  7.82200 44.48600 27.09900
H  7.40200 45.15200 25.42400
H  7.97200 43.48900 25.79100
H  4.29500 43.85800 30.38500
H  5.59700 41.13100 32.90800
H  3.99500 40.27400 32.79700
H  4.11700 41.56100 33.87100

