158

Mg 1.54400 7.68100 25.94600
C  2.31200 9.64500 28.78400
C  1.67800 4.89100 28.09100
C  0.83700 5.56600 23.35700
C  1.94800 10.35300 23.88300
N  1.85700 7.29700 28.25900
C  2.13300 8.30400 29.16300
C  2.18200 7.70300 30.58400
C  2.24300 6.15100 30.34300
C  1.95000 6.04900 28.81200
C  3.57300 5.38100 30.71800
C  0.94300 8.07500 31.48600
C  1.06200 8.24900 32.97100
H  2.34600 7.87800 33.77000
N  1.16700 5.48500 25.75800
C  1.30400 4.57100 26.76400
C  0.98200 3.25700 26.25000
C  0.68300 3.39000 24.82500
C  0.77100 4.85000 24.59500
C  0.92600 2.05500 27.07700
C  0.45800 2.35700 23.71100
O  0.68400 2.63300 22.58400
C  0.08400 1.03300 24.07500
N  1.69700 7.84500 23.91100
C  1.24300 6.87800 23.05300
C  1.25400 7.36600 21.60300
C  1.32700 8.94200 21.83700
C  1.79500 9.06800 23.36200
C  2.46700 6.77600 20.79000
C  -0.05800 9.72700 21.44800
C  0.01300 10.55500 20.15000
N  2.11600 9.54500 26.20200
C  2.07000 10.60400 25.27300
C  2.22400 11.86000 25.92800
C  2.39700 11.58000 27.32200
C  2.27600 10.10700 27.41700
C  2.10000 13.23800 25.29800
C  2.65600 12.15100 28.60800
O  2.99000 13.31000 28.86500
C  2.55700 10.91900 29.58700
C  3.86600 10.87600 30.32800
O  4.79700 10.10100 30.14300
O  3.85500 11.81800 31.30500
C  4.74800 11.51800 32.44100
H  1.87900 4.00800 28.70100
H  0.46700 4.94200 22.54100
H  2.06600 11.23000 23.24200
H  3.16100 7.85900 31.03900
H  1.48100 5.63700 30.92800
H  3.99500 5.81200 31.62500
H  4.33600 5.59800 29.97000
H  3.37800 4.38000 31.10400
H  0.03100 7.54900 31.20500
H  0.80000 9.11100 31.17600
H  0.27700 7.67100 33.45700
H  0.76000 9.27900 33.16100
H  1.27200 1.12200 26.63100
H  -0.10900 1.82500 27.33200
H  1.58200 2.14200 27.94200
H  0.97300 0.52900 24.45400
H  -0.27400 0.53700 23.17300
H  -0.61200 1.16900 24.90300
H  0.27700 7.06500 21.22500
H  2.16400 9.18300 21.18200
H  3.20400 6.36700 21.48200
H  2.92000 7.55300 20.17500
H  2.03600 5.95500 20.21600
H  -0.36000 10.31000 22.31800
H  -0.83100 8.97700 21.28300
H  -0.61200 10.09000 19.38800
H  1.03200 10.63900 19.77100
H  -0.37300 11.54700 20.38600
H  1.29000 13.73700 25.82900
H  1.77200 13.00500 24.28500
H  3.02900 13.80800 25.32500
H  1.72000 11.14400 30.24900
H  5.35300 12.42200 32.50300
H  5.34400 10.61300 32.33000
H  4.21200 11.33800 33.37400
Mg 35.49000 0.79400 29.91800
C  33.28100 2.15700 32.18700
C  37.92000 1.15500 32.39100
C  37.78800 -0.36900 27.77100
C  33.16600 0.91300 27.41700
N  35.57800 1.52000 32.03700
C  34.48500 1.92400 32.76500
C  34.82800 2.11800 34.23400
C  36.37000 2.14900 34.14700
C  36.66100 1.65800 32.72100
C  37.04600 3.40000 34.53500
C  34.15700 0.92800 34.89500
C  33.49700 1.30200 36.18500
H  34.24400 2.22100 37.15500
N  37.55400 0.47400 29.97600
C  38.37900 0.67500 31.10000
C  39.67100 0.14700 30.84700
C  39.70000 -0.19600 29.44000
C  38.31600 -0.04500 28.96300
C  40.73100 -0.22200 31.85800
C  40.83100 -0.73800 28.57100
O  40.63500 -1.13400 27.44200
C  42.27800 -0.85900 29.15900
N  35.45200 0.32800 27.89300
C  36.53500 -0.25800 27.22500
C  36.20100 -0.51500 25.76100
C  34.66900 -0.28600 25.71100
C  34.39500 0.30700 27.15200
C  37.06100 0.46800 24.89400
C  33.69500 -1.37300 25.27900
C  33.31300 -2.39900 26.30300
N  33.58200 1.41800 29.70600
C  32.69400 1.34500 28.67200
C  31.50100 1.99500 29.11500
C  31.61400 2.24500 30.53300
C  32.95800 1.93700 30.85200
C  30.31300 2.42800 28.20300
C  30.94800 2.88100 31.66100
O  29.83400 3.47300 31.73500
C  31.99900 2.67300 32.87700
C  32.22600 4.00900 33.54500
O  32.79800 5.00500 33.08200
O  31.50800 4.02600 34.69600
C  31.63800 5.25900 35.46100
H  38.67500 1.29700 33.16700
H  38.49800 -0.64200 26.98700
H  32.43600 0.90800 26.60500
H  34.41300 3.05500 34.60600
H  36.71700 1.32200 34.76700
H  37.75600 3.22200 35.34200
H  36.27400 4.02300 34.98600
H  37.34000 3.90600 33.61500
H  34.86900 0.17100 35.22500
H  33.54200 0.29300 34.25700
H  33.25600 0.33700 36.63200
H  32.50900 1.69700 35.94600
H  40.64700 -1.28800 32.06900
H  40.76800 0.38300 32.76400
H  41.73300 0.01300 31.50000
H  42.53400 0.11100 29.58500
H  42.87200 -1.11100 28.28000
H  42.34300 -1.76900 29.75600
H  36.44300 -1.56900 25.62300
H  34.48600 0.57900 25.07400
H  38.13900 0.45000 25.05500
H  36.67300 1.47900 25.01600
H  36.78000 0.21300 23.87200
H  34.02300 -1.88800 24.37600
H  32.75900 -0.88600 25.00300
H  33.79300 -2.26900 27.27300
H  33.48100 -3.39100 25.88400
H  32.24300 -2.29700 26.48500
H  29.69700 3.12300 28.77400
H  29.86400 1.52100 27.79900
H  30.81900 2.90200 27.36300
H  31.69000 1.93200 33.61500
H  32.68000 5.22700 35.77800
H  30.96200 5.22600 36.31600
H  31.40000 6.11600 34.83100

