158

Mg 35.06900 2.99500 29.88000
C  32.86200 4.28400 32.36500
C  37.31300 2.58600 32.13800
C  37.04900 1.88400 27.40700
C  32.43700 3.45600 27.59100
N  34.99400 3.40800 32.04800
C  34.03500 3.92800 32.88600
C  34.55200 3.76500 34.35800
C  36.07100 3.45100 34.24000
C  36.14500 3.12200 32.73400
C  37.11000 4.55800 34.52600
C  33.73300 2.69100 35.10000
C  33.30800 3.05800 36.54500
H  33.87200 4.25600 37.19500
N  36.90700 2.29300 29.75200
C  37.74500 2.19600 30.85500
C  38.90800 1.56800 30.51500
C  38.89400 1.35700 29.09900
C  37.59400 1.83900 28.69000
C  40.08100 1.22600 31.43300
C  39.98200 0.68000 28.28900
O  39.87200 0.51400 27.08200
C  41.28700 0.03300 28.92800
N  34.83100 2.83700 27.71700
C  35.82600 2.40800 26.89600
C  35.25500 2.32400 25.41800
C  33.71300 2.39500 25.64800
C  33.63000 2.95400 27.04100
C  35.75700 3.46700 24.45400
C  32.91900 1.05600 25.39900
C  33.10400 0.57600 23.94700
N  33.04200 3.75600 29.90300
C  32.08900 3.87500 28.83600
C  30.88000 4.40200 29.37300
C  31.11600 4.53600 30.76800
C  32.45300 4.15200 31.02300
C  29.55800 4.63900 28.59100
C  30.43100 4.90500 31.98800
O  29.33400 5.31700 32.28400
C  31.60300 4.73800 33.16100
C  31.54500 6.13800 33.75700
O  32.27400 7.07200 33.40700
O  30.72800 6.12300 34.88500
C  30.79100 7.22500 35.84200
H  38.17300 2.63800 32.80900
H  37.69000 1.56900 26.58100
H  31.65900 3.42300 26.82600
H  34.31800 4.73200 34.80300
H  36.28800 2.57600 34.85200
H  37.86400 4.13900 35.19300
H  36.54900 5.35600 35.01200
H  37.49500 4.95500 33.58600
H  34.27300 1.75000 35.21000
H  32.88100 2.38200 34.49400
H  33.52600 2.28100 37.27800
H  32.22700 3.18200 36.47700
H  40.34200 0.16900 31.40300
H  39.94500 1.51700 32.47400
H  40.97300 1.80900 31.20300
H  41.92500 0.75700 29.43400
H  41.93500 -0.49100 28.22500
H  41.01200 -0.70600 29.68100
H  35.52800 1.33400 25.05500
H  33.25300 3.19100 25.06200
H  34.98900 4.07300 23.97400
H  36.36100 3.06300 23.64200
H  36.37600 4.16900 25.01400
H  31.85200 1.17900 25.58200
H  33.28400 0.35000 26.14400
H  33.66500 1.35700 23.43300
H  32.22000 0.51100 23.31200
H  33.69000 -0.34200 23.99000
H  29.02500 3.70600 28.41000
H  29.75300 5.12500 27.63500
H  28.93100 5.34300 29.13900
H  31.34900 3.95400 33.87400
H  31.00000 6.70000 36.77300
H  29.82500 7.71900 35.94700
H  31.57400 7.97500 35.73200
Mg -1.49900 34.23300 27.05000
C  -3.35500 32.42800 29.49000
C  -0.36100 36.27100 29.45400
C  -0.08500 36.22700 24.65900
C  -3.08100 32.37000 24.54900
N  -1.77900 34.32200 29.22400
C  -2.54400 33.45100 30.02900
C  -2.28700 33.82400 31.50900
C  -1.56900 35.20500 31.47700
C  -1.26300 35.33400 30.00600
C  -2.37400 36.44000 32.16300
C  -1.57700 32.66700 32.30400
C  -2.35100 32.13100 33.52500
H  -1.73400 32.26900 34.90100
N  -0.20100 35.85000 27.02300
C  0.14600 36.53400 28.15000
C  1.00300 37.59200 27.84700
C  1.02600 37.67700 26.42100
C  0.22200 36.56700 25.92900
C  1.62400 38.43700 28.93300
C  1.62800 38.69100 25.49700
O  1.33600 38.85400 24.34400
C  2.71200 39.57300 25.99500
N  -1.83600 34.41600 24.92900
C  -0.93300 35.17200 24.15200
C  -1.16300 34.98800 22.66900
C  -1.78200 33.56800 22.66700
C  -2.32900 33.43100 24.09700
C  -1.98300 36.09300 21.81800
C  -0.89900 32.37200 22.19600
C  -1.53800 31.43900 21.14000
N  -2.91800 32.71900 26.95300
C  -3.45700 32.10900 25.85200
C  -4.42200 31.17100 26.26900
C  -4.40300 31.24700 27.67700
C  -3.43000 32.17300 28.04100
C  -5.15100 30.06700 25.41800
C  -5.06400 30.75200 28.93100
O  -5.97500 29.99700 29.16800
C  -4.40500 31.50500 30.18700
C  -5.42200 32.37300 30.81900
O  -6.03100 33.26900 30.26300
O  -5.58300 31.86300 32.07600
C  -6.65600 32.45700 32.94600
H  -0.15000 37.00800 30.23300
H  0.38800 36.81500 23.86900
H  -3.38200 31.65800 23.77900
H  -3.30900 33.95400 31.86400
H  -0.62000 35.21300 32.01300
H  -3.19400 36.12200 32.80600
H  -2.79000 37.10800 31.40900
H  -1.73200 37.05500 32.79300
H  -0.53400 32.92600 32.48600
H  -1.48100 31.83800 31.60300
H  -2.61700 31.08900 33.34900
H  -3.34300 32.58000 33.48500
H  0.90600 39.15200 29.33500
H  2.53200 38.84500 28.49000
H  1.84700 37.77300 29.76800
H  3.59500 38.99800 26.27500
H  2.38900 40.36300 26.67200
H  3.01200 40.22000 25.17000
H  -0.15100 34.93200 22.26900
H  -2.58700 33.58900 21.93200
H  -2.79900 35.63900 21.25500
H  -1.32600 36.64700 21.14800
H  -2.47600 36.78800 22.49800
H  -0.46400 31.77800 23.00000
H  -0.05300 32.68400 21.58300
H  -1.56200 30.40600 21.48700
H  -0.97200 31.38700 20.21000
H  -2.56000 31.75800 20.93600
H  -6.20000 30.10900 25.71100
H  -4.68000 29.14400 25.75500
H  -5.03000 30.18700 24.34200
H  -3.95900 30.80500 30.89200
H  -7.02800 33.37300 32.48700
H  -6.21100 32.87600 33.84800
H  -7.57800 31.89900 33.10900

