158

Mg 44.35200 3.79700 47.29100
C  42.27300 6.67000 46.88800
C  41.66200 1.86500 46.73400
C  46.37300 1.26900 46.79700
C  47.14300 6.06400 47.03100
N  42.19800 4.24600 46.85100
C  41.56200 5.40600 46.79800
C  40.08600 5.23700 46.51600
C  39.83300 3.71900 46.86300
C  41.33300 3.23500 46.81900
C  39.14000 3.47500 48.19800
C  39.75600 5.67900 45.04200
C  38.61200 6.66300 44.93700
H  38.35100 7.46000 43.59000
N  44.05400 1.76700 46.94600
C  42.82800 1.13700 46.84300
C  43.01900 -0.24600 46.76400
C  44.46800 -0.45200 46.75400
C  45.02600 0.88200 46.84900
C  41.88500 -1.25400 46.84200
C  45.11500 -1.80300 46.63800
O  44.48600 -2.82400 46.64500
C  46.58200 -1.98400 46.48400
N  46.49600 3.72600 46.83600
C  47.01300 2.50100 46.79400
C  48.54400 2.58500 46.82900
C  48.76400 4.07700 46.64700
C  47.41800 4.69400 46.88600
C  49.29100 1.97800 48.02700
C  49.34500 4.50900 45.26400
C  50.86200 4.82000 45.00600
N  44.67900 5.85300 47.16600
C  45.86700 6.61700 47.08800
C  45.53900 8.06600 46.95100
C  44.13100 8.11600 46.96900
C  43.67300 6.80100 47.09300
C  46.59600 9.15300 46.75600
C  42.97800 9.02900 46.87200
O  42.94600 10.23700 46.78900
C  41.68000 8.09400 46.83000
C  40.85300 8.37400 48.02500
O  41.19200 8.10300 49.14100
O  39.64200 8.90500 47.68800
C  38.67800 8.92000 48.84600
H  40.70800 1.36600 46.54900
H  47.06000 0.42100 46.81300
H  48.07200 6.63500 47.07600
H  39.62200 5.98400 47.15900
H  39.22100 3.27400 46.07900
H  39.00200 4.44100 48.68600
H  39.77100 2.85800 48.83800
H  38.18300 2.95300 48.19000
H  39.50600 4.84900 44.38200
H  40.63900 6.17100 44.63300
H  38.65700 7.37700 45.75900
H  37.66000 6.13500 44.98700
H  41.90800 -1.73100 47.82200
H  41.96700 -1.95200 46.00900
H  40.92400 -0.80400 46.59300
H  46.95500 -1.69100 45.50300
H  46.83000 -3.04500 46.48700
H  47.05000 -1.58100 47.38300
H  48.94900 1.98500 46.01500
H  49.37800 4.37800 47.49500
H  49.94100 1.18500 47.65700
H  48.67600 1.52700 48.80600
H  49.88100 2.74200 48.53500
H  48.72300 5.30100 44.84700
H  49.14900 3.66000 44.60800
H  51.25500 3.98800 44.42100
H  51.45600 4.76600 45.91800
H  51.07700 5.74000 44.46100
H  47.47500 8.88300 47.34300
H  46.20900 10.05900 47.22300
H  46.89500 9.24400 45.71200
H  41.21500 8.33100 45.87300
H  38.90000 9.60500 49.66500
H  38.50300 7.96400 49.33800
H  37.71000 9.31500 48.53800
Mg 17.27300 52.19500 26.38800
C  19.11700 50.46900 28.87900
C  14.87500 52.80500 28.91900
C  15.30000 53.27100 24.00100
C  19.57500 50.99500 24.14300
N  16.97200 51.41400 28.60700
C  17.96800 51.01100 29.42300
C  17.65000 51.25200 30.87500
C  16.16700 51.70500 30.83300
C  16.03000 52.05500 29.33400
C  14.95700 50.73100 31.22000
C  18.50800 52.31700 31.49000
C  18.70600 52.22800 33.04900
H  17.68700 51.50600 33.96300
N  15.30400 52.91300 26.43500
C  14.53800 53.18400 27.54100
C  13.36100 53.96000 27.10200
C  13.46000 54.05700 25.63600
C  14.73400 53.35800 25.28300
C  12.38500 54.59100 28.13100
C  12.72900 55.09600 24.68700
O  13.12900 55.30000 23.50000
C  11.52900 55.89300 25.13600
N  17.41300 52.23300 24.39800
C  16.46800 52.68100 23.54700
C  16.75800 52.44400 22.05400
C  18.25900 52.00800 22.19200
C  18.48100 51.76800 23.66300
C  15.83100 51.25700 21.54900
C  19.29200 52.95600 21.51700
C  19.08800 54.46200 21.79200
N  18.99200 50.83300 26.38800
C  19.84400 50.50200 25.37300
C  20.96000 49.76100 25.83300
C  20.76000 49.73100 27.23400
C  19.47500 50.31600 27.49100
C  22.03500 49.17800 24.95000
C  21.23800 49.19200 28.49500
O  22.16300 48.46300 28.74700
C  20.26200 49.79300 29.60100
C  19.85500 48.69300 30.52800
O  19.12100 47.74900 30.32400
O  20.53500 48.82900 31.73300
C  20.07800 48.01400 32.88000
H  14.26800 53.08900 29.78100
H  14.58000 53.54600 23.22700
H  20.33400 50.78100 23.38700
H  17.65600 50.34700 31.48200
H  15.89400 52.60300 31.38700
H  14.33800 51.15800 32.00900
H  15.36400 49.76900 31.53300
H  14.21200 50.54000 30.44800
H  18.03500 53.25700 31.20500
H  19.54000 52.25500 31.14400
H  18.63900 53.29100 33.28200
H  19.73200 51.86300 33.08100
H  11.57200 53.86700 28.18400
H  12.06100 55.61100 27.92500
H  12.93300 54.55800 29.07300
H  10.82300 55.22600 25.63200
H  11.11000 56.31800 24.22400
H  11.76000 56.74900 25.77000
H  16.63100 53.27600 21.36200
H  18.44800 51.03000 21.75000
H  16.49600 50.44700 21.84800
H  15.70000 51.54000 20.50500
H  14.86000 51.05200 22.00000
H  19.36200 52.64300 20.47500
H  20.28800 52.64200 21.82700
H  18.92200 54.99200 20.85400
H  19.92500 54.94500 22.29700
H  18.26800 54.63000 22.49000
H  21.46000 48.76200 24.12300
H  22.39800 48.32300 25.52200
H  22.82800 49.78100 24.51000
H  20.87000 50.37200 30.29600
H  20.29900 46.95300 32.76400
H  18.99000 47.97700 32.93800
H  20.60500 48.38900 33.75700

