158

Mg 26.02900 0.89100 28.80800
C  27.77100 0.85600 31.85400
C  23.03900 1.11300 30.68000
C  24.32200 0.80900 25.90100
C  28.96300 0.00100 27.19900
N  25.50400 1.15600 31.03900
C  26.38700 1.09500 32.06400
C  25.61000 1.19000 33.40900
C  24.09000 1.26600 33.02900
C  24.21500 1.27700 31.48600
C  23.27600 0.02400 33.61000
C  26.06200 2.55000 34.25100
C  26.86500 2.25700 35.55800
H  26.72900 3.21300 36.73400
N  24.02200 0.99000 28.33800
C  22.96900 1.08000 29.25300
C  21.75300 0.98000 28.54100
C  22.05000 0.94800 27.18800
C  23.51600 0.89700 27.07300
C  20.40900 1.00300 29.25400
C  21.01300 0.72900 26.06100
O  21.36900 0.67900 24.92000
C  19.54300 0.61600 26.28900
N  26.61700 0.50700 26.84900
C  25.73200 0.74000 25.82000
C  26.51800 0.77500 24.50100
C  28.01600 0.69800 24.96800
C  27.85500 0.35900 26.43200
C  26.11200 -0.42700 23.62600
C  28.75300 2.06300 24.68800
C  30.21400 1.86200 24.33600
N  28.00800 0.46000 29.33700
C  29.03700 -0.00700 28.60900
C  30.20100 -0.20400 29.45100
C  29.73500 0.02400 30.73000
C  28.36800 0.50900 30.60300
C  31.58900 -0.72100 28.94700
C  30.14700 0.17200 32.11100
O  31.23600 -0.08800 32.57600
C  28.93300 0.63400 32.90000
C  28.58300 -0.22900 34.06900
O  27.84100 -1.20000 34.06300
O  29.34400 0.07900 35.15900
C  29.11800 -0.83200 36.29900
H  22.12800 1.08700 31.28200
H  23.77800 0.91100 24.96000
H  29.90000 -0.25500 26.70100
H  25.78300 0.29000 33.99900
H  23.74900 2.23300 33.39900
H  23.83200 -0.59900 34.31100
H  22.90700 -0.65300 32.83900
H  22.43300 0.41600 34.17800
H  25.26400 3.26000 34.46700
H  26.66300 2.96100 33.43900
H  27.93600 2.38100 35.39900
H  26.69300 1.23800 35.90300
H  19.84200 1.84600 28.85800
H  20.36700 1.12600 30.33600
H  19.86700 0.07600 29.06600
H  19.26200 -0.28300 26.83800
H  19.11100 0.33300 25.32900
H  19.19400 1.61800 26.53900
H  26.34600 1.73300 24.01200
H  28.56000 -0.11900 24.49400
H  25.56900 -0.01500 22.77500
H  25.57000 -1.25600 24.08000
H  26.99200 -0.96000 23.26700
H  28.64400 2.75100 25.52600
H  28.35400 2.56700 23.80700
H  30.83300 2.29900 25.12000
H  30.42100 2.28800 23.35400
H  30.42100 0.80100 24.19600
H  32.16900 0.12600 28.58300
H  31.42600 -1.36300 28.08100
H  32.06800 -1.29000 29.74400
H  29.34900 1.56700 33.28000
H  28.22100 -0.67000 36.89700
H  29.87800 -0.68900 37.06700
H  29.19400 -1.87700 35.99800
Mg 9.75000 47.82000 26.51700
C  8.08500 47.61200 29.48300
C  12.45000 48.99200 28.37400
C  11.30100 48.24800 23.54900
C  6.60700 47.45500 24.74800
N  10.20600 48.23400 28.70800
C  9.32400 48.15000 29.71500
C  9.93500 48.67800 31.03400
C  11.09300 49.59400 30.56900
C  11.30100 48.89200 29.12700
C  10.84100 51.22000 30.58900
C  10.35500 47.49200 31.93300
C  9.88600 47.55500 33.38600
H  9.98400 46.19200 34.11800
N  11.68400 48.32100 26.07900
C  12.60800 48.76900 27.00600
C  13.82100 48.74400 26.31700
C  13.51200 48.51200 24.92600
C  12.07600 48.37300 24.76700
C  15.17400 48.97800 27.03200
C  14.47900 48.50600 23.73100
O  14.17900 48.19600 22.60700
C  15.91300 48.66900 23.92400
N  9.01300 47.90100 24.39200
C  9.87400 48.03000 23.40800
C  9.21300 48.06700 22.01000
C  7.68200 47.79400 22.42200
C  7.74400 47.61800 23.97600
C  9.45500 49.30900 21.03700
C  7.01200 46.62100 21.65900
C  6.57300 46.99000 20.20200
N  7.74700 47.46700 26.99600
C  6.64500 47.37300 26.22900
C  5.51900 47.19600 27.09700
C  5.99400 47.27600 28.39400
C  7.38500 47.46400 28.22700
C  4.14800 46.97000 26.58300
C  5.71100 47.17700 29.80500
O  4.69800 46.99300 30.43600
C  7.06000 47.43100 30.50900
C  7.27800 46.18500 31.28300
O  7.73500 45.11700 30.92400
O  6.75900 46.31200 32.51400
C  6.42100 45.07800 33.28200
H  13.32700 49.33700 28.92700
H  11.81800 48.34000 22.59200
H  5.63600 47.30500 24.27200
H  9.18200 49.24600 31.58000
H  11.94400 49.51700 31.24600
H  10.98800 51.40000 29.52400
H  11.76600 51.53600 31.07300
H  9.93300 51.56900 31.08100
H  11.44300 47.46200 31.97800
H  10.18400 46.51300 31.48400
H  8.85500 47.90200 33.32900
H  10.33900 48.40300 33.90000
H  15.27300 48.77400 28.09800
H  15.46500 49.95400 26.64300
H  15.84200 48.18100 26.70300
H  16.43100 48.77800 22.97100
H  16.19600 47.74700 24.43100
H  16.29800 49.49800 24.51900
H  9.52800 47.21600 21.40600
H  7.07500 48.69000 22.29300
H  8.52300 49.72400 20.65400
H  10.02300 49.03300 20.14900
H  10.00800 50.06800 21.59100
H  6.09800 46.37600 22.19900
H  7.65200 45.74400 21.76000
H  6.71700 48.05200 20.00200
H  5.54000 46.75900 19.94100
H  7.13800 46.37500 19.50200
H  4.07000 46.36400 25.68100
H  3.61700 47.91100 26.43800
H  3.48600 46.48600 27.30000
H  6.93800 48.21600 31.25500
H  6.87300 45.13200 34.27200
H  6.65000 44.11100 32.83400
H  5.34500 45.12600 33.44500

