158

Mg 0.72900 6.70300 25.06700
C  1.27100 8.91600 27.67100
C  1.17700 4.20300 27.35800
C  0.11900 4.64600 22.64600
C  0.78300 9.43200 22.86000
N  0.87600 6.61300 27.33700
C  1.03700 7.58700 28.10700
C  0.94400 7.10300 29.57400
C  1.22200 5.59000 29.45500
C  1.12200 5.47200 27.96500
C  2.52600 4.91200 30.11700
C  -0.35700 7.47200 30.23000
C  -0.42400 7.42700 31.73400
H  0.75900 6.78200 32.47000
N  0.63000 4.76800 25.03500
C  0.90300 3.82800 26.07900
C  0.76000 2.54900 25.54200
C  0.31800 2.60200 24.18400
C  0.33800 4.05100 23.88000
C  1.15800 1.28900 26.39800
C  -0.00800 1.47500 23.24600
O  -0.40200 1.64400 22.10500
C  0.05000 0.03600 23.72400
N  0.16300 7.08600 23.02600
C  0.10400 6.01000 22.23300
C  0.03000 6.53300 20.76000
C  0.12300 8.09900 20.86700
C  0.42300 8.27300 22.33400
C  0.99600 5.88000 19.77800
C  -1.11500 9.00700 20.49000
C  -0.82100 10.41200 20.01000
N  1.15400 8.75800 25.17400
C  1.10600 9.74500 24.20000
C  1.55800 11.02900 24.77000
C  1.70400 10.69100 26.11200
C  1.35400 9.33300 26.30300
C  1.77000 12.36000 24.00900
C  2.03700 11.29500 27.45500
O  2.43400 12.44200 27.76300
C  1.71800 10.11100 28.51100
C  2.89400 9.86000 29.25100
O  3.97800 9.47300 28.84500
O  2.63300 10.15700 30.51600
C  3.75700 9.85700 31.39700
H  1.54200 3.54200 28.14700
H  -0.17900 3.93100 21.87600
H  0.92100 10.27900 22.18500
H  1.66700 7.63400 30.19300
H  0.38200 4.97200 29.77200
H  2.96000 5.56900 30.87100
H  3.29300 4.76500 29.35700
H  2.30600 3.94100 30.56000
H  -1.22000 6.97800 29.78400
H  -0.52900 8.51600 29.96600
H  -1.43300 7.10700 31.99700
H  -0.42200 8.43300 32.15400
H  1.69000 0.59400 25.74800
H  0.18600 0.88500 26.68100
H  1.64800 1.55600 27.33500
H  -0.69500 -0.29300 24.44800
H  1.08400 -0.08600 24.04800
H  -0.17700 -0.53800 22.82500
H  -0.94700 6.13800 20.48200
H  0.99900 8.52400 20.37800
H  1.73400 6.61100 19.44800
H  0.52500 5.47100 18.88500
H  1.46300 5.03600 20.28400
H  -1.81400 9.05200 21.32600
H  -1.66400 8.47200 19.71600
H  0.25200 10.60400 19.96600
H  -1.32200 11.16100 20.62400
H  -1.11900 10.49700 18.96500
H  1.11700 12.63000 23.17900
H  2.80900 12.29700 23.68400
H  1.72100 13.06200 24.84100
H  0.92800 10.56200 29.11200
H  4.11900 8.83000 31.36200
H  3.51200 9.91800 32.45700
H  4.52800 10.62200 31.30700
Mg 53.69500 23.91800 44.65500
C  51.40200 26.46000 43.54800
C  51.50300 21.58900 43.36400
C  56.15800 21.59000 44.96700
C  55.89800 26.41100 45.64500
N  51.79700 24.07100 43.37700
C  51.01600 25.16700 43.15200
C  49.63700 24.73900 42.54300
C  49.52700 23.28200 43.20100
C  51.01200 22.89800 43.26700
C  48.76900 23.33800 44.62700
C  49.66900 24.70900 41.01200
C  50.92000 25.03100 40.21100
H  50.79900 25.59500 38.81500
N  53.84900 21.85600 44.10900
C  52.83300 21.06200 43.61400
C  53.25500 19.64300 43.47900
C  54.67800 19.64900 43.80200
C  54.99500 21.08500 44.35300
C  52.31900 18.53100 43.03700
C  55.59600 18.47300 43.63200
O  55.21400 17.38900 43.17300
C  57.07700 18.62800 43.86900
N  55.73100 23.92800 45.27300
C  56.50300 22.83300 45.36100
C  58.00400 23.20000 45.67100
C  57.88300 24.78300 45.94100
C  56.38500 25.09900 45.61800
C  58.62500 22.32700 46.73900
C  58.94200 25.65600 45.18200
C  59.63600 26.71100 46.03500
N  53.69600 26.01500 44.74600
C  54.63000 26.86600 45.26200
C  54.12900 28.19000 45.13600
C  52.90700 28.08100 44.54400
C  52.64700 26.69700 44.26200
C  54.59900 29.30500 45.87300
C  51.69000 28.80400 44.17600
O  51.40700 30.00400 44.22600
C  50.63600 27.73800 43.55200
C  50.13900 28.25000 42.28500
O  50.75300 28.55100 41.29100
O  48.78800 28.31500 42.35000
C  48.16300 28.70900 41.08900
H  50.68300 20.93900 43.05000
H  56.94300 20.83700 45.06200
H  56.50500 27.21800 46.06000
H  48.87300 25.42400 42.91100
H  49.06300 22.64700 42.44600
H  47.92400 22.66100 44.75400
H  48.29100 24.30200 44.80200
H  49.60800 23.23300 45.31500
H  48.90700 25.45900 40.80000
H  49.18300 23.83800 40.57300
H  51.54700 24.14000 40.23500
H  51.46900 25.77300 40.79100
H  51.32000 18.93200 42.86500
H  52.37100 17.80000 43.84300
H  52.60500 18.25600 42.02200
H  57.26000 18.67500 44.94200
H  57.51100 19.46900 43.32900
H  57.61900 17.90400 43.26000
H  58.60000 23.02000 44.77600
H  58.14600 24.84800 46.99700
H  58.11600 21.36500 46.78800
H  58.77500 22.82200 47.69900
H  59.63700 22.17800 46.36100
H  58.46400 26.06300 44.29100
H  59.75600 25.04200 44.79700
H  59.21800 26.79600 47.03800
H  59.53000 27.65100 45.49300
H  60.68400 26.41300 46.05700
H  55.35600 29.91300 45.37600
H  54.98600 28.97000 46.83500
H  53.73600 29.94200 46.06500
H  49.87800 27.68500 44.33300
H  48.35000 29.73400 40.77100
H  47.08200 28.61500 41.18900
H  48.42200 28.09300 40.22800

