158

Mg 17.58300 0.03500 28.11800
C  16.57800 1.73300 31.12400
C  19.62100 -2.01500 29.97200
C  18.90200 -1.05200 25.29900
C  16.05200 2.77700 26.42000
N  17.93000 -0.11300 30.31700
C  17.41400 0.67600 31.36300
C  17.96800 0.10100 32.73500
C  19.17900 -0.75100 32.26400
C  18.90600 -1.09100 30.74900
C  20.65500 -0.15200 32.36800
C  16.80200 -0.63500 33.46600
C  16.55800 -0.50500 35.01400
H  17.64500 0.23000 35.81400
N  18.91100 -1.53900 27.67500
C  19.64200 -2.23800 28.54200
C  20.15100 -3.43700 27.81500
C  20.11800 -3.05800 26.39200
C  19.28800 -1.81800 26.35100
C  20.99900 -4.51100 28.59400
C  20.63100 -3.75800 25.15200
O  20.53000 -3.33100 23.97900
C  21.42200 -5.08200 25.51100
N  17.55700 0.81100 26.16400
C  18.12700 0.09200 25.12100
C  17.93500 0.90600 23.81800
C  16.96100 2.04100 24.20400
C  16.78500 1.80900 25.66400
C  19.25600 1.50500 23.25900
C  15.60400 2.03600 23.45700
C  15.57500 1.59100 22.00500
N  16.55500 1.80700 28.60900
C  15.92000 2.77600 27.79900
C  15.17800 3.67800 28.63800
C  15.46400 3.33400 29.89500
C  16.23700 2.18300 29.84800
C  14.17700 4.82200 28.17200
C  15.07000 3.64500 31.26000
O  14.33500 4.46100 31.67200
C  15.96100 2.66800 32.13800
C  16.95100 3.49700 32.88500
O  18.01000 3.95100 32.56100
O  16.23000 4.00500 33.90300
C  16.92700 4.98200 34.76500
H  20.24300 -2.60600 30.64700
H  19.31500 -1.31800 24.32300
H  15.59300 3.63900 25.93100
H  18.30700 0.93800 33.34600
H  19.17900 -1.60000 32.94700
H  21.17700 -0.86700 33.00400
H  20.57000 0.76400 32.95400
H  21.21700 -0.01800 31.44400
H  16.97000 -1.66400 33.14700
H  15.87800 -0.43300 32.92400
H  16.26300 -1.43200 35.50500
H  15.64200 0.06700 35.15900
H  22.07500 -4.38700 28.46900
H  20.64800 -5.47900 28.23600
H  20.66000 -4.46500 29.62900
H  20.78800 -5.94700 25.70400
H  22.18000 -4.95600 26.28400
H  21.86800 -5.33000 24.54800
H  17.60700 0.16500 23.08900
H  17.26600 3.08500 24.28000
H  20.11900 1.24200 23.87100
H  19.11900 2.56700 23.06000
H  19.48900 1.05400 22.29500
H  15.11100 3.00200 23.56300
H  14.96600 1.29700 23.94200
H  15.25400 2.36300 21.30600
H  14.78200 0.84300 22.02700
H  16.49400 1.15100 21.61800
H  14.39900 5.02700 27.12500
H  14.51500 5.65500 28.78800
H  13.15100 4.52200 28.38400
H  15.27500 2.16900 32.82200
H  16.96300 6.01300 34.41200
H  17.95100 4.69900 35.01100
H  16.40300 5.00300 35.72100
Mg 55.79400 25.11200 45.23300
C  52.78400 26.52200 44.12900
C  54.58800 22.08300 44.12300
C  58.99900 23.96600 45.19700
C  56.89000 28.28000 46.08200
N  53.98600 24.45500 44.02400
C  52.85000 25.15100 43.93600
C  51.68000 24.26000 43.51000
C  52.18600 22.92300 44.00700
C  53.63300 23.08100 44.10200
C  51.49700 22.28900 45.31500
C  51.47500 24.26000 41.94000
C  50.07600 24.60100 41.57000
H  49.43000 24.00500 40.27400
N  56.66100 23.19600 44.87900
C  56.00400 22.12900 44.40300
C  56.98700 21.06400 44.30700
C  58.30900 21.59100 44.67500
C  58.02800 23.02600 44.91800
C  56.57100 19.58200 43.91400
C  59.58700 20.76100 44.72700
O  59.63000 19.53300 44.47700
C  60.86800 21.33000 45.17500
N  57.73800 26.03400 45.55300
C  58.87300 25.30600 45.55900
C  60.03000 26.19400 46.03400
C  59.40500 27.59700 46.03000
C  57.89600 27.30700 46.02200
C  60.71500 25.82900 47.40700
C  59.82100 28.57700 44.79000
C  60.44000 29.93800 45.22100
N  55.04800 27.00000 45.22300
C  55.55800 28.14300 45.68900
C  54.53000 29.21900 45.55300
C  53.36000 28.60200 44.96700
C  53.81200 27.33600 44.71100
C  54.54600 30.53900 46.30900
C  51.92800 28.76700 44.58500
O  51.10700 29.71100 44.68100
C  51.54200 27.44200 43.86400
C  51.14100 27.94600 42.52500
O  51.93300 28.17900 41.65700
O  49.71900 28.03100 42.55500
C  49.06800 28.48000 41.34400
H  54.10200 21.11600 43.97300
H  60.06200 23.72300 45.26100
H  57.21900 29.30400 46.27200
H  50.73900 24.49300 44.00700
H  51.91100 22.24400 43.20000
H  52.26200 22.10600 46.07000
H  51.14000 21.31400 44.98500
H  50.74100 22.91100 45.79400
H  51.83400 23.34300 41.47200
H  52.13100 25.06600 41.61200
H  50.00500 25.66000 41.32100
H  49.37300 24.31200 42.35100
H  57.01900 18.72700 44.42000
H  57.00500 19.30200 42.95400
H  55.48400 19.52200 43.85800
H  61.24200 21.96500 44.37200
H  61.57500 20.50300 45.25100
H  60.77100 21.83700 46.13500
H  60.71300 26.14700 45.18500
H  59.61600 28.04400 47.00200
H  60.14900 25.05200 47.92100
H  60.65900 26.64200 48.13000
H  61.73300 25.43900 47.36800
H  58.91100 28.75500 44.21800
H  60.48600 28.08900 44.07700
H  61.39700 30.03400 44.70900
H  60.57200 29.88100 46.30200
H  59.81500 30.74100 44.82900
H  53.62200 30.91200 46.75100
H  54.99700 31.23400 45.60100
H  55.32500 30.49500 47.07000
H  50.71100 27.05800 44.45500
H  48.89700 29.55200 41.44100
H  48.14000 27.96100 41.10700
H  49.71800 28.40200 40.47200

