158

Mg 25.81800 2.17800 29.03600
C  27.69600 1.54400 31.99800
C  23.05200 2.54200 30.97600
C  24.01900 2.34900 26.14800
C  28.75500 1.62900 27.18100
N  25.42100 2.14200 31.16600
C  26.31200 1.83600 32.21100
C  25.63500 2.06800 33.61700
C  24.10200 2.21800 33.21100
C  24.18500 2.33400 31.71000
C  23.15600 1.11500 33.72600
C  26.25600 3.23300 34.39600
C  26.86800 2.91300 35.69500
H  27.11100 4.19000 36.55600
N  23.86200 2.36800 28.67000
C  22.81500 2.41500 29.56100
C  21.59000 2.66400 28.88800
C  21.84600 2.49300 27.47700
C  23.33800 2.36500 27.38000
C  20.25400 2.78400 29.62200
C  20.87300 2.61000 26.27400
O  21.13700 2.34500 25.11200
C  19.43500 3.14300 26.49800
N  26.30000 1.94400 26.93500
C  25.40100 2.25500 25.97900
C  26.12500 2.51200 24.63400
C  27.65600 2.12500 24.86400
C  27.60000 1.85800 26.39700
C  25.37200 1.95400 23.41000
C  28.74700 3.09800 24.38700
C  28.96300 4.36400 25.25700
N  27.75800 1.68700 29.46800
C  28.80200 1.47800 28.59900
C  30.03000 1.22700 29.35700
C  29.63300 1.24500 30.67600
C  28.24600 1.51700 30.71100
C  31.46300 0.91800 28.84600
C  30.05400 1.09200 32.02800
O  31.15400 0.73900 32.48900
C  28.89000 1.34000 32.98000
C  28.62900 0.15900 33.87200
O  27.91600 -0.80000 33.54800
O  29.10300 0.40200 35.15700
C  28.76300 -0.62200 36.08100
H  22.14400 2.74600 31.54800
H  23.31700 2.49300 25.32300
H  29.73100 1.56800 26.69600
H  25.64400 1.16800 34.23200
H  23.73700 3.18500 33.55700
H  22.43900 1.69000 34.31300
H  23.67000 0.46200 34.43100
H  22.77300 0.54300 32.88100
H  25.52900 4.03200 34.54000
H  26.96900 3.77400 33.77400
H  27.85500 2.50000 35.48700
H  26.26500 2.13100 36.15500
H  19.75300 3.75100 29.56800
H  20.29700 2.45000 30.65800
H  19.73000 2.00300 29.07200
H  18.88300 2.46900 27.15300
H  18.99300 3.21500 25.50400
H  19.43600 4.14600 26.92200
H  26.08200 3.60100 24.61900
H  27.92200 1.20600 24.34300
H  24.75300 1.13300 23.77100
H  26.03700 1.58100 22.63100
H  24.71200 2.74100 23.04400
H  28.51500 3.40700 23.36800
H  29.67600 2.52800 24.42100
H  28.33600 4.41900 26.14600
H  28.60600 5.17200 24.61900
H  29.99800 4.54100 25.54900
H  31.68300 1.50300 27.95300
H  31.48500 -0.15700 28.66700
H  32.17300 1.13700 29.64400
H  29.10900 2.22500 33.57600
H  29.13900 -1.56200 35.67500
H  27.67900 -0.72500 36.05100
H  29.18900 -0.47100 37.07300
Mg 50.32000 47.18400 42.79000
C  47.11300 48.17400 41.59400
C  49.75700 44.06500 41.03000
C  53.58200 46.49600 42.92800
C  50.86600 50.56300 43.61400
N  48.60500 46.20400 41.54600
C  47.43100 46.83300 41.24500
C  46.63600 45.95500 40.29100
C  47.30000 44.50600 40.53100
C  48.65800 44.95300 41.00700
C  46.63700 43.73900 41.62300
C  46.52500 46.37700 38.75100
C  45.16100 46.07500 38.11300
H  45.28700 44.96800 37.05300
N  51.50600 45.51700 42.14500
C  51.09900 44.28200 41.51100
C  52.21200 43.41300 41.30800
C  53.26900 44.02000 42.09100
C  52.81000 45.41600 42.42800
C  52.18400 42.07800 40.62200
C  54.64100 43.38700 42.31000
O  54.90200 42.26200 41.95700
C  55.80300 44.10400 42.94500
N  51.98900 48.32600 43.09700
C  53.26200 47.81200 43.14500
C  54.31200 48.86100 43.55100
C  53.40900 50.12300 43.81500
C  52.01300 49.66200 43.50700
C  55.24900 48.47700 44.72400
C  53.72400 51.45100 43.05600
C  55.19200 51.89300 43.03400
N  49.30600 49.03900 42.72600
C  49.56300 50.27100 43.14200
C  48.52000 51.13900 42.95200
C  47.48600 50.36700 42.40400
C  48.01700 49.06400 42.26400
C  48.47900 52.59600 43.25800
C  46.14300 50.32900 41.78000
O  45.36500 51.21700 41.56900
C  45.87600 48.89700 41.24000
C  44.55300 48.45100 41.86600
O  44.38500 47.89600 42.93500
O  43.53700 48.53000 40.98600
C  42.19300 48.47100 41.51800
H  49.54900 43.05600 40.66800
H  54.65600 46.31600 43.01000
H  51.05700 51.53400 44.07600
H  45.60100 45.83800 40.61400
H  47.23100 43.97000 39.58400
H  47.39000 43.37300 42.32100
H  46.12500 42.86100 41.22900
H  45.88200 44.33200 42.13900
H  47.24400 45.79200 38.17600
H  46.82400 47.42400 38.70800
H  44.81700 46.93600 37.53900
H  44.38100 45.85100 38.84100
H  52.63000 42.23600 39.64000
H  51.17200 41.67400 40.64600
H  52.70900 41.25700 41.11100
H  55.38400 44.60500 43.81700
H  56.08000 44.83300 42.18400
H  56.50000 43.33800 43.28600
H  54.89300 49.10700 42.66200
H  53.44800 50.31900 44.88600
H  55.00700 48.91800 45.69100
H  56.25000 48.81900 44.46100
H  55.28300 47.41900 44.98400
H  53.11300 52.18400 43.58500
H  53.43500 51.35200 42.01000
H  55.50400 51.93800 41.99100
H  55.80900 51.24800 43.66000
H  55.08500 52.89400 43.45400
H  48.50500 52.70400 44.34200
H  47.59900 53.15700 42.94500
H  49.35100 53.12000 42.86500
H  45.78600 48.95400 40.15500
H  42.05500 48.85800 42.52800
H  41.88300 47.42900 41.60100
H  41.51600 49.05200 40.89200

