158

Mg 25.98000 0.29900 28.98300
C  27.77400 -0.01500 31.91900
C  23.16000 0.75900 31.02600
C  24.04300 0.31600 26.20600
C  28.64500 -0.83200 27.11200
N  25.53500 0.30900 31.31500
C  26.50000 0.37100 32.18600
C  25.92600 0.63700 33.53700
C  24.37000 0.71100 33.36500
C  24.33200 0.54900 31.84800
C  23.49500 -0.30900 34.21500
C  26.62400 1.84200 34.27700
C  25.82800 2.71600 35.17900
H  26.40000 2.93100 36.58500
N  23.98200 0.65100 28.68200
C  22.97400 0.81800 29.60900
C  21.67300 1.20000 28.97700
C  21.97000 1.11700 27.61300
C  23.37900 0.65600 27.45800
C  20.32200 1.45400 29.77100
C  20.96000 1.34300 26.48000
O  21.25300 1.14500 25.33500
C  19.60700 1.85500 26.68400
N  26.33600 -0.08800 26.95500
C  25.37000 -0.06500 26.00400
C  25.93400 -0.28500 24.60700
C  27.40000 -0.66100 24.87500
C  27.53300 -0.44200 26.38500
C  25.30100 -1.39600 23.71300
C  28.55900 0.05700 24.04700
C  28.93100 1.49500 24.43100
N  27.85100 -0.29300 29.35900
C  28.84800 -0.70400 28.52200
C  30.00300 -0.98000 29.30100
C  29.65300 -0.71300 30.64800
C  28.29700 -0.34200 30.66200
C  31.25300 -1.40200 28.60600
C  30.12900 -0.61400 31.96700
O  31.20200 -0.84900 32.42400
C  28.90200 -0.13400 32.88600
C  28.58900 -1.25200 33.81900
O  28.22500 -2.37600 33.54700
O  28.68100 -0.70200 35.14300
C  28.47500 -1.56800 36.32700
H  22.30000 1.08600 31.61500
H  23.37500 0.37800 25.34400
H  29.47000 -1.11200 26.45400
H  26.14700 -0.27300 34.09400
H  24.03600 1.74400 33.46100
H  22.69900 0.23000 34.73000
H  24.09400 -0.81400 34.97200
H  23.04100 -1.02900 33.53400
H  27.03700 2.48700 33.50200
H  27.48800 1.62200 34.90400
H  24.88300 2.24300 35.44800
H  25.55300 3.66600 34.72100
H  19.79300 2.32300 29.38000
H  20.34200 1.55200 30.85600
H  19.79000 0.51500 29.62100
H  19.02700 1.16700 27.29900
H  19.07700 1.91500 25.73300
H  19.72200 2.84900 27.11600
H  25.99500 0.61700 23.99900
H  27.67600 -1.71000 24.77000
H  25.98100 -2.21800 23.48600
H  24.84200 -1.01000 22.80300
H  24.48000 -1.86000 24.25900
H  28.11700 -0.03800 23.05500
H  29.47700 -0.53100 24.03800
H  30.01100 1.57600 24.55200
H  28.44000 1.98600 25.27100
H  28.69700 2.21600 23.64900
H  31.96500 -0.81600 29.18600
H  31.45400 -1.05800 27.59100
H  31.43200 -2.46500 28.44500
H  29.13200 0.78500 33.42400
H  27.70900 -1.18100 37.00000
H  29.41400 -1.58700 36.88000
H  28.28300 -2.60700 36.05700
Mg 54.62400 24.20900 45.16500
C  51.97200 26.10100 44.07200
C  53.16900 21.37400 43.99400
C  57.67900 22.84000 45.28900
C  56.28100 27.43900 46.10000
N  52.81500 23.80900 44.02100
C  51.77300 24.73200 43.75700
C  50.51300 23.99900 43.20800
C  50.81700 22.51600 43.44100
C  52.35000 22.53400 43.84200
C  49.92600 21.80900 44.46200
C  50.06800 24.35700 41.79500
C  48.58200 24.07700 41.35900
H  48.14500 24.07100 39.83100
N  55.31900 22.28300 44.75300
C  54.57200 21.23700 44.28500
C  55.46700 20.04000 44.17200
C  56.76100 20.53300 44.41400
C  56.63700 21.94700 44.77600
C  55.07000 18.64000 43.88400
C  58.10500 19.80000 44.39000
O  58.01100 18.61800 44.40800
C  59.45500 20.42400 44.42000
N  56.71600 25.08200 45.49600
C  57.68000 24.18500 45.63100
C  58.99600 24.85600 46.17800
C  58.62900 26.37100 46.12800
C  57.11900 26.34300 45.98800
C  59.59200 24.40000 47.51700
C  59.26800 27.08300 44.87700
C  60.32900 28.23700 45.15400
N  54.19300 26.33400 45.29300
C  54.90800 27.46000 45.69600
C  53.96900 28.50200 45.79300
C  52.75400 28.07100 45.21500
C  53.00100 26.71600 44.84700
C  54.05200 29.85700 46.44800
C  51.39300 28.41600 44.90800
O  50.81000 29.50700 45.00200
C  50.90300 27.23300 44.05000
C  50.59900 27.85300 42.72300
O  51.44300 28.15000 41.89800
O  49.29800 27.76800 42.44200
C  48.77400 27.74200 41.05100
H  52.66400 20.41900 43.83200
H  58.72900 22.62600 45.49800
H  56.62500 28.37000 46.55700
H  49.66000 24.29000 43.82000
H  50.78000 21.96400 42.50200
H  50.35200 21.61900 45.44700
H  49.71100 20.81900 44.06000
H  49.03200 22.37900 44.71300
H  50.62100 23.74900 41.07900
H  50.24200 25.40700 41.56000
H  47.94800 24.68700 42.00200
H  48.29900 23.08000 41.69500
H  55.59900 18.15000 43.06600
H  54.00900 18.62600 43.63300
H  55.13000 18.02600 44.78300
H  59.57500 21.40000 43.95000
H  60.13600 19.82900 43.81100
H  59.69600 20.44300 45.48300
H  59.80600 24.57000 45.50700
H  58.90500 26.80400 47.08900
H  58.76600 24.03200 48.12700
H  60.02200 25.31700 47.91800
H  60.42000 23.71600 47.33500
H  58.54600 27.64800 44.28800
H  59.86200 26.52400 44.15500
H  60.80000 27.97900 46.10200
H  59.82100 29.19300 45.28100
H  61.00400 28.34200 44.30400
H  53.08800 30.23100 46.79300
H  54.33500 30.52400 45.63400
H  54.75100 29.82800 47.28400
H  49.99200 26.82200 44.48700
H  48.08800 28.58600 40.97400
H  48.33200 26.74800 40.98300
H  49.52000 27.93300 40.28000

