158

Mg 17.83600 -1.70500 28.51100
C  16.57000 0.15100 31.16300
C  19.62700 -3.62100 30.66500
C  19.40100 -3.05400 25.85500
C  15.89300 0.23000 26.35800
N  18.04500 -1.73700 30.67900
C  17.45000 -0.83600 31.55100
C  17.95300 -1.06700 32.97100
C  19.03700 -2.17400 32.76100
C  18.94500 -2.54000 31.29600
C  20.50500 -1.80900 33.21200
C  16.75600 -1.53600 33.91400
C  16.60300 -0.74600 35.29200
H  17.84000 -0.55200 36.15800
N  19.06900 -3.39400 28.30500
C  19.71300 -4.05000 29.29400
C  20.59600 -5.01100 28.72800
C  20.64900 -4.85500 27.29900
C  19.69000 -3.70400 27.07900
C  21.25100 -6.03700 29.63800
C  21.43900 -5.59500 26.28500
O  21.17400 -5.40300 25.10600
C  22.48400 -6.64600 26.61300
N  17.62800 -1.47100 26.37000
C  18.37400 -2.10400 25.50100
C  18.15900 -1.57600 24.04800
C  16.90100 -0.73800 24.27000
C  16.80500 -0.62300 25.73700
C  19.41300 -0.83800 23.41600
C  15.68400 -1.49300 23.59900
C  14.54800 -0.69400 22.87600
N  16.52400 -0.03000 28.64400
C  15.81400 0.63900 27.70800
C  14.96600 1.61800 28.33800
C  15.30500 1.48500 29.70900
C  16.21000 0.47300 29.81900
C  14.05200 2.60700 27.63200
C  15.10500 2.11600 31.03900
O  14.47200 3.14700 31.35700
C  15.86500 1.17100 32.04400
C  16.75400 2.12100 32.88900
O  17.89100 2.49800 32.62000
O  16.01100 2.67200 33.81800
C  16.73300 3.72000 34.57700
H  20.22400 -4.33800 31.23100
H  20.03100 -3.30800 25.00000
H  15.36100 0.76300 25.56700
H  18.39900 -0.13700 33.32500
H  18.69800 -3.08400 33.25600
H  20.57700 -0.78600 33.58300
H  21.04100 -1.87100 32.26500
H  20.90200 -2.48300 33.97100
H  16.97700 -2.57200 34.17000
H  15.81100 -1.45900 33.37700
H  15.89000 -1.22600 35.96100
H  16.22800 0.26400 35.12100
H  20.74000 -6.22900 30.58100
H  22.23700 -5.64800 29.89400
H  21.35000 -7.00300 29.14400
H  23.01300 -6.99600 25.72600
H  22.05000 -7.47700 27.16900
H  23.34100 -6.26500 27.16700
H  18.00000 -2.53200 23.54900
H  16.90400 0.26100 23.83400
H  20.10000 -0.73400 24.25500
H  19.11600 0.12500 23.00100
H  19.84000 -1.50200 22.66400
H  15.23000 -2.14000 24.34900
H  16.03500 -2.22900 22.87500
H  14.83700 0.34500 22.71800
H  13.64100 -0.80500 23.47100
H  14.25300 -1.09200 21.90500
H  14.00700 3.56800 28.14300
H  13.01900 2.28300 27.50100
H  14.32400 2.84700 26.60500
H  15.10500 0.81300 32.73800
H  15.90100 4.01000 35.21800
H  16.99800 4.50900 33.87400
H  17.53800 3.22800 35.12300
Mg -2.02100 34.81800 27.12000
C  -3.81100 33.48800 29.83900
C  -0.27500 36.84100 29.18300
C  -1.35300 36.83500 24.51200
C  -3.92200 32.72900 24.95600
N  -1.96500 34.98300 29.25900
C  -2.84800 34.44100 30.22100
C  -2.49100 34.97600 31.63200
C  -1.33600 35.98300 31.40300
C  -1.13100 35.91800 29.86800
C  -1.62400 37.46200 31.91900
C  -2.23400 33.93900 32.69000
C  -2.99500 34.16400 33.96300
H  -2.34100 33.83400 35.30600
N  -0.72400 36.43600 26.77400
C  -0.04000 37.05600 27.77000
C  0.69200 38.19300 27.25200
C  0.32600 38.23200 25.88300
C  -0.62000 37.13600 25.64200
C  1.55800 39.12300 28.06400
C  0.83000 39.18100 24.77400
O  0.57200 39.02700 23.61800
C  1.68400 40.31600 25.11700
N  -2.58200 34.77500 25.07900
C  -2.07600 35.68100 24.18400
C  -2.55100 35.34200 22.70100
C  -2.82700 33.79800 22.86800
C  -3.12400 33.74600 24.39100
C  -3.88500 36.17800 22.37400
C  -1.71300 32.90800 22.43900
C  -1.50500 32.36800 20.96700
N  -3.58200 33.39300 27.33500
C  -4.21300 32.66100 26.33300
C  -5.11400 31.70600 26.95000
C  -5.03400 31.96900 28.38700
C  -4.08800 33.03000 28.53300
C  -5.86100 30.57700 26.17800
C  -5.49500 31.62300 29.67400
O  -6.32400 30.81100 30.09000
C  -4.79500 32.62000 30.61300
C  -5.79500 33.43500 31.34500
O  -6.17100 34.53500 31.04700
O  -6.22300 32.75900 32.44400
C  -7.20800 33.39800 33.28000
H  0.22800 37.54900 29.84600
H  -1.07000 37.41200 23.62800
H  -4.39300 32.03800 24.25400
H  -3.39400 35.55100 31.83700
H  -0.43500 35.64900 31.91800
H  -1.80500 38.20300 31.14000
H  -0.81500 37.94300 32.46700
H  -2.53000 37.40200 32.52200
H  -1.19700 33.69600 32.92400
H  -2.59000 32.99800 32.27200
H  -3.87400 33.52600 33.86500
H  -3.37800 35.17600 34.09200
H  1.13700 40.10900 27.86600
H  2.58700 39.24100 27.72400
H  1.40700 39.01700 29.13900
H  2.52700 40.05800 25.75800
H  1.01800 41.08100 25.51600
H  2.11200 40.66500 24.17700
H  -1.82700 35.57200 21.92000
H  -3.66500 33.47500 22.25000
H  -3.67000 36.79500 21.50100
H  -4.14600 36.94900 23.09900
H  -4.77300 35.56300 22.22700
H  -1.86800 32.00800 23.03300
H  -0.73300 33.31300 22.69300
H  -1.89800 31.35200 20.92400
H  -0.44500 32.35700 20.71300
H  -2.01400 32.98400 20.22600
H  -6.86900 30.54100 26.59000
H  -5.44200 29.57800 26.30400
H  -5.82200 30.77100 25.10600
H  -4.19100 32.05500 31.32200
H  -8.19900 33.25300 32.84800
H  -7.09700 34.48200 33.25800
H  -7.23600 32.96600 34.28100

