158

Mg 49.58700 46.69600 42.25100
C  46.33200 46.65600 40.97900
C  50.13500 43.60100 40.97900
C  52.79000 47.15100 43.02300
C  48.78800 49.94900 43.53300
N  48.35400 45.33300 41.20200
C  47.13300 45.52700 40.68200
C  46.67500 44.34100 39.76700
C  47.76800 43.30600 39.99000
C  48.81500 44.10800 40.77400
C  47.39400 41.76700 40.36300
C  46.45700 44.76800 38.27400
C  45.04200 44.70300 37.71500
H  44.87300 43.96000 36.36400
N  51.26200 45.47400 42.01700
C  51.28000 44.22200 41.51400
C  52.59700 43.67100 41.67400
C  53.40200 44.59400 42.35100
C  52.51600 45.80300 42.46400
C  52.97700 42.20100 41.35500
C  54.79000 44.35400 42.75100
O  55.31200 43.26600 42.58700
C  55.63100 45.42100 43.32000
N  50.59200 48.34100 43.05400
C  51.98100 48.28300 43.31500
C  52.52500 49.61700 43.92900
C  51.18900 50.44800 44.01800
C  50.10300 49.43300 43.57600
C  53.26100 49.34200 45.24700
C  51.15500 51.76100 43.14000
C  51.22200 53.06700 43.97900
N  47.95100 48.17800 42.25300
C  47.76900 49.41000 42.78900
C  46.50300 49.97300 42.41300
C  45.91600 48.92100 41.68800
C  46.79700 47.82500 41.63000
C  45.84000 51.25700 42.86100
C  44.71200 48.46400 41.09400
O  43.59900 48.91300 41.11300
C  45.01600 47.05700 40.46200
C  43.96700 46.10500 40.85100
O  43.66300 45.70400 41.94800
O  43.20100 45.99800 39.70900
C  41.88500 45.47700 39.87400
H  50.28400 42.66400 40.43900
H  53.84000 47.29100 43.29000
H  48.56500 50.90100 44.01800
H  45.77500 43.93200 40.22600
H  48.27500 43.20600 39.03000
H  47.99100 41.21000 39.64000
H  46.30900 41.67100 40.33400
H  47.86900 41.53000 41.31500
H  47.04600 44.20100 37.55200
H  46.77800 45.79500 38.10200
H  44.65500 45.72200 37.70300
H  44.48900 44.13500 38.46300
H  53.49400 42.19600 40.39500
H  52.00800 41.75500 41.13100
H  53.38300 41.63600 42.19300
H  56.61600 45.12900 43.68400
H  55.08300 45.79000 44.18700
H  55.52100 46.28800 42.67000
H  53.17700 50.10200 43.20200
H  51.05700 50.78000 45.04800
H  52.83300 49.96800 46.03000
H  54.32700 49.53700 45.12400
H  53.27700 48.32100 45.62800
H  50.24800 51.79400 42.53600
H  51.99200 51.70500 42.44500
H  51.88600 52.93700 44.83400
H  50.19700 53.25400 44.29900
H  51.58200 53.95700 43.46300
H  44.79400 51.29700 42.55700
H  46.36300 52.18100 42.61500
H  45.78600 51.31300 43.94900
H  45.05800 47.13200 39.37600
H  41.88600 44.47300 39.45000
H  41.13300 45.98100 39.26700
H  41.53100 45.52400 40.90400
Mg 16.87200 52.70400 26.46900
C  18.88500 51.25000 28.83600
C  14.48000 53.33400 28.96200
C  14.98400 54.09400 24.10500
C  19.36000 52.05200 24.00900
N  16.69800 52.34300 28.67900
C  17.70500 51.83000 29.42200
C  17.33500 51.84700 30.95300
C  15.84200 52.33300 30.92400
C  15.67700 52.80500 29.44200
C  14.80200 51.21100 31.24600
C  18.32000 52.82800 31.70200
C  18.74300 52.38200 33.18000
H  17.67100 51.76600 34.10800
N  14.94700 53.58800 26.53100
C  14.12800 53.71000 27.61900
C  12.88800 54.21300 27.17000
C  12.95200 54.36200 25.77500
C  14.36200 53.96900 25.39100
C  11.70700 54.38900 28.08300
C  11.85600 54.64600 24.76800
O  12.09900 54.74000 23.57200
C  10.53400 54.96000 25.22500
N  17.13200 52.94300 24.30000
C  16.24300 53.75900 23.64000
C  16.72400 53.90700 22.13000
C  18.11900 53.20500 22.16200
C  18.23600 52.81300 23.60100
C  15.79100 53.12900 21.15300
C  19.31900 54.08200 21.65000
C  19.67600 55.37800 22.45500
N  18.73500 51.72000 26.38800
C  19.59900 51.50300 25.33900
C  20.67000 50.64100 25.79100
C  20.41000 50.48600 27.14200
C  19.23200 51.22700 27.48400
C  21.78100 50.17300 24.97400
C  20.90200 49.91200 28.44600
O  21.99900 49.27300 28.55600
C  19.97900 50.46200 29.59200
C  19.54100 49.31500 30.33500
O  18.60900 48.60900 29.98400
O  20.07100 49.32900 31.58000
C  19.63500 48.36300 32.68200
H  13.73500 53.53900 29.73400
H  14.38400 54.58700 23.33800
H  20.14700 52.03200 23.25200
H  17.34700 50.84600 31.38400
H  15.73800 53.20000 31.57700
H  15.13800 50.40800 31.90200
H  14.52900 50.70800 30.31900
H  13.93800 51.82800 31.49000
H  17.92200 53.83800 31.60400
H  19.27400 52.71300 31.18700
H  19.01800 53.35700 33.58200
H  19.68100 51.82600 33.17300
H  11.04400 53.59500 27.73900
H  11.14800 55.31600 27.95000
H  11.84600 54.22900 29.15200
H  10.65800 55.83300 25.86500
H  10.11000 54.18100 25.85900
H  9.87800 55.20600 24.39000
H  16.76900 54.97600 21.92400
H  18.16100 52.28900 21.57300
H  16.42100 52.86500 20.30300
H  14.93300 53.67800 20.76400
H  15.49500 52.18700 21.61500
H  19.07500 54.51700 20.68000
H  20.19900 53.44500 21.56300
H  20.28700 54.97400 23.26300
H  18.72600 55.66800 22.90300
H  20.11900 56.14200 21.81500
H  21.35200 49.41300 24.32100
H  22.41900 49.68600 25.71200
H  22.21800 50.97500 24.38000
H  20.68900 51.07400 30.14800
H  20.50100 47.75600 32.94700
H  18.83400 47.79700 32.20600
H  19.20700 49.00100 33.45600

