158

Mg 44.64700 3.05200 47.81300
C  42.23300 5.67900 47.22800
C  41.98800 0.78300 47.62100
C  46.90200 0.64800 47.64700
C  46.91400 5.49800 47.00600
N  42.34400 3.29300 47.36800
C  41.60000 4.42600 47.18100
C  40.17300 4.07500 47.03100
C  40.10000 2.55200 47.54900
C  41.56800 2.12200 47.52500
C  39.29500 2.27900 48.82000
C  39.74100 4.17200 45.50400
C  38.78300 5.30800 45.27300
H  39.17200 6.13900 44.09200
N  44.51800 0.88600 47.83500
C  43.33500 0.24200 47.68200
C  43.67500 -1.18100 47.74600
C  45.10500 -1.31600 47.89800
C  45.63500 0.06800 47.83500
C  42.64100 -2.33600 47.42800
C  45.93000 -2.55100 47.81100
O  45.40400 -3.67500 47.75700
C  47.46100 -2.60100 47.89300
N  46.52600 3.08300 47.19200
C  47.30700 1.98200 47.48200
C  48.78500 2.32600 47.44800
C  48.82300 3.83700 47.22300
C  47.34800 4.17600 47.06700
C  49.54800 1.86900 48.70600
C  49.79200 4.34900 46.01000
C  51.12800 4.95700 46.56500
N  44.65500 5.23600 47.31100
C  45.66000 6.06000 47.03000
C  45.25900 7.43300 47.08800
C  43.91100 7.35000 47.13900
C  43.56600 5.94000 47.21000
C  46.12100 8.67500 47.17200
C  42.73900 8.12000 47.09600
O  42.53500 9.37300 47.05000
C  41.55000 7.08800 47.17200
C  40.73400 7.46900 48.29500
O  40.66500 6.97400 49.41900
O  39.96200 8.52200 47.89200
C  39.01100 9.09500 48.86300
H  41.13300 0.10300 47.61000
H  47.77700 0.01400 47.80600
H  47.66600 6.28900 46.97100
H  39.52500 4.69100 47.65600
H  39.52400 2.03700 46.78000
H  38.86700 3.23300 49.12800
H  40.02800 1.94800 49.55500
H  38.65200 1.42800 48.59200
H  39.22800 3.28200 45.14100
H  40.65200 4.20000 44.90600
H  38.72400 5.93700 46.16100
H  37.78000 4.90600 45.13400
H  41.57700 -2.11400 47.51400
H  42.85900 -3.15100 48.11800
H  42.63800 -2.76000 46.42400
H  47.67100 -2.16900 46.91500
H  47.78100 -3.64000 47.97400
H  47.91200 -2.09500 48.74700
H  49.17400 1.69600 46.64800
H  49.10700 4.32200 48.15600
H  50.43200 1.32400 48.37600
H  48.95400 1.18100 49.30900
H  49.97700 2.70200 49.26300
H  49.35200 5.16500 45.43600
H  49.97100 3.45200 45.41700
H  51.12800 5.97400 46.17300
H  51.98500 4.35100 46.27300
H  51.14300 4.89200 47.65300
H  45.79200 9.42700 46.45400
H  47.12200 8.35000 46.89000
H  46.30500 9.02100 48.18900
H  41.00500 7.23400 46.24000
H  39.25400 8.78900 49.88000
H  37.96700 8.83600 48.69000
H  39.23200 10.16000 48.79300
Mg 26.27700 51.85900 25.91300
C  23.91800 52.71800 28.26600
C  28.55500 50.92700 28.35200
C  28.53600 51.33200 23.43900
C  24.03500 53.02800 23.42100
N  26.21300 51.91600 28.13900
C  25.05700 52.17000 28.86700
C  25.47900 52.05400 30.35100
C  27.01100 51.52300 30.35600
C  27.31900 51.45000 28.84700
C  28.04800 52.30100 31.20700
C  24.51000 51.06900 31.17800
C  23.93100 51.64600 32.44900
H  24.10000 50.88400 33.81400
N  28.23800 51.13900 25.93300
C  29.04500 50.78500 27.04000
C  30.29700 50.25800 26.61100
C  30.32200 50.36100 25.19800
C  28.98300 50.90000 24.77700
C  31.31100 49.76800 27.66000
C  31.44700 49.96400 24.30300
O  31.36500 50.16400 23.05000
C  32.54100 49.24200 24.83300
N  26.30100 52.20900 23.68400
C  27.40600 52.00900 22.93500
C  27.13300 52.23600 21.39600
C  25.66800 52.83000 21.41100
C  25.31800 52.72800 22.89800
C  28.22400 53.08000 20.63000
C  24.65300 52.08500 20.36700
C  24.64000 52.61800 18.92000
N  24.41900 52.64100 25.83000
C  23.64600 53.04400 24.73700
C  22.31600 53.43100 25.20600
C  22.36700 53.34900 26.58000
C  23.68400 52.94100 26.87900
C  21.13400 53.93600 24.36600
C  21.59700 53.59500 27.74100
O  20.57400 54.18700 27.92700
C  22.59300 53.13400 28.92900
C  22.74500 54.31600 29.85700
O  23.52600 55.19800 29.74200
O  21.85900 54.05200 30.91400
C  21.90500 54.86000 32.13500
H  29.26200 50.69600 29.15200
H  29.29600 51.15200 22.67500
H  23.29400 53.12300 22.62500
H  25.29700 53.06400 30.71900
H  27.17100 50.50000 30.69600
H  27.51800 53.22700 31.42800
H  28.96700 52.41100 30.63200
H  28.28700 51.72200 32.09900
H  25.09300 50.20000 31.48200
H  23.73500 50.78900 30.46500
H  22.86200 51.70000 32.24300
H  24.38700 52.62700 32.58200
H  32.32600 50.14400 27.53100
H  31.32500 48.68700 27.79500
H  31.05900 50.19400 28.63200
H  33.09300 49.90000 25.50500
H  33.24900 49.10400 24.01600
H  32.21500 48.32900 25.33200
H  27.10200 51.21500 21.01400
H  25.68800 53.86200 21.06000
H  28.76400 53.58300 21.43200
H  27.71200 53.79000 19.98000
H  28.92400 52.64700 19.91500
H  23.67300 52.07200 20.84500
H  25.14900 51.14500 20.12900
H  23.66500 53.00700 18.62500
H  24.89300 51.79300 18.25400
H  25.43800 53.34000 18.75000
H  21.03500 53.34900 23.45300
H  21.30300 54.98700 24.13300
H  20.18100 53.81900 24.88200
H  22.19300 52.29800 29.50300
H  22.50700 54.20200 32.76200
H  20.89900 54.92200 32.54900
H  22.21600 55.89000 31.96200

