158

Mg 2.08200 -1.04700 43.98800
C  5.49800 -0.45400 43.71000
C  1.41600 1.94300 42.75000
C  -1.25000 -2.07200 43.69300
C  2.75700 -4.37300 44.95400
N  3.29600 0.50100 43.21900
C  4.68200 0.56600 43.17100
C  5.17900 1.84500 42.60000
C  3.86300 2.69600 42.61500
C  2.80400 1.67000 42.82700
C  3.87900 3.87700 43.65000
C  5.85600 1.53500 41.21800
C  7.09700 2.39500 40.83400
H  7.11000 2.73000 39.30800
N  0.29300 -0.11500 43.43600
C  0.25300 1.11400 42.88000
C  -1.07300 1.47800 42.69500
C  -1.90800 0.38500 43.04500
C  -0.97200 -0.74000 43.38300
C  -1.54100 2.84600 42.32700
C  -3.44600 0.40600 43.06600
O  -4.05000 1.44100 42.80500
C  -4.19900 -0.74500 43.55300
N  0.93200 -3.00500 44.14300
C  -0.41900 -3.05100 44.17500
C  -0.92200 -4.46900 44.54400
C  0.35900 -5.13900 45.10500
C  1.45100 -4.12400 44.72000
C  -2.22900 -4.58900 45.39800
C  0.64800 -6.61000 44.54200
C  0.81600 -7.69900 45.63800
N  3.77100 -2.17000 44.34400
C  3.88500 -3.53100 44.68000
C  5.28100 -3.83300 44.89200
C  5.95600 -2.69900 44.44300
C  4.99400 -1.67300 44.13700
C  5.69700 -5.21100 45.25100
C  7.25600 -2.17900 44.18500
O  8.39600 -2.63400 44.27200
C  7.04300 -0.64100 43.64800
C  7.65800 0.29900 44.54500
O  7.33800 0.62400 45.70900
O  8.49200 1.07300 43.84400
C  9.23900 2.15300 44.39800
H  1.16300 2.96000 42.44500
H  -2.31000 -2.33000 43.65200
H  2.90600 -5.33000 45.45900
H  5.99000 2.31600 43.15400
H  3.84000 3.20900 41.65400
H  4.86400 3.92900 44.11200
H  3.23000 3.53900 44.45800
H  3.51200 4.69200 43.02600
H  5.08100 1.45000 40.45700
H  6.25000 0.52000 41.25700
H  8.02200 1.87700 41.08900
H  7.13200 3.32700 41.39800
H  -2.52700 2.98000 41.88100
H  -0.83800 3.26800 41.60900
H  -1.45100 3.47800 43.21000
H  -5.24800 -0.45000 43.57700
H  -3.79100 -1.21500 44.44800
H  -4.17200 -1.49600 42.76400
H  -1.14500 -4.86100 43.55200
H  0.33100 -5.10200 46.19400
H  -2.08700 -5.24900 46.25300
H  -2.98200 -5.16000 44.85400
H  -2.60400 -3.60200 45.67000
H  1.61600 -6.60800 44.04100
H  -0.10800 -6.93000 43.82400
H  0.50700 -7.31200 46.60900
H  1.81600 -8.11800 45.74900
H  0.18900 -8.57000 45.44900
H  5.31800 -5.93800 44.53200
H  5.30800 -5.44200 46.24300
H  6.78600 -5.24200 45.24400
H  7.45800 -0.70900 42.64200
H  10.04900 2.37900 43.70400
H  9.65500 1.88600 45.36900
H  8.67400 3.07600 44.52500
Mg 54.71700 23.58900 45.30400
C  52.22500 25.77500 44.20900
C  52.90700 21.00100 44.03300
C  57.58000 21.71200 45.34800
C  56.73300 26.50500 46.11000
N  52.71400 23.46200 44.30100
C  51.88400 24.37400 43.93000
C  50.60600 23.90800 43.23700
C  50.74300 22.37400 43.56800
C  52.19300 22.22600 44.05900
C  49.69800 21.92300 44.70500
C  50.44100 24.22300 41.71900
C  49.11000 24.82600 41.26000
H  48.51200 24.17800 40.05100
N  55.14500 21.54000 44.92100
C  54.25600 20.64900 44.40300
C  54.96800 19.39000 44.21300
C  56.31800 19.54200 44.62100
C  56.40400 20.97900 44.99300
C  54.32300 18.24100 43.60500
C  57.29100 18.45700 44.50900
O  56.93800 17.27300 44.25600
C  58.72100 18.76100 44.80000
N  56.82000 23.96700 45.76900
C  57.78600 23.08400 45.67400
C  59.13400 23.66500 46.08600
C  58.86100 25.15400 46.47900
C  57.36200 25.22900 46.12200
C  59.89500 22.91900 47.26000
C  59.84000 26.09900 45.86900
C  60.56900 27.02000 46.92200
N  54.55200 25.72400 45.30800
C  55.39000 26.72700 45.80000
C  54.65000 27.98600 45.80800
C  53.40400 27.69000 45.15100
C  53.44800 26.28600 44.79500
C  55.10800 29.35300 46.27200
C  52.07100 28.22800 44.79100
O  51.57000 29.29800 45.05300
C  51.30300 27.04200 44.04300
C  51.10500 27.52700 42.71500
O  52.00400 27.58100 41.92100
O  49.85900 27.99800 42.49300
C  49.76700 28.56000 41.11700
H  52.37300 20.15500 43.59500
H  58.51300 21.14900 45.41600
H  57.32300 27.41100 46.26200
H  49.75800 24.38400 43.73100
H  50.69300 21.80200 42.64100
H  50.18800 21.36200 45.50200
H  48.97900 21.33200 44.13700
H  49.24400 22.81800 45.13100
H  50.76400 23.40500 41.07500
H  51.09300 25.06800 41.49800
H  49.20300 25.88500 41.01800
H  48.45000 24.63900 42.10700
H  54.91800 17.84000 42.78500
H  53.36900 18.56700 43.18900
H  54.01100 17.52900 44.36900
H  58.97600 19.46800 44.01100
H  59.27200 17.82400 44.71800
H  59.04300 18.98900 45.81600
H  59.72300 23.50500 45.18300
H  59.05600 25.26100 47.54600
H  60.86600 22.55800 46.92200
H  59.34200 21.99100 47.40900
H  60.04000 23.49800 48.17200
H  59.35800 26.81900 45.20800
H  60.67700 25.64400 45.34000
H  61.63100 26.79500 46.82300
H  60.05600 26.96000 47.88100
H  60.56800 28.08700 46.70100
H  54.81000 29.45000 47.31600
H  54.66700 30.12400 45.63800
H  56.17600 29.57200 46.27600
H  50.33600 26.96800 44.54100
H  48.82700 29.06600 40.89500
H  49.86400 27.72100 40.42800
H  50.54500 29.30900 40.96900

