158

Mg 1.74200 -1.82200 44.28900
C  4.82900 -0.60700 43.48000
C  0.30800 0.67000 42.30500
C  -1.37200 -3.25700 44.55100
C  3.11500 -4.54900 45.82200
N  2.53400 -0.26600 42.81900
C  3.85800 0.10600 42.74900
C  3.97500 1.41800 42.02700
C  2.53000 1.78700 41.68300
C  1.70900 0.62800 42.31900
C  2.13700 3.21900 42.15100
C  4.96600 1.45400 40.82700
C  5.86500 2.72500 40.60600
H  6.39800 3.08700 39.21900
N  -0.24800 -1.36000 43.63900
C  -0.58800 -0.25300 42.87900
C  -2.09700 -0.24400 42.68600
C  -2.56000 -1.39800 43.29900
C  -1.39200 -2.10100 43.79400
C  -2.86400 0.79900 41.80000
C  -4.07500 -1.79200 43.34000
O  -4.92700 -1.01600 42.86800
C  -4.64300 -3.07900 43.98400
N  0.98700 -3.57300 45.00200
C  -0.31800 -3.93400 45.12500
C  -0.58000 -5.10400 46.10500
C  0.85100 -5.54000 46.47300
C  1.67200 -4.56000 45.63200
C  -1.49400 -4.78700 47.29200
C  1.21000 -6.97800 45.98100
C  2.06300 -7.76300 46.93300
N  3.60500 -2.42300 44.72100
C  4.06900 -3.57300 45.38900
C  5.48400 -3.49400 45.56700
C  5.87200 -2.32100 44.87800
C  4.67300 -1.80400 44.31400
C  6.40600 -4.43400 46.26600
C  6.97200 -1.47200 44.59300
O  8.14400 -1.57100 44.92400
C  6.32100 -0.34400 43.66200
C  6.48400 0.94800 44.38200
O  5.72300 1.26900 45.23900
O  7.48800 1.80100 43.82400
C  7.38200 3.15000 44.34600
H  -0.19300 1.42300 41.69300
H  -2.27800 -3.79900 44.82800
H  3.46500 -5.43700 46.35200
H  4.35400 2.16400 42.72600
H  2.45000 1.63000 40.60700
H  2.31300 3.96900 41.38000
H  2.73400 3.52700 43.00900
H  1.10300 3.38700 42.45300
H  4.45500 1.35700 39.87000
H  5.62300 0.59800 40.98100
H  6.71500 2.63600 41.28300
H  5.31200 3.63500 40.83800
H  -3.29900 0.33700 40.91300
H  -2.06800 1.50500 41.56600
H  -3.69000 1.31700 42.28800
H  -4.25900 -3.03900 45.00300
H  -4.33000 -3.96300 43.42900
H  -5.72900 -3.10600 44.08000
H  -1.12200 -5.88900 45.57800
H  1.01700 -5.32500 47.52800
H  -1.77800 -3.75900 47.06500
H  -1.12100 -4.90800 48.30900
H  -2.35800 -5.42400 47.10300
H  1.71600 -7.02800 45.01700
H  0.26700 -7.50500 45.83900
H  1.53000 -8.67600 47.19800
H  2.37800 -7.36000 47.89600
H  2.99300 -7.96200 46.40100
H  5.87900 -4.72400 47.17500
H  7.33700 -4.00600 46.63900
H  6.69200 -5.26400 45.62100
H  6.89800 -0.25600 42.74100
H  8.28000 3.64800 43.98100
H  7.42400 3.18700 45.43500
H  6.45600 3.59900 43.98700
Mg 8.72300 3.55600 27.07300
C  10.34100 2.16400 29.78500
C  6.90700 5.50400 29.33600
C  7.56600 5.14400 24.51400
C  10.39000 1.25100 25.03700
N  8.44900 3.60400 29.37800
C  9.32100 2.99900 30.21700
C  9.02700 3.51400 31.60600
C  7.84300 4.51800 31.46100
C  7.71800 4.56900 30.00400
C  6.46500 4.19800 32.08500
C  10.28500 4.18100 32.32400
C  9.86000 4.47300 33.83400
H  10.86600 4.17100 35.00200
N  7.33100 5.16600 26.93200
C  6.73800 5.85200 27.98300
C  5.86700 6.78100 27.37400
C  6.12400 6.83600 25.98000
C  7.07300 5.71400 25.74400
C  4.76400 7.47600 28.18800
C  5.50900 7.80400 24.92000
O  5.77600 7.73500 23.72700
C  4.61300 8.93100 25.46900
N  8.91500 3.25200 25.04700
C  8.38300 4.04200 24.16900
C  8.59700 3.63100 22.65700
C  9.59900 2.37900 22.87300
C  9.62700 2.28600 24.40100
C  7.31800 3.16900 21.85900
C  11.06900 2.61100 22.34900
C  11.75400 1.37700 21.71200
N  9.90000 1.84400 27.28300
C  10.54400 1.06400 26.42400
C  11.44400 0.10600 27.08500
C  11.40400 0.54600 28.36300
C  10.37400 1.60100 28.48400
C  12.21200 -1.01600 26.52400
C  11.95700 0.37600 29.68400
O  12.76300 -0.47500 30.02000
C  11.27800 1.38700 30.66600
C  10.66000 0.54800 31.66500
O  9.64500 -0.15600 31.44200
O  11.20400 0.83300 32.86900
C  10.47200 0.38000 34.06200
H  6.30300 6.10800 30.01700
H  7.11600 5.65100 23.65800
H  10.72800 0.40800 24.43000
H  8.65200 2.75900 32.29700
H  8.02500 5.51500 31.86200
H  5.79100 3.79600 31.32900
H  5.84100 5.00800 32.46200
H  6.58500 3.63100 33.00900
H  10.40500 5.12900 31.79900
H  11.19400 3.58700 32.22900
H  8.94200 3.96900 34.13800
H  9.64900 5.54100 33.88200
H  5.29500 8.40000 28.41800
H  4.58200 7.01900 29.16100
H  3.80700 7.65000 27.69600
H  3.54700 8.82100 25.66800
H  4.61800 9.69600 24.69200
H  5.21500 9.43300 26.22600
H  9.08200 4.53100 22.28000
H  9.14400 1.50800 22.40200
H  6.51700 3.28900 22.58900
H  7.30600 2.11300 21.59100
H  7.13000 3.78200 20.97700
H  11.70200 2.99400 23.14900
H  11.05700 3.43500 21.63500
H  12.72200 1.25800 22.20000
H  11.92700 1.55000 20.65000
H  11.15300 0.47000 21.78100
H  11.90800 -1.92100 27.05000
H  13.26700 -0.84000 26.73400
H  12.23400 -1.05400 25.43400
H  12.16300 1.89000 31.05600
H  11.04000 -0.24700 34.74900
H  9.64500 -0.26300 33.75900
H  10.08800 1.22000 34.64200

