158

Mg 26.13800 0.29100 28.37900
C  27.75300 0.08300 31.43300
C  23.17500 0.71700 30.11900
C  24.48900 0.24000 25.41300
C  29.05700 -0.70200 26.77700
N  25.57700 0.30200 30.60000
C  26.39400 0.22300 31.64800
C  25.65600 0.50600 33.03200
C  24.18000 0.63400 32.48500
C  24.30300 0.49600 30.95500
C  23.15700 -0.41200 33.10500
C  26.15100 1.68500 33.90200
C  26.56600 1.25200 35.32900
H  26.04200 2.23000 36.43200
N  24.14500 0.51200 27.80500
C  23.06700 0.68600 28.65200
C  21.87600 0.87600 27.90800
C  22.22200 0.88100 26.54400
C  23.68600 0.45600 26.51800
C  20.53400 0.91500 28.56100
C  21.32200 1.20500 25.31100
O  21.84400 1.18100 24.17200
C  19.94700 1.70100 25.52700
N  26.67300 -0.21800 26.38000
C  25.83600 -0.09900 25.29500
C  26.56800 -0.18300 23.91300
C  28.04700 -0.40900 24.39100
C  27.97400 -0.37300 25.98900
C  26.16900 -1.33800 22.92500
C  29.16100 0.55900 23.77700
C  29.33500 1.94000 24.38600
N  28.03300 -0.18300 28.96200
C  29.10600 -0.49000 28.16300
C  30.25900 -0.65600 28.99500
C  29.73100 -0.38400 30.30300
C  28.40300 -0.15000 30.20600
C  31.64700 -1.00100 28.55800
C  30.14600 -0.30000 31.71000
O  31.17600 -0.49600 32.31100
C  28.82800 0.07100 32.47400
C  28.50000 -0.93200 33.58800
O  27.73100 -1.87100 33.50600
O  29.22000 -0.67500 34.74400
C  28.85300 -1.37400 35.98300
H  22.37200 0.85300 30.84600
H  24.07600 0.49300 24.43400
H  29.98400 -0.92300 26.24500
H  25.67300 -0.38400 33.66100
H  23.88400 1.65000 32.74800
H  22.30000 0.17000 33.44400
H  23.50900 -0.83500 34.04500
H  22.92000 -1.14800 32.33700
H  25.49700 2.54000 34.08000
H  27.08900 1.99200 33.44000
H  27.63400 1.06000 35.42800
H  26.15600 0.25000 35.45600
H  20.30000 1.96900 28.71200
H  20.58500 0.29900 29.45900
H  19.70100 0.43200 28.05000
H  19.36100 0.81900 25.78400
H  19.64500 2.20200 24.60700
H  19.95700 2.36500 26.39100
H  26.34800 0.76800 23.42800
H  28.39800 -1.43100 24.25300
H  25.09900 -1.53200 22.99800
H  26.66900 -2.29400 23.08200
H  26.32200 -1.04600 21.88600
H  29.06300 0.76900 22.71200
H  30.12000 0.04500 23.83700
H  28.69300 2.58100 23.78300
H  30.36500 2.23000 24.17600
H  29.25100 1.85700 25.47000
H  32.06800 -1.67600 29.30200
H  32.27500 -0.11500 28.66200
H  31.54000 -1.58200 27.64100
H  28.97100 1.06200 32.90400
H  29.11600 -2.43100 35.93600
H  27.77800 -1.27800 36.13500
H  29.25800 -0.91700 36.88600
Mg 53.15400 24.19500 44.25200
C  50.66000 26.46500 43.44200
C  51.07400 21.59000 43.16400
C  55.78700 22.09400 43.96400
C  55.16300 26.73600 45.26200
N  51.13700 24.04400 43.35100
C  50.31300 25.12200 43.07400
C  48.94800 24.57900 42.48400
C  48.87500 23.12700 43.07700
C  50.37400 22.87800 43.17400
C  48.08100 23.01000 44.42800
C  48.95400 24.51400 40.90300
C  50.21200 24.93500 40.13000
H  50.10800 25.18200 38.61100
N  53.41400 22.08600 43.77400
C  52.39300 21.19800 43.37100
C  52.88700 19.88200 43.09600
C  54.34400 19.96300 43.37300
C  54.55000 21.43700 43.71500
C  52.00500 18.77800 42.65200
C  55.36800 18.78900 43.22000
O  54.86200 17.73500 42.84800
C  56.82200 18.85500 43.58800
N  55.21300 24.35800 44.59300
C  56.18600 23.37400 44.34900
C  57.58800 23.85500 44.83700
C  57.32300 25.33600 45.25100
C  55.77200 25.53500 45.12200
C  58.08800 22.95300 45.99200
C  58.08900 26.24000 44.32000
C  57.54100 26.31000 42.86300
N  53.01000 26.20200 44.30700
C  53.88100 27.17800 44.86800
C  53.31000 28.51900 44.85400
C  51.97700 28.26700 44.33600
C  51.86500 26.88800 44.05600
C  53.93600 29.91100 45.39300
C  50.71900 28.86500 43.87300
O  50.36300 29.99000 43.84900
C  49.85000 27.72200 43.38300
C  49.46200 28.01600 41.99700
O  50.09200 28.36400 41.08500
O  48.09100 27.90900 41.99800
C  47.46100 28.10900 40.61800
H  50.32300 20.88900 42.79400
H  56.61900 21.40700 43.79500
H  55.81700 27.60500 45.35700
H  48.11500 25.19700 42.81900
H  48.43100 22.46100 42.33700
H  48.66000 22.57100 45.23900
H  47.27000 22.36300 44.09400
H  47.62400 23.96800 44.67900
H  48.25800 25.24600 40.49200
H  48.57200 23.55400 40.55700
H  51.03000 24.21500 40.17200
H  50.50600 25.90400 40.53200
H  51.22600 19.22100 42.03200
H  51.42900 18.35100 43.47300
H  52.54100 18.03200 42.06500
H  56.96200 19.44200 44.49600
H  57.40500 19.32500 42.79700
H  57.04700 17.78800 43.60300
H  58.23500 23.64800 43.98500
H  57.80700 25.37200 46.22600
H  57.38700 22.13200 46.14200
H  58.01000 23.37100 46.99600
H  59.12400 22.64300 45.86000
H  59.16400 26.06500 44.29200
H  57.95900 27.22300 44.77100
H  56.91200 25.42700 42.75300
H  58.31500 26.18700 42.10500
H  56.96000 27.21600 42.68900
H  54.70100 30.10600 44.64100
H  54.44700 29.64600 46.31800
H  53.19100 30.70000 45.49900
H  49.03700 27.86500 44.09500
H  48.20700 28.26900 39.84000
H  46.81700 28.98800 40.63200
H  46.93200 27.22100 40.27200

