158

Mg -0.62800 6.76000 25.10600
C  0.09400 7.89600 28.27000
C  -0.97600 3.48700 26.37900
C  -0.83700 5.49600 21.95400
C  0.20800 9.92100 23.79900
N  -0.38900 5.75900 27.06400
C  -0.26000 6.55100 28.24400
C  -0.62100 5.63000 29.46500
C  -0.75200 4.20600 28.88300
C  -0.77400 4.45800 27.36900
C  0.43200 3.19000 29.18900
C  -1.83800 6.20500 30.27300
C  -1.80200 6.07700 31.81800
H  -1.08200 4.83100 32.48600
N  -0.99000 4.85100 24.28700
C  -1.14600 3.65100 24.98500
C  -1.59400 2.61000 24.09100
C  -1.45300 3.15600 22.78100
C  -1.09200 4.57200 22.92700
C  -1.95400 1.19100 24.52400
C  -1.43700 2.40600 21.40900
O  -1.25700 2.85400 20.29900
C  -1.84800 0.94500 21.37800
N  -0.19800 7.60900 23.07300
C  -0.49400 6.88600 21.97900
C  -0.41200 7.74200 20.74800
C  -0.41400 9.20700 21.36100
C  -0.18300 8.95000 22.88500
C  0.83100 7.38200 19.89900
C  -1.77000 9.99200 21.17000
C  -1.82000 10.99200 19.99400
N  0.16700 8.52300 25.87700
C  0.36100 9.80600 25.21400
C  0.72600 10.80100 26.21400
C  0.56600 10.11600 27.47900
C  0.23800 8.80100 27.18800
C  0.92200 12.26600 26.03300
C  0.56200 10.34700 28.89400
O  0.87700 11.27000 29.65300
C  0.28200 8.88100 29.42800
C  1.45000 8.43000 30.27300
O  2.52700 8.12300 29.79800
O  1.07700 8.45300 31.59400
C  2.18100 8.22500 32.61500
H  -1.07200 2.47900 26.78700
H  -0.93900 5.03300 20.97000
H  0.49300 10.84100 23.28400
H  0.25600 5.72200 30.10600
H  -1.67100 3.71000 29.19800
H  -0.03700 2.22300 29.37200
H  0.94800 3.41000 30.12400
H  1.15600 3.12500 28.37700
H  -2.72300 5.68600 29.90400
H  -2.05300 7.25900 30.09700
H  -2.79400 6.13900 32.26500
H  -1.27200 6.98400 32.11100
H  -1.06800 0.58100 24.34800
H  -2.75200 0.74700 23.92800
H  -2.21000 1.11000 25.58000
H  -1.93200 0.55100 20.36500
H  -2.87700 0.99100 21.73400
H  -1.15400 0.31900 21.93800
H  -1.27200 7.50800 20.12100
H  0.39500 9.75700 20.87900
H  0.77100 8.03600 19.02900
H  0.68600 6.33700 19.62300
H  1.78500 7.49200 20.41500
H  -1.83600 10.49400 22.13500
H  -2.68200 9.39500 21.16900
H  -1.78700 11.98400 20.44500
H  -2.71300 10.85800 19.38300
H  -0.96800 10.88500 19.32200
H  0.13400 12.72300 25.43400
H  1.89900 12.39700 25.56800
H  0.76500 12.74900 26.99800
H  -0.54100 8.99200 30.13400
H  3.12200 7.89600 32.17400
H  1.82500 7.58400 33.42200
H  2.43400 9.16400 33.10700
Mg 24.84800 0.79200 30.09200
C  27.02700 1.19900 32.72900
C  22.29000 1.08900 32.11100
C  22.91400 0.61600 27.34500
C  27.59400 0.16300 27.89200
N  24.71000 1.35900 32.18000
C  25.70200 1.49600 33.11500
C  25.15000 1.82800 34.51900
C  23.60700 1.64600 34.24200
C  23.48800 1.27600 32.75700
C  22.93400 0.68400 35.29000
C  25.63500 3.22400 35.02200
C  26.10100 3.18200 36.47300
H  25.55000 4.21100 37.42800
N  22.85900 0.80900 29.79700
C  21.95200 0.95300 30.76000
C  20.63000 0.85100 30.22800
C  20.82000 0.64400 28.86200
C  22.26000 0.70900 28.58100
C  19.34300 0.95100 30.99800
C  19.77500 0.24100 27.87000
O  19.98100 0.11800 26.66300
C  18.37000 -0.06900 28.28300
N  25.24500 0.30900 27.83800
C  24.22400 0.43500 26.95200
C  24.73600 0.27600 25.52700
C  26.27200 0.21000 25.67300
C  26.40900 0.28200 27.22800
C  24.10200 -0.83900 24.63400
C  26.99900 1.39500 24.91600
C  27.62500 0.98400 23.66500
N  26.89400 0.55600 30.23300
C  27.87300 0.27100 29.33600
C  29.14500 0.22700 30.05400
C  28.81900 0.65200 31.32400
C  27.48100 0.78200 31.43400
C  30.49900 0.03400 29.31100
C  29.42800 0.95700 32.58300
O  30.62000 0.84400 32.93100
C  28.31700 1.32300 33.55700
C  28.37900 0.41400 34.76700
O  27.92100 -0.69400 34.87800
O  29.07200 1.12200 35.79000
C  29.09000 0.52300 37.14100
H  21.50100 1.27200 32.84200
H  22.26400 0.71500 26.47300
H  28.44400 0.33600 27.23000
H  25.48300 1.01600 35.16600
H  23.12900 2.61700 34.37700
H  22.88200 -0.29900 34.82100
H  21.94100 1.10900 35.43500
H  23.45300 0.62700 36.24700
H  24.86700 3.99800 35.00600
H  26.51400 3.48100 34.43000
H  27.18900 3.20000 36.53400
H  25.94500 2.19800 36.91600
H  18.76700 0.04200 31.17300
H  18.77600 1.74600 30.51300
H  19.56200 1.38200 31.97500
H  17.78600 -0.32300 27.39800
H  17.75900 0.76200 28.63400
H  18.41900 -0.94500 28.93000
H  24.36200 1.19500 25.07600
H  26.72700 -0.76700 25.51400
H  23.27400 -1.31300 25.16000
H  24.67400 -1.62700 24.14300
H  23.61900 -0.32600 23.80300
H  27.71000 1.79100 25.64100
H  26.25900 2.18000 24.76400
H  27.24800 0.02200 23.31700
H  28.71100 0.98400 23.76300
H  27.47900 1.73100 22.88500
H  30.40100 0.24800 28.24700
H  30.76700 -1.02000 29.38000
H  31.24500 0.68300 29.77100
H  28.40000 2.33300 33.95800
H  28.10400 0.54100 37.60700
H  29.80500 1.04200 37.77900
H  29.56000 -0.44300 36.95600

