158

Mg 17.17000 52.28900 26.52400
C  19.09100 50.83300 29.28200
C  14.63300 52.66600 28.80800
C  15.25800 53.10800 23.94900
C  19.57100 50.70900 24.27000
N  16.92400 51.72800 28.79400
C  17.90600 51.36500 29.69100
C  17.40300 51.49600 31.12700
C  15.82300 51.80800 30.91100
C  15.76600 52.10900 29.43300
C  14.95800 50.55300 31.27900
C  18.23000 52.58100 31.81500
C  18.56300 52.47100 33.34600
H  17.69000 51.59500 34.25400
N  15.33900 53.04700 26.46000
C  14.41100 53.16800 27.51300
C  13.23800 53.86200 26.98200
C  13.40000 54.01400 25.52500
C  14.68000 53.39000 25.28000
C  12.10300 54.31800 27.90000
C  12.55200 54.76500 24.50000
O  12.94200 54.98700 23.35000
C  11.21900 55.27900 24.85700
N  17.37800 51.93900 24.43900
C  16.53100 52.56500 23.57900
C  16.97100 52.38900 22.08400
C  18.45600 51.90300 22.26500
C  18.46900 51.42100 23.71000
C  16.09100 51.47600 21.19100
C  19.52700 52.91800 21.94700
C  20.63500 52.47500 20.97700
N  18.99500 51.06500 26.74300
C  19.79200 50.47900 25.66300
C  20.84700 49.82900 26.28000
C  20.69600 49.99100 27.67100
C  19.49700 50.66100 27.90800
C  21.99400 49.16200 25.56100
C  21.24200 49.67300 29.04200
O  22.21600 48.97500 29.36700
C  20.14800 50.18200 30.06900
C  19.61200 48.95100 30.74500
O  18.81100 48.13000 30.28400
O  19.96000 49.02500 32.11000
C  19.58000 47.85500 32.94300
H  13.76900 52.67200 29.47500
H  14.70800 53.41500 23.05700
H  20.29700 50.38700 23.52000
H  17.46300 50.52400 31.61600
H  15.45900 52.60300 31.56200
H  15.08100 50.26900 32.32400
H  15.31200 49.69300 30.71100
H  13.93100 50.89500 31.15200
H  17.65700 53.50000 31.69100
H  19.21100 52.76700 31.37700
H  18.71000 53.47900 33.73400
H  19.53200 52.01000 33.53800
H  12.20400 53.79200 28.84900
H  11.09300 54.15300 27.52400
H  12.15000 55.38200 28.13100
H  11.25700 56.24600 25.35900
H  10.72100 54.44400 25.35000
H  10.66400 55.55000 23.95900
H  16.95200 53.35800 21.58500
H  18.51700 50.98000 21.69000
H  15.02100 51.64600 21.31200
H  16.34900 50.45100 21.46000
H  16.35000 51.74900 20.16900
H  19.95100 53.06400 22.94100
H  19.09900 53.88600 21.68700
H  20.91900 53.25100 20.26600
H  20.35600 51.56900 20.43800
H  21.53100 52.29400 21.57100
H  22.82800 49.07300 26.25700
H  22.26300 49.82500 24.73900
H  21.64300 48.25000 25.07700
H  20.69200 50.80000 30.78200
H  20.45900 47.21100 32.95900
H  18.73300 47.34900 32.47900
H  19.36300 48.06400 33.99000
Mg -5.06000 24.68200 25.97000
C  -3.59800 25.76200 28.93400
C  -6.89000 22.51800 27.75800
C  -6.13100 23.23900 23.04800
C  -2.63500 26.40600 24.16900
N  -5.18400 24.26800 28.05400
C  -4.58900 24.83500 29.10100
C  -5.07900 24.34200 30.46600
C  -5.90000 23.08900 30.05800
C  -6.04500 23.28300 28.52900
C  -5.25900 21.71200 30.29600
C  -5.98300 25.43900 31.18500
C  -5.61700 25.83500 32.63400
H  -4.98500 24.74300 33.55500
N  -6.52000 23.22600 25.47700
C  -7.21400 22.52200 26.35700
C  -8.21400 21.71100 25.65300
C  -7.93200 21.82200 24.26000
C  -6.84500 22.82000 24.20200
C  -9.23000 20.94400 26.35400
C  -8.61700 21.10300 23.07900
O  -8.20800 21.20700 21.92100
C  -9.92400 20.24400 23.27700
N  -4.50900 24.90000 23.90900
C  -5.08000 24.10400 22.92300
C  -4.29600 24.29300 21.59100
C  -3.33000 25.45500 21.91300
C  -3.44300 25.61600 23.43200
C  -3.68100 23.02000 21.04100
C  -3.55200 26.80300 21.09100
C  -2.41700 27.19800 20.02500
N  -3.51000 25.98900 26.43000
C  -2.63300 26.61800 25.55100
C  -1.81100 27.51700 26.41600
C  -2.12400 27.17400 27.72300
C  -3.18600 26.27300 27.66900
C  -0.71500 28.40100 26.02800
C  -1.87500 27.51700 29.16400
O  -1.11500 28.31500 29.67200
C  -2.78100 26.59200 29.94400
C  -1.97700 25.80400 30.99300
O  -1.50000 24.68600 30.85000
O  -1.90400 26.60500 32.16100
C  -1.01100 26.05900 33.17300
H  -7.56800 21.83200 28.27000
H  -6.53000 22.73300 22.16700
H  -1.83300 26.86300 23.58500
H  -4.13300 24.06600 30.93200
H  -6.89800 23.11200 30.49600
H  -6.06500 21.16800 30.79000
H  -4.41300 21.80700 30.97700
H  -4.82700 21.22400 29.42300
H  -7.02200 25.11300 31.13000
H  -5.82000 26.32600 30.57300
H  -6.56300 26.21200 33.02200
H  -4.96900 26.71200 32.64000
H  -10.15800 21.21700 25.85200
H  -9.32600 21.28000 27.38700
H  -9.02600 19.87900 26.45900
H  -10.58100 20.94400 23.79400
H  -9.73900 19.31900 23.82200
H  -10.34600 19.98800 22.30500
H  -5.02600 24.60200 20.84200
H  -2.27600 25.19200 21.82500
H  -2.60700 23.15300 20.91200
H  -4.13600 22.77800 20.08100
H  -3.73300 22.17800 21.73200
H  -3.51300 27.64500 21.78300
H  -4.50100 26.76600 20.55600
H  -2.00400 28.18400 20.23800
H  -2.77300 27.18400 18.99400
H  -1.54900 26.53900 20.00900
H  -1.14000 29.29400 25.56900
H  -0.18800 27.89100 25.22100
H  -0.02400 28.68600 26.82100
H  -3.40200 27.25000 30.55100
H  -0.06800 25.64900 32.81000
H  -1.54600 25.15100 33.45300
H  -0.82000 26.79500 33.95400

