158

Mg 1.53300 -0.90500 43.60500
C  4.92000 0.17200 43.38200
C  0.47200 1.92200 42.17600
C  -1.41000 -2.49100 42.98300
C  2.91400 -4.07200 44.42500
N  2.62500 0.82000 42.96400
C  3.99500 1.10500 42.89900
C  4.25300 2.44500 42.27500
C  2.74600 3.14100 42.20300
C  1.88800 1.94100 42.49200
C  2.54000 4.41600 43.20000
C  5.07100 2.30200 40.97700
C  6.47000 3.11200 40.86100
H  6.77900 3.87200 39.53400
N  -0.24600 -0.35300 42.75900
C  -0.45400 0.83400 42.22100
C  -1.89400 0.91600 41.77200
C  -2.52100 -0.25100 42.23500
C  -1.37900 -1.10300 42.68000
C  -2.48400 2.15800 41.08500
C  -4.03300 -0.48200 42.24500
O  -4.85100 0.32600 41.85700
C  -4.64800 -1.77500 42.89500
N  0.88100 -2.99500 43.63500
C  -0.40800 -3.36300 43.46900
C  -0.71600 -4.81500 43.98600
C  0.73100 -5.35900 44.26000
C  1.61500 -4.07200 44.02600
C  -1.86100 -4.84900 45.10700
C  1.23400 -6.57500 43.44600
C  2.16000 -7.54100 44.25600
N  3.53100 -1.82100 43.99500
C  3.86100 -3.04500 44.37400
C  5.29900 -3.06500 44.62600
C  5.77100 -1.79800 44.25500
C  4.66100 -1.11400 43.87400
C  5.99900 -4.25200 45.16500
C  6.92700 -0.93100 44.15500
O  8.10100 -1.11200 44.40300
C  6.38800 0.36100 43.61100
C  6.73400 1.39600 44.57300
O  6.14100 1.49200 45.63400
O  7.66600 2.25600 44.07400
C  7.67200 3.68400 44.49400
H  -0.01300 2.84700 41.85600
H  -2.39500 -2.92800 42.80800
H  3.25700 -5.08200 44.65600
H  4.90400 3.01700 42.93700
H  2.42800 3.45500 41.20800
H  3.39000 4.53600 43.87200
H  1.56700 4.39300 43.69200
H  2.36700 5.31200 42.60500
H  4.41500 2.60700 40.16100
H  5.24100 1.24000 40.80100
H  7.32400 2.45700 41.03000
H  6.54700 3.80100 41.70200
H  -2.28500 2.02200 40.02200
H  -2.14600 3.14000 41.41500
H  -3.54600 2.24800 41.31200
H  -5.65300 -1.56200 43.26000
H  -4.08500 -1.83300 43.82700
H  -4.60000 -2.58700 42.16900
H  -1.06300 -5.42300 43.15100
H  0.87500 -5.66300 45.29700
H  -2.80000 -5.32100 44.81500
H  -2.04400 -3.83000 45.44600
H  -1.48200 -5.36300 45.99000
H  1.81500 -6.27600 42.57400
H  0.30300 -7.04200 43.12800
H  3.04700 -7.61300 43.62600
H  1.59000 -8.45900 44.39700
H  2.42900 -7.18200 45.24900
H  5.64300 -4.39300 46.18600
H  7.06000 -4.00800 45.20700
H  5.77100 -5.10700 44.52800
H  6.81400 0.55700 42.62700
H  8.70500 4.01400 44.37600
H  7.44100 3.93800 45.52800
H  6.96200 4.27700 43.91700
Mg 50.92200 45.64700 42.45500
C  47.74600 46.72400 41.05300
C  49.99400 42.53900 41.09300
C  54.06200 44.72700 42.76300
C  51.72700 49.02300 42.80100
N  49.13800 44.77300 41.01700
C  47.94500 45.40200 40.86500
C  46.99700 44.37500 40.29500
C  47.55600 43.04400 40.71900
C  49.01000 43.46100 40.99400
C  46.92800 42.31700 42.04000
C  46.71700 44.57600 38.79300
C  45.36300 44.42200 38.16000
H  45.33400 43.53300 36.94100
N  51.92900 43.88600 41.92100
C  51.31400 42.68700 41.52300
C  52.36500 41.70200 41.66100
C  53.58000 42.31000 42.10900
C  53.20600 43.66500 42.38000
C  52.22700 40.27800 41.21700
C  54.88200 41.52300 42.41500
O  54.99700 40.32100 42.12900
C  56.05300 42.05700 43.06300
N  52.64600 46.69600 42.72100
C  53.81800 46.06800 42.96000
C  55.00700 47.04800 43.26300
C  54.21400 48.45600 43.15000
C  52.80500 48.10100 42.87200
C  55.67000 46.73700 44.59100
C  54.89300 49.43200 42.07800
C  55.27000 50.81000 42.61700
N  49.90400 47.56900 42.28900
C  50.37300 48.84000 42.47200
C  49.27100 49.74600 42.29700
C  48.24100 49.00400 41.72000
C  48.66800 47.66900 41.68800
C  49.36300 51.26900 42.46500
C  46.93500 49.03700 41.24200
O  46.09100 49.96200 41.18800
C  46.56700 47.57800 40.71300
C  45.36100 47.09200 41.43500
O  45.27200 46.84500 42.63700
O  44.25200 47.09700 40.58600
C  42.83800 46.94200 41.07900
H  49.87700 41.46800 40.91400
H  55.08500 44.56700 43.10700
H  52.10000 50.04700 42.87300
H  46.06000 44.37000 40.85100
H  47.48600 42.25100 39.97400
H  46.29900 41.48100 41.73300
H  46.25500 43.03700 42.50600
H  47.69500 41.96300 42.72800
H  47.50900 44.03800 38.27200
H  46.94800 45.62200 38.59200
H  44.64900 45.24500 38.13400
H  44.84900 43.73200 38.82900
H  52.69500 39.61600 41.94700
H  52.80400 40.20200 40.29500
H  51.25400 39.90100 40.90500
H  55.78100 42.65700 43.93100
H  56.60300 42.65000 42.33200
H  56.74200 41.26100 43.34400
H  55.73400 46.95000 42.45700
H  54.39200 48.89100 44.13400
H  56.66300 46.32400 44.41600
H  55.13500 46.01700 45.21100
H  55.73800 47.67500 45.14200
H  54.15200 49.66400 41.31300
H  55.70500 49.06800 41.44900
H  54.63500 51.52500 42.09200
H  56.29000 51.16600 42.47600
H  54.96600 50.91600 43.65800
H  50.37900 51.66000 42.51200
H  48.97200 51.49000 43.45800
H  48.83800 51.71000 41.61800
H  46.30200 47.66600 39.65900
H  42.76400 47.34800 42.08800
H  42.47200 45.92100 41.19400
H  42.17300 47.50800 40.42700

