158

Mg 41.25800 9.00800 29.30300
C  42.89500 10.48600 32.00700
C  39.07300 7.57900 31.57500
C  39.53000 7.49400 26.70100
C  43.72000 10.00000 27.22400
N  41.13100 8.95700 31.52600
C  41.84500 9.71200 32.46300
C  41.36800 9.53300 33.92500
C  40.14300 8.55000 33.74200
C  40.10600 8.33500 32.16900
C  40.18900 7.16800 34.48700
C  41.05500 10.89900 34.61000
C  39.96100 10.94300 35.71400
H  40.48100 11.38500 37.10500
N  39.55700 7.81100 29.16500
C  38.81900 7.33000 30.21900
C  37.75300 6.47000 29.68400
C  37.74900 6.56300 28.25700
C  38.99400 7.24100 28.00000
C  36.83800 5.70900 30.66900
C  36.68800 6.01800 27.20300
O  36.96500 6.06200 26.02200
C  35.38800 5.40400 27.62900
N  41.61100 8.69300 27.34400
C  40.79000 8.09200 26.41600
C  41.44300 8.12800 24.99400
C  42.70400 8.95000 25.12900
C  42.70500 9.22800 26.66600
C  41.49400 6.84300 24.18100
C  42.83900 10.14300 24.16200
C  42.22100 11.54200 24.51200
N  42.88800 10.06400 29.51600
C  43.89300 10.34400 28.58900
C  45.05100 10.91900 29.22600
C  44.57000 11.10500 30.55100
C  43.35800 10.52600 30.65700
C  46.28400 11.40300 28.55900
C  44.93900 11.74100 31.79300
O  45.89100 12.44800 31.96600
C  43.85600 11.37800 32.81600
C  44.49400 10.68600 33.92800
O  44.85000 9.53400 33.94400
O  44.54700 11.52400 35.00200
C  45.14700 10.87500 36.15700
H  38.41600 7.12500 32.32000
H  39.17800 7.04900 25.76800
H  44.54000 10.33600 26.58500
H  42.15500 9.04800 34.50200
H  39.14900 8.91300 34.00200
H  41.02000 7.20500 35.19200
H  40.54600 6.52000 33.68600
H  39.26000 6.83400 34.95000
H  40.79500 11.59800 33.81500
H  41.93700 11.46100 34.91600
H  39.43000 9.99300 35.77600
H  39.12100 11.54000 35.36100
H  36.06400 6.37900 31.04300
H  37.38200 5.42200 31.56800
H  36.47600 4.79800 30.19200
H  35.49300 4.57800 28.33300
H  34.79300 5.12500 26.75900
H  34.87600 6.22600 28.13000
H  40.71700 8.73900 24.45800
H  43.59700 8.32800 25.08100
H  42.49800 6.84000 23.75800
H  40.80400 6.86900 23.33700
H  41.24900 5.98700 24.81000
H  42.58000 9.90600 23.13000
H  43.91700 10.30000 24.17800
H  41.56000 11.45200 25.37400
H  41.68200 12.02300 23.69600
H  43.09200 12.12800 24.80400
H  46.50300 12.47100 28.57100
H  46.32000 11.09800 27.51300
H  47.14100 10.94300 29.05000
H  43.34900 12.31200 33.05500
H  44.41800 10.21600 36.62900
H  45.33700 11.63600 36.91400
H  46.12100 10.38600 36.15600
Mg 9.35600 47.52000 26.02100
C  7.24000 47.82500 28.67600
C  11.95000 48.50800 27.88500
C  11.21300 47.53300 23.14400
C  6.38600 47.26800 23.98000
N  9.59900 48.15400 27.97000
C  8.57200 48.16300 28.90600
C  9.21300 48.47800 30.29900
C  10.56300 49.19500 29.88200
C  10.75100 48.55300 28.51400
C  10.44200 50.73100 29.83900
C  9.50000 47.11600 31.08600
C  10.28000 47.18500 32.42600
H  9.87500 46.08400 33.45500
N  11.30300 48.03400 25.61100
C  12.28400 48.25400 26.53900
C  13.52300 48.42600 25.93400
C  13.34300 48.18000 24.55100
C  11.92400 47.87400 24.32700
C  14.77100 48.82500 26.60600
C  14.35300 47.95700 23.40700
O  14.03100 47.82900 22.21600
C  15.79700 47.92600 23.78900
N  8.83400 47.32000 23.82900
C  9.86600 47.36900 22.84500
C  9.26800 47.15200 21.45800
C  7.69200 46.99000 21.72900
C  7.62700 47.23100 23.28000
C  9.64400 48.12100 20.29600
C  7.02200 45.67500 21.33900
C  6.36800 45.70400 19.91700
N  7.19500 47.46500 26.29100
C  6.16400 47.40700 25.37700
C  4.86700 47.32600 26.05100
C  5.26000 47.50800 27.40500
C  6.67100 47.55300 27.43100
C  3.53300 47.10400 25.43100
C  4.81800 47.71400 28.82700
O  3.67900 47.78400 29.31300
C  6.14400 47.66900 29.67000
C  6.18700 46.31100 30.39400
O  6.25000 45.22900 29.80300
O  6.04200 46.40400 31.71300
C  6.05100 45.18700 32.46900
H  12.79800 49.03600 28.32600
H  11.82300 47.55100 22.23800
H  5.49000 47.32300 23.35800
H  8.51000 49.15700 30.78100
H  11.39300 49.05200 30.57500
H  10.76100 51.12100 28.87200
H  11.09000 51.19300 30.58300
H  9.44700 51.06000 30.13900
H  10.00500 46.46600 30.37200
H  8.48300 46.85500 31.38000
H  10.17700 48.14300 32.93700
H  11.33500 47.10000 32.16800
H  15.41900 47.95400 26.69900
H  14.68600 49.30500 27.58100
H  15.35400 49.56300 26.05500
H  16.37900 47.74300 22.88500
H  16.04200 47.05500 24.39800
H  16.22300 48.83900 24.20400
H  9.60000 46.18400 21.08300
H  7.24100 47.83000 21.20000
H  8.88000 48.85700 20.04700
H  9.78200 47.55300 19.37600
H  10.53500 48.71300 20.50500
H  6.26700 45.23500 21.99100
H  7.79400 44.93100 21.14700
H  6.56200 46.70500 19.53100
H  5.31100 45.47600 20.05300
H  6.83400 44.98900 19.23900
H  3.00300 46.20000 25.73300
H  3.57000 46.94400 24.35400
H  2.90900 47.96800 25.66100
H  6.21500 48.39700 30.47800
H  5.25100 45.17700 33.21000
H  6.98300 45.10000 33.02900
H  6.07900 44.32500 31.80200

