158

Mg -10.40000 38.80600 40.61300
C  -8.77300 35.71200 39.90400
C  -7.60800 40.35700 39.27400
C  -11.98100 41.74400 40.59000
C  -13.23000 37.12400 41.49700
N  -8.47000 38.13100 39.73300
C  -8.06800 36.81300 39.54100
C  -6.67700 36.71500 38.74600
C  -6.18200 38.20900 39.02600
C  -7.50900 38.94500 39.37000
C  -5.09300 38.44600 40.08800
C  -6.88200 36.23400 37.25300
C  -6.18300 36.88300 36.00500
H  -7.12500 37.60700 35.00100
N  -9.86000 40.75400 40.02900
C  -8.68300 41.22100 39.54800
C  -8.67200 42.69500 39.58200
C  -9.98200 43.08800 39.83600
C  -10.66700 41.85400 40.13100
C  -7.41900 43.54800 39.13000
C  -10.44000 44.50000 39.99600
O  -9.57400 45.36400 39.88100
C  -11.82800 44.91000 40.43100
N  -12.40100 39.28200 40.89600
C  -12.78300 40.60500 40.90400
C  -14.33900 40.62900 41.10900
C  -14.68100 39.20100 41.49200
C  -13.35200 38.46500 41.36300
C  -14.94800 41.62200 42.16400
C  -15.87300 38.56600 40.69700
C  -16.72800 37.51100 41.41400
N  -10.91500 36.87100 40.68000
C  -12.10800 36.36000 41.10000
C  -11.96400 34.86100 41.15800
C  -10.73400 34.59000 40.57900
C  -10.10200 35.86400 40.38900
C  -12.87000 33.87700 41.86000
C  -9.82000 33.52400 40.23000
O  -10.01400 32.32600 40.25900
C  -8.56800 34.19800 39.69300
C  -7.43700 33.67900 40.39700
O  -7.15000 33.87300 41.57400
O  -6.59900 32.98400 39.52100
C  -5.22200 32.69000 39.92600
H  -6.64200 40.80100 39.02300
H  -12.58600 42.65300 40.59500
H  -14.04100 36.51900 41.90700
H  -6.14100 35.92600 39.27200
H  -5.83100 38.72000 38.12900
H  -4.33400 39.10400 39.66500
H  -4.71800 37.48000 40.42600
H  -5.55600 38.86100 40.98200
H  -7.92900 36.31900 36.96400
H  -6.60300 35.18100 37.27100
H  -5.63400 36.02700 35.61100
H  -5.47600 37.64700 36.33100
H  -7.63200 44.19700 38.28000
H  -6.62400 42.87000 38.82000
H  -7.04300 44.15400 39.95400
H  -12.45100 44.73100 39.55500
H  -11.89100 45.98200 40.61700
H  -12.00400 44.40400 41.38000
H  -14.83800 40.94800 40.19400
H  -14.83800 39.13100 42.56800
H  -14.94500 41.13900 43.14100
H  -15.95600 41.94200 41.90100
H  -14.37000 42.54500 42.16600
H  -15.46800 38.14800 39.77500
H  -16.58700 39.31500 40.35600
H  -16.72900 36.55600 40.88900
H  -17.75000 37.88600 41.36700
H  -16.43000 37.38000 42.45500
H  -12.90800 33.88900 42.94900
H  -12.59200 32.89200 41.48600
H  -13.88600 34.04900 41.50300
H  -8.37400 33.95400 38.64900
H  -4.72900 33.65500 39.81200
H  -4.85600 31.88700 39.28600
H  -5.10800 32.40600 40.97200
Mg 0.48700 43.73400 26.34700
C  2.91900 43.35100 28.94800
C  -1.94600 42.90500 28.68100
C  -1.59300 43.44300 23.88800
C  3.23200 43.94300 24.09800
N  0.58500 43.29300 28.56100
C  1.58500 43.23000 29.36900
C  1.14900 43.10400 30.88800
C  -0.24500 42.51400 30.65700
C  -0.58200 42.92800 29.23300
C  -0.21600 40.86500 30.78900
C  1.12500 44.49900 31.51300
C  1.47700 44.56300 32.99800
H  1.09600 43.43000 33.91700
N  -1.52900 43.35400 26.31800
C  -2.36900 43.06200 27.36700
C  -3.66300 43.05900 26.84700
C  -3.60700 43.07600 25.45300
C  -2.26000 43.30400 25.13700
C  -4.81600 43.13900 27.78200
C  -4.82000 42.98200 24.40100
O  -4.66000 43.32000 23.22800
C  -6.25700 42.75100 24.85500
N  0.79700 43.52400 24.31800
C  -0.26400 43.48800 23.48400
C  0.19200 43.22000 22.05000
C  1.70300 43.59000 22.08600
C  1.95600 43.61700 23.62200
C  -0.05700 41.74700 21.62100
C  1.94400 44.96300 21.44500
C  2.51500 44.95200 20.02000
N  2.66500 43.80000 26.48800
C  3.57500 43.96500 25.47600
C  4.94200 43.99200 26.00400
C  4.71300 43.88800 27.38300
C  3.39200 43.59400 27.58500
C  6.16700 43.99400 25.24700
C  5.31400 43.77600 28.73500
O  6.50100 43.82700 28.96900
C  4.24700 43.41700 29.82000
C  4.53700 42.20000 30.52400
O  4.46700 41.05800 30.06500
O  4.87700 42.53800 31.81100
C  5.30400 41.51600 32.71400
H  -2.74200 42.74100 29.41000
H  -2.31400 43.27700 23.08600
H  3.97800 44.07000 23.31000
H  1.87600 42.43900 31.35400
H  -0.95300 42.85600 31.41200
H  -0.80200 40.61400 31.67200
H  0.78300 40.43200 30.73800
H  -0.74600 40.41900 29.94700
H  0.19700 45.03800 31.32000
H  1.85400 45.03500 30.90500
H  1.04700 45.45700 33.45000
H  2.55000 44.73300 33.08800
H  -5.11600 42.14600 28.11600
H  -5.62300 43.64300 27.25000
H  -4.57800 43.68100 28.69700
H  -6.90400 42.47300 24.02300
H  -6.60600 43.75400 25.10000
H  -6.22400 41.90700 25.54500
H  -0.42500 43.85400 21.41200
H  2.42600 42.90400 21.64500
H  0.74200 41.08200 21.94800
H  -0.34200 41.59300 20.58100
H  -0.93300 41.35500 22.13800
H  2.69600 45.58200 21.93400
H  0.98600 45.46400 21.30600
H  1.74500 45.17200 19.28100
H  2.81500 43.94000 19.74700
H  3.31300 45.67500 19.84600
H  6.22400 44.96000 24.74600
H  6.15100 43.18600 24.51500
H  7.10500 44.03900 25.80200
H  4.12300 44.24200 30.52100
H  6.32100 41.12400 32.68300
H  4.67000 40.63300 32.63700
H  5.10600 41.99100 33.67500

