158

Mg 45.73000 4.72200 47.43300
C  43.52000 7.37400 46.58700
C  43.26300 2.42200 46.65000
C  48.05200 2.16300 47.74600
C  48.30700 7.01100 47.56200
N  43.60000 4.92700 46.85400
C  42.95700 6.06500 46.34700
C  41.47700 5.83700 45.95500
C  41.44200 4.25600 46.09400
C  42.88000 3.81500 46.52100
C  40.34900 3.72100 47.05000
C  41.39000 6.22200 44.40600
C  40.55500 7.45900 44.09600
H  41.11700 8.43600 43.02200
N  45.59400 2.53600 47.27300
C  44.51800 1.79400 46.93600
C  44.91500 0.39600 46.90300
C  46.35100 0.35500 47.17800
C  46.70700 1.75000 47.44400
C  43.93300 -0.66600 46.51900
C  47.14800 -0.97400 47.21200
O  46.58200 -2.04500 46.94100
C  48.68400 -1.02000 47.48600
N  47.79600 4.65500 47.76400
C  48.53900 3.48300 47.90400
C  50.02000 3.74800 48.09000
C  50.07400 5.26700 48.08600
C  48.63200 5.69800 47.75600
C  50.65800 3.16500 49.41600
C  51.13200 5.91900 47.12800
C  52.13200 6.90100 47.79300
N  45.94900 6.84900 47.24400
C  47.06000 7.58900 47.31000
C  46.68100 9.01200 47.21500
C  45.29300 8.96200 46.86800
C  44.84800 7.63700 46.91000
C  47.61500 10.17100 47.23800
C  44.14900 9.77400 46.54200
O  44.09800 10.93000 46.31700
C  42.97400 8.79900 46.37800
C  41.99600 9.16400 47.42700
O  41.72900 8.51800 48.38700
O  41.14500 10.11200 46.90000
C  39.87200 10.11500 47.54700
H  42.44300 1.70000 46.64200
H  48.84400 1.42400 47.88200
H  49.06500 7.79100 47.46900
H  40.78200 6.35000 46.61800
H  41.18400 3.83300 45.12300
H  39.42000 3.43400 46.55900
H  40.19000 4.56300 47.72400
H  40.65400 2.99800 47.80700
H  40.95000 5.39700 43.84600
H  42.38600 6.38400 43.99400
H  40.37200 8.05300 44.99100
H  39.58700 7.14200 43.70700
H  44.09100 -1.53900 47.15200
H  44.07500 -0.92800 45.47000
H  42.89100 -0.39400 46.68300
H  49.12100 -2.00200 47.30400
H  48.88100 -0.68700 48.50500
H  49.19700 -0.24900 46.91100
H  50.49900 3.32600 47.20700
H  50.13300 5.57600 49.13000
H  49.84100 2.60600 49.87300
H  51.06700 3.84000 50.16900
H  51.40800 2.51000 48.97300
H  50.73400 6.51700 46.30800
H  51.70400 5.14800 46.61300
H  53.08900 6.49000 47.47200
H  52.04200 7.01200 48.87300
H  51.98000 7.86300 47.30200
H  47.65500 10.53200 48.26600
H  47.26200 11.02600 46.66100
H  48.62300 9.88000 46.94400
H  42.65600 8.79000 45.33600
H  39.98500 10.69800 48.46100
H  39.51400 9.11900 47.81000
H  39.11400 10.58300 46.91900
Mg 48.42900 35.78600 28.83400
C  46.22100 34.07900 31.00200
C  48.39800 38.33900 31.03600
C  50.05800 37.62800 26.59500
C  47.76300 33.34100 26.40600
N  47.40600 36.10200 30.76300
C  46.60400 35.26600 31.48600
C  46.31200 35.85000 32.85400
C  46.62200 37.36200 32.65400
C  47.59300 37.27000 31.42400
C  45.49300 38.27500 32.24900
C  46.92100 35.05800 34.03500
C  48.15400 35.54600 34.75900
H  48.00800 36.46300 35.94200
N  49.23000 37.69200 28.86600
C  49.19600 38.56900 29.95100
C  49.99700 39.68900 29.58500
C  50.52000 39.49600 28.27600
C  49.92900 38.26800 27.79200
C  50.37400 40.74000 30.64300
C  51.41200 40.38300 27.40400
O  51.69900 40.09600 26.27300
C  51.97400 41.67900 28.00900
N  48.54800 35.56600 26.64000
C  49.42200 36.43200 26.09200
C  49.89200 35.93400 24.77400
C  49.33600 34.45700 24.73200
C  48.58200 34.41400 26.04300
C  49.45900 36.84900 23.58800
C  50.46400 33.31300 24.76500
C  50.79600 32.68100 23.37500
N  47.37800 34.02700 28.71400
C  47.15500 33.13200 27.63600
C  46.34000 32.10000 28.04500
C  45.91200 32.39800 29.34800
C  46.58600 33.59300 29.72200
C  46.06400 30.88800 27.27500
C  45.07500 31.99700 30.42400
O  44.33800 31.02600 30.56600
C  45.09900 33.13400 31.46100
C  45.09900 32.48400 32.80200
O  45.71800 31.47400 33.18600
O  44.05700 33.09900 33.47700
C  43.83900 32.67900 34.92100
H  48.47300 39.19000 31.71600
H  50.71600 38.12800 25.88000
H  47.84500 32.51300 25.69900
H  45.24400 35.88100 33.06700
H  47.14100 37.77300 33.51900
H  44.58400 37.72500 32.00200
H  45.74300 38.82300 31.34000
H  45.29800 39.06700 32.97200
H  47.13600 34.01300 33.80800
H  46.11300 35.00900 34.76400
H  48.73800 36.07200 34.00300
H  48.75700 34.73800 35.17200
H  51.46400 40.78200 30.63800
H  49.91200 40.57800 31.61700
H  49.85800 41.66200 30.37600
H  52.27400 41.46700 29.03500
H  51.07200 42.28300 28.10600
H  52.78200 42.09800 27.41100
H  50.97600 35.86800 24.67700
H  48.66200 34.39100 23.87800
H  49.05800 36.31700 22.72500
H  50.31200 37.39100 23.17900
H  48.62000 37.47200 23.90000
H  50.15200 32.53800 25.46400
H  51.42800 33.76500 24.99700
H  50.38000 33.18400 22.50200
H  50.33900 31.69200 23.32500
H  51.83400 32.64100 23.04400
H  45.29000 30.25800 27.71200
H  47.00400 30.35200 27.14500
H  45.85200 31.20300 26.25300
H  44.14300 33.63100 31.29500
H  42.75800 32.60700 35.03500
H  44.31200 33.45300 35.52500
H  44.29800 31.69900 35.05800

