158

Mg 8.87500 4.45000 27.61200
C  9.72000 2.74100 30.66100
C  6.71300 6.36500 29.56400
C  7.80900 5.88100 24.83300
C  10.49600 1.92200 25.85100
N  8.15700 4.40100 29.76300
C  8.74500 3.73400 30.86200
C  8.25800 4.27900 32.23000
C  7.10100 5.24500 31.77500
C  7.28200 5.28400 30.23100
C  5.71000 4.77600 32.25300
C  9.38300 4.94700 33.18200
C  9.58200 4.27700 34.55500
H  10.79200 4.61500 35.30300
N  7.58200 6.02200 27.26900
C  6.86500 6.73700 28.19300
C  6.17600 7.81600 27.54700
C  6.47700 7.68500 26.13400
C  7.33500 6.49500 26.04300
C  5.29900 8.85300 28.27400
C  5.91300 8.54600 24.98500
O  6.31400 8.33800 23.80200
C  4.90900 9.64400 25.26400
N  9.09200 3.87300 25.63000
C  8.55900 4.65100 24.62600
C  8.78700 4.05800 23.19000
C  9.53400 2.68400 23.56600
C  9.85400 2.86700 25.10500
C  7.51400 3.91900 22.42300
C  10.77100 2.33900 22.59000
C  10.89600 0.87900 22.24700
N  10.04000 2.83500 28.02900
C  10.57600 1.88100 27.25700
C  11.16000 0.84500 28.03000
C  10.98600 1.26000 29.35300
C  10.19100 2.38900 29.33600
C  11.90000 -0.42100 27.55200
C  11.18800 0.89700 30.72800
O  11.85900 -0.06500 31.16200
C  10.41300 1.93500 31.67500
C  9.67700 1.05100 32.55100
O  8.52200 0.72800 32.34800
O  10.47100 0.84000 33.66700
C  9.87300 0.18900 34.86100
H  6.01400 6.91100 30.20100
H  7.42600 6.26300 23.88500
H  10.97200 1.06800 25.36500
H  7.73400 3.50200 32.78600
H  7.19300 6.27900 32.10800
H  4.98400 4.60000 31.46000
H  5.36400 5.61200 32.86100
H  5.80800 3.94300 32.95000
H  9.30700 6.02700 33.30400
H  10.35100 4.77900 32.70900
H  9.62100 3.20500 34.36400
H  8.69700 4.55800 35.12600
H  5.64100 9.06600 29.28700
H  4.29900 8.44000 28.40700
H  5.24900 9.79600 27.73000
H  4.45300 9.91900 24.31300
H  5.37900 10.49400 25.76000
H  4.09800 9.33800 25.92500
H  9.60500 4.68900 22.84500
H  8.74900 1.92900 23.51900
H  7.36100 2.90300 22.05800
H  7.62800 4.56500 21.55200
H  6.58500 4.23100 22.90000
H  11.73200 2.73300 22.92100
H  10.48300 2.86700 21.68200
H  10.10500 0.20900 22.58400
H  11.76500 0.59800 22.84400
H  11.07900 0.83900 21.17400
H  12.95800 -0.18500 27.66600
H  11.71700 -0.81000 26.55000
H  11.57000 -1.19600 28.24300
H  11.07800 2.53900 32.29400
H  9.25400 -0.66400 34.58300
H  9.27800 0.91500 35.41600
H  10.61700 -0.17500 35.57000
Mg 9.42700 48.91700 24.76500
C  7.01600 49.63200 27.06200
C  11.84200 50.36100 26.97400
C  11.88700 48.13600 22.55200
C  7.01700 48.54000 22.35900
N  9.43000 49.81000 26.81400
C  8.25800 49.98800 27.61900
C  8.63900 50.56900 28.99100
C  10.16300 50.80700 28.89400
C  10.49400 50.35800 27.47600
C  10.62900 52.28300 29.29400
C  8.02100 49.85300 30.26100
C  8.86600 49.81600 31.61600
H  9.12500 48.38100 32.29500
N  11.61500 49.18500 24.79700
C  12.37600 49.76500 25.76500
C  13.79500 49.61600 25.36100
C  13.75500 48.84200 24.10300
C  12.36300 48.60900 23.81900
C  14.94000 49.97000 26.20300
C  14.93900 48.39300 23.25200
O  14.70300 47.74800 22.25300
C  16.36100 48.63600 23.63600
N  9.50100 48.43400 22.74000
C  10.60900 48.06100 22.06000
C  10.18000 47.65400 20.63700
C  8.65100 48.10400 20.51800
C  8.36200 48.30400 21.96600
C  11.03700 48.05800 19.42800
C  7.80800 47.07600 19.82900
C  7.34700 47.37500 18.41000
N  7.38000 48.92800 24.66400
C  6.51300 48.82700 23.58600
C  5.17400 48.86100 24.08800
C  5.35900 49.14300 25.44600
C  6.70500 49.28300 25.72700
C  3.87800 48.55600 23.31800
C  4.60100 49.37400 26.69600
O  3.42500 49.29500 27.01400
C  5.63400 49.79700 27.79600
C  5.50900 48.83200 28.86400
O  5.88900 47.65300 28.77500
O  4.87700 49.39900 29.96900
C  4.54100 48.37800 30.96300
H  12.56200 50.91800 27.57700
H  12.54600 47.90200 21.71400
H  6.21700 48.54500 21.61500
H  8.19700 51.56300 29.05700
H  10.64900 50.07900 29.54300
H  11.44100 52.08000 29.99300
H  9.73300 52.80100 29.63500
H  11.19000 52.76600 28.49400
H  7.75500 48.85100 29.92400
H  7.19500 50.52300 30.50000
H  8.27700 50.26000 32.41900
H  9.81900 50.34400 31.57900
H  14.68800 50.38200 27.18100
H  15.57800 50.73300 25.75700
H  15.51900 49.07400 26.42300
H  16.60500 48.34400 24.65700
H  16.56900 49.69000 23.45200
H  17.05700 48.09000 22.99900
H  10.16200 46.57800 20.80900
H  8.62000 49.08800 20.05000
H  12.02400 48.39800 19.74000
H  10.60700 48.86200 18.82900
H  11.14500 47.18600 18.78300
H  7.01200 46.78300 20.51300
H  8.42100 46.22200 19.54000
H  7.00500 48.40900 18.45200
H  6.58400 46.63700 18.16200
H  8.10100 47.41000 17.62400
H  3.55000 47.55000 23.58100
H  4.00500 48.64300 22.23900
H  3.16500 49.35200 23.53300
H  5.45700 50.81600 28.14200
H  3.88100 47.62900 30.52600
H  4.02200 48.94300 31.73700
H  5.45900 47.93600 31.35100

