158

Mg 54.65100 24.22800 44.89900
C  52.00800 26.46500 43.87000
C  52.50200 21.58500 44.16600
C  57.37000 22.24500 44.61700
C  56.76400 27.03100 45.30700
N  52.51500 24.10100 43.98500
C  51.65300 25.13600 43.63200
C  50.31800 24.49000 43.07000
C  50.34600 23.03200 43.71500
C  51.84500 22.87500 44.02000
C  49.46900 22.86700 45.00000
C  50.19800 24.63100 41.57400
C  48.76900 24.59100 41.02400
H  48.64000 23.87400 39.63200
N  54.91700 22.21500 44.50600
C  53.92700 21.25500 44.35600
C  54.48600 19.95900 44.31700
C  55.86300 20.14200 44.29700
C  56.09800 21.55800 44.43400
C  53.75100 18.72500 43.90700
C  56.92500 19.04300 44.02800
O  56.58100 17.86300 44.02800
C  58.37900 19.30300 43.61700
N  56.78100 24.63000 44.77200
C  57.60700 23.61000 44.79400
C  59.07100 24.01700 45.18500
C  58.84400 25.56800 45.37600
C  57.39000 25.79400 45.13000
C  59.67800 23.28000 46.38800
C  59.72200 26.47100 44.30100
C  60.59200 27.63800 44.87400
N  54.42700 26.31300 44.84400
C  55.39900 27.30400 45.07100
C  54.72400 28.52500 45.04800
C  53.41400 28.28500 44.57700
C  53.27800 26.90800 44.46200
C  55.30000 29.82000 45.41400
C  52.14600 28.86800 44.18400
O  51.83900 30.03500 44.10300
C  51.19900 27.74400 43.58000
C  51.02700 28.04600 42.17300
O  51.91800 28.01700 41.33200
O  49.68200 28.25200 41.92500
C  49.37500 28.49000 40.50600
H  51.81800 20.77900 43.89400
H  58.35400 21.77500 44.67800
H  57.45400 27.83500 45.57000
H  49.53800 25.09100 43.53700
H  50.07400 22.33900 42.92000
H  50.01800 22.54500 45.88500
H  48.72700 22.10800 44.75200
H  48.90000 23.77700 45.18900
H  50.79800 23.81400 41.17500
H  50.59400 25.59800 41.26300
H  48.50300 25.64600 40.96200
H  48.15300 24.09700 41.77600
H  53.88800 18.68800 42.82700
H  52.66900 18.78000 44.01900
H  54.19000 17.85700 44.39900
H  58.59600 18.57100 42.84000
H  58.97800 19.35900 44.52600
H  58.36600 20.20300 43.00200
H  59.64600 23.79300 44.28700
H  58.98800 25.86600 46.41500
H  59.01200 22.57700 46.88800
H  60.11600 23.96300 47.11600
H  60.55700 22.74200 46.03400
H  59.03100 26.89000 43.56900
H  60.37800 25.79400 43.75400
H  60.12200 28.61900 44.80200
H  61.55900 27.72600 44.37900
H  60.86200 27.59300 45.92900
H  55.68600 29.81600 46.43300
H  54.46000 30.51300 45.44600
H  56.07800 30.15400 44.72800
H  50.33400 27.77300 44.24200
H  49.14700 29.52200 40.23900
H  48.37900 28.07100 40.36600
H  50.12700 28.19300 39.77500
Mg -11.86000 15.64300 41.25100
C  -8.74700 13.99200 40.86900
C  -10.27400 18.33700 39.77200
C  -14.77200 17.04900 40.98200
C  -13.21600 12.57100 42.07500
N  -9.69800 16.10000 40.65600
C  -8.59600 15.27900 40.46400
C  -7.40800 15.95300 39.86400
C  -7.87900 17.44500 39.89300
C  -9.40300 17.34300 40.13900
C  -7.11100 18.23100 41.07900
C  -7.11900 15.44100 38.42100
C  -5.64700 15.28900 38.04100
H  -5.23500 15.89500 36.68100
N  -12.42900 17.53900 40.64100
C  -11.64500 18.43900 40.00300
C  -12.46800 19.57800 39.70000
C  -13.80400 19.28100 40.10700
C  -13.72300 17.92100 40.68100
C  -11.89100 20.84600 39.02100
C  -15.00100 20.17800 39.91600
O  -15.00000 21.25200 39.37500
C  -16.36000 19.71400 40.39200
N  -13.71400 14.93200 41.39100
C  -14.77300 15.70500 41.31100
C  -16.11400 14.87400 41.37900
C  -15.58700 13.43200 41.79200
C  -14.07000 13.64000 41.73600
C  -17.24000 15.38700 42.27600
C  -16.03600 12.31300 40.88400
C  -17.06200 11.33200 41.39300
N  -11.11200 13.68600 41.67900
C  -11.78900 12.50800 41.95100
C  -10.87400 11.40200 42.08700
C  -9.69200 11.98700 41.63500
C  -9.89900 13.35200 41.36000
C  -11.23600 10.02300 42.52500
C  -8.25200 11.72200 41.38300
O  -7.62100 10.69200 41.47100
C  -7.62000 12.97300 40.85700
C  -6.54500 13.37700 41.85500
O  -6.67700 13.81900 42.94800
O  -5.32700 12.99300 41.35600
C  -4.18900 13.23900 42.25600
H  -9.79800 19.23300 39.36800
H  -15.78500 17.45800 40.97600
H  -13.79900 11.73000 42.45700
H  -6.55100 15.92800 40.53700
H  -7.60700 17.99700 38.99400
H  -6.51500 17.51700 41.64800
H  -7.80600 18.67900 41.78900
H  -6.51400 19.08400 40.75800
H  -7.60900 16.19000 37.79900
H  -7.66400 14.52000 38.21200
H  -5.43900 14.22200 38.11900
H  -5.02100 15.79900 38.77300
H  -12.58600 21.33100 38.33500
H  -11.05200 20.49500 38.42000
H  -11.56600 21.56000 39.77700
H  -16.79300 18.99300 39.70000
H  -16.95400 20.62800 40.39700
H  -16.20300 19.31800 41.39500
H  -16.47200 14.87000 40.34900
H  -15.87000 13.21900 42.82300
H  -16.94600 16.29300 42.80600
H  -17.51900 14.55300 42.92000
H  -18.05400 15.65800 41.60300
H  -15.21300 11.83700 40.35100
H  -16.58600 12.68900 40.02100
H  -17.52400 11.79400 42.26600
H  -16.56300 10.39600 41.64500
H  -17.82000 11.00600 40.68200
H  -10.34100 9.43200 42.71800
H  -11.87900 9.60600 41.75000
H  -11.80600 10.18900 43.44000
H  -7.20900 12.71000 39.88200
H  -4.30100 12.72100 43.20900
H  -4.26700 14.30900 42.44900
H  -3.24200 12.92300 41.82000

