158

Mg -0.23700 7.04100 25.97100
C  0.68300 8.88800 28.87600
C  -0.74000 4.25800 27.95600
C  -0.69300 5.25200 23.26100
C  0.08600 9.87700 24.17500
N  -0.08300 6.62200 28.16500
C  0.33900 7.50200 29.09000
C  0.22000 6.78500 30.56400
C  -0.21000 5.32400 30.20100
C  -0.37100 5.42400 28.66600
C  0.68600 4.19100 30.74700
C  -0.71300 7.54800 31.56500
C  -0.14400 7.80600 32.96500
H  1.04800 6.97500 33.53200
N  -0.57300 5.03200 25.65200
C  -0.78100 4.03100 26.56700
C  -1.06900 2.72700 25.88500
C  -0.90300 3.03800 24.48100
C  -0.70300 4.46900 24.40900
C  -1.26700 1.38600 26.61800
C  -0.89200 2.08400 23.27300
O  -0.68800 2.47200 22.12100
C  -1.02600 0.48900 23.46500
N  -0.32900 7.53600 24.00400
C  -0.44700 6.61000 23.06300
C  -0.38600 7.20400 21.64100
C  -0.52300 8.72700 21.97100
C  -0.28700 8.70100 23.48000
C  0.93400 6.90700 20.89400
C  -1.89400 9.38000 21.65500
C  -1.78700 10.82800 21.14000
N  0.39600 8.95000 26.29400
C  0.48500 10.00700 25.52400
C  1.01200 11.15000 26.17900
C  1.15200 10.76200 27.48600
C  0.72500 9.43000 27.56200
C  1.30900 12.51300 25.57400
C  1.49300 11.22200 28.77200
O  1.87800 12.32300 29.20400
C  1.18100 10.02000 29.75600
C  2.43100 9.46700 30.40700
O  3.18200 8.56600 30.05500
O  2.76400 10.33200 31.41900
C  3.93000 10.08800 32.24200
H  -1.11600 3.39000 28.50200
H  -0.95000 4.77200 22.31400
H  0.15600 10.77900 23.56300
H  1.23300 6.66500 30.94800
H  -1.22900 5.16500 30.55400
H  0.13200 3.54100 31.42500
H  1.56400 4.53900 31.29100
H  0.88100 3.65200 29.82000
H  -1.60600 6.94300 31.72500
H  -0.94800 8.52000 31.13300
H  -1.01800 7.59200 33.58000
H  0.10800 8.82800 33.24700
H  -2.33200 1.18200 26.73200
H  -0.82300 1.38100 27.61300
H  -0.78700 0.62200 26.00600
H  -1.18800 0.06100 22.47500
H  -1.92300 0.13700 23.97600
H  -0.15300 0.02300 23.92100
H  -1.19500 6.75100 21.06900
H  0.32400 9.21200 21.48700
H  0.64500 6.15900 20.15500
H  1.67600 6.59100 21.62800
H  1.35500 7.75400 20.35200
H  -2.54500 9.39000 22.53000
H  -2.35600 8.76900 20.88000
H  -0.73900 11.12100 21.09300
H  -2.28500 11.50500 21.83500
H  -2.23900 10.82100 20.14900
H  2.26600 12.91400 25.90600
H  0.46000 13.19200 25.65800
H  1.30400 12.28700 24.50800
H  0.59600 10.24100 30.64900
H  4.44800 10.99100 32.56400
H  4.64800 9.57100 31.60600
H  3.72200 9.30500 32.97100
Mg 42.96800 42.80400 26.19900
C  41.88600 45.01400 28.68300
C  44.11500 40.65200 28.74600
C  44.31900 40.92100 23.84800
C  42.34300 45.33400 23.83600
N  42.98900 42.85200 28.44300
C  42.43100 43.80900 29.27900
C  42.41900 43.34100 30.79000
C  43.46200 42.18100 30.78900
C  43.63600 41.90400 29.24000
C  44.81000 42.36800 31.57900
C  40.97500 43.07400 31.27700
C  40.42300 43.69500 32.56200
H  41.38500 43.92800 33.69100
N  43.86100 40.97700 26.31400
C  44.31300 40.29100 27.40500
C  44.99500 39.11800 26.93500
C  44.91800 39.10700 25.56200
C  44.33000 40.35900 25.20300
C  45.64100 38.08800 27.88200
C  45.39500 38.02600 24.58400
O  44.94100 37.96100 23.48600
C  46.37400 37.01300 24.94700
N  43.38000 43.20100 24.13100
C  43.84800 42.18200 23.37500
C  43.72900 42.49200 21.93700
C  43.04700 43.89400 21.85100
C  42.84600 44.17000 23.33700
C  45.08200 42.28200 21.17200
C  41.74000 43.99300 20.96300
C  40.54100 43.20700 21.52900
N  42.23500 44.72500 26.21300
C  42.03100 45.61500 25.15900
C  41.56200 46.89600 25.68900
C  41.38100 46.67600 27.06500
C  41.88900 45.34200 27.36500
C  41.39700 48.13600 24.86500
C  40.94900 47.22900 28.31900
O  40.44200 48.30300 28.58400
C  41.20500 46.14100 29.43400
C  42.14200 46.75300 30.44700
O  43.19500 47.35400 30.20700
O  41.55800 46.71600 31.66400
C  42.00000 47.94300 32.43200
H  44.35300 39.99900 29.58800
H  44.65700 40.15600 23.14600
H  41.88500 46.01500 23.11500
H  42.84200 44.08000 31.47000
H  42.84600 41.32200 31.05400
H  45.60900 42.29700 30.84100
H  44.88900 41.69300 32.43100
H  44.76900 43.33300 32.08400
H  40.93100 41.98700 31.35300
H  40.25400 43.27300 30.48400
H  39.73000 42.92700 32.90700
H  39.84600 44.59700 32.35900
H  45.55900 38.49600 28.89000
H  46.66900 37.77200 27.70800
H  45.11700 37.13300 27.85200
H  47.17200 37.60700 25.39300
H  46.66200 36.61300 23.97500
H  46.00400 36.24000 25.61900
H  43.06200 41.76900 21.46800
H  43.73900 44.61400 21.41600
H  46.05700 42.39700 21.64500
H  45.27200 43.04500 20.41700
H  45.07200 41.30300 20.69400
H  41.97200 43.88700 19.90300
H  41.38900 45.00500 21.16600
H  39.79600 43.96800 21.76200
H  40.92700 42.69200 22.40900
H  40.11600 42.48600 20.83100
H  42.40300 48.52900 24.71300
H  40.77800 48.77700 25.49200
H  40.84100 47.85500 23.97100
H  40.25100 45.93200 29.91600
H  41.53800 47.91800 33.41900
H  41.71900 48.90700 32.01000
H  43.08800 47.99300 32.46600

