158

Mg 35.41400 2.99000 29.82700
C  33.12100 3.73000 32.30700
C  37.91100 2.94500 32.12300
C  37.62300 2.65000 27.21700
C  32.82700 3.07400 27.45900
N  35.58300 3.34500 31.94600
C  34.47100 3.57400 32.72700
C  34.89500 3.59000 34.16500
C  36.44900 3.69100 34.05200
C  36.72100 3.37200 32.60800
C  37.06000 5.00700 34.45700
C  34.35400 2.29600 34.99500
C  34.06700 2.34500 36.48100
H  34.70300 3.42400 37.29200
N  37.43800 2.84300 29.67800
C  38.34600 2.84600 30.69700
C  39.67100 2.71100 30.23100
C  39.59900 2.55300 28.79100
C  38.17000 2.66800 28.47700
C  40.83800 2.76000 31.14800
C  40.76700 2.25000 27.72200
O  40.66500 2.19300 26.49000
C  42.24500 2.25900 28.23900
N  35.27700 2.94400 27.67500
C  36.26700 2.70000 26.81600
C  35.76600 2.35900 25.46700
C  34.29700 2.60300 25.53100
C  34.07500 2.88200 27.00800
C  36.52700 3.06100 24.24300
C  33.34600 1.53200 24.91900
C  33.29000 0.05800 25.48500
N  33.37400 3.25600 29.82800
C  32.43100 3.32200 28.77800
C  31.09900 3.67500 29.32200
C  31.33900 3.80400 30.70500
C  32.72600 3.62700 30.95300
C  29.77000 3.84200 28.77100
C  30.69700 4.01300 32.00100
O  29.57400 4.39900 32.32700
C  31.87900 3.96900 33.07000
C  31.86700 5.18900 33.91000
O  31.94800 6.31700 33.46700
O  31.63100 4.82200 35.24200
C  31.64600 5.90500 36.27900
H  38.73900 2.88600 32.83300
H  38.35000 2.53800 26.41000
H  32.02700 3.20400 26.72700
H  34.54200 4.55900 34.52000
H  36.94800 2.98200 34.71200
H  37.71000 5.35200 33.65300
H  37.73200 5.05400 35.31400
H  36.29900 5.78100 34.55500
H  35.03700 1.45600 34.87300
H  33.42000 1.95900 34.54700
H  34.31600 1.35900 36.87200
H  32.99700 2.38500 36.68600
H  41.30600 1.78200 31.26600
H  40.55800 3.28600 32.06000
H  41.58300 3.32000 30.58100
H  42.41400 3.27600 28.59400
H  42.89700 1.97400 27.41400
H  42.41000 1.42600 28.92200
H  35.78300 1.27100 25.39600
H  34.00900 3.51800 25.01300
H  35.81000 3.40000 23.49600
H  37.19800 2.38600 23.71200
H  37.11100 3.94400 24.50100
H  33.55600 1.51200 23.84900
H  32.33400 1.93500 24.91200
H  33.71400 -0.53600 24.67600
H  32.31900 -0.36400 25.74600
H  33.95800 -0.01500 26.34300
H  29.88700 4.29900 27.78800
H  29.14200 4.49000 29.38200
H  29.22600 2.90000 28.69300
H  31.63200 3.09700 33.67500
H  30.68200 6.41000 36.22700
H  32.35700 6.67700 35.98700
H  31.82500 5.45500 37.25500
Mg 46.89400 17.14000 28.26100
C  44.86400 16.75000 31.24600
C  48.93000 19.16200 30.10800
C  48.47500 17.86100 25.38800
C  44.29800 15.48700 26.44000
N  46.92700 17.82800 30.45700
C  46.09800 17.51400 31.49200
C  46.60200 17.99800 32.85300
C  47.82100 18.93000 32.43800
C  47.90100 18.63800 30.91300
C  47.67400 20.47000 32.71500
C  46.93900 16.78900 33.74400
C  46.26400 16.64500 35.07300
H  46.02900 18.02700 35.81400
N  48.55000 18.27900 27.78600
C  49.24800 19.06300 28.70900
C  50.30400 19.77500 27.92400
C  50.15600 19.41200 26.59300
C  49.11300 18.42700 26.54600
C  51.18200 20.74600 28.56300
C  50.85700 19.87300 25.28800
O  50.65500 19.39400 24.20300
C  51.93600 21.01900 25.32200
N  46.59400 16.56300 26.25300
C  47.36400 17.01700 25.25000
C  46.76500 16.72900 23.83600
C  45.36600 16.14400 24.21400
C  45.44100 15.93900 25.72900
C  46.60200 18.04900 22.99500
C  45.00400 14.86800 23.48300
C  44.85400 14.93100 22.00100
N  45.00200 16.37600 28.65000
C  44.10400 15.63600 27.85600
C  42.94900 15.26200 28.62300
C  43.25700 15.61900 29.94800
C  44.46600 16.33300 29.95600
C  41.78200 14.46600 28.02500
C  42.77700 15.47900 31.29800
O  41.77300 14.90500 31.78800
C  43.78300 16.32600 32.17200
C  43.08000 17.47900 32.71500
O  43.13200 18.63100 32.30100
O  42.60700 17.09400 33.96300
C  42.14600 18.17000 34.86500
H  49.63200 19.64200 30.79300
H  48.76300 18.19100 24.38800
H  43.43100 15.14400 25.87200
H  45.79900 18.63300 33.22700
H  48.72700 18.67900 32.98900
H  46.60500 20.66400 32.79300
H  48.16700 21.14800 32.01800
H  48.25000 20.72000 33.60600
H  48.01200 16.71500 33.92200
H  46.66700 15.84600 33.27000
H  46.83900 16.02800 35.76400
H  45.31100 16.12500 34.97100
H  50.83800 21.19300 29.49500
H  51.25800 21.59400 27.88300
H  52.13600 20.25200 28.75100
H  51.63500 21.97100 25.75900
H  52.14700 21.38800 24.31900
H  52.83400 20.69600 25.85000
H  47.27700 15.86500 23.41500
H  44.61800 16.93300 24.13900
H  47.08500 17.88400 22.03100
H  47.00200 18.86900 23.59200
H  45.56700 18.32100 22.78800
H  44.00800 14.58600 23.82300
H  45.71600 14.06900 23.69000
H  45.77800 14.51800 21.59500
H  44.81500 15.97900 21.70500
H  43.90400 14.55100 21.62500
H  41.99500 13.40100 28.11200
H  41.67200 14.69500 26.96500
H  40.85800 14.66700 28.56700
H  44.12100 15.62200 32.93300
H  41.14900 18.50600 34.58000
H  42.77600 19.05800 34.82500
H  42.07100 17.74000 35.86400

