158

Mg 44.61200 4.75900 46.65900
C  42.84300 7.88300 46.75600
C  41.68700 3.28800 45.69300
C  46.32900 2.12200 45.64500
C  47.55400 6.61400 47.09800
N  42.50300 5.52200 46.27400
C  41.97600 6.76300 46.45500
C  40.47900 6.83800 46.12600
C  40.15300 5.31500 45.94100
C  41.55300 4.62600 46.02000
C  39.18700 4.77800 47.05900
C  40.28400 7.68100 44.78100
C  41.42500 7.47500 43.70200
H  40.88500 7.41300 42.23400
N  44.09700 2.94400 45.80500
C  42.80600 2.45400 45.54000
C  42.88600 1.06100 45.13000
C  44.24100 0.76900 45.09600
C  44.94900 1.94400 45.56000
C  41.70900 0.26100 44.73500
C  44.80900 -0.57700 44.69200
O  44.05300 -1.38700 44.24100
C  46.28000 -0.82100 44.55200
N  46.60100 4.51300 46.29400
C  47.03800 3.25900 46.07900
C  48.59600 3.08800 46.16100
C  49.06000 4.42900 46.65700
C  47.69000 5.29000 46.65200
C  49.13000 1.88500 46.97000
C  50.35200 5.02700 45.93600
C  51.70200 4.83600 46.68900
N  45.10100 6.82100 47.17200
C  46.35500 7.38200 47.22300
C  46.19200 8.82900 47.40100
C  44.81400 9.04500 47.35100
C  44.21700 7.76600 47.04500
C  47.31900 9.81600 47.59800
C  43.86200 10.07800 47.24400
O  43.92700 11.28800 47.33200
C  42.58100 9.37300 47.00800
C  41.86200 9.58900 48.30300
O  41.95500 8.87600 49.29200
O  41.02700 10.59900 48.18700
C  40.34700 10.89400 49.38500
H  40.76500 2.89000 45.26500
H  46.99400 1.26300 45.53300
H  48.52300 7.04100 47.36200
H  39.97500 7.32200 46.96200
H  39.72700 5.05100 44.97300
H  39.73600 4.33000 47.88700
H  38.48200 4.03300 46.69300
H  38.56900 5.59300 47.43600
H  40.54300 8.68800 45.10600
H  39.30800 7.59800 44.30400
H  42.04400 6.58600 43.82400
H  42.15800 8.28200 43.69200
H  41.70600 0.11500 43.65500
H  40.78500 0.73100 45.07300
H  41.64800 -0.68100 45.27900
H  46.28300 -1.78600 44.04600
H  46.86500 -0.84200 45.47200
H  46.62000 -0.02000 43.89500
H  49.00600 2.98100 45.15700
H  49.44300 4.32600 47.67300
H  48.31500 1.36500 47.47300
H  49.89500 2.06400 47.72500
H  49.65800 1.09600 46.43500
H  50.24000 6.10000 45.78100
H  50.48400 4.69600 44.90600
H  52.41200 4.51600 45.92600
H  51.66900 4.14700 47.53300
H  52.12000 5.81700 46.91700
H  46.79900 10.75800 47.42300
H  48.07000 9.61400 46.83300
H  47.70500 9.96000 48.60700
H  41.99800 9.83700 46.21300
H  39.49700 11.53600 49.15200
H  40.80300 11.51900 50.15300
H  39.92000 10.02400 49.88500
Mg 6.76200 52.82100 40.98700
C  6.05100 49.31900 41.03300
C  9.79900 52.24600 39.58600
C  7.14200 56.06200 40.53200
C  3.46900 53.32000 42.10000
N  7.70100 50.98500 40.31500
C  7.28500 49.66100 40.50400
C  8.41800 48.68900 39.91300
C  9.62200 49.60600 39.75800
C  9.03700 51.06100 39.91300
C  10.79700 49.46500 40.82000
C  7.99600 47.97300 38.63600
C  7.16200 48.73600 37.58400
H  7.83000 49.35600 36.32200
N  8.29500 53.97400 40.21300
C  9.48800 53.56600 39.72200
C  10.39800 54.67500 39.45600
C  9.70700 55.87200 39.73400
C  8.28100 55.38700 40.13500
C  11.85500 54.48600 39.01300
C  10.23700 57.24200 39.50500
O  11.40700 57.50600 39.06100
C  9.34200 58.46400 39.76700
N  5.45100 54.33600 40.97700
C  5.88400 55.65400 40.83400
C  4.85800 56.68100 41.24500
C  3.68500 55.77200 41.73000
C  4.20900 54.34300 41.50400
C  5.27300 57.75100 42.29300
C  2.39000 56.10900 40.99800
C  1.07600 55.69300 41.68600
N  5.03600 51.64600 41.45500
C  3.84700 52.01000 42.10000
C  3.12300 50.85900 42.63600
C  3.94700 49.77600 42.16200
C  5.04500 50.36500 41.43100
C  1.79400 50.85100 43.38600
C  4.08700 48.32600 42.15000
O  3.28800 47.48900 42.54600
C  5.42900 48.01700 41.47600
C  5.06400 47.18400 40.31000
O  4.59100 47.53700 39.19700
O  5.44500 45.91200 40.57100
C  5.32800 44.98000 39.41500
H  10.78100 51.92300 39.23300
H  7.27200 57.13700 40.39200
H  2.51200 53.42900 42.61500
H  8.58800 48.02700 40.76200
H  10.18600 49.54400 38.82800
H  10.92100 50.34800 41.44600
H  11.75100 49.22500 40.35100
H  10.60100 48.70700 41.57900
H  7.58900 46.99200 38.88200
H  8.98000 47.79000 38.20400
H  6.56800 49.54700 38.00600
H  6.55400 47.91700 37.20000
H  12.05700 55.06900 38.11400
H  12.21500 53.47400 38.82800
H  12.36600 54.86200 39.89900
H  9.84800 59.39000 39.49500
H  9.03900 58.38200 40.81100
H  8.51700 58.28600 39.07700
H  4.54400 57.33400 40.43000
H  3.55800 55.82500 42.81100
H  6.30200 57.61800 42.62700
H  4.66100 57.77800 43.19400
H  5.25700 58.70400 41.76400
H  2.27100 55.77200 39.96900
H  2.23600 57.16500 40.77900
H  1.13200 55.63900 42.77300
H  0.89900 54.69700 41.28000
H  0.28700 56.42100 41.49800
H  1.02200 50.63000 42.64900
H  1.69600 51.84600 43.81900
H  1.92500 50.19700 44.24800
H  6.10200 47.54300 42.19000
H  6.14800 45.03800 38.70000
H  4.43100 45.13400 38.81600
H  5.29300 43.97500 39.83400

