158

Mg 0.96100 6.86400 26.20300
C  1.99000 9.37600 28.66500
C  1.00000 4.61200 28.71000
C  0.24000 4.77300 23.92400
C  1.68000 9.47400 23.76400
N  1.44700 7.04100 28.45200
C  1.75000 8.07800 29.25300
C  1.56200 7.76000 30.68500
C  1.52300 6.19000 30.66500
C  1.31600 5.91400 29.17400
C  2.79000 5.46200 31.18200
C  0.28000 8.49900 31.41000
C  0.45400 8.72700 32.97000
H  1.75500 8.36900 33.72600
N  0.63300 4.96900 26.28300
C  0.74600 4.11100 27.38300
C  0.37600 2.72100 26.99900
C  0.01500 2.78900 25.60900
C  0.38500 4.17100 25.18000
C  0.19000 1.58100 28.06000
C  -0.50200 1.66300 24.71300
O  -0.95200 1.86600 23.61500
C  -0.52700 0.23800 25.26100
N  1.32200 7.00200 23.97000
C  0.65500 6.00100 23.33300
C  0.07400 6.48300 21.95000
C  0.58400 8.00400 21.88800
C  1.17500 8.24200 23.30900
C  0.45100 5.61200 20.72800
C  -0.43400 9.08100 21.49600
C  -0.05200 10.27500 20.62200
N  1.72100 9.00700 26.14500
C  1.92200 9.88700 25.08700
C  2.42300 11.10200 25.57300
C  2.38100 10.96100 26.93700
C  2.00200 9.66100 27.24900
C  3.08100 12.22800 24.72800
C  2.64300 11.71100 28.14200
O  3.00300 12.87700 28.25700
C  2.25300 10.76700 29.33100
C  3.40100 10.61900 30.20200
O  4.45700 10.08500 29.86200
O  3.14100 11.28600 31.40700
C  4.27400 11.50900 32.29900
H  0.99200 3.84300 29.48500
H  -0.09900 4.04400 23.18600
H  1.66100 10.28200 23.02900
H  2.40500 8.19900 31.21800
H  0.64700 5.92200 31.25700
H  2.52700 4.82600 32.02700
H  3.59000 6.14800 31.45900
H  3.08900 4.77200 30.39300
H  -0.62500 7.89500 31.47000
H  0.11900 9.46100 30.92500
H  -0.35500 8.17500 33.44900
H  0.20800 9.74300 33.28100
H  0.57300 0.61600 27.72900
H  -0.87900 1.50800 28.25900
H  0.56500 2.04300 28.97300
H  -0.96100 0.05600 26.24400
H  0.52700 0.04600 25.46300
H  -0.75200 -0.54900 24.54200
H  -1.01400 6.42300 21.97800
H  1.45000 8.04100 21.22700
H  0.98500 4.69500 20.97900
H  1.21900 6.11000 20.13700
H  -0.35300 5.36500 20.03500
H  -0.71700 9.45400 22.48100
H  -1.26300 8.64600 20.93900
H  -0.91100 10.75200 20.14900
H  0.63000 10.00800 19.81500
H  0.23400 11.07700 21.30300
H  2.38400 12.71900 24.04900
H  3.77600 11.77200 24.02200
H  3.47900 13.05500 25.31600
H  1.39600 11.03400 29.94900
H  4.83100 12.39500 31.99300
H  4.91900 10.65200 32.49200
H  3.83700 11.81400 33.25000
Mg -5.26800 25.21700 25.96100
C  -3.67600 26.53300 28.85200
C  -6.90300 23.02700 28.06200
C  -6.42300 23.68600 23.20200
C  -3.09200 27.12200 23.98300
N  -5.23600 24.78000 28.17300
C  -4.79000 25.71800 29.11200
C  -5.46900 25.53300 30.47800
C  -6.03900 24.04400 30.23300
C  -6.10200 23.91200 28.72400
C  -5.23600 22.92500 30.97400
C  -6.34300 26.74800 31.02100
C  -5.85500 27.33200 32.37600
H  -5.60000 26.29600 33.52300
N  -6.63100 23.64500 25.66000
C  -7.21300 22.86400 26.67200
C  -8.17900 21.96000 26.00000
C  -7.96400 22.08000 24.65400
C  -7.01700 23.14600 24.46800
C  -9.01900 20.96300 26.74100
C  -8.76700 21.40400 23.50400
O  -8.73300 21.80600 22.35400
C  -9.78200 20.36000 23.78300
N  -4.76900 25.34800 23.92900
C  -5.46200 24.67800 23.01200
C  -5.04600 25.12500 21.67800
C  -4.35000 26.49700 21.91000
C  -4.07600 26.29200 23.37000
C  -4.29200 24.04600 20.88700
C  -5.18100 27.70200 21.57800
C  -4.77200 28.45300 20.31800
N  -3.65000 26.55000 26.27900
C  -2.90100 27.31300 25.42500
C  -1.98300 28.12100 26.14900
C  -2.24100 27.88300 27.50900
C  -3.24000 26.87000 27.53800
C  -0.93500 28.99700 25.53500
C  -1.91300 28.23300 28.90500
O  -1.03300 28.96700 29.27100
C  -2.91400 27.41200 29.82800
C  -1.98200 26.55100 30.65300
O  -1.09600 25.73100 30.27500
O  -2.08000 27.02600 31.94700
C  -1.11200 26.48200 32.89300
H  -7.31600 22.27200 28.73400
H  -6.75400 23.18900 22.28800
H  -2.55700 27.73800 23.25700
H  -4.61600 25.39500 31.14300
H  -7.01200 23.87600 30.69500
H  -4.58500 23.34600 31.74000
H  -4.50800 22.48700 30.29100
H  -5.84500 22.17400 31.47800
H  -7.38900 26.51800 31.22300
H  -6.13900 27.53700 30.29700
H  -6.44900 28.15100 32.78200
H  -4.81000 27.60100 32.22300
H  -8.90700 21.08700 27.81800
H  -8.67400 19.94500 26.55800
H  -10.08700 21.12900 26.60100
H  -9.98900 19.79800 22.87300
H  -10.71400 20.79500 24.14500
H  -9.38200 19.55100 24.39400
H  -5.93500 25.35100 21.08900
H  -3.42600 26.51000 21.33100
H  -5.00500 23.49900 20.27000
H  -3.92700 23.24500 21.53000
H  -3.43900 24.30200 20.25900
H  -5.05400 28.42900 22.38000
H  -6.24200 27.47100 21.48800
H  -3.91700 29.09300 20.53700
H  -5.59200 29.01600 19.87200
H  -4.35800 27.92800 19.45800
H  -0.19000 29.34900 26.24900
H  -1.59100 29.80100 25.20200
H  -0.50500 28.54400 24.64100
H  -3.52500 28.08400 30.43200
H  -0.97700 27.19200 33.70900
H  -0.15900 26.24500 32.41900
H  -1.57600 25.57500 33.28000

