158

Mg 54.64600 23.98900 44.95300
C  52.13600 26.14900 43.89600
C  52.71800 21.28200 43.93600
C  57.51200 22.01200 44.95700
C  56.72000 26.71600 45.61900
N  52.61500 23.79100 44.10900
C  51.81700 24.82300 43.67700
C  50.45100 24.27400 43.25200
C  50.53200 22.69800 43.63300
C  52.05500 22.50300 43.89400
C  49.62900 22.26500 44.88300
C  50.17700 24.46800 41.70300
C  48.73000 24.83800 41.41400
H  48.15800 24.61100 40.05800
N  55.00900 22.00800 44.56100
C  54.03300 21.00100 44.31400
C  54.58900 19.71000 44.33500
C  56.02400 19.92400 44.35100
C  56.26000 21.36300 44.58700
C  53.75300 18.50300 43.99500
C  57.05200 18.85600 44.14500
O  56.72200 17.66900 44.09700
C  58.43100 19.26300 43.84600
N  56.82300 24.39800 45.12400
C  57.75400 23.36600 45.23400
C  59.08200 23.82800 45.95300
C  58.84400 25.42100 46.03500
C  57.36400 25.50500 45.63200
C  59.18200 23.07500 47.39600
C  59.70800 26.23500 45.10900
C  61.25200 25.79900 44.87800
N  54.49700 26.05600 44.83900
C  55.42000 27.01500 45.23500
C  54.63200 28.29900 45.21300
C  53.35300 27.94400 44.68900
C  53.36900 26.62800 44.41700
C  55.15600 29.68300 45.65200
C  52.05600 28.50800 44.47900
O  51.55500 29.61000 44.70600
C  51.17300 27.37500 43.86400
C  50.84200 27.79100 42.52900
O  51.61600 27.89100 41.62400
O  49.57100 28.23200 42.62600
C  48.98400 28.92900 41.41200
H  52.07500 20.42100 43.74200
H  58.31000 21.27200 45.04600
H  57.30000 27.62000 45.81400
H  49.74500 24.85700 43.84300
H  50.20500 22.08500 42.79400
H  49.49500 21.18500 44.82400
H  48.60200 22.62600 44.83300
H  49.99000 22.49400 45.88600
H  50.31700 23.49500 41.23200
H  51.00400 25.12300 41.43000
H  48.67000 25.90300 41.64000
H  48.00300 24.38200 42.08500
H  53.38700 18.55400 42.97000
H  52.93600 18.69100 44.69300
H  54.19200 17.57800 44.36900
H  58.99200 18.52600 43.27200
H  58.98300 19.34800 44.78200
H  58.34100 20.16000 43.23300
H  60.01700 23.64100 45.42500
H  58.94100 25.74900 47.07000
H  59.29900 23.80300 48.19800
H  59.96600 22.32000 47.44900
H  58.22900 22.62000 47.66600
H  59.85000 27.24100 45.50100
H  59.13000 26.41300 44.20200
H  61.40600 24.94800 44.21400
H  61.78900 25.67200 45.81800
H  61.80200 26.53500 44.29100
H  56.23500 29.73100 45.50300
H  55.05500 29.87000 46.72100
H  54.64500 30.38000 44.98700
H  50.30300 27.07400 44.44800
H  49.69600 28.99500 40.59000
H  48.60400 29.94100 41.55300
H  48.12800 28.34000 41.08400
Mg 5.50900 53.48300 41.70500
C  4.56700 50.17700 41.34400
C  8.74600 52.72700 40.91600
C  6.12200 56.77900 41.57600
C  2.17500 54.17200 42.46900
N  6.51000 51.66000 41.14100
C  5.94900 50.44200 40.88200
C  7.02600 49.36800 40.46600
C  8.36000 50.25600 40.73800
C  7.85100 51.68900 41.01700
C  9.27800 49.70200 41.92100
C  6.88200 48.99300 38.89000
C  6.93100 50.17700 37.95300
H  6.76700 49.68100 36.47100
N  7.25900 54.60500 41.25200
C  8.48000 54.09900 40.94000
C  9.39400 55.17700 40.70900
C  8.63500 56.39600 40.85500
C  7.26000 55.96000 41.24200
C  10.76800 54.94900 40.10200
C  9.18500 57.75500 40.57100
O  10.37500 57.87800 40.20200
C  8.40000 59.02900 40.73700
N  4.33100 55.29400 41.93100
C  4.84200 56.52700 42.00600
C  3.71500 57.59600 42.12600
C  2.47900 56.76200 42.62600
C  3.02300 55.30100 42.20400
C  4.03800 58.90000 42.97300
C  1.14700 56.95500 41.87800
C  -0.08000 57.41800 42.74500
N  3.70600 52.38000 41.88800
C  2.49000 52.82000 42.33400
C  1.67900 51.62900 42.63500
C  2.39900 50.54500 42.19900
C  3.62800 51.06700 41.80500
C  0.26300 51.82700 43.07600
C  2.39500 49.14800 41.99300
O  1.47600 48.36000 42.10200
C  3.91900 48.74000 41.57800
C  4.00700 47.90700 40.35600
O  3.71300 48.22200 39.25600
O  4.53100 46.70100 40.67700
C  4.63700 45.74600 39.57700
H  9.72000 52.32500 40.62900
H  6.37300 57.84200 41.54900
H  1.18300 54.39900 42.86600
H  7.01700 48.47500 41.09100
H  9.00000 50.25800 39.85600
H  8.88900 48.73700 42.24400
H  9.29500 50.28700 42.84100
H  10.28100 49.41400 41.60700
H  6.01500 48.37700 38.64700
H  7.73900 48.36400 38.64900
H  7.90800 50.65100 38.04600
H  6.05800 50.80000 38.15100
H  10.71300 55.11100 39.02600
H  11.15000 53.95400 40.32900
H  11.54800 55.56200 40.55500
H  8.96000 59.93300 40.49900
H  8.00700 59.06900 41.75300
H  7.56800 59.07400 40.03400
H  3.58400 57.84000 41.07200
H  2.33900 56.91500 43.69600
H  5.04600 58.82300 43.38100
H  3.35800 59.03700 43.81400
H  3.96000 59.75800 42.30600
H  0.81600 56.10800 41.27800
H  1.36700 57.84400 41.28600
H  0.09200 57.18500 43.79500
H  -0.92600 56.85500 42.35300
H  -0.14100 58.50600 42.76900
H  -0.29000 52.51400 42.43600
H  0.26100 52.28800 44.06400
H  -0.32500 50.92800 43.26100
H  4.33600 48.22600 42.44400
H  5.26800 44.93200 39.93300
H  4.97400 46.10700 38.60500
H  3.61900 45.38800 39.42400

