158

Mg -2.41500 16.50200 26.87900
C  -2.87100 14.72200 29.84400
C  -2.37600 19.43900 28.80600
C  -2.37700 18.20900 24.02400
C  -2.80400 13.47600 25.15100
N  -2.60000 16.96300 29.09500
C  -2.82700 16.11900 30.11400
C  -2.86900 16.80600 31.47500
C  -2.77000 18.29600 31.11200
C  -2.52000 18.26800 29.58600
C  -3.91700 19.21200 31.49400
C  -1.77800 16.39000 32.54900
C  -1.61800 17.34900 33.76500
H  -0.84300 16.91300 35.05100
N  -2.36000 18.52900 26.47800
C  -2.32900 19.53400 27.40200
C  -2.26400 20.79300 26.66500
C  -2.21500 20.58500 25.25900
C  -2.27800 19.05900 25.14800
C  -2.30700 22.19200 27.45500
C  -2.08700 21.53900 24.09200
O  -1.94500 21.11900 22.93800
C  -1.99500 23.01700 24.33600
N  -2.76400 15.92900 24.85900
C  -2.44600 16.79900 23.87800
C  -2.46400 16.09000 22.52400
C  -2.28800 14.58100 22.90800
C  -2.62300 14.61200 24.40800
C  -3.72900 16.43400 21.66100
C  -0.79100 14.13400 22.68400
C  -0.48500 13.75700 21.18600
N  -2.79400 14.59500 27.28700
C  -2.86800 13.41700 26.52100
C  -2.98900 12.27300 27.33600
C  -2.96200 12.76400 28.60400
C  -2.85600 14.18000 28.60000
C  -3.08700 10.89500 26.78300
C  -3.00700 12.39900 29.94600
O  -3.25100 11.27400 30.39000
C  -2.92700 13.65500 30.80200
C  -1.72200 13.39400 31.56900
O  -0.58200 13.73600 31.25900
O  -2.13700 12.67700 32.64600
C  -1.05900 12.43400 33.55100
H  -2.29500 20.32800 29.43600
H  -2.31900 18.69600 23.04900
H  -2.67300 12.54100 24.60200
H  -3.89900 16.62700 31.78400
H  -1.93200 18.81300 31.58000
H  -3.56300 20.22300 31.69400
H  -4.42600 18.81600 32.37200
H  -4.67100 19.36000 30.72100
H  -0.79400 16.24700 32.10100
H  -1.94300 15.41500 33.00500
H  -2.55300 17.79800 34.09900
H  -0.99700 18.12500 33.31800
H  -1.24600 22.34300 27.65500
H  -2.91900 22.17800 28.35700
H  -2.59200 23.06300 26.86600
H  -2.09400 23.49600 23.36200
H  -1.00800 23.30100 24.70000
H  -2.87800 23.35400 24.88000
H  -1.65800 16.42400 21.87100
H  -2.97000 13.99000 22.29600
H  -4.13300 15.52400 21.21900
H  -3.45700 17.02200 20.78500
H  -4.47900 16.99700 22.21800
H  -0.53700 13.30000 23.34000
H  -0.08800 14.95400 22.83200
H  0.16500 12.88200 21.17700
H  0.10500 14.59800 20.82200
H  -1.39900 13.76300 20.59200
H  -2.30600 10.74700 26.03800
H  -4.01500 10.81600 26.21700
H  -2.94400 10.22100 27.62800
H  -3.83600 13.73200 31.39800
H  -0.02700 12.44300 33.20100
H  -1.28500 11.47100 34.00800
H  -1.24200 13.22400 34.28000
Mg 44.56900 4.13300 46.43800
C  42.31100 6.75100 46.54800
C  41.87600 1.89600 45.89800
C  46.78700 1.60700 45.56800
C  47.14100 6.40400 46.10500
N  42.38800 4.33600 46.24000
C  41.66600 5.52300 46.31300
C  40.17500 5.23700 46.36200
C  40.00700 3.67400 46.13900
C  41.51100 3.26100 46.15000
C  39.12000 2.88500 47.24300
C  39.36900 6.08100 45.39700
C  39.33100 5.85000 43.89500
H  39.51200 7.03700 42.90000
N  44.36200 2.02500 45.98700
C  43.18100 1.35800 45.86400
C  43.43300 -0.02000 45.44400
C  44.85200 -0.15800 45.47000
C  45.46400 1.18000 45.65900
C  42.34100 -1.02000 45.11800
C  45.60200 -1.43500 45.19100
O  45.08400 -2.54600 44.98000
C  47.16800 -1.53700 45.14800
N  46.74400 3.99600 45.88800
C  47.39100 2.79500 45.78700
C  48.88800 2.98600 45.53100
C  48.96600 4.58800 45.41500
C  47.58700 5.05000 45.90900
C  49.85700 2.28700 46.55300
C  49.09300 5.17400 43.98500
C  50.54500 5.25400 43.57500
N  44.73100 6.12800 46.31100
C  45.83900 6.89700 46.39500
C  45.55300 8.27600 46.69700
C  44.15900 8.24800 46.79500
C  43.71600 6.96100 46.46200
C  46.45800 9.44100 46.77300
C  42.99100 9.02100 47.25900
O  42.93900 10.18000 47.61000
C  41.71600 8.12200 46.94500
C  40.85000 8.09400 48.07000
O  40.95500 7.41700 49.10700
O  39.76600 8.85200 47.76800
C  38.56900 8.65200 48.66000
H  41.02100 1.21900 45.84700
H  47.45600 0.81800 45.21900
H  47.93200 7.15400 46.17700
H  39.82000 5.53000 47.35000
H  39.47900 3.40700 45.22400
H  38.24000 2.33800 46.90500
H  38.75200 3.69100 47.87800
H  39.81000 2.32400 47.87400
H  39.55900 7.15200 45.46600
H  38.33200 6.20300 45.71100
H  38.34400 5.46500 43.64000
H  40.09500 5.10800 43.66200
H  42.67400 -1.73900 44.37000
H  41.37900 -0.59400 44.83300
H  42.08300 -1.54800 46.03600
H  47.69100 -1.25700 46.06200
H  47.62200 -1.00900 44.31000
H  47.50100 -2.57200 45.06300
H  49.06300 2.59500 44.52900
H  49.81600 4.83000 46.05300
H  50.62300 1.90000 45.88000
H  49.39700 1.48400 47.12900
H  50.40100 3.05100 47.10700
H  48.67600 6.17600 43.88200
H  48.60000 4.64400 43.17000
H  51.16700 4.95600 44.41900
H  50.78500 6.27200 43.26800
H  50.73400 4.48900 42.82200
H  47.25200 9.44800 46.02600
H  46.83100 9.37200 47.79500
H  45.96600 10.38900 46.55500
H  41.19800 8.61300 46.12100
H  37.71200 8.68000 47.98800
H  38.40200 9.47900 49.35000
H  38.52600 7.72200 49.22700

