158

Mg 25.47400 -0.20400 28.59500
C  27.53100 -0.22200 31.47900
C  22.79100 0.18600 30.74400
C  23.54000 -0.09700 25.92100
C  28.30500 -0.54900 26.60700
N  25.18400 -0.15000 30.85700
C  26.21400 -0.06800 31.82000
C  25.68200 0.08700 33.26000
C  24.14100 0.15600 33.00300
C  24.00100 0.07800 31.44200
C  23.34200 -0.93900 33.66900
C  26.20900 1.35600 34.06200
C  25.55500 1.60000 35.44400
H  26.45200 1.96500 36.61400
N  23.36900 -0.13800 28.42200
C  22.43400 -0.00300 29.42700
C  21.11900 0.08200 28.75900
C  21.32800 0.01800 27.37000
C  22.76900 -0.09800 27.19200
C  19.82100 0.33600 29.53400
C  20.35800 0.02600 26.19300
O  20.75600 -0.07800 25.05100
C  18.86700 0.24300 26.37400
N  25.83500 -0.46700 26.52400
C  24.86500 -0.26300 25.62500
C  25.53400 -0.06800 24.21100
C  27.05300 -0.11100 24.47700
C  27.07400 -0.50800 25.91900
C  24.98500 -1.09200 23.20300
C  27.76900 1.20400 24.28200
C  29.12200 1.33000 23.56700
N  27.50600 -0.45200 28.94900
C  28.57100 -0.58100 28.05400
C  29.78700 -0.75000 28.84300
C  29.42200 -0.60600 30.15100
C  27.98800 -0.42400 30.19000
C  31.18600 -0.90700 28.34200
C  29.95300 -0.54700 31.46100
O  31.09200 -0.61700 31.85700
C  28.73500 -0.27500 32.43900
C  28.61800 -1.14300 33.63300
O  28.46700 -2.35300 33.59600
O  28.97100 -0.51800 34.80900
C  28.81200 -1.28600 36.04400
H  21.91800 0.38800 31.36900
H  23.08900 0.02300 24.93400
H  29.29300 -0.45000 26.15500
H  25.93400 -0.86900 33.71800
H  23.78000 1.16400 33.20600
H  23.84500 -1.30200 34.56500
H  23.10800 -1.75100 32.98100
H  22.37900 -0.48300 33.90200
H  25.94600 2.21400 33.44400
H  27.29800 1.36400 34.10000
H  24.98400 0.72400 35.75300
H  24.78200 2.35700 35.31400
H  19.53100 1.38300 29.45300
H  19.72600 -0.02500 30.55800
H  19.03700 -0.22300 29.02200
H  18.42100 -0.42900 27.10700
H  18.42200 0.02700 25.40200
H  18.72200 1.24800 26.76900
H  25.25400 0.90700 23.81300
H  27.49600 -0.80400 23.76200
H  24.49800 -1.84600 23.82200
H  25.72900 -1.55300 22.55300
H  24.26900 -0.63100 22.52300
H  27.83600 1.74700 25.22500
H  27.11900 1.89100 23.74100
H  28.92100 1.66300 22.54900
H  29.57600 0.34500 23.46600
H  29.80700 2.00400 24.08200
H  31.21000 -0.57100 27.30500
H  31.59700 -1.91400 28.40100
H  31.75000 -0.27300 29.02700
H  28.91500 0.71400 32.86000
H  28.13000 -2.12900 35.93900
H  28.30500 -0.61100 36.73300
H  29.72800 -1.58000 36.55600
Mg 0.38200 42.71100 25.08600
C  2.71600 42.37900 27.91300
C  -2.06600 41.82800 27.20200
C  -1.70000 42.46000 22.38500
C  3.12300 43.31200 23.12700
N  0.40800 42.09100 27.31100
C  1.37800 42.16600 28.31800
C  0.78400 42.07900 29.66700
C  -0.70600 41.76400 29.32000
C  -0.82700 41.88100 27.85400
C  -1.11900 40.32600 29.84200
C  0.97700 43.36700 30.53300
C  1.33100 43.20200 32.02200
H  0.88300 42.02900 32.75600
N  -1.58600 42.12400 24.79200
C  -2.46600 41.79500 25.82500
C  -3.77100 41.49900 25.26500
C  -3.66600 41.67600 23.82500
C  -2.29800 42.12100 23.61300
C  -4.98400 41.15400 26.07300
C  -4.73000 41.62900 22.74000
O  -4.45000 41.90500 21.62100
C  -6.09000 41.21700 23.08100
N  0.65800 42.94900 23.11100
C  -0.37600 42.93900 22.24100
C  0.08100 43.42900 20.86700
C  1.56300 44.02400 21.20800
C  1.84300 43.36400 22.58100
C  -0.03000 42.50200 19.60200
C  1.64900 45.60600 21.34200
C  0.96100 46.59500 20.43600
N  2.52200 42.78700 25.32500
C  3.48600 42.90700 24.40000
C  4.77000 42.90900 24.92100
C  4.50000 42.68700 26.31200
C  3.11000 42.68400 26.53000
C  6.09700 43.10900 24.28200
C  5.11300 42.54700 27.58800
O  6.26500 42.38700 27.83600
C  3.98300 42.52100 28.71900
C  4.28600 41.30400 29.51800
O  4.03200 40.13400 29.17200
O  4.90500 41.72300 30.69900
C  5.06200 40.64300 31.64700
H  -2.89400 41.61000 27.88000
H  -2.29300 42.66200 21.49000
H  4.01900 43.54600 22.54800
H  1.33300 41.19900 30.00400
H  -1.49500 42.40100 29.72000
H  -0.48200 39.79600 30.54900
H  -1.11100 39.63100 29.00200
H  -2.14500 40.37400 30.20700
H  0.02300 43.85900 30.34300
H  1.73600 43.95600 30.01800
H  0.84100 44.04200 32.51400
H  2.40500 43.33300 32.15800
H  -4.68700 41.18400 27.12100
H  -5.31400 40.18400 25.70200
H  -5.84200 41.82300 26.02800
H  -6.63200 41.17000 22.13700
H  -6.60300 42.05400 23.55500
H  -6.30100 40.33200 23.68200
H  -0.62200 44.22500 20.62100
H  2.35800 43.65600 20.56000
H  -0.28500 41.50200 19.95400
H  0.84500 42.60500 18.95900
H  -0.87700 42.85000 19.01000
H  2.71800 45.80200 21.25500
H  1.29200 45.83000 22.34700
H  0.20600 47.11500 21.02500
H  0.51400 46.02000 19.62500
H  1.78700 47.23100 20.11700
H  6.35400 44.15700 24.43600
H  6.14300 42.82900 23.23000
H  6.78500 42.43000 24.78700
H  3.99400 43.41800 29.33900
H  5.28100 41.07700 32.62300
H  5.89200 39.97000 31.42900
H  4.16400 40.03000 31.71200

