158

Mg 1.44200 7.65400 25.72000
C  2.01600 9.71000 28.58700
C  2.00400 4.91800 27.98000
C  0.81100 5.68300 23.27100
C  1.39200 10.44200 23.74900
N  1.85600 7.38100 27.94800
C  1.86600 8.35700 28.93300
C  2.04600 7.76600 30.36800
C  2.55000 6.30700 30.01300
C  2.17500 6.14500 28.52600
C  4.02900 5.95900 30.22400
C  0.81100 7.88300 31.25800
C  0.55700 6.95400 32.44400
H  1.71400 6.48000 33.37100
N  1.42600 5.57500 25.68900
C  1.75600 4.60500 26.61200
C  1.59400 3.28300 25.99100
C  1.13700 3.45600 24.69900
C  1.06600 4.93200 24.53400
C  1.96600 2.03500 26.80000
C  0.80300 2.45600 23.65000
O  0.67800 2.77700 22.44800
C  0.73400 1.00700 24.01600
N  1.18900 7.97400 23.78900
C  0.79600 7.01500 22.94200
C  0.44000 7.66200 21.56100
C  0.67500 9.16400 21.67800
C  1.05700 9.20500 23.17700
C  1.24100 7.12000 20.37000
C  -0.58400 10.03700 21.30200
C  -0.33100 11.01500 20.13500
N  1.78000 9.58900 26.00400
C  1.71800 10.65500 25.12200
C  1.91200 11.88500 25.79200
C  2.03300 11.54500 27.14100
C  2.00100 10.20000 27.25300
C  1.89700 13.25000 25.13500
C  2.25200 12.21600 28.40900
O  2.39400 13.40100 28.74100
C  2.12100 11.07000 29.42300
C  3.20000 11.15600 30.36400
O  4.42200 11.23900 30.08200
O  2.70100 11.21500 31.62400
C  3.55400 11.60300 32.74800
H  2.19100 4.12000 28.70200
H  0.36100 5.09900 22.46600
H  1.35500 11.35300 23.14900
H  2.83600 8.30700 30.88800
H  1.93800 5.62200 30.59900
H  4.65500 6.78000 30.57400
H  4.47700 5.64700 29.28000
H  4.05400 5.16000 30.96500
H  -0.11500 7.86800 30.68300
H  0.86400 8.93100 31.55200
H  0.16200 6.08600 31.91600
H  -0.27200 7.36700 33.01900
H  1.06000 1.43600 26.70000
H  2.14000 2.20100 27.86200
H  2.77900 1.52400 26.28400
H  0.52800 0.43000 23.11400
H  -0.04900 0.73400 24.72300
H  1.70700 0.75200 24.43700
H  -0.57200 7.33400 21.32100
H  1.55600 9.60000 21.20800
H  1.21300 7.82400 19.53800
H  0.71200 6.24100 20.00200
H  2.23300 6.84500 20.73000
H  -0.82000 10.66200 22.16300
H  -1.40000 9.40400 20.95400
H  -1.11300 10.97300 19.37700
H  0.56700 10.60500 19.67100
H  -0.24900 12.02900 20.52600
H  1.86300 14.04300 25.88200
H  0.99300 13.34100 24.53400
H  2.82200 13.35500 24.56800
H  1.19700 11.20400 29.98600
H  4.44600 10.97800 32.79400
H  3.01500 11.42300 33.67900
H  3.93200 12.62200 32.66600
Mg 46.64200 24.92900 28.71600
C  47.15700 27.26900 31.51900
C  45.38600 22.77100 30.77600
C  46.76900 22.93900 26.16000
C  48.00400 27.53100 26.61400
N  46.49600 24.99800 30.92600
C  46.59900 26.00800 31.81700
C  46.01300 25.60600 33.18000
C  45.45500 24.14400 32.91300
C  45.73300 24.00500 31.41600
C  46.21100 23.11400 33.82000
C  44.96000 26.55100 33.78700
C  45.23500 26.89600 35.19400
H  44.12200 27.00600 36.24700
N  46.25400 23.01500 28.55900
C  45.75200 22.23100 29.55400
C  45.37200 20.95800 28.93800
C  45.82100 20.93800 27.53000
C  46.30700 22.32300 27.34800
C  44.58800 19.93500 29.73500
C  45.70600 19.85400 26.52700
O  46.05700 20.06400 25.42700
C  44.97600 18.53900 26.84400
N  47.35500 25.23900 26.66000
C  47.19400 24.23200 25.80400
C  47.47000 24.62100 24.36200
C  47.68100 26.14300 24.45900
C  47.66300 26.34900 25.97700
C  48.65000 23.87900 23.71300
C  46.70400 27.11500 23.76900
C  45.29100 26.97400 24.39900
N  47.47600 26.94500 28.92800
C  47.98300 27.85300 28.04700
C  48.39700 29.09700 28.73500
C  48.00000 28.91600 30.09100
C  47.56600 27.56200 30.18200
C  48.95000 30.35900 28.06100
C  47.81800 29.56700 31.37800
O  47.97900 30.72000 31.74700
C  47.42900 28.45100 32.40100
C  48.58500 28.13800 33.23100
O  49.71400 28.33700 32.95000
O  48.11900 27.75200 34.44900
C  49.20600 27.44400 35.45700
H  44.82100 22.06700 31.39200
H  46.66900 22.23900 25.32800
H  48.41100 28.27200 25.92400
H  46.85300 25.48500 33.86300
H  44.42500 24.10500 33.26800
H  46.12500 23.54600 34.81800
H  47.29200 23.10000 33.67900
H  45.86600 22.08200 33.75800
H  43.99700 26.05200 33.89500
H  44.86400 27.44300 33.16700
H  45.62400 27.91300 35.24900
H  46.06600 26.32000 35.60100
H  43.76700 19.44300 29.21200
H  44.23000 20.30500 30.69600
H  45.32400 19.18900 30.03200
H  45.41900 17.98700 27.67300
H  44.96200 17.84500 26.00300
H  43.90800 18.69300 27.00100
H  46.55800 24.44000 23.79400
H  48.66600 26.42200 24.08600
H  49.34900 23.63500 24.51300
H  48.96300 24.49900 22.87300
H  48.27600 22.89900 23.41300
H  46.56800 26.95000 22.70000
H  47.04700 28.14000 23.90600
H  44.55500 27.17000 23.62000
H  45.18200 27.83100 25.06500
H  45.06600 26.03300 24.90100
H  48.33200 31.19500 28.38800
H  48.88500 30.11400 27.00000
H  49.98700 30.51900 28.35600
H  46.65600 28.86000 33.05100
H  48.74900 27.19900 36.41500
H  49.97600 28.21100 35.53800
H  49.83000 26.63900 35.06900

