158

Mg 1.49800 7.84100 25.82800
C  2.17200 9.96800 28.51300
C  2.03100 5.21700 27.96200
C  1.04600 5.71700 23.24600
C  1.20000 10.57500 23.66400
N  1.92700 7.63700 27.98200
C  2.11100 8.64200 28.92100
C  2.25900 8.07000 30.38800
C  2.40400 6.54500 30.17000
C  2.15100 6.43600 28.61400
C  3.79800 5.86400 30.55100
C  0.99900 8.47200 31.23400
C  1.16900 9.28000 32.53200
H  2.34100 8.80800 33.41300
N  1.46100 5.70700 25.62000
C  1.79300 4.83100 26.59700
C  1.76100 3.45900 26.09300
C  1.30500 3.52000 24.75600
C  1.21600 5.01300 24.48000
C  2.12000 2.28400 27.02600
C  0.97700 2.47300 23.69400
O  0.51700 2.70400 22.61200
C  1.18100 0.94500 24.13600
N  1.42200 8.16300 23.70900
C  1.03700 7.10600 22.91900
C  0.65400 7.47600 21.46500
C  0.70100 9.05100 21.58600
C  1.05600 9.31800 23.09400
C  1.52200 6.79900 20.33300
C  -0.59500 9.76200 21.19600
C  -0.58400 10.58800 19.90800
N  1.67600 9.85300 25.98200
C  1.50700 10.86900 25.04700
C  1.65400 12.14300 25.73900
C  2.03200 11.84200 27.10200
C  1.97800 10.43800 27.19900
C  1.40900 13.54800 25.18600
C  2.39000 12.47200 28.31300
O  2.67900 13.64400 28.52300
C  2.31700 11.24700 29.34700
C  3.56600 11.27800 30.14000
O  4.65200 10.88300 29.77400
O  3.32400 11.95500 31.29100
C  4.50900 12.31100 32.06000
H  2.20200 4.45000 28.72000
H  0.89200 4.98900 22.44700
H  1.02600 11.39700 22.96700
H  3.18900 8.46100 30.79800
H  1.66500 5.95000 30.70500
H  4.25400 5.97200 31.53500
H  4.57500 6.18000 29.85500
H  3.66600 4.78200 30.51900
H  0.47700 7.56900 31.55400
H  0.36400 9.01500 30.53400
H  0.25100 9.22300 33.11700
H  1.29700 10.35200 32.38400
H  1.36800 1.50000 26.93400
H  2.33200 2.39900 28.08900
H  3.04500 1.81000 26.69700
H  0.94300 0.24400 23.33700
H  0.56400 0.74000 25.01100
H  2.17100 0.74200 24.54500
H  -0.38900 7.19300 21.32600
H  1.48200 9.45100 20.93900
H  2.53300 6.56600 20.66600
H  1.55700 7.53900 19.53300
H  1.04500 5.92300 19.89100
H  -0.82800 10.53700 21.92700
H  -1.42400 9.05600 21.23700
H  -0.02500 10.09700 19.11200
H  -0.19200 11.58200 20.12100
H  -1.64800 10.60400 19.67300
H  2.39700 13.97100 25.00200
H  0.97000 14.06500 26.03900
H  0.78000 13.45900 24.30000
H  1.45500 11.47300 29.97400
H  5.02600 11.40400 32.37100
H  4.21800 12.77500 33.00200
H  5.05100 13.04000 31.45700
Mg 41.51300 8.15800 29.43700
C  43.16200 9.78500 31.95900
C  39.15700 6.91800 31.75000
C  40.21100 6.17900 27.10500
C  44.25000 8.89800 27.35900
N  41.17100 8.36200 31.50400
C  42.03100 9.05500 32.39100
C  41.58300 8.89000 33.92000
C  40.37200 8.00700 33.82500
C  40.21100 7.69700 32.27100
C  40.10400 6.74600 34.68900
C  41.15800 10.31500 34.54000
C  40.25600 10.36800 35.77500
H  40.79500 11.02000 37.04800
N  39.75700 6.99900 29.37300
C  38.86200 6.69800 30.38200
C  37.70400 6.00500 29.77800
C  38.03200 5.83500 28.44100
C  39.39800 6.30500 28.26500
C  36.55700 5.54100 30.65900
C  37.16700 5.32600 27.28500
O  37.55000 5.15500 26.11800
C  35.68800 5.23800 27.59700
N  42.23800 7.45300 27.55700
C  41.48900 6.75000 26.74800
C  42.06600 6.64400 25.29200
C  43.24800 7.59100 25.36500
C  43.27900 8.01900 26.84700
C  42.30300 5.13500 24.91500
C  43.02000 8.89900 24.46700
C  41.97900 9.96600 24.96600
N  43.32600 9.17500 29.55400
C  44.30700 9.41600 28.65800
C  45.33200 10.28100 29.25100
C  44.90900 10.54200 30.55600
C  43.69100 9.82800 30.70700
C  46.54300 10.77400 28.49200
C  45.24800 11.18100 31.77400
O  46.17200 11.93000 32.14200
C  44.03900 10.68300 32.72400
C  44.65100 10.04600 33.89300
O  45.37800 9.07100 33.73200
O  44.32900 10.52900 35.11600
C  44.54100 9.70400 36.35200
H  38.46300 6.59300 32.52800
H  39.85500 5.39400 26.43500
H  45.06700 9.25300 26.72800
H  42.33900 8.36800 34.50700
H  39.46400 8.60900 33.86400
H  39.78300 5.88200 34.10700
H  39.30600 6.92100 35.41000
H  40.98900 6.53800 35.29000
H  40.52500 10.80100 33.79800
H  42.06300 10.90200 34.69500
H  40.13500 9.30100 35.95900
H  39.26100 10.74900 35.54600
H  35.67900 6.18200 30.73700
H  36.80200 5.39100 31.71100
H  36.21500 4.62300 30.18100
H  35.12100 5.01200 26.69400
H  35.40600 6.22300 27.96900
H  35.56900 4.35500 28.22500
H  41.30900 7.09900 24.65300
H  44.21600 7.10600 25.24000
H  43.04200 5.12200 24.11500
H  41.35200 4.67100 24.65300
H  42.69900 4.60700 25.78300
H  42.71700 8.57000 23.47200
H  43.98200 9.36300 24.25100
H  41.65600 10.58700 24.13100
H  42.53900 10.52300 25.71700
H  41.10200 9.54200 25.45500
H  47.30900 10.77400 29.26700
H  46.31800 11.79100 28.17100
H  46.78800 10.17200 27.61700
H  43.57600 11.56500 33.16600
H  44.84300 8.70300 36.04100
H  43.59100 9.66700 36.88500
H  45.27100 10.14600 37.03000

