158

Mg 25.90100 0.86900 29.56400
C  27.80100 0.48200 32.60500
C  23.23500 1.48300 31.68000
C  24.05800 0.81000 26.91900
C  28.72400 -0.27900 27.86300
N  25.51600 0.76300 31.88100
C  26.48300 0.75100 32.86800
C  25.86100 1.14900 34.27300
C  24.43700 1.47000 33.95200
C  24.36600 1.25300 32.39500
C  23.25500 0.69600 34.58800
C  26.58800 2.26000 35.10400
C  25.71600 3.12600 36.05800
H  26.35000 3.50900 37.39000
N  23.94900 1.21600 29.33400
C  23.00000 1.38100 30.27500
C  21.70500 1.55800 29.57100
C  21.91500 1.40700 28.19600
C  23.33500 1.02500 28.07600
C  20.44300 1.72400 30.29600
C  20.95600 1.46900 27.02600
O  21.26800 1.03100 25.88900
C  19.54100 1.91500 27.26000
N  26.35400 0.40900 27.69500
C  25.42100 0.55600 26.73800
C  26.01900 0.34000 25.33800
C  27.58500 -0.11800 25.64200
C  27.58400 0.07600 27.15500
C  25.26000 -0.53600 24.33200
C  28.66800 0.73300 24.91600
C  29.60600 -0.00800 23.92800
N  27.91100 0.25400 30.04100
C  28.95900 -0.13200 29.21600
C  30.14700 -0.30100 30.00100
C  29.76500 -0.09300 31.32500
C  28.39000 0.19300 31.30400
C  31.49600 -0.74100 29.48800
C  30.14800 -0.12300 32.73800
O  31.23300 -0.33900 33.24500
C  28.92100 0.40900 33.57700
C  28.82000 -0.58500 34.70200
O  28.25800 -1.68000 34.64000
O  29.30900 -0.08500 35.92100
C  29.32100 -1.13600 36.99600
H  22.39700 1.88600 32.25200
H  23.53200 0.62900 25.98000
H  29.59400 -0.59400 27.28200
H  25.83400 0.19000 34.79100
H  24.20800 2.53300 34.02700
H  23.58200 0.03600 35.39200
H  22.77200 0.00700 33.89600
H  22.54000 1.41900 34.98100
H  27.25500 2.81200 34.44300
H  27.31600 1.77700 35.75600
H  24.72200 2.70600 36.21600
H  25.51800 4.01600 35.46200
H  20.18700 2.78300 30.31000
H  20.67700 1.58700 31.35100
H  19.61000 1.07700 30.02000
H  19.53300 2.61700 28.09400
H  18.87600 1.11000 27.57000
H  19.27600 2.39200 26.31700
H  26.14600 1.34100 24.92600
H  27.80900 -1.15300 25.38200
H  24.91800 0.06000 23.48600
H  24.40800 -0.83200 24.94400
H  25.80500 -1.38600 23.92000
H  29.25700 1.32200 25.62000
H  28.08500 1.47100 24.36400
H  30.63700 0.32600 24.04700
H  29.39600 0.42400 22.95000
H  29.69700 -1.08900 24.03400
H  31.48000 -1.37100 28.59900
H  32.03600 -1.16200 30.33600
H  32.03000 0.19400 29.31700
H  29.13500 1.39700 33.98600
H  30.08500 -0.90500 37.73900
H  29.48200 -2.16200 36.66400
H  28.39700 -1.00700 37.55900
Mg -10.63100 17.07500 40.28800
C  -7.16700 16.50900 40.66300
C  -9.97100 20.52800 40.06400
C  -13.94600 17.58500 39.34400
C  -11.03900 13.72500 39.33200
N  -8.78600 18.32000 40.33100
C  -7.46000 17.85600 40.37700
C  -6.51800 18.99200 40.12500
C  -7.35200 20.28600 40.32300
C  -8.80600 19.70300 40.27100
C  -7.11200 21.18500 41.63800
C  -5.83800 18.99200 38.72200
C  -4.30400 18.90800 38.76900
H  -3.69600 18.01700 37.74900
N  -11.82200 18.80400 39.82800
C  -11.32700 20.09200 39.81400
C  -12.40100 20.95800 39.54700
C  -13.63700 20.19500 39.43200
C  -13.21400 18.79800 39.54200
C  -12.28900 22.48400 39.42600
C  -15.13700 20.80100 39.33200
O  -15.24000 22.00100 39.30800
C  -16.28100 19.89400 39.31800
N  -12.22800 15.87800 39.39700
C  -13.52300 16.24400 39.32700
C  -14.48700 15.10500 39.04900
C  -13.50900 13.88900 38.85600
C  -12.15900 14.54300 39.15300
C  -15.50100 14.96200 40.28200
C  -13.66800 13.37000 37.44800
C  -13.35900 14.50500 36.45100
N  -9.44200 15.38600 40.36400
C  -9.70700 14.09000 39.82400
C  -8.59100 13.24400 40.04500
C  -7.57600 14.12000 40.43400
C  -8.10100 15.47800 40.48500
C  -8.40300 11.73400 39.62400
C  -6.15200 14.28100 40.79300
O  -5.31500 13.43100 40.98000
C  -5.85600 15.82000 40.88800
C  -5.17100 16.19500 42.09500
O  -4.11700 16.78600 42.03200
O  -5.77900 15.75500 43.27100
C  -5.02300 16.03500 44.48700
H  -9.63800 21.56500 40.14500
H  -15.00100 17.56900 39.06300
H  -11.15100 12.66500 39.09500
H  -5.69600 19.01300 40.84000
H  -7.21800 21.06500 39.57300
H  -6.10100 21.33200 42.01800
H  -7.72000 20.78600 42.45100
H  -7.59200 22.12200 41.35700
H  -6.06300 19.98100 38.32200
H  -6.26100 18.37600 37.92800
H  -3.81100 18.65400 39.70700
H  -3.83800 19.83500 38.43600
H  -12.69100 22.66300 38.42800
H  -11.29700 22.92800 39.51000
H  -12.87800 23.00400 40.18100
H  -17.19600 20.46900 39.45500
H  -16.27000 19.43000 40.30400
H  -16.37000 19.05400 38.62800
H  -15.10900 15.22800 38.16200
H  -13.71500 13.08500 39.56300
H  -14.95100 15.08200 41.21500
H  -15.96800 13.97800 40.25500
H  -16.31000 15.68400 40.39400
H  -14.61100 12.82800 37.38200
H  -12.84200 12.66400 37.35100
H  -14.13200 14.67800 35.70300
H  -12.43500 14.23200 35.94000
H  -13.03700 15.44800 36.89400
H  -8.13000 11.70800 38.56900
H  -9.32300 11.16300 39.75300
H  -7.71700 11.24200 40.31400
H  -5.20700 16.13300 40.07100
H  -5.12100 17.12100 44.50400
H  -3.98100 15.73400 44.38300
H  -5.45300 15.61300 45.39500

