158

Mg 2.07400 -0.97500 44.73800
C  5.50100 -0.32800 43.81200
C  1.10900 1.46000 42.61100
C  -1.01200 -2.51400 44.53300
C  3.38000 -4.15900 45.90800
N  3.27100 0.46600 43.42100
C  4.61500 0.58000 43.19300
C  4.80200 1.72700 42.24800
C  3.39100 2.47800 42.01400
C  2.50000 1.40800 42.68200
C  3.41200 3.92800 42.64700
C  5.50800 1.17600 40.97900
C  6.76900 1.87500 40.49000
H  6.76000 2.39500 39.03700
N  0.27500 -0.35100 44.00100
C  0.04200 0.67900 43.14900
C  -1.35900 0.72600 42.89500
C  -1.96900 -0.37500 43.49100
C  -0.89300 -1.17600 44.06200
C  -2.07600 1.79900 42.22200
C  -3.44800 -0.64100 43.56000
O  -4.22800 0.10200 42.99200
C  -4.13300 -1.78200 44.29100
N  1.30500 -3.04500 45.21700
C  -0.03300 -3.37200 45.00600
C  -0.36200 -4.74800 45.62900
C  1.10900 -5.35100 45.94600
C  1.99000 -4.15800 45.63600
C  -1.34000 -4.70200 46.87100
C  1.45900 -6.71300 45.27800
C  2.32800 -7.64900 46.16300
N  4.05300 -1.98600 45.02100
C  4.35100 -3.21500 45.62900
C  5.75900 -3.41700 45.68200
C  6.31200 -2.28600 45.00400
C  5.20000 -1.50500 44.61200
C  6.50100 -4.60500 46.33200
C  7.53500 -1.61900 44.49500
O  8.69400 -1.86000 44.64100
C  7.02500 -0.26800 43.74500
C  7.62600 0.83600 44.60400
O  7.42300 0.97900 45.85300
O  8.34900 1.70300 43.76100
C  8.24000 3.13600 43.94300
H  0.79200 2.23200 41.90800
H  -1.97300 -2.99200 44.73600
H  3.84100 -5.04000 46.36100
H  5.48500 2.37300 42.79900
H  3.10400 2.51000 40.96200
H  3.29700 4.74100 41.93000
H  4.24400 4.12700 43.32300
H  2.57000 3.99900 43.33600
H  4.84600 1.10600 40.11600
H  5.76700 0.14200 41.20300
H  7.57100 1.13800 40.52700
H  7.00400 2.67700 41.18900
H  -1.52300 2.47000 41.56500
H  -2.71700 2.43000 42.83800
H  -2.74200 1.30000 41.51800
H  -5.19300 -1.53200 44.31500
H  -3.85300 -1.85600 45.34200
H  -3.95900 -2.76600 43.85600
H  -0.69300 -5.41200 44.83000
H  1.28700 -5.48200 47.01400
H  -1.60500 -3.72100 47.26400
H  -1.03900 -5.31500 47.72100
H  -2.18200 -5.29500 46.51300
H  1.79100 -6.43400 44.27800
H  0.53700 -7.22200 44.99900
H  3.18600 -7.97800 45.57700
H  1.71200 -8.48700 46.48900
H  2.75500 -7.18300 47.05200
H  6.55800 -4.47200 47.41300
H  7.54100 -4.62200 46.00700
H  6.01300 -5.56300 46.15400
H  7.33600 -0.17900 42.70400
H  7.65900 3.39800 44.82700
H  7.69700 3.54800 43.09200
H  9.20200 3.64800 43.92200
Mg -10.97100 16.53200 41.66700
C  -7.58000 16.60800 41.33900
C  -11.10600 19.84800 40.62800
C  -14.18900 16.27800 41.71100
C  -10.67400 12.96600 42.31500
N  -9.48500 17.99800 40.85300
C  -8.12800 17.83400 40.91000
C  -7.30300 19.08200 40.41100
C  -8.55300 20.10900 40.42400
C  -9.81100 19.32900 40.70000
C  -8.35200 21.41300 41.21900
C  -6.60000 18.83600 39.00800
C  -5.10000 19.07500 38.90200
H  -4.41600 18.18400 37.93000
N  -12.46400 17.85100 41.21800
C  -12.35700 19.19100 40.82300
C  -13.68300 19.78600 40.71800
C  -14.63400 18.73700 40.88300
C  -13.78100 17.53700 41.31000
C  -13.99100 21.23500 40.27300
C  -16.25100 18.86600 40.70900
O  -16.78300 19.94500 40.47000
C  -17.03800 17.68200 40.80500
N  -12.28700 14.81500 42.02200
C  -13.58500 15.01600 42.03300
C  -14.39500 13.75100 42.38200
C  -13.30300 12.67200 42.47400
C  -12.00900 13.48600 42.24400
C  -15.32100 13.82800 43.56900
C  -13.47400 11.40400 41.60900
C  -13.95400 10.17200 42.37800
N  -9.51100 15.05900 41.82100
C  -9.52600 13.72600 42.08600
C  -8.18300 13.20800 42.19500
C  -7.36800 14.38200 42.00100
C  -8.22800 15.37400 41.62500
C  -7.76600 11.79000 42.50400
C  -6.02600 14.84000 41.90600
O  -4.98700 14.23000 42.07800
C  -6.05200 16.30300 41.50100
C  -5.41700 17.18100 42.53000
O  -5.99100 17.63000 43.50500
O  -4.06500 17.33200 42.29500
C  -3.37100 18.09800 43.36000
H  -11.16400 20.91100 40.38200
H  -15.27200 16.15300 41.75600
H  -10.55800 11.93400 42.65100
H  -6.67600 19.36900 41.25500
H  -8.62800 20.49500 39.40700
H  -7.45500 21.30300 41.82700
H  -9.22300 21.54000 41.86200
H  -8.20000 22.33200 40.65400
H  -7.13300 19.36500 38.21800
H  -6.72500 17.81200 38.65600
H  -4.54100 18.93900 39.82800
H  -4.90400 20.11800 38.64900
H  -14.70700 21.26000 39.45300
H  -13.11000 21.78800 39.94700
H  -14.42300 21.76400 41.12200
H  -17.95400 17.86700 40.24400
H  -17.02700 17.44200 41.86800
H  -16.58300 16.91600 40.17700
H  -14.90200 13.49900 41.45100
H  -13.23500 12.38800 43.52400
H  -15.09000 13.01500 44.25700
H  -16.37700 13.84200 43.29900
H  -15.06300 14.77400 44.04600
H  -12.52600 11.11900 41.15300
H  -14.21000 11.57200 40.82300
H  -14.63000 10.22300 43.23200
H  -13.08700 9.59100 42.69100
H  -14.23100 9.37000 41.69300
H  -8.60800 11.17100 42.81300
H  -6.97600 11.84800 43.25300
H  -7.39500 11.25900 41.62800
H  -5.48600 16.38800 40.57200
H  -2.29900 18.08100 43.16800
H  -3.35600 17.67400 44.36400
H  -3.73000 19.12600 43.39200

