158

Mg 48.31200 35.56800 28.21400
C  46.31900 34.14100 30.79500
C  48.83100 38.19000 30.08600
C  49.73300 37.05100 25.53200
C  47.44500 32.80400 26.17000
N  47.87200 35.96000 30.21100
C  47.07700 35.31300 31.13900
C  47.09000 35.96600 32.52700
C  47.49300 37.44300 32.15600
C  48.06600 37.17100 30.67100
C  46.33600 38.44100 32.10300
C  48.08700 35.32400 33.52500
C  47.65900 35.20300 34.97900
H  48.53800 35.84000 36.10700
N  49.26900 37.41700 27.85800
C  49.41200 38.37100 28.84300
C  50.11200 39.48400 28.26600
C  50.45100 39.09000 26.89500
C  49.72500 37.83000 26.69900
C  50.38600 40.78400 28.95300
C  51.26600 39.93900 25.82900
O  51.38800 39.63200 24.67300
C  51.91700 41.26700 26.17000
N  48.66700 34.95500 26.10200
C  49.31900 35.73800 25.24700
C  49.50200 35.01600 23.87900
C  48.95900 33.59800 24.25000
C  48.22300 33.79100 25.54900
C  48.79800 35.72200 22.63700
C  50.01500 32.49000 24.38500
C  50.15800 31.29700 23.39100
N  47.09500 33.77900 28.34400
C  46.79700 32.83000 27.45000
C  45.97400 31.74800 28.13400
C  45.71400 32.29400 29.37200
C  46.44800 33.54800 29.48100
C  45.57000 30.36500 27.65800
C  44.96100 32.09500 30.63900
O  44.18000 31.15600 30.90000
C  45.28800 33.34000 31.53100
C  45.72200 32.90100 32.85400
O  46.79200 32.45600 33.13300
O  44.70100 33.11000 33.78400
C  44.92300 32.54300 35.08800
H  48.86900 39.14900 30.60800
H  50.35700 37.39800 24.70500
H  47.25400 31.94000 25.53000
H  46.07900 35.91900 32.93300
H  48.22500 37.94500 32.78800
H  46.45500 39.24100 32.83500
H  45.36600 37.95600 32.21100
H  46.33000 38.84100 31.09000
H  48.99900 35.91700 33.45400
H  48.27700 34.30700 33.18200
H  47.73500 34.14500 35.23000
H  46.69400 35.67100 35.17400
H  49.71800 41.61500 28.72500
H  51.39800 41.10800 28.71100
H  50.42000 40.48400 30.00000
H  52.28500 41.79300 25.28900
H  52.63400 41.11100 26.97700
H  51.10000 41.93900 26.43300
H  50.56500 35.08900 23.65100
H  48.21800 33.26000 23.52500
H  49.42300 36.42200 22.08400
H  47.92200 36.27600 22.97500
H  48.44300 35.05700 21.84900
H  50.12800 32.16800 25.42100
H  51.01300 32.88600 24.19800
H  50.14800 30.40300 24.01400
H  51.08100 31.24900 22.81300
H  49.34100 31.33000 22.67000
H  46.06400 29.61600 28.27800
H  45.83700 30.29100 26.60400
H  44.49300 30.39700 27.82200
H  44.47500 34.04900 31.68600
H  44.02300 32.00800 35.38900
H  45.13800 33.30300 35.83900
H  45.75500 31.83900 35.09300
Mg 36.37900 49.39000 24.92200
C  36.31200 47.50700 27.86900
C  35.01500 51.98100 26.51800
C  36.14000 50.92200 21.88400
C  37.56600 46.48600 23.24200
N  35.64400 49.64500 26.92100
C  35.89700 48.84200 28.03000
C  35.64100 49.59900 29.31600
C  35.01900 50.96900 28.78700
C  35.22600 50.89700 27.32100
C  33.52400 51.17000 29.20600
C  36.88400 49.77200 30.13200
C  36.76600 49.66600 31.60800
H  35.39400 49.79100 32.40500
N  35.69400 51.27700 24.31300
C  35.18500 52.19700 25.13700
C  34.93900 53.38300 24.41500
C  35.37600 53.12000 23.05700
C  35.77700 51.73500 23.04000
C  34.13900 54.57600 24.87500
C  35.50300 54.02500 21.85300
O  36.01000 53.72400 20.75800
C  35.16800 55.48200 22.09400
N  36.62700 48.76200 22.90000
C  36.44600 49.57200 21.85300
C  36.64800 48.85400 20.51600
C  37.40400 47.57500 20.95900
C  37.17400 47.56100 22.42600
C  35.26800 48.54500 19.83200
C  38.92400 47.67900 20.62000
C  39.60600 46.51400 19.83600
N  36.90400 47.39900 25.47300
C  37.35600 46.34300 24.66000
C  37.69300 45.26400 25.50400
C  37.35500 45.67500 26.77800
C  36.77800 46.91500 26.69700
C  38.47000 44.03200 25.02000
C  37.30100 45.25600 28.14100
O  37.56200 44.17500 28.64800
C  36.68500 46.50300 28.93900
C  35.50400 46.06100 29.66600
O  34.53300 45.56600 29.18500
O  35.72100 46.17500 31.08600
C  34.83300 45.43400 32.00900
H  34.67800 52.86100 27.07000
H  36.02000 51.40000 20.91000
H  38.02800 45.58500 22.83200
H  34.94100 49.03000 29.92700
H  35.53400 51.82600 29.22000
H  33.13100 50.29100 29.71600
H  32.85500 51.37700 28.37100
H  33.42600 52.06100 29.82600
H  37.33100 50.71900 29.83000
H  37.61000 49.02600 29.80700
H  37.51300 50.28900 32.09900
H  37.05400 48.62300 31.74500
H  33.48900 54.94200 24.08100
H  34.87400 55.36400 25.04100
H  33.57000 54.48300 25.80000
H  35.59300 56.02500 22.93800
H  34.10500 55.69300 21.97900
H  35.50300 55.88500 21.13800
H  37.19500 49.52500 19.85300
H  37.04100 46.61200 20.59900
H  35.02000 49.25700 19.04500
H  34.49600 48.57700 20.60100
H  35.22400 47.57100 19.34500
H  39.46200 47.77800 21.56300
H  39.14900 48.58200 20.05200
H  38.88600 45.70900 19.68500
H  40.31100 46.04500 20.52200
H  40.14700 46.81900 18.94000
H  39.06000 44.20500 24.12000
H  37.66200 43.36200 24.72500
H  39.09700 43.57000 25.78300
H  37.41000 46.83000 29.68400
H  34.56300 44.47200 31.57500
H  33.93200 46.01600 32.20200
H  35.38200 45.34800 32.94700

