158

Mg 1.58700 8.56200 27.68800
C  2.00100 10.89100 30.37500
C  1.28700 6.02200 30.19900
C  0.94600 6.57600 25.27200
C  1.38400 11.29600 25.58100
N  1.84500 8.50800 30.01200
C  1.89900 9.57900 30.96800
C  1.68200 9.10100 32.37900
C  1.77400 7.51500 32.25500
C  1.57200 7.32000 30.73000
C  3.03200 6.81300 32.71100
C  0.29500 9.76600 32.87800
C  0.01700 9.60100 34.42900
H  1.05000 8.92700 35.23500
N  1.31100 6.56400 27.67900
C  1.17700 5.70700 28.82000
C  0.83200 4.35500 28.29100
C  0.74100 4.46300 26.89100
C  0.98400 5.91100 26.50900
C  0.71900 3.12000 29.18000
C  0.51300 3.29100 25.87300
O  0.67300 3.49200 24.65000
C  0.09900 2.00200 26.26400
N  1.30100 8.91200 25.68100
C  1.03500 7.87500 24.87300
C  1.04000 8.29600 23.38300
C  0.77900 9.84600 23.54500
C  1.18900 10.03500 24.98900
C  2.32400 7.89500 22.59100
C  -0.65300 10.29700 23.27900
C  -0.80600 11.45000 22.32900
N  1.88000 10.64800 27.85900
C  1.75500 11.62200 26.88500
C  2.05700 12.92300 27.41200
C  2.13700 12.67200 28.80700
C  2.01800 11.23500 29.02300
C  1.80000 14.22700 26.72200
C  2.32700 13.34100 30.02800
O  2.57700 14.48700 30.32000
C  2.05400 12.20700 31.13300
C  3.01900 12.21700 32.27700
O  4.21100 11.98500 32.27200
O  2.38500 12.52700 33.38300
C  3.19600 12.40600 34.62200
H  1.20900 5.21000 30.92500
H  0.83400 5.91900 24.40700
H  1.20700 12.21000 25.01200
H  2.63000 9.50700 32.73100
H  0.89100 7.04500 32.68800
H  2.96000 5.95400 33.37900
H  3.65600 7.42300 33.36500
H  3.67900 6.42800 31.92300
H  -0.58400 9.38100 32.36200
H  0.27500 10.84000 32.69000
H  -0.90200 9.01600 34.47100
H  -0.26800 10.60200 34.75200
H  1.10100 3.32600 30.18000
H  1.28000 2.21900 28.93600
H  -0.30600 2.74900 29.19300
H  0.97500 1.36900 26.40600
H  -0.40700 1.63500 25.37200
H  -0.63100 1.96800 27.07200
H  0.22800 7.85400 22.80500
H  1.46500 10.29900 22.82900
H  2.54600 8.71100 21.90500
H  2.16500 6.94500 22.08100
H  3.11300 7.76300 23.33200
H  -0.95500 10.60300 24.28100
H  -1.35400 9.53300 22.94300
H  -1.06400 11.09700 21.33000
H  0.08700 12.07300 22.30000
H  -1.69800 11.94800 22.71000
H  0.96800 14.24900 26.01800
H  2.72100 14.43800 26.17800
H  1.56000 14.92200 27.52600
H  1.05900 12.41600 31.52500
H  3.83600 13.28700 34.67600
H  3.83100 11.52900 34.74300
H  2.45400 12.46100 35.41900
Mg -5.31500 25.85400 26.10300
C  -4.10200 27.48300 28.89100
C  -7.03600 23.68900 28.03100
C  -6.00200 24.10600 23.29400
C  -3.25600 27.76600 24.10100
N  -5.35500 25.51900 28.21000
C  -4.91400 26.42900 29.14700
C  -5.70500 26.16500 30.52600
C  -6.38400 24.81900 30.25200
C  -6.21000 24.62600 28.72800
C  -5.93600 23.51100 31.04400
C  -6.67700 27.32900 31.02600
C  -7.12900 27.29100 32.47300
H  -6.49300 26.26200 33.46500
N  -6.53800 24.18800 25.67100
C  -7.23100 23.49000 26.62600
C  -8.01500 22.57200 25.97700
C  -7.72400 22.60000 24.55900
C  -6.69800 23.68100 24.43900
C  -9.01600 21.64900 26.64800
C  -8.41700 21.90100 23.42100
O  -8.12700 22.12000 22.22800
C  -9.52400 20.90900 23.73200
N  -4.79700 26.07300 23.95200
C  -5.08300 25.08700 23.05200
C  -4.36100 25.35600 21.70100
C  -3.65400 26.67900 21.97900
C  -3.86000 26.83000 23.45700
C  -3.54000 24.15800 21.11800
C  -4.21600 27.86600 21.07900
C  -3.13300 28.81000 20.44600
N  -4.04600 27.47300 26.36000
C  -3.28000 28.15000 25.43400
C  -2.41600 29.00700 26.17300
C  -2.72500 28.93800 27.53600
C  -3.73500 27.90900 27.58900
C  -1.41200 29.93000 25.52800
C  -2.36800 29.27800 28.88600
O  -1.40900 29.93900 29.36300
C  -3.39400 28.48000 29.81400
C  -2.61600 27.82500 30.97500
O  -1.73600 26.98500 30.93800
O  -3.14600 28.26600 32.16600
C  -2.42700 27.85300 33.39800
H  -7.61400 22.95700 28.59900
H  -6.19100 23.58300 22.35400
H  -2.50400 28.18300 23.42800
H  -4.92700 25.95500 31.26000
H  -7.43800 24.95800 30.49100
H  -5.06600 23.75700 31.65200
H  -5.82000 22.63200 30.41000
H  -6.74200 23.19600 31.70800
H  -7.60700 27.41500 30.46400
H  -6.10000 28.25300 30.98700
H  -8.21800 27.25200 32.47000
H  -7.04600 28.32500 32.80700
H  -10.00700 21.78400 26.21400
H  -9.04800 21.90300 27.70800
H  -8.74000 20.62200 26.41000
H  -10.35500 21.56100 24.00300
H  -9.16700 20.25400 24.52600
H  -9.73600 20.25500 22.88600
H  -5.25400 25.42100 21.07900
H  -2.60200 26.55800 21.72100
H  -3.43500 23.34700 21.83800
H  -2.57500 24.51800 20.76100
H  -3.99000 23.61900 20.28400
H  -4.97900 28.34400 21.69200
H  -4.67800 27.35900 20.23200
H  -3.31000 28.77400 19.37100
H  -2.10800 28.48400 20.62400
H  -3.34500 29.85700 20.66100
H  -1.03500 30.56500 26.33000
H  -1.94000 30.52400 24.78200
H  -0.55400 29.46200 25.04600
H  -4.00700 29.24600 30.28800
H  -2.03100 28.74000 33.89300
H  -1.61900 27.13700 33.24400
H  -3.15200 27.43400 34.09500

