158

Mg 17.54600 -1.07300 27.53500
C  16.14300 0.85200 30.15100
C  19.33000 -2.75000 29.75100
C  18.77200 -2.72200 24.92700
C  15.81700 1.15900 25.22100
N  17.65800 -0.81000 29.73900
C  17.06100 -0.05300 30.68600
C  17.59700 -0.23500 32.11400
C  18.68300 -1.26800 31.77100
C  18.57700 -1.65700 30.28000
C  20.08100 -0.65000 32.17100
C  16.66400 -0.75100 33.19500
C  16.94200 -0.14000 34.61100
H  18.37700 0.07700 35.14900
N  18.73200 -2.65600 27.36500
C  19.36600 -3.22800 28.38700
C  20.00200 -4.47500 27.98300
C  19.94900 -4.45300 26.56200
C  19.11500 -3.28100 26.24000
C  20.73100 -5.40100 28.87200
C  20.48200 -5.41800 25.47100
O  20.20400 -5.30900 24.27600
C  21.31800 -6.66000 25.94700
N  17.32200 -0.82000 25.34400
C  17.98700 -1.63800 24.53500
C  17.87200 -1.19800 23.11500
C  16.83000 -0.04300 23.16000
C  16.61700 0.17600 24.62800
C  19.14300 -0.96400 22.27500
C  15.49000 -0.28800 22.38400
C  15.46000 0.03800 20.91400
N  16.19300 0.52200 27.61500
C  15.57500 1.30200 26.58200
C  14.57800 2.20600 27.31100
C  14.75700 1.98100 28.67000
C  15.80400 1.02700 28.83000
C  13.75000 3.25600 26.63700
C  14.42200 2.60000 29.92600
O  13.66900 3.48500 30.24000
C  15.25900 1.77600 30.93800
C  16.04200 2.84400 31.68900
O  17.08000 3.36800 31.32200
O  15.42500 2.97000 32.86400
C  16.09200 3.94100 33.75700
H  19.94800 -3.16400 30.55000
H  19.19800 -3.26100 24.07800
H  15.18900 1.76900 24.56800
H  17.92300 0.78900 32.29800
H  18.66300 -2.20700 32.32300
H  20.65600 -0.49300 31.25800
H  20.57900 -1.42400 32.75500
H  19.95300 0.29300 32.70300
H  16.79100 -1.83000 33.29100
H  15.66300 -0.51300 32.83500
H  16.52700 -0.90700 35.26500
H  16.38000 0.74500 34.91200
H  21.74000 -5.33800 28.46500
H  20.31600 -6.40700 28.81400
H  20.68600 -5.08000 29.91300
H  22.35400 -6.44500 26.20700
H  21.38200 -7.32900 25.08900
H  20.87200 -7.10900 26.83500
H  17.36200 -2.02700 22.62500
H  17.33400 0.85200 22.79400
H  20.00000 -1.06800 22.94100
H  19.21900 -0.00400 21.76500
H  19.19000 -1.81500 21.59500
H  14.73300 0.24800 22.95700
H  15.25100 -1.35100 22.41600
H  14.71200 0.79400 20.67500
H  15.22700 -0.90100 20.41100
H  16.46100 0.25400 20.54100
H  13.63200 3.05600 25.57200
H  14.25900 4.21500 26.73000
H  12.72100 3.33100 26.98900
H  14.58900 1.40900 31.71400
H  15.75300 3.83600 34.78700
H  16.02900 4.99400 33.48200
H  17.16400 3.76600 33.66000
Mg 25.37400 1.07700 29.53700
C  27.33800 0.90500 32.46300
C  22.64700 1.63600 31.45500
C  23.75900 1.28400 26.60300
C  28.20900 0.11400 27.84700
N  25.09300 1.22400 31.74400
C  26.02600 1.29900 32.74800
C  25.40400 1.58200 34.19800
C  23.87400 1.46400 33.86200
C  23.78500 1.32700 32.26200
C  23.13900 0.32200 34.59200
C  25.92700 2.88600 34.77700
C  26.41600 2.72400 36.33200
H  25.85900 3.73700 37.31700
N  23.43300 1.22000 29.09100
C  22.49300 1.59700 30.00400
C  21.23600 1.86900 29.22800
C  21.50200 1.61600 27.89300
C  22.95100 1.33300 27.79600
C  19.96200 2.43100 29.88300
C  20.56200 1.68500 26.66600
O  20.83900 1.20400 25.52500
C  19.24000 2.14300 26.88200
N  25.91900 0.61900 27.45400
C  25.12900 1.03500 26.48400
C  25.81300 0.83700 25.12300
C  27.27000 0.59700 25.54400
C  27.16000 0.34400 27.04200
C  25.24200 -0.33900 24.29400
C  28.26300 1.72700 25.14700
C  29.23900 1.34900 23.94800
N  27.33600 0.37200 30.03600
C  28.34400 0.14600 29.22600
C  29.59600 -0.04700 29.99200
C  29.20300 0.18500 31.33800
C  27.83500 0.51300 31.27800
C  30.90400 -0.47900 29.45400
C  29.67900 0.25100 32.71900
O  30.77300 0.01500 33.17400
C  28.45500 0.76300 33.50500
C  28.25200 -0.20500 34.56900
O  27.67500 -1.27400 34.42700
O  28.90900 0.20400 35.71700
C  28.79300 -0.78000 36.87000
H  21.72600 1.68800 32.04000
H  23.19700 1.29200 25.66700
H  29.03000 -0.11900 27.16600
H  25.66200 0.85300 34.96700
H  23.39500 2.38200 34.20400
H  22.34800 0.64100 35.27000
H  23.81500 -0.30600 35.17300
H  22.67300 -0.33300 33.85500
H  25.38300 3.78200 34.47600
H  26.82000 2.93600 34.15400
H  27.48600 2.92000 36.26000
H  26.26900 1.71900 36.72600
H  19.78300 3.29200 29.23900
H  20.13600 2.87600 30.86300
H  19.13300 1.72600 29.93100
H  19.31400 3.20200 27.13200
H  18.62700 1.56800 27.57600
H  18.64500 2.07400 25.97200
H  25.77100 1.71200 24.47500
H  27.54800 -0.30000 24.99100
H  25.17800 -1.19200 24.96800
H  25.99600 -0.50100 23.52300
H  24.22800 -0.10200 23.97200
H  28.81900 2.05700 26.02500
H  27.69200 2.55600 24.72900
H  28.87300 0.53800 23.31800
H  30.20700 1.02100 24.32700
H  29.33000 2.29600 23.41600
H  31.38200 -1.08600 30.22300
H  31.60900 0.34800 29.37000
H  30.84700 -1.02800 28.51400
H  28.68000 1.74100 33.93200
H  28.95800 -1.82000 36.58900
H  27.85900 -0.64200 37.41500
H  29.65700 -0.46800 37.45600

