158

Mg 41.99200 9.08500 29.69100
C  43.59200 10.10900 32.61300
C  39.65300 7.57100 31.61100
C  40.55900 7.90600 26.81600
C  44.75200 10.05400 27.83600
N  41.70400 8.77900 31.82800
C  42.33400 9.46200 32.79400
C  41.72900 9.19300 34.17900
C  40.75800 8.04300 33.85000
C  40.63900 8.23900 32.32200
C  41.15700 6.66200 34.30000
C  41.15300 10.46400 34.87900
C  41.07600 10.59900 36.41300
H  41.26600 11.94300 37.07100
N  40.27500 8.00900 29.27600
C  39.42400 7.39900 30.25900
C  38.30300 6.73300 29.56800
C  38.48700 7.05200 28.14100
C  39.84100 7.71700 28.02600
C  37.29700 5.86800 30.33700
C  37.60900 6.55700 27.01800
O  37.79200 6.76000 25.80700
C  36.34400 5.74000 27.37700
N  42.52100 8.98700 27.63800
C  41.83600 8.44600 26.65100
C  42.56100 8.47900 25.28000
C  43.91500 9.25700 25.69200
C  43.67200 9.56500 27.17100
C  42.90400 7.11300 24.67000
C  44.05800 10.59900 24.93100
C  43.14100 11.76900 25.24500
N  43.85800 9.96300 30.11600
C  44.83300 10.27700 29.25600
C  45.80200 11.09300 29.99400
C  45.33400 11.12300 31.34400
C  44.21400 10.31900 31.32800
C  47.00300 11.75500 29.50400
C  45.50800 11.54800 32.73900
O  46.31000 12.34100 33.18500
C  44.45100 10.90100 33.64000
C  44.97100 10.03200 34.73500
O  45.72100 9.10100 34.55500
O  44.48800 10.48400 35.96900
C  45.12400 9.91600 37.10800
H  38.96200 7.25100 32.39400
H  40.18000 7.45400 25.89700
H  45.57500 10.47000 27.25200
H  42.57300 8.84000 34.77100
H  39.81200 8.20700 34.36600
H  40.37300 6.26200 34.94300
H  42.18200 6.57500 34.66100
H  41.13500 6.05600 33.39400
H  40.11500 10.50800 34.55000
H  41.73900 11.29500 34.48600
H  41.64300 9.76100 36.81900
H  40.02800 10.38700 36.62600
H  37.32700 4.79200 30.17100
H  36.28200 6.20900 30.13200
H  37.54900 5.90600 31.39700
H  36.59200 4.75200 27.76500
H  35.78700 5.54700 26.46000
H  35.64400 6.19500 28.07800
H  42.01600 9.08400 24.55500
H  44.78800 8.61800 25.56100
H  43.97200 6.92700 24.56100
H  42.39400 7.12700 23.70700
H  42.50600 6.31100 25.29200
H  43.99000 10.37700 23.86700
H  45.09200 10.93000 25.02400
H  42.29500 11.46500 25.86000
H  42.66900 12.26300 24.39600
H  43.78600 12.51800 25.70400
H  46.76200 12.73100 29.08300
H  47.60800 11.17400 28.80800
H  47.67300 12.04000 30.31500
H  43.98200 11.79700 34.04500
H  46.15400 9.58400 36.98200
H  44.60300 8.99400 37.36600
H  45.20900 10.57600 37.97100
Mg -12.26100 15.66900 41.64000
C  -9.17800 13.92600 41.46200
C  -10.70000 18.42700 40.35900
C  -15.35900 17.04700 40.96200
C  -13.81000 12.62000 42.34900
N  -10.16200 16.03600 40.83900
C  -9.09700 15.27600 41.04900
C  -7.87900 15.96400 40.54800
C  -8.40600 17.46500 40.43900
C  -9.80500 17.33400 40.63600
C  -7.75200 18.45900 41.37700
C  -7.24500 15.33200 39.29000
C  -5.71500 15.56800 39.15400
H  -5.17500 16.26800 37.90300
N  -12.96600 17.52500 40.91800
C  -12.07100 18.51900 40.54600
C  -12.86900 19.68300 40.27000
C  -14.24000 19.35800 40.52700
C  -14.27100 17.92200 40.85500
C  -12.29700 21.05600 39.90000
C  -15.40900 20.29300 40.31200
O  -15.16900 21.43300 39.97000
C  -16.83400 19.95300 40.68000
N  -14.30300 14.85900 41.41300
C  -15.39900 15.65000 41.29600
C  -16.70900 14.85700 41.41000
C  -16.17900 13.49400 41.90600
C  -14.66600 13.61200 41.84400
C  -17.84500 15.46100 42.26000
C  -16.73600 12.24300 41.11600
C  -17.19800 11.15100 42.05000
N  -11.69900 13.69500 41.92800
C  -12.40600 12.61600 42.36400
C  -11.53000 11.46300 42.62000
C  -10.24100 12.00800 42.34100
C  -10.42500 13.30900 41.89100
C  -12.00700 10.18200 43.21900
C  -8.83800 11.66700 42.31600
O  -8.21900 10.64900 42.59500
C  -8.11000 12.89700 41.73900
C  -7.06500 13.24100 42.71800
O  -7.24800 13.47800 43.90800
O  -5.89500 13.49300 42.09000
C  -4.91100 14.31000 42.88000
H  -10.26000 19.38100 40.06500
H  -16.30500 17.55900 40.77600
H  -14.27500 11.69300 42.69100
H  -7.07900 16.01500 41.28600
H  -8.20300 17.90600 39.46300
H  -6.75100 18.16500 41.69100
H  -8.31100 18.62100 42.29900
H  -7.55200 19.35200 40.78500
H  -7.75100 15.82600 38.46100
H  -7.41500 14.25500 39.31100
H  -5.23200 14.59400 39.22400
H  -5.48000 16.04500 40.10500
H  -11.35600 21.12600 39.35500
H  -12.19900 21.57100 40.85500
H  -12.94500 21.67100 39.27500
H  -17.23800 19.22100 39.98000
H  -17.54400 20.74900 40.45400
H  -16.84100 19.69100 41.73800
H  -17.15300 14.69100 40.42800
H  -16.36500 13.46200 42.97900
H  -18.51400 16.02700 41.61100
H  -17.40600 16.14100 42.98900
H  -18.32900 14.63400 42.77900
H  -16.07200 11.74200 40.41200
H  -17.64100 12.65100 40.66500
H  -16.48700 10.33000 41.96800
H  -18.21400 10.76200 41.98700
H  -17.21400 11.43800 43.10100
H  -12.89700 9.83400 42.69600
H  -12.17400 10.39500 44.27500
H  -11.23600 9.41200 43.19800
H  -7.48000 12.52500 40.93100
H  -5.36100 15.21400 43.29200
H  -4.17300 14.76400 42.21900
H  -4.42800 13.69000 43.63600

