158

Mg 47.92200 34.19400 26.80600
C  46.14800 32.93000 29.60900
C  48.68600 37.00000 28.58200
C  48.91000 35.76600 23.92600
C  46.89100 31.50700 24.98300
N  47.49800 34.76100 28.85200
C  46.85000 34.08600 29.88200
C  46.97600 34.78400 31.18900
C  47.36700 36.22100 30.68300
C  47.94700 36.02700 29.26400
C  46.21600 37.27800 30.77800
C  48.02700 34.16800 32.19500
C  47.69700 34.36400 33.62400
H  46.71900 35.45300 34.08900
N  48.65800 36.13800 26.36900
C  48.99400 37.05400 27.27200
C  49.60100 38.21000 26.59900
C  49.60900 37.92900 25.17800
C  48.93900 36.57400 25.09100
C  50.09500 39.38400 27.31600
C  50.22500 38.71100 24.11100
O  50.24000 38.25200 22.95800
C  51.01500 39.98700 24.32500
N  47.80800 33.71200 24.73800
C  48.37900 34.46700 23.74600
C  48.40700 33.73000 22.45900
C  47.65000 32.37900 22.64800
C  47.47900 32.49500 24.19000
C  47.90500 34.52500 21.25200
C  48.49100 31.12300 22.30100
C  49.60600 30.67100 23.22500
N  46.84100 32.45000 27.21400
C  46.50500 31.42100 26.35700
C  45.80000 30.40900 27.08800
C  45.53300 31.02600 28.35500
C  46.23200 32.23900 28.41000
C  45.23800 29.16500 26.63200
C  44.78000 30.82600 29.53700
O  44.06600 29.84800 29.85500
C  45.03500 32.13700 30.40000
C  45.32300 31.74700 31.78700
O  46.33900 31.19200 32.15300
O  44.22600 32.19800 32.59600
C  44.38000 31.85300 34.03100
H  48.87900 37.85700 29.23100
H  49.56400 36.10400 23.11900
H  46.67100 30.58300 24.44400
H  45.96000 34.72600 31.57900
H  48.08900 36.58000 31.41700
H  45.28900 36.92000 31.22500
H  45.90000 37.48400 29.75500
H  46.50600 38.23100 31.22000
H  49.06500 34.47000 32.05000
H  48.12300 33.08300 32.17100
H  48.63200 34.60800 34.12900
H  47.22000 33.47300 34.03100
H  49.68800 40.27900 26.84700
H  51.18300 39.33600 27.26500
H  49.89000 39.43500 28.38600
H  51.29700 40.46500 23.38700
H  51.90300 39.70600 24.89200
H  50.53600 40.68500 25.01200
H  49.45900 33.51400 22.27100
H  46.77000 32.54900 22.02900
H  46.95200 34.11500 20.91900
H  48.75800 34.64700 20.58400
H  47.65100 35.53300 21.58000
H  48.90800 31.29800 21.31000
H  47.73500 30.35500 22.46300
H  49.92200 31.46600 23.90100
H  50.53800 30.39200 22.73300
H  49.30200 29.79100 23.79100
H  45.46100 28.44000 27.41500
H  45.64800 28.87200 25.66500
H  44.15800 29.26900 26.52600
H  44.08400 32.66900 30.41600
H  43.72400 31.01000 34.25000
H  44.01700 32.70900 34.60000
H  45.37100 31.59900 34.40700
Mg 8.89200 48.61000 25.48100
C  7.05100 48.56200 28.49200
C  11.60100 49.88000 27.35900
C  10.67400 48.86700 22.62300
C  6.02000 47.98200 23.76900
N  9.35900 49.04400 27.75600
C  8.41400 48.94300 28.76900
C  8.90100 49.45800 30.07300
C  10.29500 50.10400 29.62300
C  10.50100 49.68400 28.13400
C  10.51700 51.62700 29.90300
C  8.86200 48.61200 31.35800
C  9.87000 48.91400 32.54700
H  9.24800 48.75600 33.97600
N  10.94400 49.15100 25.06800
C  11.91900 49.53700 26.00300
C  13.20100 49.55300 25.25600
C  12.92700 49.26700 23.87000
C  11.44800 49.08600 23.77800
C  14.52800 49.91700 25.90400
C  13.88600 49.33400 22.69000
O  13.49900 49.15100 21.53100
C  15.44000 49.61700 22.75900
N  8.39100 48.50600 23.46700
C  9.31900 48.46000 22.52700
C  8.69700 48.25500 21.14900
C  7.25800 47.75400 21.51700
C  7.16800 48.09900 22.99200
C  8.74800 49.48200 20.18700
C  6.85900 46.20800 21.28600
C  6.60000 45.92100 19.79100
N  7.01400 48.28700 26.00600
C  5.90700 48.04100 25.17300
C  4.71300 47.84300 25.90900
C  5.13200 48.05800 27.24000
C  6.53700 48.30400 27.23600
C  3.26800 47.62600 25.34600
C  4.70700 48.14400 28.60300
O  3.59200 48.08500 29.03600
C  5.93600 48.46100 29.49000
C  6.00400 47.24000 30.31100
O  6.84300 46.32700 30.23300
O  5.02800 47.15600 31.21900
C  5.27200 46.26600 32.40200
H  12.49700 50.18600 27.90300
H  11.19100 48.90600 21.66300
H  5.05300 47.80700 23.29200
H  8.26100 50.29600 30.35000
H  11.13100 49.57300 30.07800
H  11.56200 51.87000 30.09800
H  9.86200 52.04600 30.66700
H  10.43400 52.17600 28.96500
H  9.19000 47.62900 31.02000
H  7.85300 48.44300 31.73300
H  10.05800 49.97800 32.39700
H  10.80500 48.36000 32.46600
H  14.63200 49.67200 26.96100
H  14.88400 50.91100 25.63000
H  15.27500 49.24400 25.48400
H  15.78000 49.99800 21.79600
H  15.97100 48.71700 23.06800
H  15.56500 50.40200 23.50500
H  9.20200 47.40000 20.70000
H  6.57800 48.39100 20.95200
H  9.31300 49.32300 19.26800
H  9.27400 50.29300 20.69100
H  7.74700 49.85200 19.96200
H  5.94600 46.01900 21.85000
H  7.67800 45.52300 21.50300
H  6.62500 46.84600 19.21400
H  5.65300 45.39800 19.66200
H  7.43500 45.30400 19.46000
H  2.59700 47.88000 26.16700
H  3.04500 46.68900 24.83600
H  2.96200 48.43000 24.67700
H  5.70100 49.32600 30.11100
H  4.35300 46.11100 32.96600
H  6.02500 46.69500 33.06300
H  5.65600 45.29100 32.10000

