158

Mg -10.03800 39.68200 39.89200
C  -9.09600 36.33500 39.18200
C  -6.95500 40.70100 38.79700
C  -11.30200 42.92500 39.61300
C  -13.16400 38.59900 40.74100
N  -8.30900 38.57100 38.85900
C  -8.07100 37.24800 38.76300
C  -6.66800 36.95700 38.24900
C  -5.91900 38.34000 38.52300
C  -7.13500 39.23500 38.76300
C  -5.08300 38.30800 39.86400
C  -6.52900 36.38700 36.78200
C  -6.64100 37.28700 35.57500
H  -7.82400 37.16000 34.62900
N  -9.27000 41.50500 39.28500
C  -7.92900 41.71300 38.96200
C  -7.69300 43.12500 38.92900
C  -8.90400 43.77600 39.06900
C  -9.91700 42.73000 39.31900
C  -6.32400 43.77100 38.74400
C  -9.06100 45.34000 38.94200
O  -8.20300 46.10000 38.58000
C  -10.36900 45.95700 39.39600
N  -11.92300 40.66500 40.01900
C  -12.25600 41.98100 39.87600
C  -13.71700 42.39000 40.14400
C  -14.28700 40.95900 40.53500
C  -13.02800 39.98800 40.44600
C  -13.89200 43.52000 41.22500
C  -15.54300 40.61600 39.67400
C  -16.88300 40.84500 40.21600
N  -10.97200 37.82900 40.11100
C  -12.29500 37.56000 40.45700
C  -12.49900 36.13600 40.37400
C  -11.25800 35.62900 39.90100
C  -10.42900 36.68400 39.65400
C  -13.70300 35.33800 40.68300
C  -10.54600 34.39300 39.57100
O  -11.03900 33.26800 39.55300
C  -9.13600 34.76800 39.06000
C  -8.09000 34.04800 39.81800
O  -7.98300 33.99800 41.03100
O  -7.15600 33.61900 38.97600
C  -5.83700 33.10000 39.41300
H  -5.90400 40.96800 38.67300
H  -11.68300 43.93700 39.45900
H  -14.16900 38.32200 41.06500
H  -6.40800 36.14200 38.92400
H  -5.27300 38.75600 37.75100
H  -5.11300 37.32300 40.33000
H  -5.27300 39.04000 40.64900
H  -4.02600 38.56800 39.79400
H  -7.33500 35.65300 36.77400
H  -5.62600 35.77600 36.77100
H  -5.68600 37.15200 35.06800
H  -6.61700 38.30300 35.97100
H  -6.29200 44.20400 37.74400
H  -5.51000 43.05100 38.83100
H  -6.14600 44.59200 39.43900
H  -10.58700 45.71700 40.43700
H  -11.21400 45.82900 38.72000
H  -10.26300 47.04200 39.40900
H  -14.07600 42.78800 39.19500
H  -14.56100 40.96000 41.59000
H  -12.85300 43.69200 41.50500
H  -14.45200 43.21900 42.11000
H  -14.26300 44.42600 40.74500
H  -15.35600 39.64300 39.22000
H  -15.56700 41.34400 38.86400
H  -17.55100 39.98600 40.15900
H  -17.40400 41.69000 39.76500
H  -16.84200 41.01800 41.29100
H  -14.46400 35.34300 39.90200
H  -14.01700 35.74900 41.64200
H  -13.33700 34.31400 40.61700
H  -9.07100 34.49700 38.00600
H  -5.78800 33.18000 40.49900
H  -4.99000 33.54600 38.89300
H  -5.72600 32.04900 39.14400
Mg -0.18800 44.20100 24.98700
C  1.71900 44.45000 28.06600
C  -2.85200 43.24900 26.77200
C  -1.84500 43.45500 22.07800
C  2.77200 44.35200 23.26000
N  -0.43900 43.81600 27.21600
C  0.35500 44.17000 28.33700
C  -0.42500 43.90200 29.61200
C  -1.90700 43.52400 29.12500
C  -1.69400 43.49300 27.59000
C  -2.54100 42.25200 29.82000
C  -0.43800 45.18500 30.49600
C  0.07400 44.88100 31.95900
H  -0.22700 43.41700 32.51700
N  -2.18800 43.57700 24.48600
C  -3.08900 43.23600 25.42700
C  -4.34900 42.91800 24.76000
C  -4.14600 43.12200 23.34900
C  -2.68500 43.32200 23.21700
C  -5.57000 42.41700 25.65500
C  -5.11800 43.06600 22.16300
O  -4.76000 43.30800 21.02300
C  -6.66100 42.97400 22.58100
N  0.38600 44.02500 23.02500
C  -0.46800 43.76700 22.01100
C  0.23500 43.81900 20.66100
C  1.57800 44.38500 21.06000
C  1.54000 44.27400 22.50800
C  0.31000 42.42300 20.04100
C  1.86300 45.89700 20.52000
C  1.66800 47.03000 21.45500
N  1.81800 44.40900 25.46600
C  2.93400 44.45800 24.65400
C  4.12100 44.63800 25.45000
C  3.68500 44.62400 26.81400
C  2.29400 44.52400 26.81500
C  5.51900 44.88100 25.02600
C  4.14600 44.68900 28.23900
O  5.27700 44.78100 28.68100
C  2.81700 44.70300 29.06300
C  2.90700 43.68200 30.20500
O  2.42400 42.55000 30.16500
O  3.69900 44.17300 31.18700
C  4.05300 43.13100 32.15000
H  -3.74000 43.04300 27.37300
H  -2.44200 43.46300 21.16400
H  3.68500 44.37500 22.66200
H  0.11400 43.08700 30.09600
H  -2.56900 44.36700 29.32100
H  -3.49000 42.58300 30.24300
H  -1.79200 41.79400 30.46700
H  -2.62900 41.56200 28.98100
H  -1.47600 45.50700 30.58700
H  0.24700 45.97300 30.18300
H  -0.24700 45.67000 32.63900
H  1.16000 44.89200 31.87000
H  -6.11000 41.63400 25.12200
H  -6.25400 43.24500 25.83800
H  -5.19800 41.92200 26.55200
H  -6.98800 41.95300 22.78200
H  -7.25700 43.38200 21.76600
H  -7.00900 43.46500 23.49000
H  -0.30200 44.52100 20.02300
H  2.36400 43.67700 20.79700
H  1.23100 42.42100 19.45800
H  -0.50300 42.13500 19.37400
H  0.28500 41.72200 20.87600
H  1.21800 46.10300 19.66500
H  2.81600 46.10400 20.03400
H  1.03800 47.81300 21.03400
H  2.62800 47.48500 21.70200
H  1.07300 46.76900 22.33000
H  5.74300 45.16200 23.99700
H  6.07900 43.97600 25.25900
H  5.74700 45.74600 25.64900
H  2.70700 45.62400 29.63400
H  4.96300 42.61200 31.84900
H  3.31500 42.33000 32.20600
H  4.25000 43.54800 33.13700

