158

Mg 1.76500 -1.76400 44.43800
C  5.14200 -1.15300 43.85800
C  0.97900 0.83800 42.40100
C  -1.38700 -2.92200 44.22000
C  2.75300 -4.64600 46.27600
N  2.86800 -0.48500 43.25800
C  4.24000 -0.48600 43.05700
C  4.68500 0.56900 42.04100
C  3.38600 1.39500 41.85800
C  2.33200 0.53900 42.53200
C  3.41600 2.76500 42.64700
C  5.12600 -0.14800 40.71200
C  6.45700 0.32600 40.15700
H  6.52400 1.14700 38.82700
N  -0.03800 -0.94200 43.59600
C  -0.14600 0.14200 42.79700
C  -1.53900 0.33500 42.44100
C  -2.30700 -0.69800 42.89400
C  -1.25300 -1.62800 43.59600
C  -1.92200 1.59700 41.73500
C  -3.80000 -0.90600 42.79300
O  -4.40400 -0.20900 41.99600
C  -4.50600 -2.00000 43.62000
N  0.82900 -3.62900 45.08700
C  -0.50500 -3.80300 44.94900
C  -0.90100 -5.24100 45.48800
C  0.42300 -5.62700 46.31800
C  1.39000 -4.57000 45.91400
C  -2.17200 -5.39900 46.41500
C  0.97400 -7.03800 46.10600
C  0.95900 -7.86100 47.38300
N  3.55300 -2.77700 45.04800
C  3.84700 -3.88100 45.80400
C  5.22000 -4.01100 45.99300
C  5.83200 -2.99400 45.20400
C  4.76700 -2.23700 44.67400
C  5.97700 -5.09800 46.70900
C  7.08000 -2.47400 44.61600
O  8.23800 -2.87900 44.78300
C  6.70200 -1.09000 43.79800
C  7.24700 0.15400 44.44000
O  6.93000 0.61300 45.51800
O  8.05500 0.80100 43.53900
C  8.54500 2.09300 43.99600
H  0.77200 1.69700 41.76000
H  -2.42200 -3.23800 44.07600
H  3.12300 -5.44000 46.92700
H  5.48300 1.19500 42.44000
H  3.18000 1.51800 40.79500
H  3.37400 3.60500 41.95400
H  4.33400 2.82700 43.23200
H  2.61400 2.81600 43.38200
H  4.29200 -0.10900 40.01100
H  5.28100 -1.17800 41.03300
H  7.30200 -0.35800 40.23200
H  6.85500 1.03500 40.88200
H  -2.85500 1.68800 41.17900
H  -1.15900 1.80900 40.98600
H  -1.70000 2.39700 42.44100
H  -4.42800 -2.99700 43.18600
H  -5.55300 -1.70200 43.68100
H  -4.08800 -1.98600 44.62600
H  -0.98800 -5.87200 44.60300
H  0.17600 -5.36500 47.34700
H  -2.77900 -4.49800 46.33200
H  -1.88400 -5.53200 47.45800
H  -2.68300 -6.25900 45.98200
H  2.00800 -7.07700 45.76400
H  0.36000 -7.66300 45.45700
H  1.66500 -8.66400 47.16700
H  -0.04100 -8.29300 47.39500
H  1.23500 -7.18900 48.19600
H  5.54400 -5.35100 47.67600
H  7.03900 -4.85700 46.75700
H  5.89300 -6.01200 46.12100
H  6.88900 -1.18900 42.72900
H  7.67100 2.74300 44.04200
H  9.22300 2.40700 43.20200
H  8.84300 1.93100 45.03200
Mg 16.99300 -1.23100 27.84200
C  15.78500 0.78300 30.51200
C  19.12500 -2.74600 30.01700
C  18.65100 -2.69000 25.29700
C  15.17500 0.69200 25.75700
N  17.50300 -0.83400 29.97400
C  16.84100 -0.11600 30.98400
C  17.38200 -0.38100 32.39700
C  18.54800 -1.42800 32.11500
C  18.41100 -1.75800 30.62500
C  19.95300 -1.00100 32.59800
C  16.24000 -0.96900 33.37600
C  16.10700 -0.28100 34.72900
H  17.35900 0.33500 35.29900
N  18.59300 -2.59700 27.65000
C  19.27500 -3.17800 28.69900
C  20.09300 -4.24200 28.16700
C  20.02900 -4.19500 26.76600
C  19.03200 -3.15000 26.53100
C  20.83200 -5.17900 28.96400
C  20.63800 -5.04800 25.76300
O  20.16800 -5.19300 24.60100
C  21.74400 -5.90900 26.08000
N  16.92700 -1.12100 25.87100
C  17.67900 -1.73100 24.92500
C  17.40600 -1.32300 23.52100
C  16.11500 -0.46000 23.70700
C  16.04100 -0.30100 25.23800
C  18.60100 -0.61700 22.80600
C  14.78800 -1.17100 23.24200
C  14.58400 -1.45700 21.72100
N  15.64300 0.34800 28.01100
C  14.92000 1.02200 27.11200
C  14.04100 2.02600 27.70200
C  14.32800 1.95600 29.07500
C  15.35100 0.97300 29.18900
C  13.04800 2.97900 27.04000
C  14.06800 2.55200 30.38300
O  13.39600 3.52900 30.68900
C  14.84300 1.69200 31.46600
C  15.64400 2.61500 32.33500
O  16.77700 3.02300 32.09500
O  14.91600 2.92700 33.43100
C  15.63700 3.81300 34.40900
H  19.78900 -3.23800 30.73100
H  19.22400 -3.06200 24.44500
H  14.58900 1.33000 25.09300
H  17.85200 0.54000 32.74300
H  18.48700 -2.43300 32.53300
H  20.50200 -1.90200 32.87100
H  19.87800 -0.40500 33.50800
H  20.54600 -0.52200 31.81800
H  16.28100 -2.04600 33.53600
H  15.31500 -0.78200 32.83000
H  15.59200 -0.92100 35.44500
H  15.36100 0.47900 34.49400
H  20.39200 -6.17400 28.91000
H  20.88500 -4.86400 30.00600
H  21.90400 -5.23800 28.77200
H  21.40800 -6.70600 26.74300
H  22.47400 -5.31400 26.63100
H  22.24700 -6.31000 25.20000
H  17.19200 -2.25900 23.00400
H  16.23500 0.48300 23.17300
H  19.11900 -1.31900 22.15300
H  19.37100 -0.28600 23.50400
H  18.32200 0.21100 22.15600
H  14.02000 -0.49300 23.61200
H  14.76700 -2.07400 23.85200
H  13.62000 -1.00000 21.49900
H  14.51000 -2.49200 21.38700
H  15.34700 -1.03000 21.07000
H  12.47200 2.46600 26.26900
H  13.55000 3.80500 26.53700
H  12.25600 3.34600 27.69300
H  14.06300 1.15700 32.00700
H  15.33200 4.85400 34.51500
H  16.72700 3.83800 34.41400
H  15.38200 3.30000 35.33600

