158

Mg 9.70000 48.40200 25.05700
C  7.30900 49.03900 27.74600
C  12.18600 49.43300 27.03900
C  11.58800 48.29100 22.33600
C  6.81200 48.13200 22.96100
N  9.70000 49.27300 27.14800
C  8.68300 49.34300 28.07100
C  9.32300 49.55800 29.48700
C  10.70100 50.26000 29.00400
C  10.91100 49.57500 27.65100
C  10.79400 51.78000 28.97700
C  9.50400 48.14200 30.24100
C  9.38100 48.25400 31.79900
H  9.23800 47.06500 32.80800
N  11.66400 48.62800 24.72200
C  12.51000 49.02700 25.67800
C  13.83100 48.97900 25.07800
C  13.76100 48.59500 23.66400
C  12.29900 48.55100 23.48400
C  15.06700 49.24600 25.87200
C  14.79200 48.37200 22.60500
O  14.50000 48.20200 21.45500
C  16.23100 48.31500 22.94600
N  9.24600 48.26100 23.01900
C  10.27600 48.10100 22.12400
C  9.78100 47.59400 20.75400
C  8.16100 47.66900 20.91000
C  8.06600 48.04500 22.37000
C  10.27600 48.40000 19.47200
C  7.44100 46.37500 20.63300
C  8.15300 45.07700 21.10200
N  7.53900 48.43600 25.22700
C  6.53300 48.33100 24.29400
C  5.25400 48.37600 24.90000
C  5.53800 48.55800 26.25200
C  6.93000 48.67000 26.41900
C  3.82900 48.26600 24.36100
C  4.90200 48.83900 27.55000
O  3.73600 48.95100 27.86200
C  6.10100 49.06700 28.59900
C  6.00900 48.02600 29.64700
O  6.39800 46.85800 29.41700
O  5.55700 48.44100 30.85400
C  5.61700 47.35800 31.86800
H  12.96800 49.93500 27.61400
H  12.13600 48.25300 21.39200
H  5.88900 47.91300 22.42000
H  8.63900 50.23800 29.99600
H  11.49900 49.96400 29.68500
H  9.82500 52.26600 28.86700
H  11.49500 52.01800 28.17600
H  11.30600 52.12700 29.87500
H  10.47300 47.69800 30.00900
H  8.71200 47.48400 29.88500
H  8.47200 48.80400 32.04100
H  10.25600 48.82500 32.11100
H  14.90200 49.83100 26.77700
H  15.79400 49.79500 25.27200
H  15.53900 48.27900 26.04400
H  16.65100 47.53500 22.31100
H  16.21400 48.05000 24.00300
H  16.74100 49.27800 22.93600
H  10.20000 46.58800 20.75600
H  7.73400 48.46100 20.29500
H  9.45800 49.00500 19.08000
H  10.63100 47.85900 18.59600
H  11.01100 49.14900 19.76600
H  7.23100 46.25800 19.56900
H  6.45000 46.36100 21.08800
H  7.30500 44.47200 21.42200
H  8.90200 45.19800 21.88500
H  8.55500 44.55800 20.23200
H  3.73200 48.59700 23.32700
H  3.12600 48.81900 24.98400
H  3.46000 47.24400 24.43800
H  5.93000 50.08000 28.96000
H  4.76400 46.68700 31.76900
H  5.62800 47.76300 32.88000
H  6.48900 46.71100 31.76800
Mg 1.09500 43.95600 25.15500
C  3.03500 43.81000 28.06800
C  -1.72000 43.10100 27.19600
C  -0.79000 43.20100 22.35000
C  3.79600 44.16000 23.30200
N  0.77100 43.57200 27.48600
C  1.74200 43.61600 28.42300
C  1.09700 43.31700 29.77500
C  -0.44700 42.94100 29.42000
C  -0.51700 43.20900 27.94700
C  -0.94000 41.52400 29.78000
C  1.15800 44.60500 30.69600
C  0.47000 44.48400 32.12800
H  0.34500 43.10700 32.84400
N  -1.01500 43.59400 24.77600
C  -1.93200 43.37000 25.80000
C  -3.21500 43.34900 25.18200
C  -3.03100 43.10800 23.72800
C  -1.54200 43.25700 23.52100
C  -4.54200 43.53400 26.00400
C  -4.10400 43.01600 22.71400
O  -3.94700 43.06900 21.50600
C  -5.51600 43.05700 23.20000
N  1.43800 43.68000 23.03400
C  0.51800 43.49500 22.00300
C  1.16700 43.45700 20.61800
C  2.63200 43.87400 20.95800
C  2.64700 43.94900 22.54800
C  1.17000 42.04800 19.89300
C  3.00500 45.25500 20.23600
C  2.53100 46.71500 20.82900
N  3.02000 44.02700 25.53900
C  3.98800 44.29300 24.67800
C  5.26300 44.44100 25.43900
C  4.88200 44.17600 26.75100
C  3.47700 43.96300 26.77700
C  6.58600 44.66500 24.86700
C  5.42000 43.95200 28.09200
O  6.58700 43.77800 28.43500
C  4.27900 43.84600 29.05300
C  4.29600 42.55400 29.81700
O  4.04700 41.46900 29.34300
O  4.58600 42.73600 31.17400
C  4.69500 41.55100 32.03400
H  -2.55200 42.82900 27.84900
H  -1.35300 42.83000 21.49100
H  4.69100 44.32100 22.69800
H  1.49400 42.50100 30.37800
H  -1.19900 43.53600 29.93800
H  -1.87700 41.65400 30.32200
H  -0.23700 41.07800 30.48300
H  -1.20700 41.00500 28.86000
H  0.72800 45.43400 30.13400
H  2.18700 44.83900 30.97000
H  -0.56000 44.81100 31.98100
H  1.10500 45.12700 32.73700
H  -5.13900 44.33700 25.57100
H  -4.46800 43.71900 27.07500
H  -5.10600 42.60500 25.92400
H  -5.67100 42.21300 23.87100
H  -6.13700 42.82300 22.33500
H  -5.77200 44.01200 23.66000
H  0.59400 44.20400 20.06900
H  3.31300 43.04600 20.76100
H  0.60600 41.38700 20.55000
H  2.09800 41.57800 19.56500
H  0.49900 42.21400 19.05100
H  2.60900 45.26000 19.22100
H  4.06700 45.34400 20.00700
H  2.25000 47.38100 20.01300
H  3.37300 47.18700 21.33500
H  1.66500 46.77000 21.49000
H  6.83700 45.72500 24.90200
H  6.68100 44.28000 23.85100
H  7.27300 44.01200 25.40500
H  4.31300 44.64100 29.79800
H  5.64700 41.04600 31.87000
H  3.84000 40.90900 31.82200
H  4.63300 41.90000 33.06500

