158

Mg -1.75800 17.41600 26.73200
C  -2.49400 15.22700 29.31200
C  -2.66800 20.01200 28.89100
C  -1.73500 19.51500 24.13800
C  -1.51800 14.69500 24.55000
N  -2.39700 17.60400 28.90400
C  -2.55100 16.55200 29.81600
C  -2.82200 16.99600 31.27400
C  -3.04800 18.52800 30.99100
C  -2.72900 18.74900 29.48400
C  -4.48600 18.99200 31.35900
C  -1.59500 16.78200 32.24800
C  -1.71700 17.31500 33.65500
H  -1.75000 16.23300 34.75400
N  -1.95600 19.50300 26.58700
C  -2.34200 20.36300 27.59800
C  -2.35600 21.73000 27.08400
C  -2.01700 21.64300 25.68400
C  -1.88900 20.21400 25.39600
C  -2.80800 22.89100 27.86100
C  -1.84200 22.73000 24.71200
O  -1.77400 22.53800 23.49100
C  -1.75000 24.15900 25.19300
N  -1.52900 17.11900 24.52600
C  -1.54700 18.19000 23.74600
C  -1.41400 17.74400 22.30900
C  -1.23900 16.21700 22.43100
C  -1.43600 16.00400 23.88900
C  -2.65200 18.14400 21.38900
C  0.18900 15.83300 21.95800
C  1.37300 16.25900 22.98300
N  -2.01200 15.36800 26.86200
C  -1.83100 14.35200 25.86700
C  -2.12300 13.12000 26.53100
C  -2.49600 13.47600 27.79900
C  -2.35100 14.79600 27.97100
C  -2.28600 11.74300 25.81700
C  -2.97300 12.89100 28.99900
O  -3.24100 11.74300 29.18600
C  -2.95400 14.02300 30.04500
C  -1.85200 13.62000 30.97100
O  -0.63100 13.74000 30.81900
O  -2.33900 13.09100 32.15100
C  -1.55500 12.18800 33.06700
H  -2.92400 20.90900 29.45800
H  -1.59500 20.15700 23.26700
H  -1.43600 13.79300 23.94100
H  -3.66800 16.48100 31.72800
H  -2.44500 19.24200 31.55100
H  -4.31000 19.87900 31.96700
H  -5.17400 18.28200 31.81800
H  -4.94800 19.36500 30.44400
H  -0.73000 17.24900 31.77700
H  -1.37000 15.71600 32.22700
H  -2.64000 17.89400 33.67600
H  -0.86100 17.92600 33.94200
H  -3.45200 23.47400 27.20300
H  -1.92200 23.48000 28.09800
H  -3.35600 22.71300 28.78600
H  -0.94000 24.05500 25.91400
H  -2.71200 24.33900 25.67300
H  -1.60600 24.94200 24.44800
H  -0.51600 18.23000 21.92500
H  -2.03200 15.62100 21.98000
H  -3.08700 17.36300 20.76400
H  -2.40800 19.06100 20.85200
H  -3.55400 18.31300 21.97800
H  0.34900 16.12700 20.92100
H  0.17800 14.74400 21.90700
H  1.02700 16.84400 23.83500
H  2.15500 16.79300 22.44400
H  1.83400 15.39500 23.46200
H  -2.81800 11.90700 24.88000
H  -2.79000 11.02900 26.46800
H  -1.30400 11.30700 25.63600
H  -3.91000 14.35600 30.45000
H  -0.90300 11.55400 32.46700
H  -2.22400 11.44600 33.50300
H  -0.99100 12.64500 33.88000
Mg 9.90800 48.20400 26.23700
C  7.93500 48.58200 29.12200
C  12.70600 49.24700 28.14000
C  11.63000 48.14600 23.40900
C  6.89700 47.67500 24.48700
N  10.29900 48.86200 28.30700
C  9.34700 48.65300 29.36900
C  9.92900 49.04000 30.71600
C  11.33200 49.65000 30.28800
C  11.46900 49.31600 28.79500
C  11.42000 51.16000 30.61500
C  10.04600 47.78300 31.70600
C  9.82500 48.01100 33.26900
H  9.49400 46.76800 34.09300
N  11.94300 48.58400 25.87200
C  12.93000 48.90300 26.76000
C  14.18500 48.94600 26.03600
C  13.87300 48.57800 24.71700
C  12.42300 48.45500 24.56700
C  15.48000 49.37000 26.74700
C  14.83200 48.35300 23.60100
O  14.43300 48.03300 22.53000
C  16.33800 48.42800 23.69500
N  9.36700 47.89600 24.27700
C  10.27500 47.93500 23.25400
C  9.60800 47.80300 21.84200
C  8.17300 47.27600 22.24400
C  8.13400 47.64300 23.72700
C  9.41900 49.08400 20.98100
C  7.76300 45.82000 21.86900
C  6.47800 45.66600 21.09200
N  7.82800 48.13700 26.66700
C  6.75200 47.92900 25.83400
C  5.53400 47.96800 26.56600
C  5.97100 48.27300 27.89700
C  7.37600 48.37900 27.88800
C  4.18200 47.67200 25.96200
C  5.49200 48.47800 29.27100
O  4.35700 48.67300 29.70900
C  6.82200 48.60600 30.14200
C  6.95700 47.32700 31.01500
O  7.27200 46.21400 30.63500
O  6.19600 47.60900 32.11000
C  5.81500 46.56000 33.01100
H  13.45600 49.66400 28.81500
H  12.12300 48.10900 22.43500
H  6.00100 47.30400 23.98700
H  9.27300 49.80700 31.12700
H  12.20400 49.15400 30.71600
H  11.04400 51.70500 29.75000
H  12.42100 51.31300 31.01800
H  10.77400 51.37900 31.46600
H  11.02800 47.34600 31.52900
H  9.34200 46.99300 31.44600
H  9.03300 48.73700 33.45300
H  10.78100 48.45700 33.54500
H  15.26500 49.24400 27.80800
H  15.88900 50.38100 26.73900
H  16.24000 48.69600 26.35100
H  16.50300 47.57200 24.34900
H  16.74900 49.30300 24.19800
H  16.67800 48.10500 22.71100
H  10.18100 47.17000 21.16500
H  7.53000 47.95100 21.67900
H  9.59000 49.98000 21.57700
H  8.47100 49.32500 20.50100
H  10.18200 48.95800 20.21200
H  7.62600 45.31200 22.82300
H  8.58400 45.44600 21.25700
H  5.91600 44.86700 21.57600
H  6.63800 45.46100 20.03400
H  5.95500 46.62100 21.03800
H  4.15200 46.62600 25.65600
H  3.98900 48.34200 25.12400
H  3.35600 47.84000 26.65300
H  6.95900 49.47600 30.78400
H  5.85000 47.14400 33.93100
H  6.41400 45.65000 32.96800
H  4.76300 46.31800 32.85700

