158

Mg 36.13200 2.92800 30.52500
C  33.46400 3.85500 32.57600
C  38.24200 3.33300 33.19900
C  38.75600 2.28400 28.38800
C  34.01500 2.95700 27.68800
N  35.89600 3.72300 32.51100
C  34.67600 3.82300 33.20400
C  34.87700 3.81900 34.70200
C  36.37600 4.20000 34.79000
C  36.91700 3.79300 33.44500
C  36.52700 5.63100 35.10700
C  34.56900 2.40200 35.33000
C  34.09200 2.35200 36.79800
H  34.90500 3.28600 37.77900
N  38.14400 2.50000 30.81600
C  38.82500 2.76000 31.99300
C  40.13000 2.17500 31.75500
C  40.24100 1.81600 30.39400
C  39.02000 2.25100 29.78900
C  41.20500 2.17100 32.76000
C  41.42700 1.00700 29.63000
O  41.39400 0.78000 28.41600
C  42.73200 0.64200 30.33700
N  36.40500 2.82700 28.38700
C  37.56200 2.58800 27.72100
C  37.41500 2.32900 26.23000
C  35.88200 2.35500 26.03800
C  35.37600 2.68000 27.50000
C  38.17600 3.42100 25.44000
C  35.37500 0.95600 25.58700
C  33.96600 1.00700 24.96500
N  34.20200 3.40400 30.16600
C  33.43000 3.20100 28.97700
C  32.03400 3.45700 29.33500
C  32.05400 3.75100 30.72100
C  33.33100 3.62800 31.17700
C  30.83500 3.38400 28.45500
C  31.22400 4.18700 31.86500
O  30.03200 4.39100 31.88000
C  32.11000 4.22000 33.12000
C  32.03200 5.55600 33.80200
O  32.27900 6.66500 33.32500
O  31.73200 5.35900 35.12500
C  31.84500 6.57600 35.90400
H  38.95500 3.30800 34.02600
H  39.58000 1.94500 27.75600
H  33.27800 2.95000 26.88300
H  34.28800 4.59000 35.19800
H  36.95200 3.67200 35.55000
H  36.93900 6.29000 34.34200
H  37.14300 5.74100 36.00000
H  35.56800 6.08900 35.34800
H  35.41500 1.74300 35.13000
H  33.68800 2.01100 34.82100
H  34.23500 1.31700 37.10800
H  33.06800 2.69900 36.93800
H  41.59700 1.16100 32.88300
H  40.77800 2.43500 33.72800
H  42.04400 2.81800 32.50400
H  43.35000 1.54000 30.33700
H  43.35700 -0.02300 29.74000
H  42.73100 0.13700 31.30300
H  37.68500 1.30000 25.99300
H  35.55900 3.15700 25.37400
H  39.19900 3.06000 25.33500
H  38.16200 4.39400 25.93200
H  37.75500 3.33400 24.43900
H  35.37500 0.21400 26.38500
H  35.98400 0.47900 24.81900
H  33.59700 2.02000 24.80200
H  33.13200 0.55200 25.49900
H  33.95500 0.43700 24.03600
H  31.17100 2.75200 27.63200
H  30.45700 4.31900 28.04200
H  30.01400 2.89900 28.98300
H  31.63600 3.47400 33.75800
H  30.90000 7.11000 35.80300
H  32.74300 7.19100 35.84600
H  31.81100 6.22400 36.93500
Mg -2.42500 35.23000 27.33300
C  -4.27000 33.27600 29.63800
C  -1.83000 37.53700 29.86400
C  -0.57300 36.98100 25.13000
C  -3.60000 33.18200 24.72700
N  -3.07700 35.39500 29.40300
C  -3.63400 34.37500 30.19500
C  -3.74500 34.82600 31.68400
C  -3.10300 36.27800 31.73900
C  -2.70600 36.46000 30.23100
C  -3.96200 37.34000 32.43400
C  -3.01800 33.87400 32.68500
C  -2.85000 34.34700 34.17900
H  -2.60400 33.47700 35.37400
N  -1.21800 36.90700 27.52500
C  -1.11600 37.71100 28.67900
C  -0.19700 38.73800 28.32400
C  0.06800 38.71900 26.94500
C  -0.65400 37.57400 26.44100
C  0.36400 39.71600 29.29100
C  0.74800 39.72300 25.96600
O  0.74800 39.73800 24.71400
C  1.43600 40.98600 26.41500
N  -2.18000 35.16500 25.20400
C  -1.24800 35.92000 24.52600
C  -1.07900 35.41700 23.07500
C  -1.93000 34.13300 22.97900
C  -2.61400 34.16200 24.37100
C  -1.37700 36.53100 22.03900
C  -1.09100 32.77500 22.79800
C  -1.47800 31.66800 21.83900
N  -3.81700 33.67100 27.14300
C  -4.13000 32.86300 26.02900
C  -4.88100 31.71400 26.44000
C  -5.06700 31.90400 27.82500
C  -4.30100 32.99100 28.23300
C  -5.41200 30.64300 25.43600
C  -5.63100 31.35700 29.07900
O  -6.28100 30.36100 29.21800
C  -5.16100 32.30200 30.24300
C  -6.31200 32.79900 30.97200
O  -6.96400 33.77300 30.68600
O  -6.55600 32.07200 32.11400
C  -7.60400 32.70900 32.93100
H  -1.77000 38.32400 30.61800
H  -0.02300 37.57500 24.39700
H  -3.92500 32.54500 23.90100
H  -4.80500 34.81400 31.93500
H  -2.18300 36.28400 32.32300
H  -4.90700 36.91400 32.76900
H  -4.23200 38.14400 31.74800
H  -3.33400 37.62900 33.27600
H  -2.03800 33.76600 32.21900
H  -3.58300 32.94200 32.71000
H  -3.64500 35.00100 34.53800
H  -1.99900 35.02800 34.18700
H  0.23500 39.19000 30.23700
H  -0.07300 40.71100 29.37900
H  1.45200 39.69400 29.22600
H  1.60800 41.70800 25.61700
H  2.34800 40.72200 26.95000
H  0.76400 41.41300 27.16000
H  -0.01100 35.23800 22.95000
H  -2.63000 34.26000 22.15300
H  -0.46100 36.82300 21.52400
H  -1.86600 37.40600 22.46600
H  -2.06400 36.25700 21.23900
H  -1.29600 32.29800 23.75700
H  -0.02700 32.94600 22.63300
H  -0.57500 31.45700 21.26600
H  -2.21000 32.00200 21.10400
H  -1.95800 30.89600 22.44000
H  -4.72200 30.45200 24.61400
H  -6.33700 30.96600 24.96000
H  -5.59600 29.72600 25.99700
H  -4.56100 31.64400 30.87100
H  -7.73000 32.07100 33.80600
H  -8.58700 32.77600 32.46500
H  -7.30900 33.66900 33.35200

