158

Mg 25.83800 1.66900 29.26700
C  27.69500 1.18200 32.20500
C  22.96400 2.00400 31.27700
C  23.91700 1.36300 26.51100
C  28.71400 0.85300 27.26900
N  25.36500 1.54300 31.48500
C  26.30200 1.39500 32.49800
C  25.69100 1.57000 33.92800
C  24.19300 1.83400 33.52700
C  24.10100 1.73700 31.99700
C  23.10700 0.88600 34.18700
C  26.29000 2.75300 34.73600
C  25.46500 3.18200 35.94800
H  26.01200 3.00200 37.34600
N  23.75600 1.67100 28.97400
C  22.71100 1.84500 29.91200
C  21.48300 1.99700 29.13200
C  21.80500 1.86500 27.75900
C  23.22500 1.59800 27.74200
C  20.10200 2.12900 29.77000
C  20.87000 2.03600 26.55300
O  21.22800 2.10700 25.41500
C  19.34900 2.16200 26.76500
N  26.20300 1.09900 27.20800
C  25.25300 1.09500 26.32000
C  25.77800 0.88100 24.85600
C  27.35300 0.86500 25.00400
C  27.48700 0.99100 26.54800
C  25.10200 -0.42200 24.16400
C  28.10100 2.01000 24.18100
C  28.57500 1.60700 22.82600
N  27.85700 1.14500 29.56700
C  28.86700 0.89700 28.69900
C  30.09000 0.81000 29.46900
C  29.68100 0.81900 30.84600
C  28.29700 1.04800 30.85700
C  31.43300 0.63100 28.94600
C  30.10500 0.66000 32.21300
O  31.15300 0.31900 32.71500
C  28.90200 1.02500 33.14500
C  28.73600 -0.06200 34.11500
O  28.50200 -1.22400 33.79000
O  28.66800 0.39600 35.41800
C  28.85300 -0.55700 36.50400
H  22.13900 2.27900 31.93900
H  23.29900 1.17900 25.63000
H  29.62500 0.56400 26.74100
H  25.81400 0.69900 34.57200
H  23.96700 2.85600 33.83100
H  23.50800 0.27300 34.99400
H  22.90300 0.13400 33.42500
H  22.18700 1.42600 34.41200
H  26.43800 3.52300 33.97900
H  27.27400 2.47900 35.11500
H  24.53100 2.62900 35.85300
H  25.10600 4.19300 35.75400
H  19.31000 1.49400 29.37400
H  19.84000 3.14200 29.46400
H  20.10000 2.04700 30.85700
H  19.10000 1.15000 27.08600
H  18.88100 2.41200 25.81300
H  19.03400 2.94200 27.45800
H  25.55700 1.79400 24.30300
H  27.76200 -0.10000 24.70600
H  24.58900 -0.96100 24.96100
H  25.96600 -0.96900 23.78900
H  24.29300 -0.19900 23.46800
H  28.83100 2.51600 24.81300
H  27.28900 2.67400 23.88400
H  28.52600 0.52200 22.73000
H  29.65400 1.73200 22.73500
H  27.97500 2.05300 22.03300
H  31.49600 1.19400 28.01400
H  31.59600 -0.43000 28.75700
H  32.09800 1.05400 29.69800
H  29.12500 1.95600 33.66600
H  29.25100 0.03400 37.32900
H  29.40700 -1.46800 36.27600
H  27.80900 -0.82400 36.66800
Mg -10.14700 39.34000 40.75200
C  -8.82200 36.31300 39.88100
C  -7.19700 40.92800 39.86000
C  -11.71000 42.35100 40.81900
C  -13.27500 37.77100 41.43100
N  -8.32500 38.74100 39.56900
C  -8.00100 37.43700 39.48200
C  -6.58400 37.34800 38.81400
C  -5.93900 38.68500 39.42000
C  -7.20500 39.53600 39.69800
C  -5.21700 38.51300 40.77000
C  -6.74800 37.38100 37.20800
C  -6.03100 36.26000 36.51700
H  -6.78000 35.70100 35.29700
N  -9.53200 41.30200 40.38400
C  -8.26100 41.75100 40.06600
C  -8.25400 43.15400 39.94600
C  -9.59800 43.58100 40.20800
C  -10.34400 42.41100 40.57100
C  -6.96800 43.88300 39.62100
C  -10.09900 44.96500 40.29000
O  -9.29100 45.82100 39.96700
C  -11.43400 45.42400 40.81500
N  -12.30800 39.97200 40.99300
C  -12.60400 41.27400 41.04800
C  -14.06700 41.50300 41.07000
C  -14.64300 40.02400 41.19700
C  -13.34700 39.17500 41.27200
C  -14.65800 42.44600 42.20400
C  -15.51700 39.54300 40.00700
C  -16.95600 39.49500 40.21200
N  -10.90400 37.37800 40.81300
C  -12.14100 36.86700 41.21900
C  -12.03600 35.42300 41.24000
C  -10.71100 35.18600 40.73200
C  -10.16300 36.35900 40.38900
C  -13.01100 34.42800 41.75500
C  -9.73700 34.11800 40.41000
O  -9.86700 32.89500 40.44200
C  -8.47400 34.84000 39.67200
C  -7.21400 34.33500 40.32700
O  -6.87500 34.50100 41.45200
O  -6.54200 33.54800 39.39000
C  -5.35400 32.80200 39.76200
H  -6.23900 41.42200 39.68600
H  -12.31200 43.25800 40.73300
H  -14.23600 37.28800 41.61800
H  -6.06900 36.43000 39.09600
H  -5.30700 39.19500 38.69300
H  -4.26300 39.04000 40.78500
H  -4.94600 37.47700 40.97400
H  -5.89300 38.87600 41.54500
H  -6.29100 38.28400 36.80500
H  -7.81500 37.35600 36.98700
H  -5.77400 35.40900 37.14800
H  -5.09200 36.68800 36.16500
H  -6.92400 44.36400 38.64400
H  -6.04700 43.33900 39.83200
H  -7.06300 44.74100 40.28600
H  -12.18100 45.53300 40.02900
H  -11.40600 46.44900 41.18600
H  -11.75700 44.85000 41.68300
H  -14.48600 42.09200 40.25300
H  -15.13400 39.97000 42.16900
H  -14.53900 43.47800 41.87300
H  -14.00300 42.31900 43.06600
H  -15.70900 42.27800 42.44100
H  -15.24300 38.53000 39.71200
H  -15.39800 40.20900 39.15200
H  -17.25800 39.79200 41.21600
H  -17.27100 38.45100 40.20500
H  -17.41900 39.92500 39.32300
H  -12.61700 33.41900 41.63400
H  -13.86900 34.50100 41.08700
H  -13.22500 34.51300 42.82000
H  -8.41000 34.66500 38.59800
H  -4.69400 32.78900 38.89500
H  -5.55200 31.80600 40.15700
H  -4.84800 33.27200 40.60500

