158

Mg 48.14600 15.45300 27.55600
C  45.80200 15.57000 30.26400
C  50.22800 17.49200 29.42400
C  50.25100 15.34400 25.01700
C  45.54800 13.96800 25.70700
N  47.99600 16.39900 29.60500
C  47.02300 16.30500 30.54500
C  47.37900 16.94300 31.91300
C  48.72000 17.79600 31.57000
C  49.04500 17.22200 30.12500
C  48.57800 19.26300 31.51500
C  47.70800 15.90700 33.05200
C  47.96700 16.57600 34.46900
H  48.95400 16.06100 35.47800
N  50.00800 16.18900 27.29000
C  50.73800 16.98800 28.19300
C  52.04000 17.27600 27.56900
C  52.16000 16.47700 26.37800
C  50.78800 15.98200 26.14100
C  53.05400 18.17100 28.30500
C  53.35400 16.21500 25.47000
O  53.44700 15.44800 24.48600
C  54.64700 16.96200 25.82700
N  47.87700 14.67800 25.69800
C  48.94100 14.87700 24.79900
C  48.56700 14.29000 23.36400
C  47.10500 13.62000 23.68100
C  46.75800 14.18000 25.07900
C  48.56900 15.35700 22.17700
C  47.11900 12.05100 23.67900
C  47.58700 11.27100 22.41300
N  46.07300 14.94700 27.79400
C  45.16400 14.29600 26.95400
C  43.92300 13.98600 27.68600
C  44.17200 14.38000 28.98500
C  45.50200 14.92500 28.99400
C  42.72000 13.31900 27.04400
C  43.55200 14.60000 30.26800
O  42.33600 14.32200 30.55600
C  44.59200 15.31500 31.18400
C  43.94700 16.47900 31.76100
O  43.21300 17.26200 31.17600
O  44.24500 16.50800 33.10000
C  43.70400 17.61300 33.92500
H  50.82400 18.28700 29.87500
H  51.04200 15.25000 24.27100
H  44.83200 13.41900 25.09300
H  46.61700 17.67200 32.19000
H  49.55000 17.51100 32.21700
H  48.30300 19.61400 30.52000
H  49.55600 19.70300 31.70700
H  47.78200 19.54300 32.20500
H  48.65400 15.45500 32.75300
H  46.83400 15.26500 33.15600
H  47.02200 16.67300 35.00400
H  48.29700 17.57200 34.17400
H  53.61400 17.40500 28.84200
H  52.59200 18.88900 28.98200
H  53.61700 18.86100 27.67700
H  54.55600 18.04600 25.76300
H  55.45900 16.67900 25.15700
H  54.97500 16.60800 26.80400
H  49.34400 13.57000 23.10900
H  46.31000 14.00000 23.03900
H  49.49800 15.19700 21.62900
H  48.45600 16.36200 22.58400
H  47.78800 15.15100 21.44400
H  46.09100 11.82400 23.95900
H  47.81800 11.73800 24.45500
H  47.53300 11.91900 21.53800
H  46.96700 10.41600 22.14700
H  48.62200 10.95300 22.53000
H  43.15300 12.40800 26.63200
H  42.29400 13.91100 26.23400
H  41.85100 13.04700 27.64400
H  44.89100 14.69000 32.02600
H  43.49900 18.52800 33.36900
H  44.33400 17.76700 34.80100
H  42.81000 17.11800 34.30400
Mg -8.85000 18.49800 43.27200
C  -5.44100 18.36000 43.32800
C  -8.67500 21.86000 42.45000
C  -12.32300 18.66400 43.06200
C  -9.09700 15.10200 43.73300
N  -7.15800 19.97100 42.79000
C  -5.85500 19.67100 42.97600
C  -4.92500 20.90900 42.73600
C  -6.08300 22.11000 42.76300
C  -7.42500 21.26900 42.60000
C  -6.13800 22.90000 44.09300
C  -3.98600 20.78300 41.52700
C  -4.45400 20.00400 40.26100
H  -4.33700 20.73100 38.89900
N  -10.33300 20.03200 42.73100
C  -9.99300 21.37800 42.57300
C  -11.23300 22.16300 42.40200
C  -12.31400 21.27800 42.65600
C  -11.69700 19.96500 42.87200
C  -11.25500 23.68100 42.14900
C  -13.78500 21.65600 42.84500
O  -14.16900 22.78400 42.97000
C  -14.83800 20.69200 43.11600
N  -10.48000 17.08600 43.21000
C  -11.80100 17.41700 43.22200
C  -12.77800 16.20800 43.36500
C  -11.72100 15.00100 43.41300
C  -10.35300 15.71200 43.42200
C  -13.74100 16.18500 44.52600
C  -11.89700 13.94000 42.25600
C  -11.00300 13.99200 40.96000
N  -7.61000 16.98800 43.47400
C  -7.79800 15.72600 43.77700
C  -6.53400 15.12900 44.07300
C  -5.55700 16.13900 43.95000
C  -6.30800 17.23500 43.52000
C  -6.31900 13.67700 44.40300
C  -4.11400 16.43700 44.06800
O  -3.15600 15.74900 44.29300
C  -4.02300 17.90100 43.55800
C  -3.38900 18.61500 44.73700
O  -3.95600 18.95400 45.75800
O  -2.09700 18.98100 44.31700
C  -1.52700 20.02500 45.14100
H  -8.51600 22.93100 42.59200
H  -13.41200 18.70600 42.99400
H  -9.10900 14.03200 43.94900
H  -4.38200 20.99600 43.67700
H  -5.85200 22.76200 41.92000
H  -6.89400 22.41200 44.70800
H  -6.35300 23.94700 43.87800
H  -5.22000 22.91800 44.68000
H  -3.05100 20.38100 41.91800
H  -3.79800 21.81200 41.21800
H  -5.50900 20.00300 40.53400
H  -4.00800 19.01000 40.23500
H  -11.62200 23.99200 41.17100
H  -10.24800 24.06600 42.30600
H  -11.79200 24.20700 42.93800
H  -14.57100 20.03700 43.94500
H  -14.85800 20.13900 42.17700
H  -15.77500 21.23100 43.25100
H  -13.45000 16.10300 42.51300
H  -11.83400 14.53100 44.38900
H  -14.72300 16.44000 44.12900
H  -13.50300 16.86500 45.34500
H  -13.98100 15.18300 44.88100
H  -12.86100 14.20000 41.81800
H  -11.96600 12.93700 42.67800
H  -11.00600 12.95400 40.62800
H  -9.97700 14.34900 41.04500
H  -11.60200 14.43100 40.16200
H  -5.58600 13.64300 45.20900
H  -5.92500 13.21100 43.50000
H  -7.21200 13.14200 44.72500
H  -3.42500 17.84300 42.64800
H  -0.44700 19.87300 45.15200
H  -1.83800 20.13000 46.18100
H  -1.65800 20.98900 44.65000

