158

Mg 30.52100 57.80100 40.40600
C  27.66100 56.15700 38.92600
C  32.46300 55.13800 39.60200
C  33.12900 59.82400 40.79500
C  28.31100 60.50700 41.13600
N  30.12700 55.95700 39.26700
C  28.87700 55.39300 38.80900
C  29.05700 53.99900 38.32200
C  30.38700 53.57300 38.97900
C  31.09600 54.97400 39.28500
C  30.32100 52.58000 40.12700
C  29.00700 54.05300 36.76300
C  28.16500 52.95600 36.03300
H  27.41900 53.49800 34.76300
N  32.54400 57.60400 40.12900
C  33.16800 56.39700 39.89500
C  34.59200 56.52800 39.94900
C  34.86400 57.89700 40.09900
C  33.53400 58.53900 40.34000
C  35.51500 55.38500 39.78500
C  36.25300 58.54100 40.28200
O  37.31400 57.85900 40.15800
C  36.46200 59.97900 40.46500
N  30.60500 59.88300 40.66400
C  31.87700 60.43700 40.98300
C  31.66400 61.90800 41.33600
C  30.18500 62.01200 41.63900
C  29.70000 60.72200 41.09100
C  32.57200 62.47400 42.36000
C  29.51600 63.35200 41.06700
C  28.39000 63.97700 41.90800
N  28.38000 58.23800 40.21400
C  27.64800 59.32300 40.64700
C  26.25700 59.19100 40.22100
C  26.18500 57.88100 39.59100
C  27.50800 57.40600 39.57700
C  25.16800 60.16400 40.51100
C  25.34300 56.79100 38.86200
O  24.13800 56.84200 38.60400
C  26.26200 55.74300 38.55500
C  25.89400 54.59500 39.38500
O  25.78100 54.57900 40.57700
O  25.51500 53.61700 38.53600
C  24.67700 52.53700 39.00700
H  33.06800 54.23600 39.49100
H  34.00500 60.47000 40.87500
H  27.63900 61.29300 41.48700
H  28.20300 53.39100 38.62200
H  30.84800 53.06900 38.13000
H  30.93700 53.05600 40.88900
H  30.78100 51.64900 39.79500
H  29.29100 52.45800 40.46100
H  29.99900 53.96900 36.31900
H  28.56600 54.98500 36.40700
H  27.26500 52.74200 36.61000
H  28.78000 52.07700 35.84100
H  35.44300 55.09200 38.73800
H  35.21400 54.61100 40.49000
H  36.52600 55.51300 40.17300
H  36.19900 60.24600 41.48800
H  35.85700 60.50800 39.72900
H  37.44100 60.31200 40.11900
H  31.85600 62.36700 40.36600
H  29.95700 62.00700 42.70500
H  33.15000 61.67700 42.82800
H  32.07800 63.01100 43.16900
H  33.09900 63.24600 41.79900
H  28.99900 62.99600 40.17600
H  30.15500 64.07500 40.56000
H  28.04700 63.35100 42.73200
H  27.53700 64.17600 41.25900
H  28.71000 64.91800 42.35500
H  25.37700 60.49900 41.52700
H  24.23000 59.61100 40.47600
H  25.17300 61.00900 39.82200
H  26.27900 55.52000 37.48800
H  24.48700 51.92500 38.12600
H  23.81000 52.83800 39.59400
H  25.20400 51.87800 39.69800
Mg 9.98100 46.58300 25.64700
C  7.84300 46.92600 28.32900
C  12.47800 48.02900 27.35800
C  11.92800 46.48300 22.81600
C  7.10000 46.00700 23.64500
N  10.16100 47.17500 27.63600
C  9.21200 47.13700 28.60200
C  9.82200 47.68500 29.94600
C  11.05000 48.45100 29.45300
C  11.26700 47.90900 28.03300
C  11.21800 50.02000 29.62800
C  10.09600 46.55000 30.89300
C  10.04000 46.88600 32.34700
H  9.94900 45.68500 33.28000
N  11.96400 47.11400 25.16300
C  12.92800 47.61700 26.08900
C  14.28500 47.72800 25.45600
C  14.07500 47.24800 24.12000
C  12.58100 46.95000 23.93800
C  15.54600 48.11900 26.28400
C  15.02400 47.07600 23.08000
O  14.74700 46.68100 21.92000
C  16.40600 47.44400 23.31300
N  9.56400 46.47900 23.55400
C  10.57200 46.32000 22.62000
C  10.06000 45.96200 21.24400
C  8.58300 45.49400 21.65000
C  8.38600 46.05800 23.05700
C  10.14300 47.12800 20.22200
C  8.35000 43.96700 21.37700
C  7.91200 43.60000 19.95000
N  7.84300 46.50400 25.88400
C  6.82000 46.30700 24.98500
C  5.50700 46.23300 25.73700
C  5.92900 46.44100 27.05300
C  7.29900 46.68500 27.03300
C  4.12600 45.94300 25.22600
C  5.43900 46.62100 28.42600
O  4.30000 46.62200 28.87500
C  6.66100 46.92900 29.31100
C  6.84500 45.86400 30.35900
O  7.13600 44.71100 30.12300
O  6.58700 46.20900 31.61400
C  6.51700 45.13000 32.59700
H  13.21500 48.44400 28.04900
H  12.51300 46.40500 21.89700
H  6.21800 45.63800 23.11600
H  9.14200 48.45100 30.31700
H  11.89800 48.14700 30.06600
H  12.12500 50.22400 30.19700
H  10.44300 50.43700 30.27100
H  11.22200 50.52500 28.66300
H  11.09200 46.13000 30.74800
H  9.44700 45.68400 30.76800
H  9.28300 47.64900 32.52700
H  11.04400 47.25500 32.55700
H  15.18300 48.27800 27.29900
H  15.93800 49.06400 25.90700
H  16.35600 47.39600 26.37000
H  16.88400 46.81500 24.06400
H  16.37200 48.50400 23.56300
H  17.00200 47.28600 22.41500
H  10.63600 45.11800 20.86500
H  7.84100 46.08700 21.11400
H  10.40100 48.12700 20.57200
H  9.16500 47.31600 19.77900
H  10.83400 46.82900 19.43400
H  7.64200 43.58300 22.11100
H  9.24400 43.37300 21.56800
H  8.72500 43.10800 19.41600
H  7.69700 44.47200 19.33200
H  7.12100 42.85000 19.92000
H  4.12600 45.26100 24.37600
H  3.69000 46.86200 24.83500
H  3.47300 45.54100 26.00100
H  6.62000 47.90600 29.79300
H  6.94300 45.48700 33.53500
H  7.13100 44.26400 32.35000
H  5.52000 44.73200 32.78800

