158

Mg 2.46600 -1.59100 44.05400
C  5.73000 -0.26100 43.27600
C  1.24700 1.24700 42.49600
C  -0.48300 -2.87600 44.35900
C  4.05100 -4.54900 45.09100
N  3.42800 0.22100 42.85500
C  4.77500 0.59900 42.75100
C  4.92600 1.95700 42.11800
C  3.48300 2.47700 42.03000
C  2.64400 1.29500 42.47400
C  3.30900 3.68500 42.95500
C  5.70400 1.68100 40.75600
C  6.83600 2.63400 40.17300
H  6.53300 2.93600 38.73600
N  0.60900 -0.96100 43.47700
C  0.32900 0.24900 42.90700
C  -1.10700 0.37400 42.85600
C  -1.69800 -0.85600 43.46000
C  -0.50400 -1.60600 43.81100
C  -1.79200 1.74500 42.44300
C  -3.18100 -1.10200 43.74100
O  -3.96500 -0.33700 43.22500
C  -3.68800 -2.34700 44.48700
N  1.95500 -3.46200 44.56400
C  0.61600 -3.77600 44.64200
C  0.42500 -5.28900 44.96300
C  1.79200 -5.73900 45.37700
C  2.67000 -4.51800 44.93900
C  -0.79100 -5.56900 45.92100
C  2.27200 -7.09100 44.69500
C  2.93500 -8.14200 45.53300
N  4.45400 -2.19600 44.33000
C  4.95800 -3.41600 44.81100
C  6.38000 -3.37800 44.98700
C  6.70800 -2.07600 44.40000
C  5.51000 -1.46900 43.98800
C  7.27400 -4.37400 45.62500
C  7.79500 -1.20900 44.05300
O  8.99200 -1.35700 44.18700
C  7.20700 -0.01100 43.31500
C  7.44800 1.14700 44.14100
O  6.81400 1.38500 45.17500
O  8.48500 1.89300 43.64000
C  9.10600 2.84400 44.58400
H  0.80900 2.16700 42.10300
H  -1.50600 -3.25000 44.44500
H  4.59400 -5.37500 45.55400
H  5.52500 2.65200 42.70700
H  3.13700 2.65800 41.01200
H  2.33200 3.63400 43.43600
H  3.30100 4.53100 42.26800
H  4.14900 3.88100 43.62000
H  4.87500 1.63600 40.04900
H  6.08600 0.66100 40.71400
H  7.80300 2.15200 40.31900
H  6.95900 3.59700 40.66700
H  -2.86800 1.81600 42.59900
H  -1.61100 1.87800 41.37600
H  -1.27700 2.54500 42.97600
H  -3.11700 -2.37700 45.41600
H  -3.53100 -3.22700 43.86400
H  -4.71500 -2.01000 44.62800
H  0.14100 -5.70200 43.99500
H  1.77600 -5.83800 46.46200
H  -1.24700 -4.65200 46.29400
H  -0.42900 -6.11700 46.79100
H  -1.57100 -6.09300 45.36800
H  2.99400 -6.83700 43.91900
H  1.41600 -7.63600 44.29600
H  3.51700 -7.72000 46.35300
H  3.70000 -8.60100 44.90700
H  2.26500 -8.89400 45.94700
H  8.27500 -4.06900 45.32100
H  7.05200 -5.36100 45.21700
H  7.14700 -4.30600 46.70500
H  7.66700 0.02200 42.32800
H  8.87400 2.77100 45.64600
H  9.13800 3.89200 44.28600
H  10.08900 2.37400 44.60000
Mg 16.33600 52.44600 26.42800
C  18.09200 51.04600 29.20600
C  14.08200 53.68200 28.70200
C  14.36100 52.93300 23.90100
C  18.77100 50.95300 24.33500
N  15.98600 52.19800 28.66700
C  16.93200 51.75000 29.62400
C  16.46800 52.11000 31.06200
C  15.01500 52.53900 30.83900
C  14.98900 52.86800 29.31500
C  13.93300 51.48100 31.18600
C  17.32600 53.28100 31.69900
C  17.85100 53.04000 33.07100
H  17.01300 52.02100 33.92800
N  14.60300 53.33800 26.30100
C  13.82200 53.86600 27.31200
C  12.70600 54.66600 26.67000
C  12.64900 54.27300 25.30700
C  13.88700 53.45100 25.11500
C  11.73700 55.59700 27.43400
C  11.56800 54.65800 24.22800
O  11.61600 54.40200 22.99900
C  10.48100 55.60300 24.65800
N  16.64300 52.01400 24.39400
C  15.62000 52.27100 23.51200
C  15.98800 51.83500 22.10700
C  17.51300 51.47900 22.23000
C  17.65900 51.48200 23.73000
C  15.17800 50.65100 21.56200
C  18.38800 52.49700 21.44000
C  18.97700 53.77900 21.96300
N  18.11300 51.33600 26.70800
C  18.96300 50.78900 25.74600
C  20.05000 49.98800 26.35800
C  19.71100 50.11700 27.69000
C  18.53600 50.88800 27.82800
C  21.24100 49.35900 25.77000
C  20.22400 49.91300 29.03000
O  21.29500 49.44700 29.31700
C  19.20700 50.50900 30.06000
C  18.75600 49.34300 30.93000
O  17.79200 48.63800 30.64200
O  19.59200 49.22700 32.02200
C  19.39100 48.11300 32.87900
H  13.36500 54.19600 29.34500
H  13.85000 53.16100 22.96300
H  19.57500 50.56800 23.70300
H  16.60200 51.15300 31.56600
H  14.74400 53.49300 31.29200
H  13.55700 51.65200 32.19500
H  14.25600 50.45100 31.03600
H  13.10400 51.54400 30.48100
H  16.78000 54.22200 31.63700
H  18.19600 53.35100 31.04600
H  17.96200 53.94500 33.66900
H  18.82700 52.59900 32.87200
H  11.85900 56.60900 27.04900
H  12.05100 55.79500 28.45800
H  10.68800 55.30100 27.42900
H  9.66600 55.47100 23.94600
H  10.87600 56.60900 24.79600
H  10.05000 55.27000 25.60200
H  15.72000 52.62700 21.40800
H  17.80600 50.50800 21.83100
H  15.78800 49.74800 21.54600
H  14.95100 50.78800 20.50400
H  14.22000 50.46800 22.04900
H  17.96000 52.96100 20.55200
H  19.13400 51.90800 20.90600
H  18.47400 54.67000 21.58800
H  20.01600 53.75800 21.63300
H  18.98800 53.89600 23.04700
H  22.06400 49.26500 26.47800
H  21.53500 49.76200 24.80100
H  21.03200 48.29000 25.75100
H  19.73000 51.21700 30.70300
H  19.28900 47.21600 32.26700
H  18.40200 48.16100 33.33500
H  20.09500 48.06700 33.70900

