158

Mg -2.24600 17.16100 25.73300
C  -2.59700 14.90900 28.37100
C  -3.11800 19.69100 27.82300
C  -2.34300 19.14900 23.08100
C  -2.02900 14.36100 23.54000
N  -2.78100 17.23400 27.88300
C  -2.81000 16.28000 28.76100
C  -3.28100 16.72800 30.15500
C  -3.50600 18.27800 29.93900
C  -3.16300 18.44000 28.45400
C  -4.91200 18.78100 30.42500
C  -2.17500 16.53600 31.33800
C  -2.33200 17.38000 32.61600
H  -2.25500 16.68500 33.96300
N  -2.41100 19.18900 25.49500
C  -2.73300 20.06700 26.50100
C  -2.58800 21.37900 25.97500
C  -2.33800 21.24300 24.60400
C  -2.35500 19.79000 24.33100
C  -2.51500 22.65600 26.84100
C  -2.02800 22.35800 23.54300
O  -1.82500 22.08100 22.34600
C  -1.73800 23.72300 24.01800
N  -2.22000 16.82900 23.60100
C  -2.16700 17.83500 22.68100
C  -2.17200 17.30100 21.23100
C  -2.14300 15.71700 21.42200
C  -2.14900 15.57300 22.95400
C  -3.25700 17.84600 20.21500
C  -1.31000 14.89200 20.49100
C  0.12200 14.46600 20.99200
N  -2.26100 15.01700 25.83400
C  -2.06800 14.02700 24.90600
C  -1.98000 12.72600 25.63300
C  -2.28700 13.00200 26.97400
C  -2.35400 14.45100 27.04300
C  -1.88700 11.35200 24.94300
C  -2.38200 12.54200 28.33200
O  -2.11600 11.39800 28.78600
C  -2.53200 13.68700 29.31700
C  -1.31700 13.66700 30.20200
O  -0.15800 13.90700 29.83100
O  -1.66100 13.29000 31.44100
C  -0.54100 13.04100 32.36500
H  -3.24100 20.55400 28.48100
H  -2.45200 19.80300 22.21300
H  -1.90700 13.57500 22.79100
H  -4.20200 16.18300 30.36000
H  -2.78300 18.89200 30.47700
H  -5.39700 19.22900 29.55800
H  -4.81300 19.60500 31.13200
H  -5.70200 18.09500 30.73100
H  -1.20400 16.89200 30.99500
H  -2.36000 15.50800 31.64800
H  -3.36000 17.73600 32.53900
H  -1.57600 18.16500 32.59500
H  -2.52300 22.39800 27.90000
H  -3.21700 23.39200 26.44800
H  -1.51300 23.07800 26.76700
H  -0.81900 23.66400 24.60200
H  -2.61900 23.94400 24.61900
H  -1.56700 24.45500 23.22800
H  -1.17600 17.46400 20.82000
H  -3.10100 15.20800 21.31300
H  -3.92700 17.02400 19.96000
H  -2.81500 18.19700 19.28200
H  -3.79900 18.66700 20.68400
H  -1.37800 15.50600 19.59300
H  -1.92100 14.04300 20.18200
H  0.23400 13.39600 20.81300
H  0.24900 14.62200 22.06300
H  0.94300 14.98200 20.49400
H  -0.84500 11.15500 25.19500
H  -1.97700 11.41600 23.85900
H  -2.55000 10.59800 25.36700
H  -3.43600 13.46300 29.88400
H  -0.54300 13.84100 33.10600
H  0.47700 12.79000 32.06800
H  -0.97600 12.18700 32.88400
Mg 26.20600 51.28700 25.83900
C  23.97700 52.32800 28.27900
C  28.40900 50.38300 28.42300
C  28.40700 50.33900 23.56200
C  24.01100 52.28400 23.36200
N  26.19600 51.42700 28.15200
C  25.14600 51.89600 28.93000
C  25.60100 51.87200 30.42700
C  27.12800 51.46400 30.36100
C  27.22600 50.97700 28.94200
C  28.03100 52.65900 30.70100
C  24.75700 50.87700 31.26500
C  23.93400 51.47000 32.35700
H  23.79200 50.63000 33.60300
N  28.04500 50.32300 25.95300
C  28.76300 50.04100 27.09800
C  30.01800 49.44900 26.81800
C  30.06600 49.40200 25.37000
C  28.75300 50.01300 24.86300
C  31.06700 48.84700 27.83800
C  31.21600 48.86800 24.47600
O  31.15800 48.87400 23.18200
C  32.53200 48.32000 25.10400
N  26.21900 51.27200 23.70800
C  27.26900 50.88800 22.99600
C  27.06200 51.08400 21.47300
C  25.59700 51.67800 21.47100
C  25.17200 51.63200 22.92400
C  28.23000 51.94600 20.82000
C  24.59000 50.96200 20.53600
C  24.72700 51.32500 19.03800
N  24.32100 52.12800 25.74700
C  23.53800 52.43600 24.68500
C  22.28900 52.99300 25.20500
C  22.38700 52.95400 26.61100
C  23.67600 52.40500 26.88300
C  21.18100 53.63300 24.37700
C  21.69900 53.34000 27.90600
O  20.52800 53.76900 28.16900
C  22.72700 52.82000 28.99300
C  23.07900 54.05500 29.73000
O  24.11400 54.71400 29.55700
O  22.22100 54.20000 30.80500
C  22.73000 55.25800 31.64300
H  29.08800 50.06800 29.21800
H  29.06000 50.08200 22.72500
H  23.48200 52.86300 22.60200
H  25.53000 52.89800 30.79000
H  27.33300 50.60600 31.00200
H  28.95300 52.65800 30.11900
H  28.23000 52.38800 31.73800
H  27.52800 53.62300 30.62600
H  25.20900 49.95600 31.63300
H  24.01300 50.44400 30.59700
H  22.93200 51.73500 32.02000
H  24.45300 52.36200 32.70800
H  31.50700 47.88300 27.58200
H  30.70400 48.79800 28.86500
H  31.92000 49.52500 27.87700
H  33.20900 47.99100 24.31500
H  32.30600 47.48800 25.77000
H  33.00600 49.16500 25.60400
H  27.03100 50.09500 21.01500
H  25.68400 52.72500 21.18200
H  28.80700 52.32500 21.66400
H  27.87900 52.63500 20.05200
H  28.92300 51.19500 20.44200
H  23.54500 51.12500 20.80000
H  24.72700 49.88900 20.67400
H  23.91600 52.02100 18.82500
H  24.66200 50.40200 18.46100
H  25.71200 51.74500 18.83200
H  21.35800 54.67700 24.11900
H  20.26000 53.51300 24.94800
H  21.08200 52.99600 23.49800
H  22.36600 52.13100 29.75700
H  23.43700 54.81600 32.34600
H  21.96000 55.62600 32.32200
H  23.19100 56.14000 31.20000

