158

Mg 48.65900 45.54300 43.83400
C  45.09100 45.56800 42.83200
C  48.77100 42.34100 42.87600
C  51.86300 45.91500 43.80000
C  48.36700 49.15100 44.17600
N  47.12000 44.18500 42.84000
C  45.80900 44.36600 42.51000
C  45.24100 43.05100 42.01300
C  46.32800 42.02200 42.40000
C  47.53300 42.90200 42.80700
C  45.91600 41.09200 43.58100
C  44.65800 42.98800 40.61900
C  45.64900 43.07300 39.43200
H  45.36900 42.29100 38.09700
N  50.16500 44.21300 43.46200
C  50.03200 42.93900 43.01400
C  51.27900 42.31700 42.95700
C  52.19200 43.35400 43.18100
C  51.46100 44.55800 43.54000
C  51.51400 40.89800 42.50700
C  53.75500 43.07000 43.13200
O  54.16400 41.96800 42.89400
C  54.65400 44.11000 43.44700
N  49.93200 47.33400 43.77700
C  51.25800 47.16600 43.81400
C  52.04700 48.45600 43.83700
C  50.88300 49.56300 43.74200
C  49.57500 48.62300 43.77400
C  53.00900 48.77400 45.04600
C  51.01500 50.43500 42.50700
C  51.04300 52.00400 42.76900
N  47.05800 46.99100 43.73100
C  47.14600 48.39100 43.93200
C  45.82400 48.93700 43.71000
C  44.98200 47.88300 43.31800
C  45.75000 46.70300 43.32300
C  45.41600 50.38400 43.71400
C  43.63900 47.51900 42.81700
O  42.73000 48.20300 42.42000
C  43.63400 45.90500 42.55300
C  42.68400 45.21400 43.44800
O  42.14100 44.07900 43.17000
O  42.26800 45.99300 44.53400
C  41.39600 45.41400 45.56000
H  48.83400 41.25500 42.78300
H  52.94900 45.91200 43.91400
H  48.36000 50.19200 44.50700
H  44.33400 42.91000 42.60100
H  46.50700 41.36900 41.54600
H  44.88300 41.28500 43.86900
H  46.55400 41.32900 44.43200
H  46.02400 40.02900 43.36200
H  43.83400 43.68600 40.47100
H  44.13000 42.04100 40.50600
H  46.63500 42.96400 39.88200
H  45.53500 44.08800 39.05000
H  52.28100 40.83600 41.73500
H  50.61100 40.33400 42.27800
H  51.92500 40.30100 43.32200
H  54.57800 45.02300 42.85600
H  55.68500 43.75900 43.41600
H  54.40700 44.34900 44.48100
H  52.63900 48.52900 42.92500
H  50.89900 50.28900 44.55400
H  52.59000 49.57300 45.65800
H  53.90500 49.18400 44.57900
H  53.25700 47.92400 45.68300
H  50.10400 50.28400 41.92800
H  51.74200 50.11200 41.76200
H  51.88100 52.48800 42.26600
H  51.17900 52.20700 43.83100
H  50.08800 52.46800 42.52100
H  44.71600 50.80300 44.43700
H  44.83700 50.41900 42.79100
H  46.23300 51.10600 43.70600
H  43.23200 45.68000 41.56500
H  41.40600 45.68300 46.61600
H  41.34500 44.33800 45.39200
H  40.36800 45.58600 45.24000
Mg 1.15300 42.19800 24.89000
C  3.18800 42.28300 27.68300
C  -1.40100 40.95300 26.65000
C  -0.47500 41.64200 21.85900
C  4.11000 42.99000 22.91200
N  0.97700 41.86600 27.01600
C  1.87100 42.01900 27.99100
C  1.26300 41.84400 29.34200
C  -0.24200 41.29500 29.03500
C  -0.19300 41.26100 27.46700
C  -0.73300 39.95500 29.71500
C  1.31400 43.12500 30.18100
C  0.99400 43.10100 31.68800
H  0.64200 41.81200 32.42700
N  -0.68100 41.50100 24.34900
C  -1.63700 41.01300 25.23200
C  -2.83400 40.65600 24.52900
C  -2.67500 41.00000 23.12400
C  -1.23600 41.44400 23.04700
C  -4.03300 39.96800 25.20900
C  -3.61400 40.94600 21.88300
O  -3.26700 41.31300 20.76600
C  -5.00400 40.38100 21.97500
N  1.85300 42.06500 22.65100
C  0.88200 41.97700 21.68400
C  1.49100 42.29000 20.26600
C  2.83800 42.97900 20.65800
C  2.96200 42.63600 22.15700
C  1.61500 41.06400 19.34600
C  2.91400 44.44900 20.30000
C  2.15000 45.45700 21.16000
N  3.08800 42.59700 25.19000
C  4.18500 42.85400 24.29900
C  5.41400 42.97200 25.10700
C  5.00600 42.78500 26.37800
C  3.61300 42.56300 26.40800
C  6.85900 43.18300 24.69100
C  5.53400 42.61400 27.66500
O  6.72400 42.64200 27.99500
C  4.38600 42.44500 28.62700
C  4.72400 41.37500 29.64600
O  5.13100 40.25600 29.35000
O  4.47300 41.83100 30.93100
C  4.70800 40.92400 32.03600
H  -2.19600 40.49600 27.24400
H  -1.04500 41.63400 20.92800
H  4.99300 43.25300 22.32600
H  1.78400 41.07700 29.91600
H  -0.98500 42.04600 29.30700
H  -1.13100 39.24500 28.99000
H  -1.57600 40.22800 30.34900
H  -0.00900 39.44600 30.35200
H  0.76700 43.84500 29.57100
H  2.35800 43.43800 30.19800
H  0.19100 43.82200 31.84300
H  1.77900 43.50200 32.32900
H  -5.00400 40.45000 25.09500
H  -3.80900 39.64700 26.22700
H  -4.31300 39.06700 24.66300
H  -4.94000 39.32800 22.25200
H  -5.59900 40.77900 21.15300
H  -5.48100 40.90400 22.80400
H  0.86600 43.07100 19.83200
H  3.71100 42.60100 20.12500
H  2.67100 41.03500 19.07900
H  1.03200 41.20600 18.43600
H  1.25100 40.20300 19.90700
H  2.78200 44.66400 19.23900
H  3.98300 44.59200 20.45900
H  2.88500 45.92100 21.81900
H  1.36700 44.90000 21.67400
H  1.77300 46.25900 20.52500
H  7.50700 42.39300 25.07000
H  7.30300 44.13400 24.98400
H  7.00300 43.02400 23.62200
H  4.53700 43.41400 29.10300
H  5.76100 40.92000 32.31900
H  4.40400 39.94700 31.66200
H  4.07800 41.10800 32.90700

