158

Mg 25.95800 0.49800 29.11000
C  28.05100 0.29000 32.10700
C  23.36100 0.79800 31.20800
C  24.31200 1.11800 26.35000
C  28.99000 0.35800 27.31800
N  25.82800 0.55900 31.43000
C  26.67300 0.45300 32.45700
C  26.02500 0.52800 33.81100
C  24.52100 0.29800 33.39000
C  24.52900 0.48300 31.86700
C  23.74400 -0.93300 33.78200
C  26.23300 1.87400 34.53300
C  25.50700 1.95000 35.84600
H  26.30400 2.27100 37.12200
N  23.99100 0.87600 28.81700
C  23.08400 1.04900 29.85900
C  21.83800 1.33500 29.21700
C  22.07700 1.43500 27.76300
C  23.49300 1.03700 27.56300
C  20.60300 1.55500 30.03000
C  21.24400 1.81100 26.63600
O  21.63600 1.76700 25.51600
C  19.78700 2.06600 26.86300
N  26.56500 0.54700 27.16800
C  25.65700 0.93200 26.17300
C  26.37600 1.24700 24.88000
C  27.81400 0.78700 25.15500
C  27.82200 0.59900 26.62800
C  25.76100 0.61200 23.56700
C  28.88600 1.77900 24.52900
C  30.16300 1.11600 23.88200
N  28.09200 0.23000 29.56800
C  29.20700 0.22000 28.71600
C  30.47500 0.06000 29.47700
C  30.04000 0.10800 30.78300
C  28.58600 0.19200 30.74100
C  31.86900 -0.08300 28.98300
C  30.44500 0.21600 32.14600
O  31.59700 0.17400 32.59700
C  29.18000 0.26300 33.03800
C  29.09900 -0.70400 34.11100
O  28.84900 -1.89900 34.01600
O  29.20200 -0.08800 35.38200
C  28.89100 -0.79300 36.59600
H  22.56700 0.73300 31.95400
H  23.88100 1.48200 25.41500
H  29.93700 0.31400 26.77500
H  26.34500 -0.24500 34.51100
H  23.86600 1.11800 33.68600
H  22.82500 -0.78100 34.34700
H  24.21600 -1.64900 34.45400
H  23.44000 -1.56100 32.94400
H  26.01900 2.73400 33.89900
H  27.31000 1.97800 34.67100
H  25.10600 0.95200 36.02400
H  24.70800 2.67800 35.70500
H  19.82700 0.91900 29.60400
H  20.28300 2.59600 29.98500
H  20.90000 1.37900 31.06400
H  19.62300 2.71000 27.72700
H  19.23000 1.13500 26.96400
H  19.28000 2.58800 26.05100
H  26.38700 2.33100 24.76900
H  28.06500 -0.18400 24.73000
H  24.89500 -0.01100 23.79000
H  26.40700 -0.14500 23.12300
H  25.51400 1.27800 22.74000
H  29.16800 2.37400 25.39800
H  28.35800 2.43600 23.83800
H  30.17400 1.09500 22.79200
H  30.37200 0.06500 24.08300
H  31.03000 1.71400 24.16300
H  31.81500 0.06100 27.90400
H  32.33700 -1.00500 29.32800
H  32.40300 0.80600 29.31700
H  29.21100 1.28400 33.41800
H  29.37000 -1.74900 36.80900
H  27.87500 -1.16600 36.45900
H  28.95400 -0.20700 37.51300
Mg 54.49400 24.18600 45.43600
C  51.71200 26.26500 44.92100
C  52.70900 21.46600 44.25700
C  57.25700 22.43700 45.56500
C  56.28100 27.12900 46.31500
N  52.44200 23.99900 44.59800
C  51.53100 24.96000 44.37800
C  50.25400 24.36200 43.73800
C  50.49700 22.81500 44.01700
C  51.98600 22.75800 44.21700
C  49.94700 22.23600 45.30000
C  50.25700 24.76000 42.19200
C  48.94400 25.13800 41.44000
H  48.44900 24.18000 40.27400
N  54.85000 22.16900 45.02700
C  54.03000 21.22200 44.52000
C  54.78000 19.96100 44.41600
C  56.09000 20.19600 44.93000
C  56.07500 21.64000 45.24000
C  54.04300 18.64100 44.01000
C  57.18400 19.12300 45.13900
O  56.89800 18.00200 44.74400
C  58.51900 19.48900 45.61600
N  56.55200 24.73900 45.79900
C  57.47300 23.73300 45.87500
C  58.82800 24.35300 46.31700
C  58.52900 25.89400 46.31900
C  57.01300 25.87600 46.24400
C  59.33000 23.62700 47.61600
C  59.06200 26.86000 45.08100
C  60.54100 26.63700 44.70800
N  54.17100 26.28300 45.60400
C  54.97400 27.34900 46.03000
C  54.20600 28.50300 46.10900
C  52.94800 28.16000 45.67000
C  52.91700 26.77100 45.40700
C  54.67400 29.79500 46.50100
C  51.62100 28.75400 45.40300
O  51.15800 29.84100 45.61800
C  50.79700 27.51900 44.82300
C  50.35900 27.89700 43.44200
O  51.20500 28.26000 42.60800
O  48.98700 27.81400 43.27400
C  48.49800 28.30200 41.99600
H  52.00500 20.67600 43.98900
H  58.22300 21.94300 45.68400
H  56.80300 28.03200 46.64000
H  49.38200 24.68400 44.30600
H  50.25100 22.18100 43.16600
H  49.08100 22.78400 45.67200
H  50.65300 22.11100 46.12100
H  49.61100 21.22300 45.07600
H  50.66800 23.88700 41.68500
H  50.90800 25.61800 42.02100
H  49.09000 26.05000 40.86100
H  48.18700 25.29400 42.20800
H  53.56700 18.82700 43.04700
H  53.28600 18.15300 44.62500
H  54.74100 17.83100 43.79700
H  59.13000 20.07300 44.92800
H  59.05700 18.58900 45.91700
H  58.34000 20.00000 46.56200
H  59.55100 24.21000 45.51300
H  58.63500 26.34800 47.30500
H  59.74900 24.37400 48.29000
H  60.08200 22.85300 47.46500
H  58.51700 23.21800 48.21600
H  58.77100 27.87300 45.36100
H  58.54900 26.74000 44.12700
H  60.54900 26.14600 43.73500
H  61.00300 26.04700 45.50000
H  61.15000 27.51700 44.49800
H  54.19400 30.01300 47.45500
H  54.36600 30.35500 45.61800
H  55.73600 30.03000 46.55700
H  49.95300 27.27100 45.46600
H  49.09800 28.01900 41.13100
H  48.63400 29.38400 41.99900
H  47.46000 28.14900 41.69900

