158

Mg 35.54000 2.80800 29.90600
C  33.23200 3.81100 32.28100
C  37.92100 2.68500 32.40100
C  37.84200 2.16000 27.61600
C  33.08900 3.12300 27.50800
N  35.55800 3.29900 32.02400
C  34.54700 3.65100 32.82100
C  34.97300 3.75600 34.31900
C  36.48900 3.57500 34.24500
C  36.64900 3.13800 32.78500
C  37.16100 4.97800 34.49200
C  34.32500 2.49600 35.09500
C  34.19800 2.66700 36.62600
H  34.85300 3.89400 37.24700
N  37.67200 2.41700 29.96200
C  38.42000 2.25400 31.11600
C  39.75200 1.81400 30.78500
C  39.75000 1.71900 29.31400
C  38.40400 2.10400 28.92100
C  40.84900 1.51600 31.80100
C  40.89300 1.34700 28.38100
O  40.78500 1.51000 27.13100
C  42.11100 0.71000 28.87700
N  35.49300 2.90300 27.75900
C  36.56400 2.48100 27.01300
C  36.18700 2.50300 25.50900
C  34.60200 2.32300 25.61700
C  34.39300 2.85200 27.08100
C  36.65400 3.90600 24.88300
C  34.11600 0.79200 25.34600
C  33.67000 -0.12600 26.50500
N  33.54900 3.44500 29.81500
C  32.61200 3.43900 28.82000
C  31.34800 3.76800 29.35500
C  31.57600 3.98000 30.69100
C  32.88400 3.65700 30.90700
C  30.10300 3.92000 28.69400
C  30.92300 4.26200 31.96100
O  29.81600 4.58800 32.20000
C  31.96200 4.14800 33.09500
C  32.04900 5.50700 33.64200
O  32.24900 6.54900 32.97200
O  31.84700 5.51300 34.97200
C  32.06100 6.78400 35.64100
H  38.75900 2.71100 33.10000
H  38.52700 1.68100 26.91300
H  32.40800 3.10300 26.65500
H  34.64100 4.69800 34.75400
H  36.87900 2.88100 34.98900
H  36.57700 5.68100 35.08500
H  37.56400 5.42800 33.58500
H  37.99300 4.85700 35.18600
H  34.94700 1.63800 34.83700
H  33.30700 2.37400 34.72400
H  34.63400 1.79700 37.11700
H  33.12400 2.67900 36.80800
H  41.04800 0.45900 31.98100
H  40.52900 1.97800 32.73400
H  41.75400 2.04400 31.50100
H  42.76100 1.45400 29.33800
H  42.65600 0.35100 28.00300
H  41.93900 -0.15000 29.52400
H  36.74100 1.72400 24.98500
H  34.14500 3.03900 24.93300
H  37.34700 3.86500 24.04300
H  37.24200 4.35900 25.68000
H  35.76400 4.45600 24.57600
H  34.78600 0.29800 24.64200
H  33.20200 0.93600 24.77100
H  33.61700 0.47500 27.41200
H  34.41100 -0.92300 26.56000
H  32.60800 -0.35000 26.40000
H  29.36300 3.85500 29.49200
H  30.11000 3.11700 27.95700
H  29.98300 4.94400 28.33900
H  31.68600 3.33700 33.76900
H  32.86100 7.34800 35.16300
H  32.36500 6.52600 36.65600
H  31.11500 7.32600 35.63700
Mg 48.27100 15.19700 29.07800
C  46.25900 15.35700 31.99000
C  50.59500 16.97600 30.82600
C  50.17800 15.28000 26.24000
C  45.56900 14.08700 27.27200
N  48.33800 16.10400 31.22600
C  47.50100 15.95400 32.24100
C  47.97400 16.50800 33.53200
C  49.37500 17.05500 33.17100
C  49.49500 16.72400 31.67300
C  49.47500 18.56000 33.51400
C  47.83300 15.45100 34.69300
C  47.00700 15.82700 35.89700
H  47.04300 17.34700 36.25700
N  50.15000 15.91700 28.60500
C  50.92000 16.58500 29.48400
C  52.13600 16.95900 28.76400
C  52.16200 16.36200 27.50400
C  50.77000 15.80400 27.39200
C  53.19800 17.68000 29.37000
C  53.22400 16.29300 26.39900
O  52.99700 15.70600 25.34400
C  54.47300 17.04800 26.54400
N  47.88600 14.78600 27.04900
C  48.88600 14.82000 25.99700
C  48.24200 14.33200 24.66100
C  46.81400 13.94100 25.15000
C  46.74500 14.29100 26.59200
C  48.33800 15.30800 23.51800
C  46.54000 12.42500 24.92500
C  46.18400 11.95800 23.53800
N  46.36400 14.75800 29.50100
C  45.34600 14.23700 28.65800
C  44.14500 14.07600 29.38300
C  44.47400 14.55800 30.64600
C  45.83800 14.87000 30.73000
C  42.90200 13.56800 28.75400
C  43.86900 14.67500 31.91600
O  42.73900 14.45400 32.33600
C  44.99700 15.25500 32.83700
C  44.55800 16.56300 33.41800
O  44.83000 17.69900 32.99800
O  43.78200 16.36300 34.55600
C  43.02100 17.43500 35.19600
H  51.35300 17.59500 31.30800
H  50.79400 15.26600 25.33800
H  44.68800 13.71300 26.74700
H  47.19600 17.24400 33.73200
H  50.08100 16.51300 33.80000
H  49.75800 19.11200 32.61800
H  50.15800 18.64200 34.36000
H  48.48100 18.98300 33.66000
H  48.83800 15.21500 35.04600
H  47.49300 14.54200 34.19600
H  47.26700 15.16600 36.72300
H  45.97000 15.70700 35.58100
H  53.37000 18.51600 28.69200
H  54.07700 17.04700 29.24300
H  53.02500 18.12000 30.35200
H  54.99900 16.89200 25.60200
H  54.98400 16.64600 27.41900
H  54.26800 18.08900 26.79400
H  48.84300 13.44800 24.44700
H  46.02400 14.51400 24.66600
H  48.94800 14.73500 22.82000
H  48.88200 16.16100 23.92500
H  47.39200 15.60400 23.06400
H  45.78300 12.05600 25.61700
H  47.46100 11.90900 25.19900
H  46.93900 11.35200 23.03800
H  45.96000 12.84300 22.94200
H  45.29200 11.33300 23.49700
H  43.16400 12.52600 28.57200
H  42.56100 14.13000 27.88400
H  42.03300 13.59500 29.41200
H  45.10900 14.56000 33.66900
H  43.64600 18.32200 35.29800
H  42.62800 17.22500 36.19100
H  42.19800 17.60400 34.50100

