158

Mg 24.85800 49.89500 27.18900
C  22.95100 51.22100 29.89400
C  27.36700 49.38500 29.42700
C  26.95100 49.30700 24.62900
C  22.42400 51.10100 24.97700
N  25.07600 50.25300 29.34500
C  24.12400 50.63900 30.34000
C  24.64100 50.61900 31.77400
C  26.14200 50.04800 31.51500
C  26.23100 49.98400 29.97700
C  27.37300 50.78000 32.16200
C  23.82300 49.84800 32.85500
C  24.47300 49.62500 34.24000
H  23.88200 50.22300 35.61600
N  26.90300 49.34500 27.09900
C  27.64600 48.97800 28.14000
C  28.84700 48.34700 27.56400
C  28.80200 48.33200 26.14800
C  27.51200 49.04600 25.87000
C  29.90300 47.82700 28.47700
C  29.78600 47.93400 25.13500
O  29.71900 48.22500 23.98000
C  30.95500 47.09100 25.57400
N  24.68900 50.16100 25.11300
C  25.68800 49.87400 24.26700
C  25.46400 50.44200 22.89700
C  23.95200 50.85800 22.91800
C  23.63700 50.80000 24.40800
C  26.46500 51.63800 22.68700
C  23.04100 49.99900 21.96700
C  22.46700 48.63100 22.57600
N  23.01900 50.94500 27.34600
C  22.15200 51.34200 26.36200
C  21.04400 52.03900 26.97600
C  21.27200 51.96100 28.33300
C  22.48400 51.32500 28.54000
C  19.91400 52.66100 26.21200
C  20.77900 52.34400 29.59800
O  19.69700 52.89300 29.89000
C  21.89200 51.98900 30.61600
C  22.26000 53.30300 31.12900
O  22.64700 54.24300 30.53000
O  22.02500 53.30700 32.53500
C  22.18300 54.62300 33.25300
H  28.14900 49.05800 30.11600
H  27.47500 48.96200 23.73600
H  21.71500 51.44800 24.22200
H  24.80200 51.63400 32.13700
H  26.11300 49.03700 31.92300
H  27.99200 49.94900 32.50100
H  26.95200 51.35600 32.98700
H  27.92800 51.34600 31.41400
H  23.46600 48.93300 32.38200
H  22.90000 50.41500 32.98100
H  25.48200 50.02900 34.16100
H  24.39900 48.54100 34.33000
H  30.03900 46.81000 28.11000
H  29.66900 47.87100 29.54100
H  30.92600 48.17800 28.33900
H  30.64400 46.11700 25.95200
H  31.52600 47.69600 26.27900
H  31.64800 46.90500 24.75400
H  25.57400 49.60500 22.20800
H  23.86600 51.87800 22.54300
H  27.50800 51.38900 22.88000
H  26.06900 52.53200 23.16800
H  26.35500 51.77100 21.61000
H  23.69500 49.81500 21.11400
H  22.18600 50.63600 21.73900
H  22.93500 48.37700 23.52600
H  22.56200 47.84000 21.83200
H  21.39800 48.75700 22.75200
H  19.81900 52.41500 25.15500
H  20.05000 53.73900 26.30000
H  18.93800 52.44800 26.64800
H  21.44500 51.37300 31.39600
H  22.92200 55.17600 32.67400
H  22.58600 54.49100 34.25700
H  21.29900 55.25700 33.30700
Mg 15.63800 51.45900 25.91300
C  17.22900 50.35300 28.67600
C  13.06700 52.66500 27.87900
C  13.96800 52.12100 23.06200
C  17.99600 49.85700 23.88100
N  15.24100 51.58900 28.06900
C  16.08700 51.13600 29.03000
C  15.69500 51.56300 30.39500
C  14.22500 52.09000 30.18700
C  14.12800 52.16900 28.64900
C  13.13600 51.08400 30.74800
C  16.62100 52.65900 30.95200
C  17.02100 52.70600 32.43200
H  16.08800 51.83900 33.23900
N  13.84500 52.35200 25.52400
C  12.93100 52.75800 26.46900
C  11.71700 53.12100 25.78400
C  11.95500 53.03900 24.36500
C  13.30700 52.49300 24.23800
C  10.49700 53.46100 26.46000
C  11.02900 53.30900 23.33200
O  11.31700 52.99500 22.15700
C  9.66000 53.99100 23.56100
N  16.06700 51.20600 23.81700
C  15.22200 51.53800 22.84600
C  15.80600 51.45900 21.37400
C  17.10100 50.70200 21.67800
C  17.02200 50.52600 23.24200
C  14.89500 50.60200 20.37500
C  18.35400 51.41200 21.12100
C  19.26000 50.69100 20.05500
N  17.40500 50.42900 26.21600
C  18.22200 49.84300 25.30300
C  19.16400 49.07100 26.08700
C  18.80300 49.25400 27.37400
C  17.73600 50.10000 27.42500
C  20.19600 48.16500 25.61300
C  19.16600 48.88900 28.70500
O  19.95200 48.02000 29.05500
C  18.22600 49.66900 29.60400
C  17.67100 48.77300 30.53400
O  16.60600 48.19900 30.55000
O  18.54600 48.75300 31.62800
C  18.02300 48.08800 32.82000
H  12.24900 52.94500 28.54500
H  13.52200 52.45700 22.12300
H  18.70600 49.31800 23.25100
H  15.76000 50.67500 31.02200
H  14.09900 53.11600 30.53200
H  12.47200 51.60000 31.44100
H  13.60300 50.18500 31.15100
H  12.50600 50.72000 29.93600
H  16.28100 53.68300 30.79400
H  17.56000 52.60800 30.40000
H  17.11600 53.76100 32.68700
H  17.95300 52.16200 32.58100
H  9.73500 52.70400 26.27900
H  10.13200 54.39800 26.03800
H  10.47800 53.63900 27.53500
H  9.05300 53.43500 24.27600
H  9.22500 54.13800 22.57200
H  9.99100 54.97900 23.87900
H  16.02500 52.44500 20.96200
H  17.19700 49.71000 21.23700
H  14.08700 50.09000 20.89800
H  15.45400 49.89400 19.76400
H  14.53300 51.32200 19.64000
H  19.04900 51.63700 21.93100
H  18.17100 52.37400 20.64200
H  19.30900 49.61400 20.21600
H  20.28800 50.98400 20.26700
H  19.00200 51.02000 19.04900
H  20.31700 47.26700 26.21800
H  21.17500 48.60700 25.42900
H  19.81200 47.94600 24.61600
H  18.84300 50.38600 30.14400
H  17.16200 47.45000 32.62300
H  17.81800 48.81100 33.61000
H  18.79000 47.43300 33.23200

