158

Mg -2.46700 17.47500 27.46500
C  -3.04900 15.25800 30.25600
C  -2.76100 20.05400 29.48500
C  -2.37400 19.32400 24.68400
C  -2.75600 14.61400 25.47700
N  -2.72600 17.56500 29.68000
C  -3.05300 16.59400 30.60400
C  -3.15000 17.26300 32.06300
C  -3.09400 18.77700 31.76300
C  -2.89900 18.83400 30.20100
C  -4.32800 19.52800 32.37900
C  -1.97300 16.75100 32.99000
C  -1.55800 17.72500 34.09000
H  -1.25800 17.05800 35.42400
N  -2.44300 19.41600 27.14400
C  -2.60000 20.35200 28.12700
C  -2.42100 21.65300 27.52000
C  -2.24100 21.43400 26.08500
C  -2.37800 20.02900 25.89300
C  -2.31600 22.87700 28.41600
C  -2.02000 22.52600 25.00900
O  -1.90100 22.22500 23.78500
C  -1.93000 23.96000 25.37100
N  -2.69400 17.03700 25.33500
C  -2.47000 18.00500 24.38800
C  -2.25200 17.46100 22.94300
C  -2.32600 15.87000 23.23600
C  -2.66900 15.79200 24.76900
C  -3.25400 18.09600 21.89400
C  -1.11400 15.09300 22.88600
C  -0.01600 15.33500 23.87700
N  -2.71400 15.42600 27.76800
C  -2.82700 14.40600 26.82900
C  -3.04900 13.08900 27.42100
C  -3.04400 13.43400 28.76400
C  -2.91600 14.83100 28.93500
C  -3.15500 11.77900 26.69700
C  -3.12300 12.84800 30.10300
O  -3.15500 11.70500 30.50600
C  -3.17400 14.00100 31.11100
C  -1.92300 13.73500 31.90800
O  -0.80100 14.19800 31.73700
O  -2.32100 13.00600 33.01300
C  -1.48600 12.75600 34.18100
H  -2.80300 20.91300 30.15800
H  -2.15600 19.95300 23.81800
H  -2.76100 13.76500 24.79000
H  -4.09300 16.89600 32.46800
H  -2.14100 19.13400 32.15400
H  -3.94100 20.26400 33.08400
H  -4.98700 18.82100 32.88400
H  -5.06300 19.93000 31.68200
H  -1.13900 16.70600 32.29000
H  -2.30200 15.75200 33.27800
H  -2.15500 18.60000 34.34700
H  -0.54800 18.00100 33.78800
H  -1.39400 23.44900 28.30900
H  -2.48900 22.72800 29.48200
H  -3.18600 23.47800 28.15200
H  -1.95600 24.60100 24.49000
H  -1.01000 24.02800 25.95200
H  -2.82900 24.16300 25.95300
H  -1.21600 17.66800 22.67400
H  -3.05100 15.45400 22.53700
H  -4.01400 17.34300 21.68700
H  -2.70500 18.49700 21.04200
H  -3.70800 19.00200 22.29400
H  -0.80700 15.44100 21.89900
H  -1.40800 14.04500 22.82800
H  0.18600 16.39800 24.00800
H  0.88100 14.82000 23.53300
H  -0.14100 14.89300 24.86600
H  -2.58600 11.13600 27.36700
H  -2.63900 11.76600 25.73600
H  -4.20400 11.48400 26.67100
H  -4.08700 13.87200 31.69100
H  -1.30600 11.68100 34.18300
H  -2.08600 13.07200 35.03400
H  -0.57300 13.34000 34.29600
Mg -5.62300 25.30600 26.22300
C  -4.14200 26.88200 29.04100
C  -7.45400 23.48700 28.32300
C  -6.48600 23.55600 23.52100
C  -3.33700 27.20500 24.27300
N  -5.60500 25.11700 28.49700
C  -5.06200 25.97400 29.39200
C  -5.53600 25.53000 30.82700
C  -6.31700 24.23500 30.55300
C  -6.61300 24.35200 29.01900
C  -5.68200 23.01600 31.05300
C  -6.34400 26.61500 31.50800
C  -5.88200 26.99000 32.92600
H  -5.19100 26.05900 33.90400
N  -6.86200 23.77000 25.90400
C  -7.67100 23.20100 26.97500
C  -8.69500 22.47100 26.27600
C  -8.38200 22.36000 24.86000
C  -7.20600 23.26100 24.69800
C  -9.81000 21.83100 27.00700
C  -8.95500 21.52000 23.66200
O  -8.54400 21.57900 22.52500
C  -10.11500 20.60000 23.91100
N  -4.88600 25.30600 24.29700
C  -5.51900 24.56500 23.33700
C  -4.88000 24.66800 21.95900
C  -4.03100 25.98900 22.14200
C  -4.08000 26.25900 23.63700
C  -4.09700 23.44000 21.54200
C  -4.56800 27.13900 21.30600
C  -3.61900 27.59900 20.09700
N  -4.06800 26.72300 26.45600
C  -3.26900 27.45300 25.62900
C  -2.41500 28.41200 26.32700
C  -2.74200 28.19300 27.67700
C  -3.78000 27.20600 27.70000
C  -1.40600 29.31600 25.70700
C  -2.45400 28.65100 29.07100
O  -1.65400 29.47000 29.56100
C  -3.34400 27.72800 30.06900
C  -2.37100 26.83200 30.72100
O  -1.89600 25.72900 30.33900
O  -1.99000 27.43700 31.93500
C  -1.05400 26.74500 32.78000
H  -8.07700 22.97800 29.06200
H  -6.81500 23.04400 22.61300
H  -2.65700 27.78500 23.64600
H  -4.65500 25.37400 31.45100
H  -7.32100 24.21300 30.97500
H  -6.28300 22.58000 31.85100
H  -4.68500 23.18200 31.45900
H  -5.62900 22.20500 30.32700
H  -7.38000 26.29900 31.63800
H  -6.31200 27.44100 30.79700
H  -6.81500 27.34500 33.36400
H  -5.29500 27.90900 32.92100
H  -10.05600 22.46900 27.85600
H  -9.58000 20.77800 27.17000
H  -10.70900 21.89300 26.39500
H  -10.35400 20.15700 22.94400
H  -10.94900 21.23800 24.20300
H  -9.84000 19.89600 24.69600
H  -5.65500 24.80800 21.20600
H  -2.98000 25.80400 21.92500
H  -3.06400 23.52800 21.20500
H  -4.53600 22.99300 20.65000
H  -4.08600 22.64000 22.28200
H  -4.61800 27.99400 21.98000
H  -5.58900 26.88800 21.01900
H  -3.15600 28.53700 20.40300
H  -4.23600 27.65500 19.20000
H  -2.88000 26.80800 19.97100
H  -1.86000 30.20400 25.26800
H  -0.81700 28.71400 25.01500
H  -0.69700 29.63300 26.47300
H  -3.97000 28.31100 30.74500
H  -0.16500 26.35800 32.28400
H  -1.51300 25.85200 33.20300
H  -0.64400 27.39600 33.55200

