158

Mg 48.44400 34.58400 27.27800
C  46.19200 33.48800 29.79800
C  49.29100 37.28400 29.22500
C  49.76300 36.03400 24.57600
C  46.93000 32.12200 25.13600
N  47.79200 35.26300 29.30400
C  46.92500 34.67100 30.14500
C  46.97500 35.41000 31.49600
C  47.62900 36.79900 31.11100
C  48.35000 36.45300 29.86600
C  46.61400 37.95400 30.87300
C  47.83700 34.54000 32.52000
C  47.28700 34.37800 33.92600
H  48.22500 34.87900 35.04300
N  49.46100 36.31300 26.97900
C  49.74600 37.28400 27.86800
C  50.55900 38.22700 27.20900
C  50.75300 37.92500 25.85900
C  49.94700 36.71900 25.74500
C  51.07500 39.46600 27.91000
C  51.45400 38.65700 24.77400
O  51.54400 38.14500 23.66200
C  52.17800 40.01800 25.09900
N  48.30000 34.14300 25.24700
C  49.05600 34.87800 24.32900
C  48.76000 34.37700 22.87400
C  48.16300 33.00900 23.18600
C  47.76400 33.08000 24.60300
C  47.84200 35.38400 22.13800
C  49.06900 31.76500 22.86200
C  50.15700 31.35100 23.83500
N  47.08200 32.96000 27.46500
C  46.62200 32.02000 26.50400
C  45.74600 31.00400 27.15900
C  45.50600 31.62100 28.42400
C  46.35500 32.75900 28.51400
C  45.20400 29.75100 26.52100
C  44.70800 31.48200 29.54700
O  43.89300 30.59100 29.80000
C  45.12100 32.67300 30.52400
C  45.55300 32.01600 31.80900
O  46.50200 31.26600 32.06600
O  44.55100 32.21200 32.74600
C  44.75000 31.77400 34.17900
H  49.48500 38.18600 29.80900
H  50.17400 36.40200 23.63400
H  46.66100 31.27100 24.50700
H  45.99900 35.55600 31.95800
H  48.37500 37.21800 31.78700
H  46.76100 38.80600 31.53600
H  45.57300 37.65900 31.00100
H  46.59400 38.31700 29.84500
H  48.87600 34.86600 32.55800
H  48.04200 33.59100 32.02400
H  47.18100 33.33700 34.23300
H  46.28800 34.81200 33.98600
H  50.34500 40.21500 27.59900
H  52.10000 39.60900 27.56800
H  51.12700 39.27900 28.98200
H  51.41300 40.61900 25.58900
H  52.60000 40.45500 24.19400
H  53.01100 39.77400 25.75800
H  49.65300 34.21000 22.27100
H  47.29700 32.90200 22.53300
H  47.74900 36.36400 22.60600
H  46.87900 34.91000 21.95000
H  48.27700 35.51700 21.14700
H  49.50700 32.10600 21.92500
H  48.44800 30.90000 22.62600
H  49.78200 30.42700 24.27600
H  50.40200 32.00900 24.66800
H  51.14200 31.20100 23.39300
H  45.87600 28.94500 26.81600
H  45.19800 29.85900 25.43600
H  44.20200 29.68500 26.94600
H  44.30500 33.36600 30.72700
H  45.35900 30.87000 34.20600
H  43.70100 31.58800 34.40700
H  45.13500 32.60900 34.76400
Mg 7.20100 54.06800 41.47300
C  6.76900 50.53200 41.54300
C  10.52600 53.23100 40.44600
C  7.71100 57.37100 40.91900
C  3.82100 54.45000 41.53600
N  8.45900 52.10900 40.99200
C  8.06800 50.81900 41.08300
C  9.23600 49.81600 40.96700
C  10.45500 50.73900 41.03900
C  9.75700 52.12000 40.80300
C  11.39100 50.71500 42.29400
C  9.29800 48.83200 39.79800
C  9.07800 49.48000 38.42900
H  7.72600 49.17100 37.74800
N  8.96200 55.16300 40.91000
C  10.18900 54.68000 40.46300
C  11.08900 55.82000 40.35500
C  10.27500 56.99400 40.45600
C  8.88100 56.56300 40.75600
C  12.55500 55.61600 40.07600
C  10.81300 58.41500 40.40100
O  11.97000 58.56600 40.04300
C  10.01100 59.58100 40.79700
N  5.93800 55.62600 41.32200
C  6.39600 56.94800 41.17600
C  5.15200 57.83800 41.14800
C  3.93100 56.96600 41.39200
C  4.56600 55.59600 41.39500
C  5.17600 59.14100 42.06500
C  2.89200 57.14400 40.23000
C  1.41800 56.74300 40.53200
N  5.60600 52.87100 41.64000
C  4.24000 53.07400 41.68600
C  3.49000 51.92200 41.93200
C  4.45600 50.95700 42.03400
C  5.70000 51.51500 41.73800
C  2.05300 51.80600 42.20400
C  4.73000 49.52500 42.28000
O  3.98100 48.66200 42.63500
C  6.19300 49.13000 41.78600
C  5.79700 48.35700 40.62800
O  5.24900 48.79700 39.61300
O  6.12400 46.98700 40.89200
C  5.89500 45.89500 39.86700
H  11.59800 53.05600 40.32900
H  7.79200 58.46000 40.88200
H  2.76700 54.59200 41.78700
H  9.28000 49.17200 41.84500
H  11.14000 50.54800 40.21300
H  11.23200 49.84300 42.93000
H  11.25500 51.61300 42.89600
H  12.44900 50.78200 42.04300
H  8.58500 48.02200 39.95000
H  10.22600 48.26100 39.83800
H  9.82700 49.17800 37.69700
H  9.26700 50.54900 38.52700
H  12.67200 55.10400 39.12100
H  12.88600 54.97200 40.89100
H  13.09700 56.56100 40.05600
H  10.70600 60.34300 41.15100
H  9.33000 59.34000 41.61300
H  9.47800 60.08300 39.99000
H  5.05200 58.23400 40.13700
H  3.59400 57.15700 42.41100
H  5.74000 59.88700 41.50600
H  5.80500 58.87600 42.91500
H  4.21300 59.33600 42.53700
H  3.26400 56.57200 39.38000
H  2.82700 58.21900 40.06100
H  1.31100 56.56200 41.60200
H  1.13500 55.82200 40.02200
H  0.80900 57.61300 40.28900
H  1.54600 51.26000 41.40800
H  1.63300 52.81200 42.17400
H  1.85400 51.36700 43.18100
H  6.71100 48.63100 42.60500
H  4.86100 45.55200 39.83600
H  6.64000 45.10700 39.97500
H  6.06300 46.32500 38.87900

