158

Mg 52.38900 24.06100 44.19600
C  49.35600 25.99100 43.88400
C  50.49500 21.21700 44.06100
C  55.29500 22.39200 43.76700
C  54.19800 27.15900 43.99300
N  50.13500 23.66400 43.86300
C  49.10100 24.55100 43.91600
C  47.71300 23.86000 43.85100
C  48.16700 22.41900 44.30000
C  49.69000 22.40900 43.99700
C  47.97800 22.04400 45.79100
C  47.04400 23.97500 42.43800
C  47.96800 23.58800 41.22400
H  47.40900 23.79600 39.83600
N  52.75000 22.06900 43.89600
C  51.88500 21.07100 43.98100
C  52.61600 19.79300 43.78600
C  53.99100 20.13300 43.66500
C  54.09600 21.56400 43.83900
C  52.00300 18.43600 43.87400
C  55.11500 19.06000 43.44200
O  54.82400 17.84900 43.30500
C  56.54400 19.35900 43.38300
N  54.45700 24.67800 43.78400
C  55.46800 23.80700 43.76300
C  56.85700 24.47500 43.88900
C  56.48600 26.04600 43.72200
C  54.95500 25.95500 43.83200
C  57.66100 24.02900 45.16100
C  57.04900 26.64900 42.39900
C  58.02600 27.84800 42.59400
N  51.93900 26.13000 44.12900
C  52.81300 27.24800 44.13000
C  51.96900 28.42100 44.24000
C  50.63900 27.96900 44.05800
C  50.64400 26.57000 44.02600
C  52.36800 29.83300 44.23700
C  49.23900 28.50100 43.92600
O  48.77700 29.55500 43.72200
C  48.44000 27.16700 43.73400
C  47.80400 27.23400 42.42800
O  48.35400 27.24200 41.34600
O  46.39700 27.54900 42.63100
C  45.76000 28.13400 41.46800
H  49.92900 20.29400 44.20000
H  56.24900 21.86100 43.79000
H  54.74200 28.06700 44.26400
H  47.07500 24.39000 44.55900
H  47.71100 21.69700 43.62200
H  47.40600 22.88300 46.18600
H  48.97900 21.96900 46.21600
H  47.50800 21.06500 45.88500
H  46.46300 24.88900 42.32100
H  46.34900 23.13600 42.39600
H  47.95700 22.51500 41.41700
H  48.90000 24.10700 41.44600
H  52.43000 17.73800 43.15300
H  50.92600 18.51100 43.72400
H  52.25700 18.04100 44.85800
H  57.22900 18.51100 43.36800
H  56.82100 20.02100 44.20300
H  56.80700 19.92100 42.48700
H  57.44500 24.00000 43.10400
H  56.89900 26.54600 44.59800
H  57.01500 23.58800 45.92000
H  58.13700 24.92000 45.56900
H  58.46200 23.32800 44.92700
H  56.26100 26.94100 41.70500
H  57.65000 25.96800 41.79700
H  59.02400 27.46900 42.37300
H  57.82600 28.38300 43.52200
H  57.92800 28.63800 41.84900
H  53.31700 29.98200 44.75200
H  51.70600 30.50700 44.77900
H  52.40600 30.16100 43.19800
H  47.61200 27.23400 44.44000
H  46.26300 29.04600 41.14800
H  44.74800 28.33800 41.81800
H  45.85700 27.52400 40.57000
Mg 47.14400 16.18800 28.12200
C  44.95400 15.65800 30.86200
C  48.97100 18.34900 29.91800
C  49.25600 16.37500 25.40600
C  45.03000 14.11900 26.19200
N  46.89700 17.08000 30.13800
C  46.03900 16.59600 31.15400
C  46.36700 17.30200 32.45400
C  47.53800 18.26400 32.03800
C  47.89400 17.85000 30.55600
C  47.20500 19.80600 32.08800
C  46.80400 16.29200 33.52600
C  46.56000 16.51700 35.06300
H  47.73900 16.26500 36.05900
N  48.82600 17.28700 27.72400
C  49.49000 18.14500 28.59500
C  50.50100 18.84400 27.83600
C  50.42200 18.32400 26.48700
C  49.49300 17.26900 26.50400
C  51.34500 19.92200 28.36800
C  51.23900 18.77400 25.31500
O  50.94600 18.35500 24.20200
C  52.39300 19.79900 25.44000
N  47.04500 15.47100 26.11900
C  48.09000 15.63100 25.24700
C  47.75500 14.96400 23.99200
C  46.69200 13.93600 24.36100
C  46.22800 14.53200 25.63800
C  47.32700 15.99800 22.87100
C  47.10100 12.46000 24.59300
C  46.11500 11.33700 24.01200
N  45.32200 15.18300 28.39400
C  44.56700 14.43200 27.50100
C  43.36200 13.85200 28.21500
C  43.49900 14.29100 29.47000
C  44.71000 15.11600 29.57200
C  42.31400 13.03900 27.55900
C  42.84700 14.22500 30.77800
O  41.84000 13.63700 31.10500
C  43.85600 15.01900 31.79900
C  43.06800 16.06200 32.48600
O  42.43800 16.98400 32.00900
O  43.08100 15.83900 33.83500
C  42.34400 16.62100 34.83900
H  49.56200 19.09800 30.45000
H  49.93000 16.11200 24.58800
H  44.37300 13.41400 25.67800
H  45.56200 17.92400 32.84700
H  48.42900 18.08900 32.64100
H  46.34500 20.11600 32.68300
H  47.03200 20.13900 31.06500
H  48.03900 20.43800 32.39200
H  47.85700 16.03100 33.42100
H  46.20500 15.42100 33.26200
H  45.77300 15.80800 35.31800
H  46.21200 17.50500 35.36600
H  50.93000 20.79100 27.85800
H  52.41500 19.80800 28.19200
H  51.19500 20.00000 29.44500
H  53.08400 19.50300 26.22900
H  51.99400 20.73300 25.83800
H  52.82700 20.01200 24.46300
H  48.63200 14.34300 23.80700
H  45.77500 14.08100 23.78900
H  46.33300 15.69100 22.54500
H  48.01400 16.13400 22.03600
H  47.24400 16.99500 23.30300
H  47.19800 12.32200 25.67000
H  48.01000 12.18100 24.06100
H  45.27100 11.84100 23.54200
H  45.75000 10.65600 24.78100
H  46.62000 10.66600 23.31700
H  42.48500 11.98600 27.78400
H  42.31600 13.10000 26.47100
H  41.38200 13.51400 27.86500
H  44.30500 14.40500 32.57900
H  43.12800 17.07000 35.44800
H  41.73500 16.05200 35.54100
H  41.82700 17.43000 34.32300

