158

Mg 47.07100 44.47500 43.52000
C  43.52000 44.13800 43.14400
C  47.19500 41.06900 42.58900
C  50.41400 44.76700 43.25200
C  46.70100 47.92100 43.58600
N  45.53200 42.84600 42.92000
C  44.22000 42.95200 42.88200
C  43.60800 41.60300 42.68200
C  44.72600 40.54000 42.77800
C  45.92500 41.54900 42.75700
C  44.68200 39.44400 43.88400
C  42.61400 41.34500 41.45500
C  42.86600 42.14800 40.15700
H  42.89700 41.44700 38.85100
N  48.66400 43.14400 43.00200
C  48.43300 41.84700 42.54900
C  49.73700 41.25500 42.27600
C  50.71000 42.25200 42.52600
C  49.97000 43.45000 42.96400
C  49.89600 39.75800 42.01300
C  52.16500 42.04000 42.49700
O  52.62200 41.04900 41.92500
C  53.15600 43.05300 43.05500
N  48.44900 46.12800 43.58800
C  49.76000 46.02200 43.51000
C  50.46300 47.34600 43.45600
C  49.26700 48.30200 43.15400
C  48.06200 47.41900 43.44800
C  51.18000 47.62900 44.74000
C  49.26600 48.97600 41.78600
C  49.66700 50.45000 41.77600
N  45.49300 45.83200 43.47900
C  45.44300 47.19100 43.61800
C  44.07300 47.59900 43.94600
C  43.31700 46.43800 43.70100
C  44.16600 45.36000 43.44800
C  43.64300 49.09600 44.25300
C  41.98600 45.93100 43.65100
O  40.94100 46.52000 43.78500
C  42.01300 44.43300 43.26700
C  41.35300 43.58900 44.22600
O  40.71300 42.63200 43.95600
O  41.43100 44.00900 45.49500
C  41.16000 42.99600 46.47100
H  47.12500 40.01400 42.31500
H  51.49800 44.89300 43.21600
H  46.77600 49.00900 43.64300
H  43.06400 41.56400 43.62600
H  44.76500 40.04200 41.80800
H  43.66400 39.40700 44.27300
H  45.33400 39.60100 44.74300
H  44.91000 38.60500 43.22600
H  41.59100 41.47900 41.80700
H  42.74200 40.26700 41.36000
H  43.76800 42.75900 40.16400
H  42.09700 42.91900 40.10900
H  50.00600 39.52800 40.95300
H  49.11400 39.17300 42.49800
H  50.81700 39.48900 42.53000
H  53.33000 43.87000 42.35400
H  54.09000 42.52400 43.24200
H  52.78200 43.38700 44.02300
H  51.16800 47.31600 42.62600
H  49.33500 49.15000 43.83500
H  51.44200 46.73500 45.30500
H  50.72100 48.37100 45.39400
H  52.17500 48.02900 44.55000
H  48.28900 48.88700 41.31000
H  49.91000 48.42400 41.10100
H  50.11400 50.75800 42.72200
H  48.75900 51.04500 41.67000
H  50.35900 50.70200 40.97300
H  43.29100 49.59300 43.34900
H  44.42400 49.73300 44.66800
H  42.78100 49.01900 44.91500
H  41.56300 44.36600 42.27600
H  41.41300 41.97700 46.17900
H  40.08300 42.98800 46.63400
H  41.66700 43.24900 47.40200
Mg 0.61800 43.62100 25.56800
C  2.83800 43.51400 28.27100
C  -1.98800 42.94000 27.70000
C  -1.38700 43.78100 22.92900
C  3.41000 43.62000 23.43900
N  0.43300 43.20900 27.60100
C  1.47000 43.30000 28.57200
C  0.90800 43.00800 30.01000
C  -0.45900 42.43600 29.66100
C  -0.71800 42.93300 28.24100
C  -0.72400 40.87300 29.74400
C  0.79800 44.37200 30.84800
C  0.29800 44.34900 32.34500
H  0.28200 43.09600 33.13700
N  -1.42100 43.37500 25.32500
C  -2.32400 43.23800 26.36400
C  -3.67500 43.24000 25.90700
C  -3.53600 43.46700 24.51900
C  -2.06100 43.63500 24.20500
C  -4.81300 43.05700 26.75200
C  -4.62200 43.50000 23.53300
O  -4.33000 43.72200 22.38500
C  -6.06500 43.26200 23.93400
N  0.95400 43.47000 23.53500
C  -0.05400 43.58500 22.61500
C  0.45400 43.64500 21.17500
C  1.95800 43.89000 21.44100
C  2.12200 43.65300 22.90200
C  -0.00100 42.47900 20.16600
C  2.58000 45.26900 20.97600
C  2.19200 46.43400 21.81200
N  2.71200 43.51600 25.74800
C  3.71400 43.67300 24.79800
C  4.90400 43.81500 25.52000
C  4.66000 43.68500 26.83300
C  3.32500 43.60800 26.94300
C  6.23400 43.90300 24.97800
C  5.25900 43.71000 28.12500
O  6.41600 43.77900 28.43700
C  4.11400 43.45500 29.13900
C  4.21100 42.08000 29.77900
O  3.90400 41.01100 29.29500
O  4.71500 42.14900 31.06000
C  4.77600 40.80400 31.79700
H  -2.67900 42.69600 28.51000
H  -2.08500 43.79800 22.08800
H  4.14300 43.79900 22.64900
H  1.54500 42.23100 30.43200
H  -1.23400 42.92000 30.25600
H  -0.77900 40.36000 28.78400
H  -1.58800 40.69800 30.38500
H  0.15500 40.38500 30.16700
H  0.07900 45.02200 30.35000
H  1.74900 44.90000 30.78700
H  -0.70300 44.77700 32.39800
H  0.98300 44.97900 32.91200
H  -5.51500 43.86400 26.54300
H  -4.58400 42.98700 27.81600
H  -5.35100 42.12200 26.60100
H  -6.63200 42.99000 23.04400
H  -6.42800 44.11900 24.50000
H  -5.99500 42.35500 24.53500
H  0.15600 44.61700 20.78000
H  2.57400 43.20800 20.85400
H  -0.21000 42.98200 19.22200
H  -0.79400 41.86100 20.58600
H  0.88200 41.85500 20.02700
H  2.34600 45.45500 19.92800
H  3.66500 45.21200 21.07400
H  3.11500 46.80300 22.25900
H  1.44300 46.11400 22.53600
H  1.87000 47.28100 21.20600
H  6.85800 43.99700 25.86700
H  6.49000 44.82800 24.46200
H  6.48000 43.01200 24.39900
H  4.11500 44.21100 29.92400
H  3.78900 40.37800 31.97700
H  5.38300 40.78300 32.70200
H  5.25900 40.05500 31.16800

