158

Mg 24.05000 -4.42100 45.14300
C  26.23000 -2.18100 43.58900
C  21.36800 -3.16700 43.18600
C  22.37700 -7.34100 45.51200
C  26.85500 -5.85600 46.69300
N  23.82600 -2.95300 43.62700
C  24.82000 -2.12000 43.17100
C  24.21200 -1.01000 42.25000
C  22.70700 -1.26900 42.30800
C  22.55200 -2.49800 43.22300
C  21.85000 -0.07200 42.82100
C  24.75800 -1.05600 40.83900
C  24.50000 0.19300 39.98800
H  23.99900 -0.16500 38.59500
N  22.03200 -5.04400 44.58000
C  21.13200 -4.37700 43.74900
C  19.99400 -5.25000 43.52100
C  20.25500 -6.48600 44.19300
C  21.60600 -6.33900 44.84200
C  18.85200 -4.71500 42.68500
C  19.29200 -7.57900 44.15400
O  18.23000 -7.54700 43.50800
C  19.63900 -8.90200 44.84300
N  24.55100 -6.25900 46.06500
C  23.63500 -7.26300 46.09100
C  24.27600 -8.55700 46.73900
C  25.74200 -8.00500 47.18600
C  25.73400 -6.61200 46.56800
C  23.41100 -9.27700 47.75700
C  26.96600 -8.87600 46.83300
C  27.58900 -9.60900 48.04600
N  26.09400 -3.98700 45.32700
C  27.13000 -4.58200 46.06000
C  28.29100 -3.67600 46.04300
C  27.97100 -2.78300 44.99600
C  26.66300 -3.04100 44.63000
C  29.54700 -3.68600 46.91600
C  28.49000 -1.65400 44.29200
O  29.56200 -1.07800 44.43000
C  27.46100 -1.34800 43.28800
C  27.19000 0.09200 43.32200
O  27.14400 0.81200 44.31400
O  27.13500 0.63200 42.08500
C  26.90800 2.06100 42.08400
H  20.53400 -2.75400 42.61500
H  21.85000 -8.24800 45.81400
H  27.60100 -6.34800 47.32200
H  24.38300 -0.02900 42.69300
H  22.46100 -1.61000 41.30300
H  21.38300 0.58200 42.08400
H  22.42900 0.47000 43.56800
H  21.07500 -0.33000 43.54300
H  24.37600 -1.98700 40.42000
H  25.84400 -1.06600 40.93000
H  25.36600 0.83900 39.84600
H  23.74800 0.80900 40.48200
H  18.68500 -3.64700 42.82600
H  17.96600 -5.16700 43.13000
H  18.97900 -4.93000 41.62400
H  19.48400 -8.70800 45.90500
H  20.68100 -9.17000 44.67400
H  18.92000 -9.69500 44.64200
H  24.39400 -9.30400 45.95400
H  25.61200 -7.99700 48.26800
H  22.82100 -8.59300 48.36700
H  24.10000 -9.76500 48.44600
H  22.83800 -9.98500 47.15800
H  27.67500 -8.37700 46.17200
H  26.45100 -9.68800 46.31900
H  27.28200 -9.10000 48.96000
H  28.66500 -9.58900 47.87800
H  27.32300 -10.66600 48.00800
H  29.61300 -3.08300 47.82200
H  30.28000 -3.32700 46.19500
H  29.66600 -4.73300 47.19700
H  27.75200 -1.61400 42.27100
H  27.76100 2.55200 42.55100
H  25.97000 2.38400 42.53600
H  26.98900 2.49500 41.08800
Mg 50.32000 47.18400 42.79000
C  47.11300 48.17400 41.59400
C  49.75700 44.06500 41.03000
C  53.58200 46.49600 42.92800
C  50.86600 50.56300 43.61400
N  48.60500 46.20400 41.54600
C  47.43100 46.83300 41.24500
C  46.63600 45.95500 40.29100
C  47.30000 44.50600 40.53100
C  48.65800 44.95300 41.00700
C  46.63700 43.73900 41.62300
C  46.52500 46.37700 38.75100
C  45.16100 46.07500 38.11300
H  45.28700 44.96800 37.05300
N  51.50600 45.51700 42.14500
C  51.09900 44.28200 41.51100
C  52.21200 43.41300 41.30800
C  53.26900 44.02000 42.09100
C  52.81000 45.41600 42.42800
C  52.18400 42.07800 40.62200
C  54.64100 43.38700 42.31000
O  54.90200 42.26200 41.95700
C  55.80300 44.10400 42.94500
N  51.98900 48.32600 43.09700
C  53.26200 47.81200 43.14500
C  54.31200 48.86100 43.55100
C  53.40900 50.12300 43.81500
C  52.01300 49.66200 43.50700
C  55.24900 48.47700 44.72400
C  53.72400 51.45100 43.05600
C  55.19200 51.89300 43.03400
N  49.30600 49.03900 42.72600
C  49.56300 50.27100 43.14200
C  48.52000 51.13900 42.95200
C  47.48600 50.36700 42.40400
C  48.01700 49.06400 42.26400
C  48.47900 52.59600 43.25800
C  46.14300 50.32900 41.78000
O  45.36500 51.21700 41.56900
C  45.87600 48.89700 41.24000
C  44.55300 48.45100 41.86600
O  44.38500 47.89600 42.93500
O  43.53700 48.53000 40.98600
C  42.19300 48.47100 41.51800
H  49.54900 43.05600 40.66800
H  54.65600 46.31600 43.01000
H  51.05700 51.53400 44.07600
H  45.60100 45.83800 40.61400
H  47.23100 43.97000 39.58400
H  47.39000 43.37300 42.32100
H  46.12500 42.86100 41.22900
H  45.88200 44.33200 42.13900
H  47.24400 45.79200 38.17600
H  46.82400 47.42400 38.70800
H  44.81700 46.93600 37.53900
H  44.38100 45.85100 38.84100
H  52.63000 42.23600 39.64000
H  51.17200 41.67400 40.64600
H  52.70900 41.25700 41.11100
H  55.38400 44.60500 43.81700
H  56.08000 44.83300 42.18400
H  56.50000 43.33800 43.28600
H  54.89300 49.10700 42.66200
H  53.44800 50.31900 44.88600
H  55.00700 48.91800 45.69100
H  56.25000 48.81900 44.46100
H  55.28300 47.41900 44.98400
H  53.11300 52.18400 43.58500
H  53.43500 51.35200 42.01000
H  55.50400 51.93800 41.99100
H  55.80900 51.24800 43.66000
H  55.08500 52.89400 43.45400
H  48.50500 52.70400 44.34200
H  47.59900 53.15700 42.94500
H  49.35100 53.12000 42.86500
H  45.78600 48.95400 40.15500
H  42.05500 48.85800 42.52800
H  41.88300 47.42900 41.60100
H  41.51600 49.05200 40.89200

