158

Mg 9.57800 3.47300 28.06600
C  11.12500 1.98200 30.94200
C  7.99800 5.59400 30.07100
C  7.86500 4.43500 25.29500
C  11.01100 0.82000 26.29800
N  9.62800 3.77800 30.22400
C  10.34500 3.07800 31.16700
C  10.05300 3.68000 32.55300
C  8.79200 4.58100 32.35400
C  8.83600 4.78500 30.80000
C  7.43500 3.99400 32.80800
C  11.27000 4.55600 33.14000
C  11.72900 4.17200 34.54900
H  10.80500 3.65600 35.57300
N  8.21600 4.83600 27.66200
C  7.75900 5.68600 28.67400
C  6.95200 6.70800 28.06200
C  6.89800 6.44600 26.64600
C  7.73200 5.16900 26.47200
C  6.31100 7.83200 28.90000
C  6.20300 7.22200 25.49100
O  6.09400 6.80400 24.35000
C  5.61300 8.56200 25.76700
N  9.45600 2.70400 26.09200
C  8.65200 3.31800 25.13400
C  8.66400 2.51000 23.85500
C  9.62100 1.29800 24.18100
C  10.00700 1.57800 25.63700
C  7.31100 2.14600 23.22800
C  10.79600 1.30000 23.18200
C  10.56400 1.01500 21.65000
N  10.85100 1.81800 28.50300
C  11.38500 0.87600 27.63300
C  12.28400 -0.02700 28.33100
C  12.19400 0.37300 29.68400
C  11.30000 1.48900 29.70600
C  13.01100 -1.09800 27.80000
C  12.70200 0.08600 31.02400
O  13.53600 -0.77100 31.37400
C  11.98300 1.19600 31.97300
C  11.22200 0.45200 32.99100
O  10.07200 0.01900 32.85000
O  12.01100 0.18300 34.06400
C  11.33000 -0.43700 35.19900
H  7.40800 6.19100 30.76900
H  7.25600 4.73300 24.44000
H  11.45600 -0.04900 25.80900
H  9.81400 2.81100 33.16600
H  8.73600 5.60900 32.71100
H  6.83300 3.81600 31.91700
H  6.94000 4.76200 33.40200
H  7.55700 3.05200 33.34300
H  11.04000 5.62100 33.09800
H  12.04700 4.17200 32.48000
H  12.16300 5.03700 35.05100
H  12.41900 3.33100 34.47900
H  7.07800 8.60400 28.96700
H  6.05400 7.41800 29.87500
H  5.37800 8.28200 28.56000
H  6.32400 9.25700 26.21400
H  4.73700 8.40300 26.39500
H  5.36800 8.90500 24.76100
H  9.21900 3.13300 23.15400
H  9.11500 0.33800 24.07400
H  7.02900 2.99000 22.59800
H  6.62700 2.06100 24.07200
H  7.46100 1.23200 22.65400
H  11.51300 0.53200 23.47200
H  11.24900 2.28500 23.29600
H  10.93400 0.03500 21.34900
H  11.03400 1.82700 21.09500
H  9.51100 1.20500 21.44200
H  13.87600 -1.25300 28.44500
H  13.33500 -1.09000 26.75900
H  12.42800 -2.01300 27.70200
H  12.73900 1.68400 32.58800
H  11.92700 -0.12600 36.05600
H  11.41500 -1.50600 35.00500
H  10.27400 -0.17300 35.26300
Mg 34.04900 48.50100 25.33200
C  34.42300 47.17300 28.64600
C  32.71500 51.42500 26.81600
C  33.53200 49.74100 22.21600
C  35.24300 45.61300 24.03800
N  33.61000 49.20300 27.43400
C  33.89900 48.50800 28.55600
C  33.70800 49.34300 29.84700
C  33.07400 50.70000 29.27800
C  33.15400 50.47900 27.75900
C  31.66100 50.97800 29.76500
C  35.07200 49.57400 30.62400
C  35.00900 49.43900 32.16000
H  33.59300 49.42300 32.84000
N  33.16200 50.32700 24.64600
C  32.67700 51.33200 25.43900
C  32.24300 52.39000 24.54000
C  32.46500 51.98700 23.18700
C  33.08500 50.59100 23.25600
C  31.78300 53.73400 25.16000
C  32.15800 52.69900 21.94600
O  32.25600 52.25400 20.81800
C  31.71500 54.08900 22.00200
N  34.21300 47.71000 23.38500
C  34.13700 48.48800 22.28400
C  34.60700 47.75800 21.02100
C  35.15300 46.42200 21.56700
C  34.89200 46.60600 23.13100
C  33.56500 47.43600 19.95600
C  36.61500 46.14200 21.21500
C  37.66600 46.91600 22.06500
N  34.67200 46.72200 26.09300
C  35.11000 45.61000 25.44600
C  35.49300 44.61600 26.39500
C  35.16600 45.15200 27.62300
C  34.73600 46.47900 27.42000
C  36.05700 43.21700 26.04000
C  35.17800 44.81300 29.05800
O  35.41200 43.72700 29.56500
C  34.70800 46.14000 29.74900
C  33.54000 45.67100 30.56400
O  32.39900 45.61000 30.16700
O  33.88300 45.22400 31.79600
C  32.83500 45.11800 32.86000
H  32.33600 52.29000 27.36500
H  33.46600 50.27100 21.26400
H  35.69800 44.64500 23.82000
H  32.89300 48.80800 30.33400
H  33.65500 51.60300 29.46300
H  31.59500 52.06000 29.87600
H  31.39100 50.53500 30.72300
H  30.92500 50.86400 28.96900
H  35.47900 50.58100 30.53200
H  35.74500 48.85700 30.15500
H  35.56600 50.26300 32.60500
H  35.46700 48.47100 32.36200
H  32.47300 54.49800 24.80100
H  31.80000 53.74800 26.25000
H  30.83000 54.16000 24.84600
H  30.67000 54.23000 22.27800
H  31.66200 54.61700 21.05000
H  32.36600 54.72800 22.59900
H  35.35100 48.35300 20.49100
H  34.56700 45.54200 21.30200
H  33.29800 48.39900 19.52200
H  32.68000 46.87500 20.25600
H  34.06300 46.83000 19.20000
H  36.66300 46.46700 20.17500
H  36.73400 45.06000 21.27600
H  37.20700 47.52700 22.84200
H  38.04700 47.61700 21.32200
H  38.47900 46.33100 22.49500
H  36.81500 43.00500 26.79400
H  36.60900 43.10500 25.10700
H  35.34800 42.38900 26.00800
H  35.49800 46.42000 30.44500
H  32.04600 45.82600 32.60700
H  33.20500 45.37600 33.85300
H  32.36900 44.13400 32.81500

