158

Mg 24.27000 -4.91200 46.24900
C  26.39700 -2.77900 44.55800
C  21.76100 -4.15800 43.84200
C  22.55800 -7.63900 47.16500
C  26.96100 -6.06100 48.23300
N  24.10900 -3.61500 44.38500
C  25.04600 -2.74400 44.02900
C  24.54900 -1.93800 42.84700
C  23.05400 -2.16400 42.87400
C  22.92100 -3.34700 43.80100
C  22.24400 -0.90300 43.24400
C  25.23600 -2.36400 41.56000
C  25.78000 -1.19500 40.72900
H  25.07600 -0.84900 39.43100
N  22.30200 -5.65800 45.72900
C  21.47300 -5.25300 44.68500
C  20.29500 -6.14300 44.66900
C  20.48500 -7.13000 45.64000
C  21.88100 -6.87000 46.22100
C  19.15600 -5.95800 43.63300
C  19.52600 -8.24800 45.86900
O  18.47600 -8.20300 45.20500
C  19.69100 -9.33500 46.88700
N  24.72300 -6.56400 47.61300
C  23.80500 -7.51500 47.77800
C  24.33100 -8.57400 48.87300
C  25.71500 -8.05500 49.16700
C  25.82400 -6.80100 48.30000
C  23.46100 -8.87000 50.17100
C  26.91600 -9.11700 48.87900
C  27.83700 -9.21700 50.06500
N  26.24600 -4.49300 46.47800
C  27.21100 -4.92700 47.36500
C  28.42300 -4.14400 47.25200
C  28.15200 -3.32600 46.06000
C  26.79900 -3.48600 45.68800
C  29.63600 -4.30100 48.03800
C  28.75300 -2.36700 45.17700
O  29.88200 -1.92900 45.19200
C  27.59300 -1.90900 44.14400
C  27.30400 -0.47100 44.39900
O  26.38900 -0.06600 45.04700
O  28.27500 0.25200 43.74200
C  28.10300 1.70800 44.04900
H  21.02600 -3.91900 43.07100
H  21.95600 -8.47800 47.52000
H  27.76300 -6.41500 48.88300
H  24.66800 -0.88400 43.09900
H  22.63800 -2.56100 41.94900
H  22.71800 -0.13300 42.63500
H  22.50900 -0.67300 44.27600
H  21.17000 -0.98600 43.08100
H  24.49800 -2.89600 40.96000
H  26.08200 -3.03200 41.72200
H  26.78100 -1.49300 40.41600
H  25.85700 -0.34100 41.40200
H  19.29200 -6.61800 42.77600
H  19.24500 -4.92900 43.28600
H  18.19200 -6.24600 44.05100
H  19.62500 -9.02800 47.93100
H  20.66000 -9.81600 46.75300
H  18.89000 -10.07000 46.80500
H  24.42800 -9.50100 48.30700
H  25.73800 -7.67900 50.19000
H  22.46100 -8.44500 50.08600
H  23.95000 -8.59400 51.10500
H  23.37100 -9.91000 50.48500
H  27.55900 -8.70500 48.10100
H  26.51900 -10.09000 48.58900
H  28.52800 -10.02200 49.81700
H  27.31400 -9.41500 51.00000
H  28.35400 -8.25700 50.05900
H  30.38800 -4.94700 47.58500
H  29.49700 -4.65600 49.06000
H  30.10600 -3.31800 48.04200
H  27.94700 -2.08200 43.12700
H  27.33200 2.01600 43.34300
H  29.11000 2.11300 43.95000
H  27.75800 1.90500 45.06400
Mg 47.37800 15.65400 27.49900
C  45.48200 16.08100 30.41400
C  49.94300 17.53600 28.96800
C  48.94100 15.79000 24.59700
C  44.66100 14.17800 25.99800
N  47.64100 16.74700 29.45600
C  46.78300 16.55200 30.55000
C  47.53900 17.07900 31.80900
C  48.81400 17.80000 31.26700
C  48.85100 17.35600 29.79600
C  48.89500 19.26500 31.46300
C  47.81000 16.00100 32.92400
C  47.45200 16.38600 34.40000
H  47.43500 17.90200 34.82200
N  49.31500 16.35200 26.96000
C  50.21500 17.10600 27.66400
C  51.40900 17.30700 26.86700
C  51.06600 16.79900 25.56600
C  49.71600 16.30700 25.66100
C  52.69300 17.95300 27.40400
C  51.92000 16.66700 24.31400
O  51.49700 16.23000 23.27500
C  53.43400 17.08700 24.39900
N  46.99800 14.89500 25.55600
C  47.81400 15.03500 24.53000
C  47.12000 14.76700 23.19400
C  45.91200 13.89400 23.66000
C  45.82200 14.28100 25.14100
C  46.68300 16.06100 22.47100
C  46.15500 12.40600 23.47500
C  46.60900 11.59600 24.62100
N  45.45400 15.26900 28.02200
C  44.50800 14.58600 27.35700
C  43.28500 14.57900 28.15200
C  43.64500 15.09100 29.41200
C  44.95600 15.51300 29.22500
C  41.89900 13.93500 27.75700
C  43.19700 15.30400 30.74600
O  42.13400 15.02000 31.27800
C  44.41400 15.98300 31.47200
C  44.09200 17.22500 32.31300
O  43.95000 18.34600 31.94900
O  43.71900 16.75300 33.52500
C  43.21000 17.84000 34.43300
H  50.79400 18.02400 29.44800
H  49.38800 15.98400 23.62000
H  43.72300 13.78700 25.60000
H  46.99000 17.88200 32.30100
H  49.64100 17.41400 31.86200
H  47.92000 19.71200 31.65700
H  49.23800 19.72700 30.53700
H  49.54200 19.52100 32.30100
H  48.85600 15.69500 32.91400
H  47.22800 15.11600 32.66700
H  48.12600 15.91600 35.11600
H  46.42100 16.04600 34.50100
H  53.40000 17.15300 27.62400
H  52.45000 18.73800 28.12000
H  53.00700 18.57400 26.56500
H  53.58600 18.15800 24.53500
H  53.90100 16.61700 23.53400
H  53.78900 16.54400 25.27500
H  47.88000 14.18000 22.67900
H  44.97000 14.16700 23.18600
H  47.32400 16.27600 21.61700
H  46.75000 16.95100 23.09700
H  45.67600 15.98500 22.06000
H  46.98100 12.20700 22.79200
H  45.30800 12.03000 22.90000
H  47.04700 10.68600 24.21200
H  45.78200 11.13400 25.16000
H  47.32800 12.05000 25.30300
H  42.05200 12.86700 27.60100
H  41.46100 14.43100 26.89100
H  41.14300 14.02900 28.53700
H  44.62900 15.17100 32.16700
H  42.20700 18.15400 34.14600
H  43.91100 18.65500 34.25200
H  43.26900 17.64900 35.50500

