158

Mg 24.97700 1.52100 29.54400
C  27.12000 1.24700 32.45800
C  22.31700 1.97100 31.74900
C  22.93600 1.30400 27.03100
C  27.60800 0.57400 27.63800
N  24.80700 1.70000 31.81200
C  25.81300 1.59400 32.77200
C  25.26800 1.97200 34.19700
C  23.75700 2.10800 33.89300
C  23.55000 1.98000 32.35500
C  22.88100 1.13700 34.66200
C  25.96100 3.21900 34.84600
C  26.43200 3.06000 36.28100
H  25.97000 4.05500 37.44900
N  22.89000 1.63700 29.35700
C  21.98600 1.87500 30.39100
C  20.64500 2.04000 29.82700
C  20.83200 1.91700 28.39100
C  22.24700 1.59300 28.20300
C  19.40700 2.28400 30.65400
C  19.82500 2.07800 27.21400
O  20.10900 1.95000 26.02900
C  18.43600 2.50700 27.49500
N  25.24100 0.93400 27.65800
C  24.27200 1.02700 26.78300
C  24.79000 0.81700 25.29900
C  26.30900 0.80900 25.43200
C  26.38100 0.76200 27.00100
C  24.20400 -0.53500 24.81300
C  26.95200 2.03400 24.72200
C  26.68000 3.35900 25.42900
N  26.94300 0.98800 29.94400
C  27.92900 0.69800 29.00500
C  29.24300 0.49500 29.69000
C  28.97800 0.67800 31.08600
C  27.56100 0.98400 31.13500
C  30.53200 0.12700 28.98400
C  29.54900 0.75100 32.43200
O  30.67500 0.52800 32.82900
C  28.36300 1.14300 33.37800
C  28.25600 0.05900 34.38100
O  27.64100 -0.99300 34.13400
O  28.93800 0.31800 35.54100
C  29.44400 -0.75900 36.47200
H  21.44000 2.14300 32.37700
H  22.49000 1.33800 26.03500
H  28.41200 0.20200 27.00000
H  25.39100 1.11500 34.86000
H  23.30600 3.05800 34.18200
H  22.20600 1.69200 35.31400
H  23.41900 0.48900 35.35300
H  22.30500 0.45300 34.03900
H  25.38800 4.14600 34.87400
H  26.82700 3.49700 34.24400
H  27.51400 3.13400 36.16700
H  26.15700 2.07300 36.65300
H  18.69500 1.56000 30.25700
H  18.99100 3.27000 30.44700
H  19.49200 2.18000 31.73600
H  18.46100 3.59100 27.60800
H  17.94300 2.02700 28.34000
H  17.91400 2.13200 26.61400
H  24.44200 1.60500 24.63100
H  26.73000 -0.16000 25.16500
H  23.49000 -0.98500 25.50200
H  24.99100 -1.22500 24.50800
H  23.59800 -0.24500 23.95500
H  26.50300 2.00800 23.72900
H  28.01700 1.86300 24.56500
H  25.80300 3.24100 26.06500
H  26.51100 4.08900 24.63800
H  27.49500 3.68200 26.07700
H  30.37900 -0.02800 27.91600
H  30.85700 -0.81800 29.41900
H  31.31500 0.85800 29.18500
H  28.49200 1.98700 34.05600
H  29.31200 -1.70900 35.95500
H  28.93300 -0.65900 37.43000
H  30.50800 -0.52500 36.49900
Mg 45.13700 4.60600 47.04900
C  43.06900 7.22500 46.35500
C  42.50400 2.29000 46.61200
C  47.43000 2.03000 47.22300
C  47.81800 6.92600 47.02600
N  43.10700 4.77100 46.51800
C  42.46200 5.95100 46.37600
C  41.05200 5.68700 46.06400
C  40.83800 4.20900 46.51000
C  42.22000 3.69000 46.50300
C  40.17700 4.02700 47.91500
C  40.67400 5.93800 44.56100
C  39.65600 7.06500 44.17300
H  39.97000 7.79000 42.83000
N  44.98400 2.47500 47.00100
C  43.84300 1.74900 46.78600
C  44.16400 0.28900 46.93500
C  45.58200 0.17900 46.92200
C  46.08300 1.57600 47.04600
C  43.12400 -0.80900 46.63300
C  46.32000 -1.14600 46.63400
O  45.73100 -2.19000 46.55800
C  47.76800 -1.15900 46.20800
N  47.29900 4.45500 47.03600
C  47.98700 3.27100 47.19500
C  49.50300 3.50300 47.35100
C  49.66500 5.07300 47.12700
C  48.18800 5.53300 47.03500
C  49.97200 2.95200 48.75400
C  50.56800 5.46300 46.02200
C  51.79700 6.25200 46.55400
N  45.45900 6.69800 46.84900
C  46.58600 7.53100 46.93300
C  46.21900 8.91100 46.64300
C  44.77100 8.86100 46.50900
C  44.42600 7.47500 46.61000
C  47.15100 10.06000 46.68200
C  43.57100 9.64700 46.23600
O  43.32800 10.81700 46.09000
C  42.47300 8.61600 46.15100
C  41.51200 8.92000 47.30200
O  41.56200 8.53200 48.48200
O  40.65000 9.87200 46.83600
C  39.67900 10.31100 47.88200
H  41.78800 1.46600 46.59500
H  48.23100 1.29900 47.09100
H  48.57100 7.70700 47.15000
H  40.41000 6.33600 46.65900
H  40.27000 3.68800 45.73900
H  40.95200 3.68300 48.60000
H  39.48100 3.23500 47.63900
H  39.65200 4.92400 48.24400
H  40.22700 5.03500 44.14400
H  41.62900 6.10300 44.06200
H  39.55300 7.76700 45.00000
H  38.68100 6.57700 44.16800
H  43.36200 -1.23700 45.65900
H  42.12900 -0.46900 46.34300
H  42.99400 -1.55800 47.41400
H  48.38700 -1.22400 47.10300
H  47.91500 -0.18400 45.74300
H  47.83500 -1.97700 45.49000
H  50.10600 2.92900 46.64800
H  50.06700 5.55300 48.01900
H  50.32500 1.93500 48.58400
H  49.06000 2.83600 49.34000
H  50.75700 3.59400 49.15500
H  50.03100 6.04100 45.27000
H  51.02100 4.59500 45.54200
H  52.72600 6.02600 46.03000
H  52.05400 6.07800 47.59800
H  51.66100 7.32400 46.40500
H  46.70800 11.03100 46.46100
H  47.87500 9.84400 45.89700
H  47.64300 10.05600 47.65500
H  42.01500 8.68600 45.16400
H  38.87600 9.57600 47.84000
H  39.27500 11.26400 47.54000
H  40.21700 10.38500 48.82700

