158

Mg 47.91700 36.11600 27.87100
C  46.29000 34.29000 30.26200
C  48.05600 38.78600 29.77300
C  49.51600 37.72400 25.28900
C  47.78400 33.15900 25.77300
N  47.21100 36.46600 29.77500
C  46.66600 35.58300 30.67500
C  46.54200 36.18800 32.07400
C  46.98700 37.64700 31.83700
C  47.40800 37.67400 30.37400
C  45.74000 38.60700 32.04300
C  47.36300 35.42900 33.17500
C  48.79200 36.00200 33.67300
H  48.81700 36.79600 34.93500
N  48.77600 37.95600 27.58100
C  48.68700 38.93800 28.55200
C  49.43700 40.14100 28.09000
C  49.91900 39.83500 26.73400
C  49.40300 38.42400 26.49100
C  49.62100 41.31200 28.95300
C  50.72400 40.68900 25.75500
O  51.14000 40.21300 24.68100
C  51.07200 42.06300 26.13200
N  48.57100 35.51800 25.85600
C  49.17300 36.39300 25.00500
C  49.66400 35.69000 23.65700
C  49.01200 34.33500 23.85900
C  48.34800 34.31300 25.22600
C  49.14300 36.30800 22.40100
C  50.00100 33.13600 23.80200
C  49.72400 32.12100 22.64700
N  47.08400 34.20400 27.83200
C  47.11100 33.15400 26.97300
C  46.25100 32.16200 27.49300
C  45.86000 32.58200 28.71700
C  46.45700 33.80400 28.97100
C  46.07700 30.74500 26.92800
C  45.16900 32.23300 29.95400
O  44.44800 31.18500 30.17800
C  45.44000 33.26200 31.01000
C  46.06300 32.64600 32.23200
O  47.20900 32.32400 32.37800
O  45.09800 32.43500 33.16000
C  45.52300 32.04200 34.55600
H  48.08200 39.66400 30.42200
H  49.91200 38.35400 24.48900
H  47.62200 32.25800 25.17800
H  45.47800 36.14600 32.30800
H  47.77900 38.07000 32.45500
H  45.57800 38.82800 33.09800
H  44.92300 38.33400 31.37600
H  46.01600 39.58900 31.65800
H  47.73200 34.44300 32.89300
H  46.71700 35.13100 34.00100
H  49.29100 36.52000 32.85400
H  49.26500 35.07400 33.99300
H  50.57800 41.79900 28.76600
H  49.44300 41.03300 29.99100
H  48.81000 41.96900 28.64100
H  50.21600 42.70700 26.33400
H  51.66200 42.44600 25.30000
H  51.74300 42.08400 26.99100
H  50.75200 35.65400 23.60200
H  48.18500 34.11900 23.18200
H  49.83000 37.12600 22.18400
H  48.18800 36.81900 22.52600
H  49.19500 35.61400 21.56200
H  50.11500 32.57700 24.73100
H  50.99500 33.53200 23.59000
H  50.30400 31.20000 22.59300
H  49.76400 32.51000 21.63000
H  48.69700 31.77000 22.54500
H  45.85200 30.89300 25.87200
H  45.32300 30.20600 27.50200
H  47.05300 30.25900 26.92400
H  44.46300 33.70300 31.20600
H  46.59200 31.84400 34.62700
H  44.96200 31.17500 34.90400
H  45.23900 32.90600 35.15600
Mg 36.14300 50.06500 24.48800
C  36.59100 48.26200 27.59500
C  34.98500 52.71400 26.36000
C  35.57100 51.54100 21.70000
C  37.39200 47.17700 22.86200
N  35.80600 50.40900 26.84800
C  36.07300 49.54700 27.84200
C  35.75300 50.24000 29.20000
C  35.03400 51.52500 28.75000
C  35.32200 51.60400 27.22100
C  33.55000 51.48600 28.98300
C  37.04900 50.42900 30.02400
C  36.98700 50.42300 31.58900
H  35.60700 50.52900 32.26400
N  35.48300 51.90400 24.09100
C  35.09200 52.87000 24.98600
C  34.66300 53.99300 24.23100
C  34.64600 53.66700 22.82000
C  35.18500 52.28700 22.80700
C  34.29300 55.29600 24.94700
C  34.11700 54.44200 21.63100
O  34.08100 53.96400 20.50700
C  33.54300 55.80200 21.86600
N  36.17800 49.32800 22.56400
C  36.05300 50.24200 21.59100
C  36.56400 49.68600 20.21800
C  37.07500 48.25600 20.61300
C  36.87200 48.19900 22.13700
C  35.43300 49.51700 19.17600
C  38.57300 47.95800 20.08200
C  39.72000 48.64500 20.69000
N  36.75900 48.14700 25.01900
C  37.29200 47.10200 24.27800
C  37.57500 46.00200 25.12700
C  37.37900 46.40300 26.41400
C  36.85900 47.74200 26.34100
C  38.16400 44.71800 24.67700
C  37.46300 45.90800 27.77800
O  37.75600 44.83600 28.27600
C  36.89600 47.08300 28.60200
C  35.70100 46.65200 29.25600
O  34.57900 46.60100 28.76900
O  36.04900 46.32300 30.50200
C  35.22300 45.38600 31.34300
H  34.58700 53.55000 26.93900
H  35.44100 52.00300 20.72000
H  37.92700 46.38100 22.33800
H  35.08200 49.60600 29.77800
H  35.52000 52.38300 29.21500
H  33.25200 52.32300 29.61400
H  33.27100 50.69600 29.68100
H  32.96000 51.33200 28.07900
H  37.50200 51.36100 29.68600
H  37.72400 49.60000 29.81300
H  37.66500 51.16500 32.01000
H  37.46800 49.54700 32.02400
H  34.71300 55.37800 25.95000
H  33.21200 55.42700 24.91600
H  34.65500 56.09600 24.30200
H  32.93400 56.27200 21.09400
H  34.33900 56.53700 21.97900
H  32.88200 55.79600 22.73300
H  37.42600 50.27900 19.91200
H  36.33200 47.54200 20.25700
H  34.43600 49.47400 19.61300
H  35.57100 48.65000 18.53100
H  35.57000 50.37100 18.51200
H  38.54900 48.33200 19.05900
H  38.73400 46.88000 20.11700
H  40.04600 49.53300 20.14800
H  40.58200 47.98900 20.57300
H  39.58000 48.99200 21.71400
H  37.42600 44.10800 24.15600
H  38.66600 44.21500 25.50300
H  38.98600 44.86000 23.97500
H  37.65900 47.42400 29.30100
H  34.42100 45.87600 31.89400
H  35.74700 44.95800 32.19800
H  34.76800 44.53600 30.83500

