158

Mg 47.47700 14.87600 28.27900
C  45.43700 14.87200 30.97300
C  49.42100 17.10600 29.77400
C  49.13000 15.31500 25.35100
C  44.90500 13.11700 26.41500
N  47.37100 15.87000 30.13600
C  46.51200 15.64600 31.16700
C  47.00600 16.37700 32.43700
C  48.02300 17.39600 31.89100
C  48.26300 16.79000 30.48200
C  47.56300 18.85000 31.89100
C  47.45000 15.41200 33.66100
C  47.38000 16.00600 35.02600
H  48.52000 15.69900 35.95200
N  49.12300 15.92000 27.71000
C  49.72600 16.89800 28.43100
C  50.84600 17.48100 27.67600
C  50.90300 16.76300 26.38300
C  49.66500 15.91000 26.42900
C  51.71500 18.56800 28.24800
C  51.75700 16.88800 25.16600
O  51.71100 16.17600 24.13400
C  52.96500 17.80800 25.35500
N  47.13100 14.12900 26.23000
C  47.95600 14.54700 25.19400
C  47.46600 13.96000 23.86300
C  46.17200 13.21400 24.30400
C  46.04400 13.50200 25.72800
C  47.26900 15.05300 22.83600
C  46.15600 11.74000 23.91600
C  46.76700 10.75000 24.98100
N  45.52300 14.04600 28.60400
C  44.65100 13.41400 27.77400
C  43.55000 13.05600 28.57800
C  43.81100 13.57700 29.84100
C  45.04500 14.16800 29.80700
C  42.33900 12.30100 28.19100
C  43.34300 13.68000 31.15900
O  42.25100 13.24300 31.59200
C  44.39900 14.46300 32.00100
C  43.74000 15.66600 32.63900
O  43.34700 16.64700 32.06300
O  43.62200 15.45200 33.98100
C  42.89900 16.50800 34.73300
H  50.08100 17.77100 30.33600
H  49.59400 15.25800 24.36500
H  44.14400 12.53500 25.89100
H  46.16400 16.98700 32.76400
H  48.89600 17.38500 32.54400
H  48.17900 19.48100 32.53200
H  46.56600 18.95500 32.31700
H  47.58600 19.32200 30.90900
H  48.49000 15.09700 33.57300
H  46.76700 14.56200 33.67300
H  46.41200 15.86900 35.50800
H  47.41700 17.08400 34.86700
H  51.83600 19.32400 27.47200
H  52.58800 18.06900 28.67000
H  51.14200 19.05300 29.03900
H  53.63200 17.58900 26.18900
H  52.53700 18.80500 25.45700
H  53.57900 17.72100 24.45900
H  48.14400 13.15600 23.58100
H  45.37100 13.66800 23.72100
H  47.13000 16.06600 23.21400
H  46.44500 14.66700 22.23600
H  48.09300 14.97500 22.12700
H  46.79700 11.55200 23.05400
H  45.17100 11.41200 23.58400
H  46.10700 10.12000 25.57900
H  47.34100 11.31400 25.71600
H  47.44000 10.06700 24.46200
H  42.18500 11.57500 28.98900
H  42.40000 11.69900 27.28400
H  41.43100 12.89900 28.26600
H  44.70800 13.88300 32.87000
H  43.00500 16.20600 35.77500
H  41.86600 16.61300 34.40100
H  43.36900 17.48700 34.64500
Mg 25.34000 51.52600 26.19600
C  23.16400 52.35900 28.74000
C  27.73000 50.83200 28.54600
C  27.57400 51.18400 23.56100
C  23.07500 52.87000 23.90900
N  25.45300 51.84700 28.43400
C  24.36400 52.03600 29.23400
C  24.64700 51.79300 30.77400
C  26.21100 51.39400 30.58700
C  26.54800 51.30200 29.08400
C  27.21300 52.32200 31.43900
C  23.79800 50.64000 31.44700
C  23.23700 50.89500 32.87900
H  24.11800 51.49100 33.90300
N  27.26400 50.93500 26.11800
C  28.08400 50.69500 27.20100
C  29.38500 50.34500 26.73800
C  29.40400 50.54100 25.31300
C  28.01100 50.91800 24.92600
C  30.53600 49.98200 27.68600
C  30.57600 50.34100 24.40000
O  30.59400 50.63400 23.22900
C  31.82800 49.69700 24.91500
N  25.28200 51.89300 23.95700
C  26.37000 51.70900 23.16500
C  26.03000 52.08900 21.71200
C  24.45800 52.40300 21.82700
C  24.25200 52.38400 23.30500
C  26.86300 53.29200 21.12700
C  23.68500 51.25800 21.09900
C  23.67300 51.42100 19.52800
N  23.55700 52.41200 26.23300
C  22.75400 52.91100 25.27400
C  21.50500 53.43800 25.70900
C  21.65300 53.26000 27.11600
C  22.90700 52.66600 27.42200
C  20.36100 54.00000 24.91700
C  20.95400 53.40800 28.37500
O  19.80800 53.75700 28.64900
C  21.91600 52.86600 29.50500
C  22.10500 53.97800 30.49000
O  22.83100 54.95200 30.30500
O  21.31100 53.83400 31.58100
C  21.44300 54.89300 32.58600
H  28.44600 50.45000 29.27700
H  28.19800 51.07700 22.67100
H  22.35300 53.17000 23.14700
H  24.49300 52.75900 31.25500
H  26.53000 50.42600 30.97400
H  27.66100 51.71800 32.22800
H  26.69500 53.07300 32.03600
H  28.01400 52.78200 30.86100
H  24.45900 49.77600 31.38800
H  22.85000 50.50700 30.92500
H  23.05000 49.89300 33.26500
H  22.33500 51.50700 32.87700
H  31.47200 50.51600 27.52400
H  30.80700 48.98500 27.33900
H  30.28900 50.07100 28.74400
H  32.56300 49.48200 24.14000
H  31.83700 48.87400 25.63000
H  32.24600 50.55000 25.44900
H  26.21600 51.15600 21.18000
H  24.36500 53.39000 21.37300
H  27.72400 53.37900 21.78900
H  26.34700 54.24400 21.00000
H  27.24600 53.06600 20.13200
H  22.64600 51.22400 21.42600
H  24.13500 50.28700 21.30700
H  22.64600 51.52100 19.17600
H  24.25200 50.62200 19.06700
H  24.27700 52.28100 19.23800
H  20.50100 53.89000 23.84200
H  20.28500 55.04200 25.22800
H  19.46000 53.49100 25.26100
H  21.42300 52.02900 29.99900
H  22.33200 54.61400 33.15400
H  20.58700 54.97400 33.25500
H  21.62900 55.90600 32.22900

