158

Mg 45.51700 3.68700 47.48800
C  43.21800 6.16600 46.88200
C  43.02700 1.32900 47.01900
C  47.92100 1.32400 46.98000
C  48.05200 6.04900 47.19700
N  43.43400 3.76500 46.83700
C  42.62300 4.92100 46.67300
C  41.17600 4.64000 46.53500
C  41.12400 3.04500 46.81000
C  42.60100 2.65000 46.94900
C  40.14800 2.58000 47.96700
C  40.60700 5.01300 45.15100
C  39.54900 6.10100 45.13400
H  39.67000 7.18800 44.05500
N  45.53200 1.71300 47.22900
C  44.35100 0.93100 47.06500
C  44.80800 -0.46100 47.10900
C  46.19500 -0.48300 47.00700
C  46.60200 0.89200 47.09700
C  43.85500 -1.61600 47.03700
C  46.97300 -1.80000 46.73200
O  46.38500 -2.86600 46.74100
C  48.47700 -1.86100 46.36300
N  47.74200 3.69300 47.10500
C  48.47200 2.58600 46.91100
C  49.93500 2.88300 46.58900
C  50.06400 4.39800 46.85000
C  48.54500 4.74700 47.03600
C  51.05900 1.98800 47.27900
C  50.80000 5.15500 45.74500
C  52.33400 5.22500 45.79300
N  45.67800 5.71000 47.31300
C  46.77700 6.53900 47.40800
C  46.35400 7.94600 47.36200
C  44.89500 7.81700 47.12800
C  44.60100 6.46800 47.15000
C  47.18900 9.08600 47.49000
C  43.65000 8.56500 47.01100
O  43.49400 9.77400 47.13500
C  42.54600 7.53800 46.73200
C  41.56400 7.76100 47.74400
O  41.64100 7.39800 48.94800
O  40.47900 8.36900 47.20000
C  39.34800 8.63500 48.10200
H  42.30900 0.50700 46.99500
H  48.58300 0.47100 47.14300
H  48.90100 6.73100 47.12500
H  40.68000 5.27600 47.26800
H  40.87700 2.57200 45.85900
H  39.62200 1.73000 47.53200
H  39.47400 3.43000 48.06200
H  40.65600 2.29600 48.88900
H  40.15500 4.11500 44.73100
H  41.44700 5.32300 44.53000
H  39.40100 6.50800 46.13400
H  38.64900 5.51000 44.96300
H  42.80900 -1.31200 47.07000
H  44.09900 -2.36100 47.79500
H  44.00300 -2.07200 46.05800
H  48.69700 -2.78600 45.82900
H  48.98200 -1.76600 47.32400
H  48.72800 -1.03100 45.70200
H  50.02100 2.75800 45.51000
H  50.47600 4.52800 47.85100
H  51.67700 1.40500 46.59700
H  50.67900 1.28900 48.02300
H  51.79500 2.60900 47.78800
H  50.54700 6.21500 45.76000
H  50.50700 4.78000 44.76500
H  52.80400 4.51800 45.11000
H  52.73100 4.96400 46.77400
H  52.68300 6.21000 45.48300
H  46.68900 9.90400 46.97300
H  48.14300 8.87700 47.00500
H  47.36300 9.37800 48.52500
H  42.20500 7.77300 45.72300
H  38.78000 9.43700 47.63000
H  39.59500 8.85800 49.14000
H  38.69900 7.76200 48.02800
Mg 47.45000 35.28400 26.93500
C  45.43300 33.83500 29.39100
C  48.34700 37.78500 29.07900
C  49.14700 36.62500 24.44400
C  46.49900 32.71700 24.73600
N  46.75000 35.76600 28.85800
C  46.11000 34.98100 29.76000
C  46.44900 35.38700 31.19000
C  46.91600 36.86000 30.99300
C  47.36500 36.81200 29.52800
C  45.80900 37.97200 31.27000
C  47.48900 34.36000 31.72400
C  47.54900 34.23000 33.24500
H  46.60200 35.06300 34.09600
N  48.57700 36.97600 26.83800
C  48.87600 37.89100 27.79500
C  49.73200 38.93000 27.24700
C  49.95200 38.60900 25.91000
C  49.19600 37.35100 25.59800
C  50.11300 40.12000 28.13400
C  50.83600 39.38000 24.97100
O  50.96600 39.06100 23.80700
C  51.64300 40.54400 25.56900
N  47.69100 34.74200 24.78500
C  48.45600 35.49000 24.00000
C  48.65700 34.86100 22.60200
C  47.97200 33.48500 22.73000
C  47.38200 33.60100 24.11800
C  48.10300 35.65800 21.36700
C  48.77000 32.12500 22.47200
C  50.05900 32.20100 21.65100
N  46.24200 33.61400 27.03900
C  45.92100 32.69900 26.04500
C  45.01000 31.76800 26.58600
C  44.70600 32.17900 27.88700
C  45.48900 33.32100 28.08900
C  44.55500 30.55700 25.72900
C  43.95000 31.83700 29.02700
O  43.18900 30.89000 29.28000
C  44.33100 32.96300 30.05200
C  44.58000 32.37700 31.44200
O  45.55900 31.68500 31.76000
O  43.52000 32.75100 32.29900
C  43.44700 32.25700 33.69200
H  48.61200 38.45800 29.89700
H  49.94100 36.92500 23.75700
H  46.24300 31.86900 24.09700
H  45.57600 35.36300 31.84200
H  47.73400 37.06000 31.68500
H  45.98900 38.55600 32.17300
H  44.81100 37.57000 31.44200
H  45.78800 38.72500 30.48200
H  48.48500 34.69800 31.44100
H  47.46200 33.40200 31.20400
H  48.57900 34.41400 33.55200
H  47.37400 33.17000 33.42800
H  49.58200 40.93000 27.63400
H  51.19600 40.23100 28.19900
H  49.77400 40.19100 29.16700
H  52.16600 40.02200 26.37100
H  50.94400 41.33400 25.84500
H  52.36100 40.90400 24.83200
H  49.70300 34.61300 22.42500
H  47.04700 33.45700 22.15300
H  47.75600 34.97700 20.59000
H  48.84100 36.29000 20.87300
H  47.22400 36.25400 21.61300
H  48.10700 31.38900 22.01600
H  49.00100 31.72300 23.45800
H  49.99100 33.04000 20.95700
H  50.14900 31.29300 21.05500
H  50.96300 32.12900 22.25600
H  43.84300 29.98700 26.32600
H  45.38800 29.87900 25.54000
H  44.10500 30.98500 24.83400
H  43.33800 33.40800 30.10300
H  43.30500 33.15000 34.30000
H  44.31400 31.67700 34.00900
H  42.61600 31.55300 33.65600

