158

Mg 24.22700 -5.43000 46.22900
C  26.40800 -2.96800 44.59400
C  21.70800 -4.20400 44.13600
C  22.59100 -8.06200 46.82200
C  27.07700 -6.59200 47.78800
N  24.12300 -3.74000 44.65600
C  25.05100 -2.85600 44.16000
C  24.45700 -1.84800 43.13800
C  22.91800 -2.08200 43.37500
C  22.86700 -3.40800 44.09700
C  22.23700 -0.99500 44.18800
C  25.00800 -2.23200 41.69800
C  25.46800 -1.03600 40.87100
H  24.98000 -0.87400 39.44800
N  22.33000 -6.00500 45.70200
C  21.47200 -5.41000 44.83100
C  20.25400 -6.19300 44.70100
C  20.39200 -7.37100 45.49900
C  21.78900 -7.22800 46.06300
C  19.21400 -5.80800 43.70900
C  19.31400 -8.40000 45.80300
O  18.18600 -8.34100 45.24500
C  19.50700 -9.67200 46.67700
N  24.76800 -7.08300 47.08800
C  23.82200 -8.00800 47.39000
C  24.40000 -9.11600 48.22100
C  25.73600 -8.46900 48.77000
C  25.90100 -7.29800 47.81100
C  23.45400 -9.79200 49.31800
C  26.87800 -9.39700 48.94400
C  27.45900 -9.62800 50.34000
N  26.29800 -4.92500 46.19500
C  27.31800 -5.45300 47.01500
C  28.56700 -4.79900 46.76200
C  28.26500 -3.77600 45.79100
C  26.87500 -3.99300 45.50400
C  29.89600 -5.04000 47.51700
C  28.72300 -2.68700 45.00600
O  29.85200 -2.26300 44.91000
C  27.54800 -2.11700 44.13800
C  27.54400 -0.64900 44.48000
O  27.65400 -0.16800 45.60100
O  27.53600 0.16100 43.33700
C  27.91500 1.59700 43.58300
H  20.99300 -3.58600 43.58900
H  22.00900 -8.91800 47.17000
H  27.92200 -6.93500 48.38800
H  24.77100 -0.81900 43.31400
H  22.42400 -2.25400 42.41900
H  21.46100 -0.48100 43.62000
H  22.92700 -0.21100 44.49700
H  21.68500 -1.36100 45.05300
H  24.17000 -2.64400 41.13700
H  25.86800 -2.89800 41.63100
H  26.55000 -1.15900 40.91900
H  25.16600 -0.13700 41.40800
H  19.60200 -5.09800 42.97900
H  18.42600 -5.35000 44.30800
H  18.72700 -6.68200 43.27600
H  20.00900 -9.36700 47.59500
H  20.05400 -10.49200 46.21200
H  18.48100 -9.92700 46.94100
H  24.50700 -9.97800 47.56300
H  25.54200 -8.03100 49.74900
H  23.50000 -10.87900 49.25100
H  22.40900 -9.49600 49.23200
H  23.76200 -9.68400 50.35800
H  27.69900 -9.15700 48.26900
H  26.56800 -10.42700 48.76800
H  26.58600 -9.63300 50.99200
H  27.98900 -8.71400 50.60800
H  28.07000 -10.53100 50.31100
H  30.29100 -4.09800 47.89700
H  30.63500 -5.55800 46.90400
H  29.66200 -5.72900 48.32900
H  27.80000 -2.14900 43.07800
H  28.59400 1.70800 44.42800
H  26.99000 2.11200 43.84200
H  28.37000 2.04000 42.69700
Mg -6.31300 24.61200 26.53700
C  -4.68500 25.90200 29.41000
C  -7.97000 22.42500 28.48900
C  -7.37400 22.97600 23.73600
C  -3.75300 26.20200 24.53900
N  -6.21800 24.12000 28.68300
C  -5.71500 24.93800 29.69400
C  -6.35700 24.70600 31.08500
C  -7.07100 23.38200 30.80300
C  -7.01800 23.21700 29.20100
C  -6.58900 22.10400 31.57900
C  -7.32400 25.96100 31.43000
C  -7.76800 25.98800 32.89900
H  -7.38900 24.78400 33.84800
N  -7.78500 23.10200 26.13900
C  -8.31500 22.32100 27.10800
C  -9.27900 21.45000 26.51100
C  -9.14200 21.67900 25.11800
C  -8.09400 22.63700 24.90700
C  -10.24100 20.54900 27.24500
C  -9.99700 21.11700 23.97200
O  -9.85000 21.36500 22.78000
C  -10.97700 20.08300 24.19500
N  -5.57400 24.44700 24.51900
C  -6.27500 23.79900 23.56300
C  -5.74600 24.07200 22.09800
C  -4.63500 25.14800 22.37600
C  -4.63900 25.26600 23.91400
C  -5.29600 22.80500 21.28600
C  -4.80100 26.53700 21.60700
C  -3.50900 27.26800 21.13100
N  -4.51100 25.74000 26.88300
C  -3.65600 26.42900 25.94800
C  -2.80600 27.30300 26.78900
C  -3.14900 27.04800 28.06700
C  -4.15300 26.15600 28.15300
C  -1.76300 28.30400 26.42300
C  -2.97300 27.57200 29.44700
O  -2.11600 28.36900 29.90800
C  -3.89000 26.80600 30.40400
C  -3.01100 26.07800 31.37800
O  -2.57700 24.97700 31.17900
O  -2.57400 27.00800 32.36600
C  -1.66200 26.42900 33.37200
H  -8.51900 21.74300 29.14100
H  -7.64000 22.48800 22.79600
H  -3.02500 26.69400 23.89000
H  -5.60300 24.64600 31.87000
H  -8.12100 23.46200 31.08200
H  -6.27100 21.34300 30.86700
H  -7.41800 21.78200 32.20900
H  -5.67600 22.29900 32.14100
H  -8.17900 25.83800 30.76500
H  -6.79200 26.89100 31.22900
H  -8.85800 25.96800 32.92400
H  -7.46100 26.92800 33.35700
H  -9.78300 19.57300 27.40800
H  -11.26200 20.61700 26.87200
H  -10.32500 21.00900 28.23000
H  -10.54900 19.36700 24.89700
H  -11.24300 19.50400 23.31000
H  -11.89300 20.39300 24.69700
H  -6.63300 24.41900 21.56700
H  -3.67000 24.70300 22.13400
H  -5.57300 21.91000 21.84300
H  -4.23100 22.82700 21.05200
H  -5.85600 22.60400 20.37300
H  -5.31400 27.21400 22.29000
H  -5.51900 26.40200 20.79800
H  -3.52200 27.37600 20.04600
H  -2.55600 26.75100 21.24900
H  -3.39500 28.27800 21.52300
H  -1.80400 28.60800 25.37700
H  -0.80400 27.88300 26.72600
H  -1.97000 29.21900 26.97900
H  -4.55900 27.43300 30.99300
H  -1.74700 25.36000 33.57100
H  -1.90300 26.84500 34.35000
H  -0.59800 26.55600 33.17300

