158

Mg 23.81700 -5.43500 46.49600
C  26.09700 -3.42800 44.79200
C  21.32500 -4.58700 44.35100
C  22.14400 -8.18900 47.42600
C  26.69900 -7.12300 47.85600
N  23.78800 -4.16100 44.84500
C  24.76000 -3.33600 44.36400
C  24.22100 -2.44400 43.26200
C  22.62200 -2.80800 43.23500
C  22.59300 -3.89500 44.27800
C  21.71900 -1.56100 43.50700
C  25.01000 -2.69300 41.83600
C  25.48600 -1.49200 41.06100
H  25.44400 -1.61600 39.55000
N  21.95000 -6.17400 46.11600
C  21.04500 -5.65900 45.21800
C  19.79600 -6.38100 45.29800
C  20.02900 -7.44700 46.17500
C  21.44000 -7.30400 46.64400
C  18.53700 -6.07200 44.52200
C  18.93600 -8.42400 46.64300
O  17.89700 -8.48000 46.06900
C  19.24500 -9.45600 47.75300
N  24.40400 -7.39200 47.62000
C  23.38600 -8.27100 47.93600
C  23.99300 -9.46200 48.71100
C  25.54600 -9.03900 48.93500
C  25.57000 -7.81200 48.06200
C  23.21800 -9.90800 49.97000
C  26.56300 -10.23300 48.70100
C  27.10800 -10.48500 47.38600
N  25.91400 -5.19600 46.57900
C  26.90600 -5.89400 47.19700
C  28.17400 -5.27400 46.92100
C  27.88000 -4.25400 46.06600
C  26.48900 -4.25100 45.81600
C  29.47300 -5.82200 47.38000
C  28.51700 -3.30300 45.18900
O  29.70500 -3.01000 45.04500
C  27.32500 -2.69300 44.35200
C  27.16500 -1.21300 44.68200
O  26.78900 -0.79300 45.75200
O  27.56800 -0.42700 43.61100
C  27.77100 0.98500 43.85700
H  20.58100 -4.36800 43.58300
H  21.70500 -9.12400 47.78100
H  27.59100 -7.59900 48.26700
H  24.38200 -1.43100 43.63100
H  22.43300 -3.12600 42.21000
H  21.95000 -1.20900 44.51200
H  20.69400 -1.91700 43.40100
H  22.09900 -0.84400 42.78000
H  24.34600 -3.12400 41.08700
H  25.85600 -3.37000 41.95500
H  26.50300 -1.45100 41.45200
H  24.87200 -0.71200 41.51100
H  18.57400 -5.12200 43.98900
H  17.66700 -6.07900 45.17900
H  18.29000 -6.78900 43.74000
H  18.28600 -9.91800 47.98700
H  19.54700 -8.97700 48.68500
H  19.99400 -10.20900 47.50900
H  23.86500 -10.33000 48.06400
H  25.59900 -8.69500 49.96800
H  23.84400 -10.06300 50.84900
H  22.66600 -10.79700 49.66600
H  22.49900 -9.09200 50.04800
H  26.06400 -11.17700 48.92000
H  27.43000 -10.14800 49.35500
H  28.18200 -10.65800 47.31100
H  26.85600 -9.77500 46.59900
H  26.72100 -11.46500 47.10600
H  29.68000 -6.73100 46.81600
H  29.45400 -5.94500 48.46300
H  30.35900 -5.22900 47.15100
H  27.54800 -2.90800 43.30600
H  27.28400 1.47600 43.01400
H  28.81000 1.31200 43.89000
H  27.27600 1.32600 44.76600
Mg 47.61800 34.10900 27.42000
C  45.80300 32.66800 29.84600
C  47.98700 37.03400 29.24800
C  48.69700 35.66700 24.66800
C  47.04900 31.20200 25.49700
N  46.84300 34.85700 29.29000
C  46.36700 33.94300 30.24200
C  46.37700 34.55000 31.63800
C  46.88300 36.06400 31.32300
C  47.32700 35.99900 29.88300
C  45.86200 37.20500 31.68100
C  47.17000 33.77000 32.75700
C  47.98300 34.61400 33.70700
H  47.13800 35.61000 34.51300
N  48.33600 36.06300 26.99700
C  48.48400 37.03900 27.93100
C  49.32100 38.12300 27.33700
C  49.38300 37.88700 25.92100
C  48.77800 36.49000 25.74300
C  49.91100 39.21700 28.11200
C  50.07900 38.61900 24.83300
O  50.24500 38.14800 23.70700
C  50.66200 39.97900 25.07500
N  47.83900 33.57500 25.33000
C  48.30700 34.39800 24.44300
C  48.72900 33.56700 23.17000
C  48.17800 32.16400 23.53900
C  47.68900 32.29100 24.87900
C  48.09800 34.02800 21.83900
C  49.29800 31.09200 23.37900
C  50.15400 30.78600 24.61600
N  46.76400 32.25700 27.63600
C  46.61000 31.15600 26.82100
C  45.76600 30.17500 27.45800
C  45.35000 30.76400 28.56600
C  46.03400 31.95900 28.70300
C  45.32000 28.93800 26.85900
C  44.41700 30.64300 29.69600
O  43.64600 29.76200 29.97200
C  44.66800 31.89900 30.54700
C  44.87300 31.49300 31.96700
O  45.77600 30.69300 32.36500
O  43.82900 32.00100 32.72900
C  43.92300 31.83200 34.18000
H  48.15000 37.89300 29.90200
H  49.04600 36.17000 23.76400
H  46.91900 30.22400 25.03000
H  45.32900 34.59600 31.93200
H  47.83400 36.30400 31.80000
H  44.92900 36.79400 32.06600
H  45.68500 37.71800 30.73500
H  46.20300 37.92200 32.42800
H  47.94600 33.17200 32.27900
H  46.49400 33.16500 33.36200
H  48.79800 35.12700 33.19700
H  48.38600 33.93800 34.46200
H  49.55700 40.13400 27.64000
H  51.00100 39.20100 28.12100
H  49.56000 39.25100 29.14400
H  51.54000 39.88400 25.71300
H  49.96400 40.68700 25.52400
H  51.10800 40.29800 24.13300
H  49.81600 33.50700 23.11300
H  47.19800 31.89300 23.14600
H  47.47400 34.89700 22.05100
H  47.50800 33.33800 21.23600
H  48.97300 34.19100 21.21200
H  49.98800 31.35500 22.57800
H  48.70600 30.25100 23.01600
H  49.90400 31.38600 25.49100
H  51.19200 31.03500 24.39300
H  50.03600 29.72500 24.83700
H  45.83500 28.68400 25.93200
H  44.24400 28.86800 26.70100
H  45.55700 28.26300 27.68200
H  43.81800 32.58100 30.55300
H  44.55600 32.65100 34.52300
H  44.49700 30.95900 34.49200
H  42.95500 31.82100 34.68100

