158

Mg 40.88400 9.13300 29.41800
C  42.49600 10.42700 32.17100
C  38.52200 7.80900 31.50800
C  39.30000 7.86700 26.63600
C  43.48000 10.24000 27.49900
N  40.60300 9.04200 31.56100
C  41.27600 9.80500 32.54500
C  40.50400 9.90700 33.92100
C  39.33300 8.87300 33.69200
C  39.43000 8.51500 32.23800
C  39.21200 7.50900 34.53800
C  40.13700 11.35100 34.30600
C  39.29800 11.39700 35.61700
H  39.82100 12.06500 36.80900
N  39.15700 7.92100 29.12900
C  38.34500 7.50000 30.11400
C  37.21500 6.85600 29.50000
C  37.23200 7.11300 28.10600
C  38.61200 7.66900 27.89900
C  36.12300 6.27300 30.30600
C  36.23800 7.01100 27.03700
O  36.44600 7.32000 25.89500
C  34.82500 6.44900 27.39600
N  41.28700 9.08400 27.48100
C  40.54400 8.48100 26.52600
C  41.10800 8.59400 25.08800
C  42.29100 9.59900 25.31700
C  42.37400 9.63400 26.84300
C  41.41900 7.33300 24.41300
C  42.25000 11.01700 24.77800
C  40.94900 11.85100 24.93700
N  42.68900 10.08700 29.66600
C  43.66100 10.49800 28.84300
C  44.67400 11.28600 29.49600
C  44.26100 11.26000 30.81000
C  43.08800 10.49900 30.88000
C  45.88900 11.80000 28.88000
C  44.62500 11.65000 32.14600
O  45.53000 12.37800 32.55800
C  43.52000 11.12300 33.10900
C  44.08900 10.25700 34.15000
O  44.87500 9.35900 33.92200
O  43.90700 10.86500 35.38400
C  44.30600 10.11700 36.55200
H  37.69400 7.48200 32.14000
H  38.87100 7.36300 25.76800
H  44.27300 10.62400 26.85400
H  41.11800 9.39800 34.66300
H  38.33600 9.28000 33.86000
H  39.31900 6.52000 34.09200
H  38.17900 7.50300 34.88800
H  39.90000 7.57500 35.38100
H  39.69200 11.91200 33.48400
H  41.08000 11.85400 34.52100
H  39.22300 10.36100 35.94600
H  38.25500 11.58500 35.36000
H  36.00600 5.21900 30.05600
H  35.14500 6.74200 30.20300
H  36.37900 6.22800 31.36500
H  34.78400 5.47600 27.88400
H  34.31300 6.32800 26.44100
H  34.39200 7.21700 28.03700
H  40.31800 9.02500 24.47300
H  43.17900 9.17400 24.85000
H  41.18400 6.48700 25.05900
H  42.44600 7.04200 24.19200
H  40.78300 7.14900 23.54700
H  42.43600 10.94600 23.70600
H  43.08500 11.59300 25.17800
H  40.27000 11.67600 24.10200
H  41.21800 12.90100 25.04900
H  40.40300 11.67700 25.86400
H  45.98000 11.70800 27.79800
H  46.71600 11.25200 29.33200
H  46.04700 12.86000 29.07900
H  43.09000 12.00200 33.59000
H  45.23100 10.43300 37.03500
H  44.27700 9.05800 36.29500
H  43.50000 10.43500 37.21400
Mg 0.62900 42.44300 25.39600
C  2.26800 42.80900 28.61200
C  -2.23400 41.54000 26.98400
C  -0.58400 41.79700 22.34500
C  3.82100 42.86800 24.03600
N  0.12600 42.34000 27.48900
C  0.81700 42.62600 28.66700
C  -0.05700 42.52000 29.92000
C  -1.43500 42.00700 29.36800
C  -1.16200 41.99600 27.84700
C  -1.83500 40.59300 29.95800
C  0.01400 43.93600 30.68500
C  0.51100 43.82100 32.16700
H  0.41100 42.40100 32.90200
N  -1.22500 41.76100 24.69000
C  -2.24800 41.36800 25.51500
C  -3.33900 40.95900 24.66800
C  -2.88900 41.02000 23.31200
C  -1.48300 41.57000 23.37700
C  -4.69400 40.62100 25.35100
C  -3.59900 40.66000 21.95200
O  -3.07700 40.67100 20.80400
C  -4.98500 40.13500 22.16000
N  1.47800 42.38500 23.49100
C  0.73400 42.20500 22.37600
C  1.58300 42.21400 21.11000
C  2.95100 42.69800 21.65400
C  2.74000 42.67800 23.17200
C  1.68800 40.77200 20.45200
C  3.32900 44.11000 21.04700
C  3.37300 45.41000 21.86800
N  2.64300 42.77800 26.11300
C  3.81900 42.84400 25.42000
C  4.91500 42.97500 26.31500
C  4.32400 43.05000 27.58600
C  2.97800 42.80800 27.44200
C  6.34000 43.18100 25.91800
C  4.58100 43.27900 28.94100
O  5.61900 43.57400 29.51300
C  3.24500 43.02800 29.72600
C  3.41800 41.84200 30.62000
O  3.13600 40.68100 30.44200
O  3.99800 42.40700 31.70700
C  4.49000 41.43800 32.78200
H  -3.14500 41.34500 27.55300
H  -0.98800 41.63800 21.34300
H  4.77700 42.88400 23.50700
H  0.39200 41.76600 30.56600
H  -2.28900 42.65300 29.57300
H  -1.62700 40.48700 31.02300
H  -1.37900 39.74800 29.44200
H  -2.91900 40.52700 29.87100
H  -0.97800 44.38600 30.71900
H  0.75300 44.61200 30.25500
H  -0.13100 44.45500 32.77900
H  1.51000 44.25500 32.12200
H  -4.56600 40.62800 26.43300
H  -5.03200 39.59800 25.18600
H  -5.53400 41.24300 25.04000
H  -5.67000 40.72300 22.77100
H  -5.07700 39.23300 22.76500
H  -5.49000 39.90400 21.22100
H  1.10400 42.91900 20.43100
H  3.74800 41.95800 21.57900
H  1.43500 40.03800 21.21700
H  2.69700 40.70100 20.04600
H  0.87700 40.67500 19.73000
H  2.84800 44.25700 20.07900
H  4.38800 43.97200 20.83000
H  4.07600 45.35100 22.69900
H  2.37700 45.61300 22.26200
H  3.69000 46.24800 21.24700
H  6.50000 44.19200 25.54500
H  6.72500 42.47400 25.18300
H  6.96500 43.09100 26.80600
H  3.24000 43.96300 30.28500
H  5.53700 41.63200 33.01400
H  4.39700 40.35600 32.69200
H  3.97700 41.76200 33.68800

