158

Mg 6.40400 53.52800 41.00300
C  5.99900 49.97200 41.14600
C  9.67400 52.86800 39.81800
C  6.86600 56.83500 40.46300
C  3.09000 53.96500 41.49700
N  7.54200 51.64400 40.36400
C  7.23700 50.29700 40.54100
C  8.36000 49.36000 40.12200
C  9.54900 50.34600 40.11500
C  8.84000 51.73900 40.05500
C  10.54900 50.37800 41.31500
C  8.08000 48.67300 38.75100
C  7.12100 49.27000 37.81500
H  7.56800 50.45700 36.98700
N  8.07600 54.66900 40.30700
C  9.30600 54.25900 39.88100
C  10.14700 55.39600 39.73700
C  9.36400 56.58900 39.79300
C  8.01100 56.07900 40.19500
C  11.64200 55.28800 39.59700
C  9.91100 58.04400 39.77700
O  11.10400 58.27400 39.49700
C  9.00300 59.24400 39.86900
N  5.16600 55.05500 40.86500
C  5.53800 56.37900 40.74400
C  4.41400 57.29200 40.99400
C  3.20200 56.39500 41.02800
C  3.87200 55.04000 41.09900
C  4.73500 58.22900 42.27100
C  2.16800 56.49400 39.83800
C  0.75000 56.67000 40.31400
N  4.84700 52.25600 41.37200
C  3.53000 52.61500 41.51000
C  2.82200 51.38400 41.91500
C  3.73700 50.35500 41.70400
C  4.93500 50.92400 41.37500
C  1.49500 51.25700 42.38700
C  3.94900 48.96200 41.79500
O  3.14200 48.03700 42.06000
C  5.48200 48.65000 41.47100
C  5.25600 47.70600 40.31200
O  4.62400 47.89400 39.24000
O  5.90500 46.57000 40.56900
C  5.84600 45.54300 39.51100
H  10.65800 52.76900 39.35500
H  6.78900 57.89400 40.21000
H  2.08600 54.17700 41.86900
H  8.59700 48.66400 40.92700
H  10.20600 50.17300 39.26300
H  11.47100 49.92100 40.95500
H  10.13900 49.67900 42.04500
H  10.67300 51.38600 41.71100
H  7.94500 47.59200 38.76900
H  9.03100 48.72000 38.21900
H  6.21100 49.65200 38.27800
H  6.88300 48.55500 37.02700
H  11.95500 55.52000 38.57800
H  11.99900 54.27600 39.78700
H  12.27100 56.02400 40.09800
H  9.56000 60.18000 39.90500
H  8.51400 59.18700 40.84200
H  8.32100 59.25700 39.01900
H  4.32900 57.94300 40.12300
H  2.76100 56.49200 42.02000
H  4.46000 59.24700 41.99600
H  5.75700 58.12700 42.63700
H  4.05800 57.94200 43.07500
H  2.26300 55.56400 39.27700
H  2.47700 57.29900 39.17100
H  0.44400 57.68600 40.56300
H  0.74300 56.00400 41.17700
H  0.11600 56.28100 39.51700
H  0.78500 51.77300 41.74000
H  1.43500 51.72200 43.37000
H  1.28100 50.18900 42.43200
H  5.97700 48.11300 42.28000
H  6.54600 44.78600 39.86400
H  6.37100 45.80600 38.59200
H  4.87000 45.07500 39.38200
Mg -6.52100 25.23200 26.68200
C  -5.26500 26.58600 29.44500
C  -8.32900 22.89100 28.54400
C  -7.62400 23.85000 23.83000
C  -4.30300 27.15500 24.72700
N  -6.71400 24.72300 28.68100
C  -6.12900 25.47500 29.67300
C  -6.79900 25.19200 31.05600
C  -7.57700 23.85900 30.75800
C  -7.53800 23.77000 29.26700
C  -7.16100 22.63200 31.64400
C  -7.82300 26.32800 31.57000
C  -7.90800 26.51300 33.11500
H  -7.27600 25.40900 34.03800
N  -7.76400 23.57700 26.20900
C  -8.46500 22.81300 27.11100
C  -9.27300 21.83400 26.37000
C  -9.16900 22.17500 25.00200
C  -8.22100 23.28000 24.97500
C  -10.05500 20.81000 27.02800
C  -9.92800 21.52400 23.84200
O  -9.63000 21.83600 22.68500
C  -10.97700 20.43500 24.04400
N  -6.03600 25.52500 24.48700
C  -6.63900 24.76400 23.54100
C  -5.99500 25.02000 22.20500
C  -5.00300 26.22200 22.43500
C  -5.13900 26.37700 23.98700
C  -5.56400 23.74900 21.46000
C  -5.41200 27.50000 21.66000
C  -4.91400 27.34400 20.23700
N  -5.29800 26.75200 26.98700
C  -4.39700 27.36400 26.16200
C  -3.50600 28.23000 26.86000
C  -3.86300 27.95500 28.17000
C  -4.89900 27.05600 28.21700
C  -2.37400 29.06000 26.31000
C  -3.44600 28.16700 29.51600
O  -2.49300 28.87700 29.82400
C  -4.39400 27.31500 30.47400
C  -3.50700 26.46800 31.25600
O  -2.87600 25.43700 30.85200
O  -3.49100 27.04200 32.50100
C  -2.71600 26.32400 33.51900
H  -8.70600 22.16200 29.26400
H  -8.10100 23.36800 22.97400
H  -3.58100 27.79800 24.22000
H  -6.00400 24.98100 31.77200
H  -8.63600 23.92500 31.00700
H  -6.20500 22.70400 32.16100
H  -7.20700 21.73400 31.02900
H  -7.98900 22.37600 32.30500
H  -8.80600 26.09800 31.15900
H  -7.44900 27.24900 31.12200
H  -8.93700 26.75300 33.38300
H  -7.20900 27.32200 33.32600
H  -9.69800 19.79300 26.86400
H  -11.11600 21.01000 26.87700
H  -10.00900 20.94200 28.10900
H  -11.56800 20.37300 23.13000
H  -11.79400 20.65100 24.73200
H  -10.60800 19.43600 24.27600
H  -6.79900 25.35600 21.55000
H  -3.94200 25.98400 22.35700
H  -4.48600 23.75400 21.29900
H  -5.88100 23.82400 20.42000
H  -5.88500 22.82200 21.93600
H  -4.97200 28.40800 22.07100
H  -6.48100 27.68000 21.55100
H  -5.44800 26.52800 19.75100
H  -3.84600 27.34500 20.01900
H  -5.25400 28.27600 19.78500
H  -2.69700 29.81100 25.58800
H  -1.68300 28.36700 25.83100
H  -1.82600 29.43300 27.17500
H  -4.94600 27.98900 31.12800
H  -2.03500 27.08700 33.89500
H  -2.13900 25.41700 33.33800
H  -3.45500 26.10300 34.28900

