158

Mg 36.30000 49.55200 24.75900
C  36.38400 47.89200 27.68300
C  34.86300 52.22300 26.32100
C  35.50900 50.79100 21.72500
C  37.38000 46.53500 23.14200
N  35.60800 50.01500 26.71100
C  35.81500 49.17300 27.78700
C  35.40300 49.75800 29.18700
C  34.65300 51.02100 28.67400
C  35.07000 51.18800 27.13100
C  33.07800 51.15700 28.86800
C  36.64900 50.19000 30.08100
C  36.60000 49.95500 31.56000
H  35.29000 49.98400 32.30700
N  35.37800 51.36800 24.16600
C  34.98400 52.41700 24.94100
C  34.64000 53.54200 24.11900
C  34.66300 53.05300 22.75700
C  35.15500 51.65400 22.83300
C  34.25700 54.84200 24.68100
C  34.40500 53.81900 21.48400
O  34.57100 53.37500 20.32800
C  33.79300 55.19900 21.53100
N  36.55500 48.86800 22.79200
C  36.08800 49.50500 21.68100
C  36.42700 48.75800 20.37600
C  37.37600 47.57300 20.85100
C  37.12400 47.61700 22.38800
C  35.15400 48.31600 19.57900
C  38.89600 47.76300 20.62200
C  39.68600 46.54100 20.21000
N  36.79700 47.65400 25.27300
C  37.25800 46.52400 24.54500
C  37.59500 45.46800 25.45100
C  37.27400 45.98700 26.70300
C  36.84900 47.32100 26.54700
C  38.13200 44.14400 25.05400
C  37.23600 45.68300 28.08200
O  37.45400 44.67300 28.72700
C  36.86500 46.88100 28.76900
C  35.77300 46.53400 29.74600
O  34.56400 46.39300 29.49600
O  36.30800 46.29700 31.01300
C  35.38600 45.69000 32.01600
H  34.42000 53.02800 26.91100
H  35.18400 51.18200 20.75900
H  37.73100 45.59500 22.71300
H  34.66900 49.16100 29.72900
H  35.15600 51.91600 29.04000
H  32.82800 52.21800 28.89200
H  32.64300 50.50100 29.62200
H  32.64600 50.96600 27.88500
H  37.07800 51.17900 29.92300
H  37.45300 49.52300 29.76800
H  37.26500 50.65300 32.06800
H  37.06900 49.00200 31.80400
H  34.55000 54.92200 25.72800
H  33.17000 54.92200 24.69300
H  34.84700 55.54900 24.09800
H  32.81500 55.07300 21.99500
H  33.78600 55.63300 20.53100
H  34.51300 55.85200 22.02400
H  36.89200 49.48200 19.70800
H  37.08500 46.60700 20.43900
H  34.20200 48.72700 19.91600
H  35.05100 47.24500 19.40300
H  35.18100 48.81600 18.61100
H  39.46300 48.05800 21.50400
H  39.00000 48.59800 19.92900
H  39.14000 45.68600 20.61000
H  40.61400 46.44100 20.77400
H  39.77700 46.36200 19.13900
H  39.21600 44.18500 24.95300
H  37.67500 43.83300 24.11400
H  37.80900 43.45700 25.83600
H  37.69200 47.26700 29.36500
H  35.11200 44.68800 31.68500
H  34.50300 46.30900 32.17300
H  35.90200 45.67300 32.97600
Mg 27.33600 50.27600 26.55900
C  25.45900 51.22400 29.43300
C  29.79700 49.35300 28.63700
C  28.95100 49.40600 23.82800
C  24.64800 51.43700 24.54800
N  27.53500 50.26100 28.81500
C  26.72300 50.72600 29.82300
C  27.26200 50.32100 31.16700
C  28.77000 49.88100 30.90300
C  28.66600 49.74800 29.35600
C  29.77900 50.95300 31.46100
C  26.42800 49.16600 31.87300
C  26.01100 49.49600 33.34000
H  26.96600 50.03000 34.42900
N  29.08900 49.47700 26.30300
C  29.99100 49.15600 27.18600
C  31.25000 48.70500 26.61100
C  31.01600 48.72500 25.23500
C  29.62900 49.18800 25.08200
C  32.45300 48.18400 27.32800
C  31.91300 48.43000 24.05000
O  31.62200 48.62900 22.86800
C  33.17400 47.77100 24.39500
N  26.87500 50.56200 24.48100
C  27.78700 50.11100 23.51000
C  27.15500 50.23400 22.10900
C  25.73000 50.80500 22.41800
C  25.70400 50.92800 23.91400
C  27.98400 51.14100 21.18700
C  24.50200 49.85200 21.96300
C  23.40600 50.61300 21.25700
N  25.43500 51.25600 26.84000
C  24.46100 51.58700 25.95300
C  23.32600 52.08500 26.66900
C  23.64700 51.96000 28.04200
C  24.90800 51.44600 28.08500
C  22.13500 52.70300 26.05400
C  23.13900 52.14000 29.38900
O  22.05400 52.54200 29.72300
C  24.32900 51.75600 30.38000
C  24.85400 52.93800 31.14600
O  25.34300 53.94200 30.67400
O  24.61000 52.83600 32.47800
C  25.10500 53.88500 33.39400
H  30.65600 49.04500 29.23500
H  29.43100 48.93800 22.96600
H  23.76400 51.59300 23.92700
H  27.15000 51.13000 31.88900
H  28.97300 48.95200 31.43600
H  29.31900 51.71600 32.09000
H  30.14100 51.44300 30.55700
H  30.68100 50.54300 31.91500
H  27.05200 48.32700 32.18200
H  25.59000 48.86400 31.24500
H  25.83300 48.50200 33.75100
H  25.07700 50.05700 33.33500
H  32.45300 48.15500 28.41800
H  33.34200 48.79400 27.17000
H  32.72900 47.18000 27.00700
H  33.06100 46.83200 24.93600
H  33.76400 48.49000 24.96300
H  33.70300 47.65600 23.45000
H  26.96100 49.23400 21.72000
H  25.64400 51.82800 22.05000
H  28.20500 50.58600 20.27500
H  28.92600 51.14000 21.73500
H  27.61800 52.15800 21.04500
H  24.17100 49.29100 22.83600
H  24.90600 49.20500 21.18500
H  23.74400 50.64700 20.22200
H  23.28400 51.63000 21.63100
H  22.41400 50.16100 21.22800
H  21.56300 53.13600 26.87500
H  21.52000 52.03500 25.45200
H  22.52100 53.59100 25.55400
H  24.08200 50.91100 31.02200
H  25.00300 54.82500 32.85100
H  26.15800 53.74500 33.63600
H  24.54100 54.10400 34.30100

