158

Mg 24.63600 -5.53200 46.12200
C  26.71700 -3.18300 44.37700
C  22.03400 -4.36800 44.36100
C  23.12500 -8.44000 46.80300
C  27.63700 -6.69200 47.68000
N  24.44300 -3.97900 44.62400
C  25.39800 -3.23500 43.91600
C  24.82900 -2.38300 42.83500
C  23.29400 -2.50500 43.01100
C  23.26400 -3.69900 44.09100
C  22.61800 -1.16100 43.57500
C  25.48900 -2.74300 41.45900
C  25.88000 -1.63200 40.49500
H  25.38000 -1.74400 39.03300
N  22.74200 -6.22100 45.83600
C  21.80800 -5.54600 45.12700
C  20.57300 -6.29900 45.12200
C  20.95000 -7.59600 45.66000
C  22.29900 -7.46900 46.21100
C  19.31100 -5.85500 44.43000
C  19.97800 -8.82200 45.66900
O  18.75000 -8.80500 45.37000
C  20.44000 -10.14500 46.15300
N  25.31200 -7.24800 47.13800
C  24.47300 -8.36100 47.18500
C  25.24700 -9.49000 47.84300
C  26.63600 -8.91300 48.31400
C  26.53000 -7.52600 47.69500
C  24.43300 -10.26300 49.00000
C  27.91400 -9.71500 47.93100
C  28.85400 -9.85200 49.14800
N  26.77900 -5.10300 46.07100
C  27.82200 -5.50000 46.90500
C  28.97900 -4.67800 46.73800
C  28.63500 -3.77800 45.68900
C  27.29100 -4.11900 45.31900
C  30.38200 -4.88500 47.33500
C  29.14300 -2.66600 44.91800
O  30.16700 -2.07100 44.91800
C  27.90700 -2.29500 43.95600
C  27.63200 -0.84800 44.16700
O  27.01800 -0.33000 45.07300
O  28.14600 -0.13600 43.16700
C  28.32800 1.27900 43.50700
H  21.18100 -4.14000 43.71900
H  22.81000 -9.47500 46.95100
H  28.47900 -6.94300 48.32900
H  24.95000 -1.30000 42.85600
H  22.73100 -2.78000 42.11900
H  23.16300 -0.24700 43.34100
H  22.46300 -1.16800 44.65400
H  21.67100 -0.92900 43.08800
H  24.79200 -3.41900 40.96400
H  26.34900 -3.37600 41.67900
H  26.96000 -1.54700 40.37900
H  25.69700 -0.63400 40.89500
H  18.36200 -6.38900 44.39300
H  19.50000 -5.78000 43.35900
H  19.07100 -4.84300 44.75900
H  19.64500 -10.88800 46.08400
H  20.74100 -10.00600 47.19100
H  21.25400 -10.37400 45.46500
H  25.53600 -10.25400 47.12100
H  26.58900 -8.75900 49.39200
H  24.17900 -11.28900 48.73600
H  23.49100 -9.72400 49.10600
H  25.01600 -10.14200 49.91400
H  28.46600 -9.26400 47.10700
H  27.83500 -10.77400 47.68600
H  29.72200 -9.21800 48.96900
H  29.16000 -10.89700 49.21600
H  28.42900 -9.52700 50.09800
H  30.86100 -5.85400 47.19400
H  30.18400 -4.70300 48.39100
H  30.95200 -4.14100 46.77700
H  28.28600 -2.39600 42.93900
H  29.33200 1.60400 43.23400
H  28.35800 1.49000 44.57700
H  27.55200 1.90800 43.07000
Mg 30.15100 57.37800 39.94700
C  27.65200 55.29300 38.35400
C  32.43700 55.26700 39.17600
C  32.44500 59.88400 40.32600
C  27.52700 59.76500 40.29700
N  30.01500 55.53900 38.73100
C  28.94800 54.73800 38.35700
C  29.39400 53.32000 38.06900
C  30.82600 53.23500 38.70100
C  31.14500 54.74600 38.98200
C  31.07500 52.32600 39.88400
C  29.17500 52.62600 36.74100
C  29.62700 53.41200 35.47800
H  28.69000 53.87600 34.39400
N  32.18800 57.49200 39.89300
C  32.99300 56.52000 39.52800
C  34.41100 56.96300 39.46800
C  34.34400 58.25000 39.86300
C  32.94400 58.61600 39.97000
C  35.49700 55.97300 39.05400
C  35.60900 59.17300 39.89000
O  36.65600 58.67300 39.50800
C  35.58700 60.58800 40.29200
N  29.96400 59.53500 40.32700
C  31.04300 60.30500 40.50200
C  30.60800 61.77400 40.73700
C  29.15000 61.59600 41.31300
C  28.80200 60.19500 40.70500
C  31.46300 62.64800 41.73300
C  28.07800 62.67500 40.94200
C  26.82500 62.80200 41.89300
N  28.10000 57.53800 39.58600
C  27.17500 58.59200 39.81600
C  25.85200 58.15300 39.46500
C  26.01100 56.91300 38.81100
C  27.39100 56.55400 38.92500
C  24.62900 59.02600 39.52900
C  25.28400 55.84200 38.20100
O  24.09600 55.81100 38.00400
C  26.36900 54.74000 37.87100
C  25.86600 53.49700 38.55200
O  25.94200 53.24200 39.72800
O  25.29100 52.68000 37.69000
C  24.76600 51.37800 38.20500
H  33.24100 54.52900 39.13900
H  33.21700 60.65200 40.40300
H  26.71200 60.49200 40.31500
H  28.91500 52.59600 38.72800
H  31.44200 52.85900 37.88400
H  30.36800 51.49800 39.92600
H  31.18300 52.95900 40.76600
H  31.99900 51.78500 39.67900
H  28.11700 52.40100 36.60600
H  29.70900 51.67600 36.72000
H  30.27700 52.74400 34.91400
H  30.06900 54.34400 35.83100
H  35.95300 55.40800 39.86800
H  36.40100 56.44200 38.66600
H  35.15400 55.23100 38.33300
H  36.61000 60.94200 40.16600
H  35.24700 60.57600 41.32800
H  35.00400 61.24200 39.64300
H  30.73200 62.23200 39.75600
H  29.20500 61.51300 42.39900
H  31.92400 63.53800 41.30400
H  32.20700 61.99500 42.19100
H  30.85300 63.08400 42.52400
H  27.72200 62.46300 39.93300
H  28.53100 63.65800 40.81400
H  25.90200 62.72800 41.31700
H  26.79800 63.79800 42.33500
H  26.74700 62.03300 42.66200
H  24.56700 59.42800 40.54000
H  23.66500 58.59100 39.26500
H  24.72800 59.85300 38.82700
H  26.47500 54.48000 36.81800
H  23.87800 51.53500 38.81800
H  25.54100 50.92500 38.82200
H  24.38700 50.69900 37.44100

