158

Mg 47.58200 14.93400 28.44700
C  45.60400 14.84700 31.13000
C  49.86800 16.88800 30.09300
C  49.51800 14.99300 25.61600
C  44.93000 13.66200 26.46300
N  47.69100 15.76800 30.34700
C  46.82300 15.45600 31.37400
C  47.22500 16.13100 32.67900
C  48.45700 16.99400 32.24600
C  48.73400 16.53500 30.84100
C  48.37000 18.53600 32.42400
C  47.45500 15.01300 33.77000
C  47.03900 15.51300 35.14200
H  47.19500 16.92800 35.62200
N  49.39300 15.69400 27.97400
C  50.22100 16.47500 28.84700
C  51.51100 16.69600 28.20900
C  51.48200 16.06200 26.99800
C  50.09100 15.54700 26.81100
C  52.69300 17.34200 28.86500
C  52.63000 15.83600 26.02700
O  52.48000 15.19900 25.02300
C  53.95100 16.50300 26.15200
N  47.25100 14.47000 26.36000
C  48.24700 14.43600 25.42100
C  47.75800 14.04800 24.03900
C  46.38200 13.45200 24.35900
C  46.14500 13.82400 25.85800
C  47.78100 15.22700 23.10700
C  46.40400 11.89700 24.04600
C  46.78800 10.98100 25.20800
N  45.58100 14.49800 28.65600
C  44.64800 13.91700 27.84400
C  43.47400 13.64600 28.50000
C  43.72400 13.96100 29.83400
C  45.05400 14.48800 29.89800
C  42.26500 12.88200 27.92800
C  43.20400 13.89400 31.15200
O  42.13100 13.56000 31.62300
C  44.40400 14.49400 32.03200
C  43.80100 15.66800 32.71500
O  43.63100 16.81200 32.33600
O  43.42800 15.19400 33.93800
C  42.63200 16.11900 34.75300
H  50.56800 17.56100 30.59200
H  50.09900 15.10300 24.69700
H  44.19100 13.19600 25.80600
H  46.36600 16.77700 32.85700
H  49.23500 16.70800 32.95300
H  49.32000 18.95000 32.76400
H  47.61000 18.98400 33.06400
H  48.22200 19.09300 31.49900
H  48.51800 14.77700 33.81000
H  46.80300 14.14700 33.65600
H  47.55600 14.88300 35.86600
H  45.96400 15.33700 35.12900
H  52.78700 18.29400 28.34200
H  53.55700 16.67800 28.85100
H  52.48400 17.62300 29.89700
H  53.95000 17.58800 26.26000
H  54.55200 16.20900 25.29200
H  54.48900 15.99100 26.95000
H  48.36500 13.25700 23.59800
H  45.58800 13.97500 23.82600
H  47.35800 16.12600 23.55400
H  47.20200 14.93500 22.23100
H  48.82500 15.43900 22.87700
H  47.13400 11.59400 23.29500
H  45.40000 11.57600 23.76800
H  46.71200 11.41500 26.20500
H  47.81100 10.62800 25.07800
H  46.11000 10.12700 25.21000
H  41.78200 13.47100 27.14900
H  41.62100 12.76400 28.80000
H  42.48900 11.89300 27.52700
H  44.62000 13.70700 32.75500
H  41.89500 16.61100 34.11800
H  43.30500 16.74800 35.33500
H  42.07600 15.50200 35.45900
Mg 30.75700 59.28800 38.83100
C  27.83200 57.37600 38.10700
C  32.59600 56.52000 38.17600
C  33.37700 61.18900 38.79700
C  28.62600 62.03200 39.26200
N  30.21800 57.26800 37.91700
C  28.94700 56.66700 37.92200
C  29.09500 55.21200 37.43400
C  30.55000 54.86800 37.99900
C  31.20900 56.31700 38.04800
C  30.54700 54.41400 39.48400
C  28.77300 55.14400 35.85600
C  27.55500 54.34100 35.46500
H  26.71100 55.03300 34.33600
N  32.65200 58.98300 38.28100
C  33.23500 57.71900 38.10500
C  34.64400 57.84200 37.82200
C  34.94800 59.26500 38.03000
C  33.62900 59.90500 38.40000
C  35.57900 56.71500 37.53200
C  36.34400 59.90800 37.93600
O  37.23200 59.11700 37.63500
C  36.69800 61.37000 38.26600
N  31.00300 61.32900 38.98300
C  32.19300 61.87000 39.11300
C  32.11000 63.35200 39.43500
C  30.58700 63.60100 39.67700
C  30.02300 62.23600 39.27400
C  33.06200 63.73600 40.64100
C  29.98000 64.73600 38.80900
C  28.87600 65.62400 39.43000
N  28.66200 59.66400 38.83500
C  27.97200 60.80900 39.06200
C  26.58300 60.56300 38.87200
C  26.40400 59.25600 38.51500
C  27.73300 58.72300 38.52300
C  25.43000 61.48900 39.06200
C  25.42800 58.26200 38.09700
O  24.17200 58.28000 38.12100
C  26.37600 56.97300 37.81100
C  26.02000 55.82900 38.67100
O  26.29000 55.71500 39.84800
O  25.23400 54.90400 38.02200
C  24.37200 54.13900 38.90400
H  33.16600 55.58900 38.19700
H  34.20400 61.90000 38.83900
H  27.99900 62.89300 39.50300
H  28.41100 54.60700 38.02900
H  31.11700 54.24200 37.31000
H  29.61900 53.91800 39.76700
H  30.64400 55.30500 40.10400
H  31.39800 53.73800 39.56900
H  29.73200 54.79700 35.47200
H  28.61200 56.11400 35.38600
H  27.00800 54.18900 36.39500
H  27.97500 53.43200 35.03500
H  35.13000 55.80300 37.14000
H  36.19900 56.39100 38.36800
H  36.24500 57.01300 36.72200
H  37.75000 61.47600 37.99900
H  36.51400 61.74600 39.27200
H  36.07800 61.92400 37.56100
H  32.44200 63.94600 38.58400
H  30.32000 63.75500 40.72300
H  34.02600 64.04300 40.23500
H  33.25800 62.89700 41.30900
H  32.59400 64.50200 41.25800
H  29.58700 64.30100 37.89000
H  30.74800 65.44700 38.50500
H  29.16900 66.59100 39.84000
H  28.34400 65.09800 40.22200
H  28.27700 65.83100 38.54300
H  24.87900 61.72700 38.15200
H  25.64700 62.24200 39.81900
H  24.72500 60.83600 39.57500
H  26.27500 56.68900 36.76300
H  23.99900 53.29600 38.32300
H  23.44800 54.70700 39.01400
H  24.72800 53.73100 39.84900

