158

Mg 43.97800 4.27600 46.79800
C  41.61600 6.75000 46.09400
C  41.57400 1.98400 46.35900
C  46.45200 1.98100 46.54000
C  46.25400 6.79600 47.49100
N  41.96000 4.35500 46.10300
C  41.16200 5.44200 45.81400
C  39.72300 4.99900 45.47900
C  39.66200 3.67000 46.22700
C  41.14000 3.28200 46.23900
C  39.17600 3.81100 47.71800
C  39.36500 4.94500 43.93700
C  38.35100 5.87000 43.44100
H  38.80300 6.54000 42.14100
N  44.00200 2.18200 46.53200
C  42.89400 1.46700 46.45100
C  43.30800 0.04200 46.31300
C  44.74400 -0.00600 46.26700
C  45.14900 1.43200 46.43400
C  42.41700 -1.13900 46.44700
C  45.58300 -1.32500 46.28800
O  45.06300 -2.37400 46.47000
C  47.06900 -1.34200 45.97200
N  46.00800 4.37800 46.88800
C  46.86600 3.28400 46.87600
C  48.31800 3.73000 47.15500
C  48.14700 5.12200 47.70500
C  46.67800 5.47300 47.29400
C  49.17900 2.68800 48.04200
C  49.24700 6.08600 47.18700
C  49.90200 6.93800 48.26000
N  43.97700 6.41500 46.76000
C  44.89300 7.30400 47.19900
C  44.45000 8.65700 47.02300
C  43.10300 8.48000 46.66300
C  42.89500 7.08700 46.51400
C  45.24500 9.92300 47.30100
C  41.89500 9.13600 46.30500
O  41.65000 10.31900 46.33300
C  40.80200 8.09100 46.00900
C  39.84800 8.16700 47.08100
O  39.97800 7.77200 48.28800
O  38.65800 8.77200 46.60200
C  37.44900 8.85100 47.37800
H  40.71400 1.32200 46.23700
H  47.30500 1.30600 46.44300
H  46.94500 7.51600 47.93500
H  38.95300 5.58300 45.98200
H  39.14000 2.88600 45.67900
H  39.88300 3.25300 48.33200
H  38.16900 3.39300 47.72600
H  39.22200 4.77300 48.22900
H  38.93700 3.97000 43.70200
H  40.29200 5.19600 43.42100
H  38.25600 6.61000 44.23600
H  37.43900 5.32600 43.19700
H  42.81600 -1.82900 45.70300
H  41.38100 -0.86100 46.25500
H  42.34000 -1.53300 47.46000
H  47.27000 -0.37600 45.51000
H  47.31800 -2.09900 45.22800
H  47.69800 -1.36400 46.86300
H  48.90400 3.86200 46.24500
H  48.22200 5.17000 48.79100
H  49.54500 3.24000 48.90800
H  49.98600 2.38700 47.37500
H  48.56200 1.86000 48.39100
H  48.89800 6.86500 46.50900
H  50.03100 5.59800 46.60800
H  49.66000 7.98900 48.10400
H  50.96400 6.69600 48.21400
H  49.53500 6.64700 49.24400
H  45.69600 10.27700 46.37400
H  46.12200 9.80600 47.93600
H  44.51100 10.66300 47.62100
H  40.39900 8.19000 45.00100
H  37.49300 8.45800 48.39400
H  36.70000 8.22200 46.89800
H  37.01300 9.84900 47.43400
Mg 41.05900 7.80700 29.81800
C  42.96300 9.42300 32.29200
C  39.06500 6.30700 32.16700
C  39.44300 6.20700 27.30900
C  43.62200 8.77200 27.49300
N  41.20500 7.69600 32.02400
C  41.87800 8.64500 32.82100
C  41.35600 8.51900 34.29000
C  40.19800 7.48900 34.25500
C  40.15800 7.05700 32.72100
C  40.45100 6.32100 35.17900
C  40.95200 9.93100 34.70400
C  40.63200 9.99400 36.24400
H  41.34100 11.10300 37.06000
N  39.48600 6.55200 29.73900
C  38.71000 6.09000 30.82100
C  37.66700 5.28200 30.29600
C  37.61700 5.41200 28.89700
C  38.87200 6.12600 28.60700
C  36.71900 4.35200 31.11200
C  36.63300 4.81600 27.91400
O  36.78600 4.94100 26.71700
C  35.40200 4.21600 28.37300
N  41.47800 7.40900 27.73500
C  40.65400 6.74900 26.95000
C  41.29000 6.60400 25.54900
C  42.61700 7.33200 25.62200
C  42.54100 7.94200 27.00600
C  41.39900 5.13600 25.06300
C  42.96800 8.26400 24.40300
C  42.29900 9.60500 24.46100
N  42.99200 8.95700 29.81400
C  43.88600 9.22000 28.81700
C  44.96500 9.93600 29.34900
C  44.64800 10.13900 30.69600
C  43.46100 9.44300 30.96000
C  46.28000 10.35800 28.69400
C  45.03000 10.67100 32.02500
O  46.05300 11.27500 32.28100
C  43.83800 10.38700 33.03400
C  44.35000 9.81100 34.30500
O  44.57900 8.64500 34.52300
O  44.60900 10.83200 35.20800
C  45.12700 10.34100 36.48500
H  38.35500 5.98200 32.92900
H  38.97100 5.74500 26.44000
H  44.35600 9.11000 26.75900
H  42.18800 8.22000 34.92800
H  39.28300 8.02900 34.50000
H  39.95400 5.36400 35.02100
H  40.08400 6.58900 36.17000
H  41.50800 6.17400 35.40500
H  40.10800 10.30500 34.12400
H  41.75600 10.64400 34.51900
H  40.76200 9.04800 36.77000
H  39.54800 10.10200 36.27100
H  36.88100 3.32500 30.78400
H  35.66000 4.61100 31.11200
H  37.07400 4.39200 32.14200
H  34.66800 4.37500 27.58300
H  35.06400 4.92900 29.12500
H  35.58700 3.19200 28.69700
H  40.60000 7.10500 24.87000
H  43.40000 6.57500 25.65500
H  40.77900 5.01200 24.17500
H  40.98200 4.46900 25.81800
H  42.41200 4.82700 24.80400
H  42.59600 7.84500 23.46900
H  44.05000 8.32100 24.27800
H  41.51000 9.71500 23.71800
H  43.07200 10.37300 24.42500
H  41.77200 9.80100 25.39400
H  46.10100 10.29200 27.62000
H  47.17900 9.82100 28.99800
H  46.41600 11.41300 28.93100
H  43.21800 11.25700 33.25200
H  46.16200 10.00100 36.51600
H  44.54100 9.56100 36.97100
H  45.18800 11.22000 37.12700

