158

Mg 25.86900 1.44100 29.10000
C  27.73300 1.03500 31.99800
C  23.00900 1.27900 31.09900
C  24.05500 1.60300 26.31400
C  28.73500 0.50000 27.19700
N  25.48800 1.16000 31.34500
C  26.37800 1.23100 32.34500
C  25.68300 1.31500 33.73300
C  24.17200 1.52200 33.38200
C  24.20400 1.22400 31.85000
C  23.30300 0.74000 34.37900
C  26.32500 2.46100 34.54000
C  25.49500 2.97400 35.76200
H  25.87400 2.63800 37.20900
N  23.83500 1.57200 28.78600
C  22.76700 1.39400 29.71200
C  21.57500 1.60700 29.05800
C  21.81000 1.75100 27.61100
C  23.27100 1.62300 27.48600
C  20.26300 1.65300 29.75600
C  20.86900 1.93800 26.50200
O  21.21600 1.80800 25.33700
C  19.40000 2.13300 26.77800
N  26.33800 0.95200 27.01200
C  25.44800 1.36100 26.02600
C  26.11700 1.49100 24.65800
C  27.56000 1.11500 24.99200
C  27.58900 0.80300 26.47500
C  25.49000 0.76900 23.43700
C  28.56800 2.20700 24.64800
C  30.03200 1.77100 24.20300
N  27.81100 1.01800 29.41000
C  28.83200 0.58800 28.58200
C  30.02700 0.42100 29.34200
C  29.67700 0.68800 30.60700
C  28.29600 0.93200 30.64600
C  31.34000 -0.05500 28.81500
C  30.20400 0.79100 31.95400
O  31.36900 0.62200 32.32000
C  28.97700 0.96400 32.89000
C  28.87000 -0.24600 33.81400
O  28.71900 -1.40800 33.46000
O  28.89900 0.19800 35.11300
C  28.45700 -0.81300 36.11300
H  22.16600 1.42300 31.77900
H  23.46600 1.79300 25.41500
H  29.62500 0.40600 26.57000
H  25.90700 0.40500 34.29000
H  23.74300 2.51300 33.53500
H  22.70000 0.05800 33.78000
H  22.71000 1.47400 34.92400
H  23.91900 0.02500 34.92500
H  26.50700 3.35700 33.94600
H  27.28900 2.21800 34.98700
H  24.46400 2.63200 35.67100
H  25.55800 4.05800 35.66100
H  19.77200 2.61700 29.62600
H  20.38700 1.63500 30.83800
H  19.64100 0.82200 29.42100
H  18.91800 1.21700 27.11800
H  18.91400 2.21500 25.80600
H  19.20200 2.95500 27.46600
H  26.05400 2.51900 24.29900
H  27.79400 0.19300 24.46100
H  24.74800 0.00100 23.65700
H  26.27800 0.41100 22.77400
H  24.79000 1.37000 22.85700
H  28.84100 2.85200 25.48300
H  28.22600 2.81700 23.81200
H  30.35100 2.43400 23.39900
H  29.89600 0.74100 23.87300
H  30.71500 1.83400 25.05100
H  31.93700 -0.40000 29.65900
H  31.85200 0.73200 28.26100
H  31.27300 -0.93400 28.17400
H  29.07400 1.82100 33.55700
H  28.97900 -1.76700 36.03900
H  27.38400 -1.00700 36.11000
H  28.80500 -0.36500 37.04400
Mg 29.83500 57.45200 40.95100
C  26.91700 55.87800 39.67500
C  31.62400 55.03500 39.24700
C  32.57700 59.46400 40.79700
C  27.79100 60.18000 41.74900
N  29.26900 55.55600 39.69800
C  28.07000 55.15900 39.29600
C  28.18300 53.91600 38.38900
C  29.63400 53.57000 38.51500
C  30.22700 54.84600 39.14700
C  29.92600 52.35500 39.43000
C  27.62700 54.05500 36.93600
C  27.88800 55.37900 36.17800
H  27.03300 55.55500 34.93900
N  31.87000 57.15600 40.45100
C  32.38200 56.11400 39.73100
C  33.83500 56.21300 39.70100
C  34.16500 57.52800 40.19200
C  32.86100 58.17300 40.46900
C  34.70900 55.26200 38.95100
C  35.58500 58.03100 40.30600
O  36.54900 57.38200 39.95600
C  35.85300 59.36000 40.96600
N  30.08400 59.43500 41.29600
C  31.33300 60.03000 41.22300
C  31.29300 61.59700 41.33800
C  29.83400 61.77800 42.00000
C  29.15100 60.38800 41.71400
C  32.36600 62.18700 42.27800
C  29.08900 63.01300 41.41700
C  28.88600 64.20900 42.43200
N  27.73800 57.94300 40.97200
C  27.07700 59.01900 41.44900
C  25.67400 58.79900 41.29100
C  25.55900 57.51200 40.75600
C  26.86800 57.11600 40.41600
C  24.56500 59.79200 41.63900
C  24.62500 56.46200 40.22700
O  23.42100 56.37700 40.30000
C  25.46300 55.48200 39.41100
C  25.27500 54.08100 39.92700
O  25.66600 53.65300 41.04100
O  24.51600 53.34100 39.04300
C  24.27200 51.91500 39.48800
H  32.28800 54.23300 38.91900
H  33.43300 60.10300 40.57000
H  27.21000 60.97100 42.22600
H  27.51000 53.15600 38.78700
H  30.15700 53.49800 37.56200
H  29.47800 51.49600 38.93000
H  29.36300 52.51200 40.35000
H  31.00000 52.28700 39.60500
H  26.62200 53.63600 36.89300
H  28.33100 53.39900 36.42400
H  28.95700 55.39600 35.96900
H  27.67500 56.16500 36.90400
H  35.37400 55.80300 38.27700
H  34.20000 54.52000 38.33600
H  35.37600 54.89100 39.73000
H  35.62900 60.08800 40.18700
H  36.88300 59.56900 41.25300
H  35.12800 59.52500 41.76400
H  31.24500 62.03300 40.34000
H  29.84800 61.76700 43.09000
H  33.04100 62.93300 41.85800
H  33.11100 61.42900 42.52100
H  31.88500 62.60200 43.16400
H  28.13800 62.77000 40.94300
H  29.66000 63.41600 40.58000
H  29.05500 65.15800 41.92400
H  29.68000 64.15600 43.17700
H  27.91800 64.29800 42.92500
H  24.39800 60.48800 40.81700
H  24.98700 60.45100 42.39800
H  23.58900 59.45700 41.99000
H  25.27500 55.47600 38.33800
H  25.29400 51.53500 39.50200
H  23.87500 51.36900 38.63200
H  23.77500 51.64300 40.42000

