158

Mg 49.59200 35.52200 27.78700
C  47.31400 34.18900 30.32000
C  50.13000 38.20300 29.84600
C  51.30200 36.96900 25.29300
C  48.61300 32.96700 25.74100
N  48.80900 36.11300 29.87200
C  47.90100 35.44600 30.70300
C  47.63900 36.27400 31.95000
C  48.51800 37.55500 31.71700
C  49.18000 37.28400 30.44000
C  47.73900 38.93300 31.80200
C  47.99600 35.61300 33.30800
C  49.25000 34.69600 33.32300
H  50.55300 35.17700 33.96800
N  50.81100 37.22300 27.72300
C  50.92900 38.18700 28.67300
C  51.99200 39.16300 28.23600
C  52.38400 38.67800 26.99900
C  51.52100 37.52200 26.61600
C  52.47400 40.21700 29.23500
C  53.46800 39.29900 26.13400
O  53.75700 38.76500 25.08900
C  54.07300 40.71300 26.48500
N  49.98200 35.01300 25.76500
C  50.66100 35.78100 24.86600
C  50.85300 35.07900 23.48900
C  49.94500 33.81100 23.64000
C  49.46700 33.90700 25.12800
C  50.59900 36.00700 22.23700
C  50.60100 32.42700 23.29500
C  49.62500 31.61700 22.49900
N  48.26300 33.94600 27.97300
C  48.04800 32.88400 27.04700
C  47.11500 31.89200 27.55600
C  46.77100 32.40200 28.83200
C  47.50700 33.61500 29.08100
C  46.68300 30.63600 26.86700
C  45.90900 32.13600 29.96100
O  45.09400 31.24200 30.15400
C  46.07800 33.33000 30.88100
C  46.26600 32.88500 32.26300
O  47.18300 32.22300 32.70600
O  45.26600 33.34200 33.08700
C  45.21500 32.87600 34.47300
H  50.26300 39.13200 30.40500
H  51.73000 37.47400 24.42400
H  48.52800 32.04600 25.16100
H  46.57300 36.49500 31.89800
H  49.24200 37.63100 32.52800
H  47.52900 39.53200 30.91600
H  48.36800 39.58700 32.40500
H  46.81300 38.94500 32.37800
H  47.11700 35.07100 33.65600
H  48.10500 36.30800 34.14100
H  49.61500 34.29900 32.37600
H  49.08100 33.84100 33.97800
H  53.20700 39.69600 29.85100
H  51.61500 40.57200 29.80400
H  52.83400 41.10300 28.71000
H  53.30600 41.48400 26.41400
H  54.77500 40.92300 25.67700
H  54.54800 40.62500 27.46200
H  51.90200 34.80900 23.37100
H  49.05800 33.97200 23.02700
H  50.46200 37.07500 22.40500
H  49.74000 35.58600 21.71500
H  51.54800 35.97400 21.70200
H  50.82800 31.84300 24.18800
H  51.55200 32.51100 22.77000
H  48.71300 32.08800 22.13100
H  49.27900 30.65300 22.87100
H  50.08000 31.53400 21.51100
H  45.90500 30.86800 26.13900
H  46.31600 29.91500 27.59700
H  47.58000 30.23000 26.40000
H  45.22300 34.00300 30.81900
H  44.78600 31.87500 34.52000
H  44.73600 33.58600 35.14700
H  46.22100 32.74500 34.87100
Mg -5.58600 24.96800 25.38000
C  -3.84800 26.37700 28.24500
C  -7.32500 22.98300 27.65900
C  -6.99400 23.47300 22.80400
C  -3.52200 26.81600 23.26800
N  -5.50600 24.73300 27.66900
C  -4.91400 25.52000 28.63500
C  -5.33800 25.11000 30.08600
C  -6.17400 23.81000 29.81200
C  -6.32700 23.80600 28.27200
C  -5.68900 22.45000 30.44900
C  -6.07400 26.34500 30.70800
C  -5.80500 26.51000 32.24200
H  -5.56200 25.33100 33.22900
N  -7.02800 23.50800 25.28000
C  -7.66600 22.93300 26.34300
C  -8.80900 22.18200 25.81500
C  -8.68900 22.23500 24.42000
C  -7.57600 23.13700 24.08700
C  -9.72600 21.21100 26.77100
C  -9.49800 21.43400 23.41200
O  -9.17800 21.35100 22.21700
C  -10.61900 20.57600 23.95200
N  -5.18100 24.95800 23.27400
C  -5.99400 24.32900 22.40200
C  -5.63600 24.64800 21.00000
C  -4.69500 25.94200 21.15800
C  -4.38400 25.90200 22.64000
C  -5.06100 23.33200 20.38600
C  -5.38100 27.26200 20.59900
C  -4.50100 28.02200 19.64500
N  -3.91600 26.28800 25.61600
C  -3.25300 26.99800 24.68100
C  -2.28300 27.81600 25.34200
C  -2.50300 27.60400 26.77300
C  -3.49000 26.63000 26.86400
C  -1.35000 28.79000 24.68200
C  -2.14100 28.04100 28.08100
O  -1.46100 28.96900 28.45400
C  -2.89700 27.18700 29.07200
C  -2.05000 26.34400 29.92300
O  -1.29900 25.47100 29.45100
O  -2.13500 26.72700 31.26800
C  -1.54700 25.73800 32.10700
H  -7.68400 22.28100 28.41400
H  -7.43200 23.04500 21.89900
H  -3.05000 27.56300 22.62600
H  -4.43500 24.91000 30.66300
H  -7.17000 23.95900 30.22700
H  -4.95000 22.66600 31.22100
H  -5.25800 21.79000 29.69800
H  -6.53300 21.90800 30.87500
H  -7.11900 26.18900 30.44100
H  -5.64800 27.23100 30.23700
H  -6.73400 26.99500 32.54000
H  -5.01800 27.25700 32.35500
H  -9.83800 20.20700 26.36300
H  -10.68200 21.73500 26.77300
H  -9.25700 21.19400 27.75500
H  -11.12900 20.28500 23.03400
H  -11.16800 21.26400 24.59500
H  -10.25900 19.70300 24.49700
H  -6.53900 24.87700 20.43400
H  -3.79400 25.76500 20.57000
H  -3.97300 23.28000 20.40700
H  -5.46300 23.19400 19.38300
H  -5.40300 22.45800 20.94000
H  -5.72500 27.93700 21.38300
H  -6.21500 26.89900 19.99900
H  -4.59200 29.10100 19.76700
H  -4.96600 27.78000 18.68900
H  -3.44900 27.73600 19.64100
H  -2.00200 29.54700 24.24500
H  -0.75000 28.17500 24.01100
H  -0.82800 29.27000 25.51000
H  -3.48000 27.90200 29.65300
H  -1.70400 24.74100 31.69400
H  -2.09800 25.76100 33.04700
H  -0.47500 25.86400 32.25900

