158

Mg 1.12600 7.91400 24.99500
C  1.76000 10.02600 27.95200
C  1.41400 5.28100 26.84600
C  0.87200 6.26000 22.21800
C  1.52200 10.97300 23.16900
N  1.52700 7.68000 27.22600
C  1.55600 8.63200 28.27800
C  1.58800 7.94200 29.63000
C  1.62000 6.41000 29.25900
C  1.56300 6.42400 27.65300
C  2.77700 5.56000 29.92600
C  0.36900 8.57200 30.41000
C  0.19500 8.06500 31.79700
H  1.46500 7.79700 32.60000
N  0.98900 6.02400 24.53900
C  1.06800 5.01100 25.46900
C  1.03500 3.72900 24.79200
C  0.92400 3.98200 23.44900
C  0.92600 5.45400 23.37400
C  1.06400 2.49200 25.64300
C  0.91600 2.96400 22.27400
O  0.97400 3.30800 21.09000
C  0.81200 1.46700 22.56400
N  1.21300 8.49100 23.01900
C  1.12200 7.63400 21.99200
C  1.10900 8.29200 20.58000
C  0.72500 9.76800 20.98300
C  1.18400 9.80300 22.42800
C  2.35600 8.03600 19.64500
C  -0.76000 10.08000 20.78700
C  -1.06400 11.19000 19.84500
N  1.50800 10.09700 25.39000
C  1.63600 11.14800 24.57600
C  1.97300 12.35800 25.34300
C  1.97500 11.88900 26.60100
C  1.75900 10.53100 26.60900
C  2.19700 13.71700 24.73800
C  2.25100 12.38900 27.95200
O  2.57300 13.49500 28.41900
C  2.13400 11.13100 28.81800
C  3.31300 10.84200 29.58500
O  4.41800 10.53400 29.09400
O  3.13100 11.36700 30.84400
C  4.27700 11.10800 31.74100
H  1.53000 4.44400 27.53800
H  0.85400 5.71200 21.27400
H  1.64900 11.90700 22.61800
H  2.55300 8.20700 30.06300
H  0.64100 6.13100 29.64800
H  3.31300 4.92100 29.22500
H  2.39200 4.87900 30.68500
H  3.48600 6.12800 30.52700
H  -0.57000 8.53700 29.85800
H  0.42300 9.66100 30.39300
H  -0.34700 7.12200 31.73200
H  -0.38900 8.85000 32.27800
H  2.05500 2.04300 25.57500
H  0.19900 1.92500 25.30000
H  0.99900 2.64200 26.72000
H  -0.00900 1.30800 23.26300
H  1.74100 1.21000 23.07400
H  0.65700 0.89700 21.64900
H  0.22200 7.80400 20.17600
H  1.29600 10.48300 20.39000
H  2.95200 8.93300 19.47400
H  1.94900 7.76400 18.67100
H  2.89500 7.18800 20.06700
H  -1.12100 10.19300 21.81000
H  -1.31700 9.20700 20.44800
H  -1.75900 11.90000 20.29200
H  -1.55700 10.76800 18.96900
H  -0.20800 11.81500 19.58900
H  1.38300 13.99000 24.06700
H  3.16300 13.63800 24.23800
H  2.57400 14.46500 25.43500
H  1.30900 11.34300 29.49900
H  3.94900 11.40600 32.73700
H  5.11000 11.74800 31.44800
H  4.47600 10.03700 31.77700
Mg 47.66100 34.42400 27.00600
C  46.05800 33.33800 30.00400
C  48.54900 37.19900 28.57500
C  49.03800 35.22800 24.12700
C  46.43800 31.43100 25.50600
N  47.34800 35.07300 29.09600
C  46.75100 34.55500 30.17200
C  46.96800 35.45500 31.44200
C  47.35500 36.82000 30.74300
C  47.81600 36.34100 29.39300
C  46.19000 37.88300 30.51800
C  48.12900 34.86600 32.37200
C  47.72700 34.56600 33.88900
H  48.52800 35.40500 34.90700
N  48.58200 36.08200 26.40000
C  48.92200 37.15600 27.19900
C  49.58800 38.15900 26.32600
C  49.65900 37.61400 25.05500
C  49.05500 36.26200 25.12900
C  50.00600 39.46500 26.82800
C  50.12600 38.24300 23.85900
O  50.07000 37.73000 22.75400
C  50.63000 39.63200 23.90100
N  47.67100 33.41300 25.02000
C  48.43400 33.99200 24.04200
C  48.50800 33.01700 22.85500
C  47.64800 31.83200 23.24200
C  47.26700 32.18400 24.68200
C  48.09800 33.72000 21.49600
C  48.36300 30.48900 22.97500
C  49.46300 29.99800 24.02700
N  46.48700 32.75900 27.53700
C  46.15800 31.63700 26.85400
C  45.34200 30.77000 27.75500
C  45.24400 31.46700 28.91700
C  46.07700 32.58600 28.78100
C  44.73000 29.46000 27.50500
C  44.65200 31.34200 30.25300
O  43.98600 30.44400 30.74300
C  45.00400 32.68200 30.88900
C  45.18200 32.55800 32.33600
O  46.19400 32.20800 32.85300
O  43.91600 32.78500 32.92000
C  43.64300 32.34500 34.25000
H  48.89400 38.11300 29.06300
H  49.69500 35.40000 23.27200
H  46.14900 30.49300 25.02700
H  45.98900 35.44400 31.91900
H  48.14800 37.33600 31.28500
H  45.89700 38.02300 29.47700
H  46.60100 38.83900 30.84100
H  45.29000 37.81100 31.12900
H  48.93900 35.59000 32.46100
H  48.53400 33.96200 31.91900
H  47.98000 33.56300 34.23100
H  46.65400 34.71500 34.00700
H  50.95900 39.81100 26.42700
H  50.08400 39.30800 27.90400
H  49.20600 40.19000 26.67500
H  51.65500 39.61500 24.27100
H  49.87000 40.22400 24.41100
H  50.60200 40.01500 22.88100
H  49.54600 32.70000 22.75400
H  46.74400 31.82400 22.63300
H  47.31100 33.09700 21.07200
H  48.96600 33.67500 20.83800
H  47.81100 34.74000 21.75100
H  48.87400 30.55000 22.01400
H  47.62800 29.68400 22.98000
H  49.72000 30.72200 24.79900
H  50.32200 29.53100 23.54300
H  48.99300 29.20600 24.61000
H  43.68100 29.45000 27.80300
H  45.32000 28.61500 27.86100
H  44.69300 29.32500 26.42400
H  44.12000 33.31600 30.83200
H  43.02200 31.45100 34.29500
H  43.18400 33.15000 34.82400
H  44.58800 32.04000 34.70100

