158

Mg 8.67400 3.53400 27.86800
C  10.10000 1.56600 30.54400
C  6.83300 5.32500 30.08300
C  7.38000 5.15400 25.29200
C  10.13200 1.08500 25.74600
N  8.37900 3.30400 30.02500
C  9.19800 2.60700 30.93400
C  8.95700 3.19900 32.33700
C  7.62600 4.03100 32.19100
C  7.55700 4.30900 30.65400
C  6.34100 3.30100 32.63200
C  10.17000 3.91600 33.07100
C  9.88000 4.73600 34.29600
H  10.75000 4.57200 35.49900
N  7.26900 4.99000 27.73500
C  6.68900 5.67300 28.76300
C  5.75200 6.68300 28.26300
C  5.92000 6.66100 26.81800
C  6.94300 5.60300 26.52000
C  4.93300 7.64100 29.11400
C  5.14000 7.36100 25.77200
O  5.18400 7.11200 24.53200
C  4.16400 8.41600 26.08100
N  8.66700 3.06200 25.85600
C  8.10200 3.95700 24.99100
C  8.52700 3.60800 23.52300
C  9.09200 2.16900 23.62800
C  9.40100 2.11900 25.16600
C  7.34600 3.76700 22.52300
C  10.28700 1.95900 22.66900
C  10.12300 0.72300 21.76500
N  10.04000 1.78000 28.04800
C  10.49500 0.93400 27.10400
C  11.28400 -0.18700 27.68000
C  11.20800 0.07300 29.06700
C  10.40300 1.25000 29.20500
C  11.95300 -1.37500 27.12300
C  11.64400 -0.37100 30.34200
O  12.34200 -1.36500 30.66500
C  11.06700 0.66500 31.34300
C  10.35900 -0.11600 32.38600
O  9.48700 -0.94400 32.16500
O  10.91000 0.27300 33.57900
C  10.39900 -0.29900 34.76100
H  6.29300 5.99300 30.75600
H  7.00300 5.73400 24.44700
H  10.49000 0.36300 25.00900
H  8.74500 2.36700 33.00800
H  7.70300 4.92500 32.81100
H  6.50300 2.92100 33.64000
H  6.14700 2.49600 31.92200
H  5.59600 4.09500 32.62900
H  10.70000 4.53500 32.34700
H  10.83100 3.10600 33.37900
H  8.84800 4.72700 34.64900
H  10.09800 5.78300 34.08600
H  3.88300 7.54900 28.83600
H  5.21500 8.66000 28.84900
H  5.10800 7.58500 30.18800
H  3.32600 8.11500 26.70900
H  3.67500 8.67700 25.14200
H  4.76600 9.25300 26.43600
H  9.27500 4.34200 23.22400
H  8.31300 1.42200 23.47900
H  6.41000 4.08900 22.98000
H  7.21900 2.79300 22.04900
H  7.54600 4.48400 21.72800
H  11.25800 1.96200 23.16500
H  10.34300 2.87000 22.07300
H  10.99100 0.06400 21.80100
H  10.02900 1.01400 20.71900
H  9.28500 0.10400 22.08400
H  12.99400 -1.29100 26.81000
H  11.30600 -1.71900 26.31700
H  11.99900 -2.13900 27.89900
H  11.86400 1.31200 31.70900
H  10.05500 0.51500 35.39900
H  11.21500 -0.80500 35.27600
H  9.53000 -0.93700 34.60200
Mg -4.37100 25.48200 26.21800
C  -2.74500 26.97900 28.96000
C  -5.43000 22.94600 28.32400
C  -5.42900 23.79400 23.54200
C  -2.75100 27.81400 24.12100
N  -4.19700 25.09400 28.39100
C  -3.52900 25.88200 29.32800
C  -3.94400 25.43000 30.67400
C  -4.35100 23.94600 30.43400
C  -4.64800 23.97100 28.91500
C  -3.35100 22.84800 30.88500
C  -5.15600 26.24500 31.29000
C  -5.07700 26.53500 32.76700
H  -4.69600 25.28800 33.66700
N  -5.33000 23.70900 25.94400
C  -5.71200 22.78000 26.95400
C  -6.37800 21.63000 26.27200
C  -6.08600 21.75000 24.91600
C  -5.57200 23.13700 24.76200
C  -6.89100 20.43000 27.07400
C  -6.36700 20.81400 23.83400
O  -5.99000 21.00300 22.67000
C  -7.07200 19.49900 24.09800
N  -4.24100 25.80000 24.19200
C  -4.85100 25.02000 23.31200
C  -4.74600 25.56500 21.86600
C  -3.91200 26.86900 21.95800
C  -3.57200 26.88000 23.50500
C  -4.19600 24.57900 20.82100
C  -4.68100 28.12900 21.55800
C  -4.78700 28.44100 20.05000
N  -3.10100 27.17300 26.49600
C  -2.44500 27.93200 25.53100
C  -1.53400 28.84300 26.18200
C  -1.63100 28.52100 27.52800
C  -2.57900 27.49900 27.65900
C  -0.53700 29.69100 25.40400
C  -1.04000 28.74700 28.85700
O  -0.17300 29.55200 29.14300
C  -1.82000 27.81300 29.82200
C  -0.83100 27.15500 30.81100
O  -0.31700 26.08500 30.65100
O  -0.69900 27.98100 31.88400
C  -0.14100 27.30200 33.05600
H  -5.63200 22.09100 28.97200
H  -5.91600 23.24300 22.73500
H  -2.28900 28.51200 23.42000
H  -3.09200 25.49500 31.35000
H  -5.31000 23.78500 30.92600
H  -2.38000 23.30100 31.08600
H  -3.22200 21.99500 30.22000
H  -3.58300 22.25100 31.76600
H  -6.06600 25.75200 30.94800
H  -5.24200 27.16200 30.70700
H  -6.09400 26.83600 33.01800
H  -4.40900 27.38900 32.87600
H  -7.98000 20.45000 27.03500
H  -6.70300 20.50000 28.14600
H  -6.45200 19.48200 26.76300
H  -6.38800 18.80100 24.57900
H  -7.41100 18.97700 23.20300
H  -7.86700 19.59600 24.83700
H  -5.70800 25.83700 21.43200
H  -2.95000 26.82900 21.44800
H  -3.41400 25.05200 20.22700
H  -4.86200 24.27800 20.01100
H  -3.91200 23.71500 21.42200
H  -4.22700 29.04000 21.94900
H  -5.70300 28.08500 21.93700
H  -4.13600 27.78100 19.47500
H  -4.57500 29.48400 19.81700
H  -5.84600 28.28500 19.84500
H  -0.02600 30.53200 25.87200
H  -1.16000 30.17200 24.65000
H  0.17100 29.05700 24.86800
H  -2.46200 28.46500 30.41500
H  -0.81700 27.37700 33.90800
H  0.77300 27.82300 33.33800
H  0.03700 26.22700 33.09700

