158

Mg 16.55800 -1.90800 27.64000
C  15.38300 0.18700 30.24900
C  18.39900 -3.58700 29.97900
C  17.91200 -3.55100 25.13000
C  14.81200 0.11900 25.37000
N  17.11300 -1.48000 29.87700
C  16.34200 -0.71300 30.72800
C  16.69900 -1.11300 32.15800
C  17.77700 -2.20700 32.09400
C  17.80500 -2.46100 30.57600
C  19.17300 -1.94500 32.65100
C  15.37100 -1.31300 33.02200
C  15.25000 -0.45600 34.29100
H  16.52000 0.10400 34.98000
N  17.92800 -3.35400 27.54100
C  18.56900 -3.92900 28.61600
C  19.31500 -5.03300 28.05500
C  19.28200 -4.96000 26.61400
C  18.37700 -3.92100 26.36700
C  20.11300 -6.01400 28.96000
C  19.89400 -5.94600 25.54900
O  19.72500 -5.86500 24.32900
C  20.66000 -7.14900 26.07000
N  16.39100 -1.73600 25.49700
C  17.07300 -2.50200 24.68300
C  16.84500 -2.10300 23.18600
C  15.55000 -1.18900 23.37500
C  15.49800 -0.92300 24.82100
C  18.09800 -1.39900 22.62900
C  14.23000 -1.81800 22.83400
C  13.40800 -0.87000 21.98200
N  15.23500 -0.17900 27.75600
C  14.59800 0.53400 26.76300
C  13.82600 1.53800 27.37900
C  14.03300 1.42700 28.79000
C  14.91400 0.37800 28.95400
C  12.81900 2.39200 26.64000
C  13.62300 1.99700 30.05000
O  12.82200 2.91100 30.27000
C  14.47200 1.21800 31.08800
C  15.29100 2.29700 31.70700
O  16.38800 2.57900 31.14600
O  14.65800 2.98600 32.73100
C  15.50900 4.06800 33.18900
H  18.85500 -4.26700 30.70200
H  18.28700 -4.04300 24.23000
H  14.24000 0.77900 24.71400
H  17.20800 -0.21900 32.51900
H  17.43600 -3.16500 32.48700
H  19.50500 -2.69700 33.36700
H  19.10100 -0.96100 33.11400
H  19.88000 -1.84300 31.82800
H  15.28700 -2.38500 33.20000
H  14.39300 -1.18700 32.55600
H  14.82200 -1.17200 34.99200
H  14.54500 0.33500 34.03700
H  19.71100 -6.99100 28.69400
H  19.87200 -5.88900 30.01500
H  21.20000 -5.96700 28.88200
H  21.13200 -7.55400 25.17500
H  20.07000 -7.95700 26.50400
H  21.42800 -6.80500 26.76400
H  16.72100 -3.06300 22.68500
H  15.65100 -0.29700 22.75700
H  17.89900 -0.73000 21.79300
H  18.81000 -2.16700 22.32600
H  18.68700 -0.82500 23.34500
H  13.63600 -2.19600 23.66600
H  14.41000 -2.72900 22.26200
H  12.98000 -0.16500 22.69400
H  12.54000 -1.35300 21.53200
H  13.91200 -0.31100 21.19300
H  12.81200 2.27000 25.55600
H  12.85400 3.46100 26.85100
H  11.78200 2.16900 26.89200
H  13.91200 0.67400 31.84900
H  15.64500 4.70200 32.31300
H  16.46700 3.69000 33.54500
H  15.09400 4.58500 34.05400
Mg 27.46900 50.38500 25.81100
C  25.18200 51.17200 28.37900
C  29.48000 48.80700 28.07700
C  29.75600 49.90700 23.33300
C  25.18300 51.55200 23.45300
N  27.35700 50.22500 27.97600
C  26.33000 50.50100 28.80200
C  26.58900 50.06200 30.25500
C  28.06900 49.47800 30.08600
C  28.36600 49.47300 28.60900
C  29.17500 50.21800 30.84700
C  25.55800 49.14100 30.93700
C  24.83000 49.67900 32.25500
H  25.74500 50.15600 33.39600
N  29.34300 49.48500 25.74500
C  30.05700 48.83800 26.79000
C  31.21600 48.19000 26.24600
C  31.36500 48.67100 24.91500
C  30.18800 49.45400 24.63900
C  32.12700 47.41900 27.17100
C  32.52700 48.61800 23.99900
O  32.56300 49.10800 22.87700
C  33.74800 47.88600 24.49300
N  27.49000 50.77200 23.72600
C  28.49800 50.34500 22.93800
C  28.07800 50.30200 21.44300
C  26.54800 50.62900 21.51600
C  26.39200 51.05400 22.99700
C  29.03000 51.13200 20.49800
C  25.61000 49.47200 21.09500
C  24.83100 49.76200 19.77900
N  25.59700 51.31100 25.83300
C  24.82600 51.76200 24.82500
C  23.60300 52.36300 25.37300
C  23.68800 52.15000 26.76300
C  24.92400 51.45000 27.00200
C  22.51700 53.08000 24.63700
C  23.00300 52.32600 28.02400
O  21.91800 52.79700 28.32400
C  24.03700 51.76700 29.11300
C  24.43300 52.98900 29.91500
O  25.38500 53.65800 29.68900
O  23.64800 53.10100 31.08500
C  23.99800 54.25300 31.97700
H  30.06000 48.25100 28.81600
H  30.40900 49.67100 22.48900
H  24.52600 51.75100 22.60300
H  26.60000 51.01500 30.78500
H  28.03200 48.45000 30.44900
H  29.56200 49.47700 31.54600
H  28.75300 50.98600 31.49600
H  30.07000 50.52700 30.30600
H  26.03200 48.18400 31.15800
H  24.70300 48.97100 30.28200
H  24.34200 48.78500 32.64200
H  24.21400 50.55000 32.02800
H  32.75400 48.17000 27.65200
H  32.83000 46.67800 26.79200
H  31.52100 46.88100 27.90000
H  33.70400 46.79700 24.48800
H  33.91900 48.25900 25.50300
H  34.50100 48.28200 23.81200
H  28.13000 49.25000 21.16000
H  26.34700 51.49500 20.88500
H  29.48500 50.39000 19.84200
H  29.75200 51.65600 21.12400
H  28.46700 51.69600 19.75400
H  24.81600 49.33700 21.83100
H  26.07800 48.50300 20.92500
H  25.26200 48.98200 19.15100
H  25.15200 50.68500 19.29700
H  23.74800 49.63900 19.76400
H  21.79600 53.66700 25.20600
H  22.04800 52.32800 24.00300
H  23.02500 53.78300 23.97600
H  23.49700 51.03600 29.71500
H  24.67800 53.87300 32.73900
H  23.03500 54.56900 32.37800
H  24.41200 55.11400 31.45200

