158

Mg 9.02800 3.91100 27.64400
C  10.59000 2.22100 30.45800
C  7.42900 5.92500 29.76200
C  7.35100 5.17900 25.05000
C  10.39000 1.37700 25.65800
N  8.86000 3.91800 29.88700
C  9.73200 3.33100 30.77700
C  9.56700 3.97200 32.18200
C  8.38000 4.98400 31.96600
C  8.16200 4.95500 30.46700
C  7.14200 4.69900 32.77400
C  10.88500 4.51300 32.78800
C  10.71000 5.13200 34.24600
H  11.58000 4.68000 35.37000
N  7.47200 5.26200 27.41800
C  7.00100 6.03400 28.44100
C  6.09900 7.01900 27.91500
C  6.25400 6.91400 26.51100
C  7.08400 5.78100 26.23500
C  5.27700 7.93000 28.82100
C  5.59300 7.77900 25.42000
O  5.93900 7.74600 24.22600
C  4.40100 8.54500 25.72200
N  9.04500 3.41700 25.58800
C  8.19100 4.05100 24.73900
C  8.20400 3.36100 23.35500
C  9.16300 2.17600 23.56600
C  9.57200 2.30800 25.02900
C  6.82900 3.02000 22.80600
C  10.38900 2.17600 22.61100
C  10.66600 0.84700 21.78200
N  10.31200 2.18700 27.95700
C  10.77600 1.29700 27.03400
C  11.67600 0.36300 27.62200
C  11.67300 0.67000 29.02400
C  10.83500 1.77700 29.18200
C  12.51400 -0.70400 26.92900
C  12.07800 0.22900 30.29800
O  12.64400 -0.79200 30.60400
C  11.59500 1.37400 31.29600
C  11.01600 0.61700 32.56500
O  9.99200 -0.08200 32.62100
O  11.82700 0.83500 33.67000
C  11.44100 0.27500 34.99500
H  7.07200 6.77400 30.34800
H  6.77500 5.57400 24.21100
H  10.69000 0.56700 24.98900
H  9.36400 3.17800 32.90000
H  8.86200 5.89700 32.31700
H  6.29200 4.44400 32.14200
H  6.87200 5.60500 33.31600
H  7.30200 3.84900 33.43700
H  11.24000 5.29400 32.11500
H  11.67000 3.75800 32.76200
H  9.65400 5.11300 34.51500
H  10.98700 6.15600 33.99500
H  5.54000 8.94600 28.52400
H  5.47700 7.91500 29.89300
H  4.20600 7.78600 28.67700
H  3.91000 8.75500 24.77200
H  4.64700 9.48300 26.22000
H  3.76700 8.01800 26.43500
H  8.64400 4.01300 22.60100
H  8.57800 1.27600 23.37800
H  6.14100 2.99700 23.65100
H  6.77400 2.00300 22.41700
H  6.48600 3.77200 22.09600
H  11.30700 2.44700 23.13200
H  10.29900 3.05600 21.97400
H  9.85600 0.15900 22.02500
H  11.60700 0.41200 22.11900
H  10.78300 0.91900 20.70000
H  13.19000 -1.07200 27.70000
H  12.99500 -0.17300 26.10700
H  11.93300 -1.45100 26.38800
H  12.47800 1.88800 31.67700
H  11.71000 1.02800 35.73500
H  12.17100 -0.50000 35.23000
H  10.39100 0.00900 35.11900
Mg 48.28100 44.83100 43.49000
C  44.82600 45.30200 42.36000
C  48.10600 41.69900 41.90300
C  51.64800 44.66800 43.60000
C  48.28700 48.24800 44.36400
N  46.54900 43.63000 42.19600
C  45.25700 44.02400 41.94300
C  44.60200 42.89400 41.13600
C  45.53300 41.65300 41.45200
C  46.80200 42.32500 41.94700
C  45.00500 40.46400 42.37900
C  44.31900 43.31300 39.63500
C  43.58400 42.34300 38.74400
H  44.28700 41.66300 37.57600
N  49.76800 43.35700 42.89600
C  49.44600 42.17700 42.22600
C  50.67200 41.46800 42.08200
C  51.70800 42.27000 42.56700
C  51.07700 43.47000 43.04500
C  50.70100 39.96400 41.44400
C  53.19300 41.97400 42.63100
O  53.57500 40.98200 42.14000
C  54.13500 42.89900 43.17800
N  49.80400 46.32600 43.81300
C  51.10800 45.97000 43.91400
C  51.93400 47.16000 44.41600
C  50.84900 48.24100 44.90300
C  49.53300 47.61900 44.25200
C  52.91300 46.79400 45.53800
C  51.19600 49.65100 44.50700
C  51.48200 50.71900 45.54500
N  46.85000 46.41000 43.49400
C  46.99400 47.67300 43.97800
C  45.73000 48.45900 43.82500
C  44.85300 47.57400 43.22600
C  45.59500 46.33200 43.02200
C  45.47700 49.91500 44.32400
C  43.49900 47.34700 42.74400
O  42.47900 48.07800 42.69700
C  43.44300 45.90300 42.06500
C  42.17900 45.13300 42.43200
O  41.20200 44.91100 41.70100
O  42.24900 44.93400 43.78600
C  41.06300 44.48200 44.51100
H  48.06900 40.63600 41.65400
H  52.72300 44.62600 43.78500
H  48.28400 49.27000 44.74800
H  43.66000 42.62600 41.61500
H  45.87000 41.28200 40.48400
H  43.95400 40.52000 42.66400
H  45.66600 40.38700 43.24200
H  45.25700 39.49700 41.94300
H  45.29500 43.58500 39.23600
H  43.76600 44.25100 39.68100
H  42.70600 42.80900 38.29500
H  43.12000 41.60300 39.39500
H  49.86400 39.65400 40.81900
H  50.91600 39.19200 42.18300
H  51.51900 39.75900 40.75300
H  55.13600 42.48100 43.06400
H  53.89300 42.95900 44.23900
H  54.19200 43.83000 42.61400
H  52.42800 47.59700 43.54800
H  50.68100 48.09600 45.97000
H  53.90500 46.48400 45.20900
H  52.51100 45.95600 46.10700
H  53.10300 47.56500 46.28500
H  50.35300 50.01000 43.91500
H  52.12300 49.64200 43.93400
H  51.45400 50.27500 46.54000
H  50.67900 51.45200 45.46900
H  52.44500 51.14600 45.26200
H  46.21500 50.27400 45.04200
H  44.47300 49.84600 44.74300
H  45.30800 50.57900 43.47600
H  43.30300 46.21200 41.03000
H  40.37100 45.28400 44.76800
H  41.36300 43.91600 45.39300
H  40.48700 43.77700 43.91200

