158

Mg 1.86100 8.22000 25.95700
C  2.50400 10.18000 28.92200
C  2.40300 5.51300 27.96000
C  1.36100 6.54300 23.38700
C  2.04900 11.28000 24.23900
N  2.48400 7.93600 28.25200
C  2.54500 8.83700 29.28200
C  2.39500 8.14200 30.65200
C  2.66200 6.66800 30.26400
C  2.47700 6.68100 28.72600
C  4.02800 6.08300 30.54500
C  0.97900 8.39400 31.19100
C  0.91300 8.71600 32.64400
H  2.13900 8.35300 33.51200
N  2.01700 6.25200 25.67100
C  2.22100 5.28800 26.56000
C  2.14400 4.01200 25.96100
C  1.75700 4.26600 24.69300
C  1.71900 5.77100 24.51800
C  2.41800 2.74100 26.64200
C  1.39900 3.33200 23.57600
O  1.02500 3.80600 22.55500
C  1.39900 1.86300 23.59900
N  1.87700 8.83000 24.03000
C  1.55400 7.88500 23.11600
C  1.27600 8.50400 21.74500
C  1.26700 9.99000 22.07200
C  1.80500 10.10100 23.51000
C  2.43300 8.16400 20.73700
C  -0.16800 10.61900 21.95300
C  -0.39000 11.66100 20.81900
N  2.04200 10.36800 26.46900
C  2.13500 11.44200 25.65400
C  2.24200 12.69400 26.42800
C  2.33400 12.22600 27.73700
C  2.31900 10.80200 27.67400
C  2.33100 14.14100 25.94700
C  2.55800 12.68300 29.13200
O  2.78600 13.79000 29.53700
C  2.48200 11.31400 30.00300
C  3.71500 11.30500 30.87400
O  4.74100 10.66600 30.75500
O  3.34100 12.15900 31.97600
C  4.19300 12.00000 33.12400
H  2.42700 4.63600 28.61000
H  0.92200 6.12600 22.47800
H  1.63300 12.18200 23.78600
H  3.16300 8.56500 31.29900
H  1.86400 6.01500 30.61700
H  4.28200 5.26700 29.86800
H  4.17200 5.72200 31.56300
H  4.83400 6.81500 30.50600
H  0.33500 7.56800 30.88900
H  0.48300 9.25900 30.75000
H  0.01900 8.26700 33.07900
H  0.88500 9.80000 32.75700
H  2.84800 2.89400 27.63200
H  3.08000 2.01500 26.16800
H  1.44700 2.26700 26.78300
H  1.60100 1.43400 22.61700
H  0.45000 1.58400 24.05600
H  2.17500 1.42600 24.22800
H  0.27400 8.26000 21.39200
H  1.99400 10.47000 21.41600
H  3.37100 7.76600 21.12400
H  2.67700 9.02000 20.10800
H  2.15200 7.37900 20.03600
H  -0.39200 11.18300 22.85900
H  -0.94800 9.86900 21.82000
H  0.42700 11.44400 20.13100
H  -0.50400 12.63300 21.29800
H  -1.28400 11.44700 20.23200
H  3.20500 14.19900 25.29900
H  2.37400 14.62900 26.92100
H  1.41100 14.47400 25.46500
H  1.68900 11.33700 30.75000
H  4.77100 11.08000 33.21500
H  3.59000 12.12900 34.02200
H  4.76100 12.93000 33.10600
Mg -9.14400 18.72700 43.00900
C  -5.58300 18.04400 43.22000
C  -8.35600 21.85400 42.10700
C  -12.39100 19.11000 42.15900
C  -9.69800 15.22400 43.29100
N  -7.16400 19.77500 42.89100
C  -5.83200 19.39500 42.96500
C  -4.79900 20.45000 42.60300
C  -5.72000 21.71100 42.44000
C  -7.20500 21.09500 42.57700
C  -5.55900 22.89200 43.49500
C  -3.85100 20.07800 41.36900
C  -4.47700 19.35700 40.10900
H  -3.96700 19.89800 38.70500
N  -10.28400 20.36600 42.28600
C  -9.74500 21.57500 41.95100
C  -10.85300 22.43300 41.45200
C  -12.06700 21.72900 41.68200
C  -11.64100 20.31900 42.04100
C  -10.63700 23.81500 40.97500
C  -13.42700 22.25200 41.39000
O  -13.56700 23.41100 41.07800
C  -14.60400 21.39500 41.46500
N  -10.78200 17.34100 42.79300
C  -12.04800 17.78300 42.39700
C  -13.06500 16.64600 42.39800
C  -12.17100 15.41500 42.74000
C  -10.84400 16.03700 43.05800
C  -14.35900 16.86800 43.16100
C  -11.97800 14.42300 41.53400
C  -12.60700 13.05200 41.77200
N  -7.92200 16.92400 43.10000
C  -8.31600 15.63800 43.23600
C  -7.15400 14.80100 43.39400
C  -6.09800 15.69800 43.42000
C  -6.58200 16.98700 43.25300
C  -7.16700 13.26200 43.53000
C  -4.73200 15.74300 43.64600
O  -3.89000 14.85600 43.96400
C  -4.19100 17.23800 43.49400
C  -3.35500 17.75100 44.63700
O  -2.15300 17.84400 44.52100
O  -4.07200 17.90400 45.78900
C  -3.29100 18.30300 46.83100
H  -8.13400 22.90900 41.93600
H  -13.46100 19.17700 41.95400
H  -9.85800 14.14400 43.25600
H  -4.07500 20.53800 43.41300
H  -5.53400 22.20600 41.48700
H  -6.44400 22.91600 44.12900
H  -5.52000 23.83400 42.94900
H  -4.60100 22.87700 44.01600
H  -2.97000 19.50400 41.65600
H  -3.55700 21.07300 41.03700
H  -5.56300 19.27100 40.09000
H  -4.24000 18.29700 40.02100
H  -11.00500 24.05300 39.97700
H  -9.57100 23.99100 41.11800
H  -11.12700 24.57400 41.58500
H  -14.54800 20.75800 42.34800
H  -14.65300 20.66600 40.65600
H  -15.57700 21.88500 41.48800
H  -13.44100 16.60400 41.37500
H  -12.40300 14.82300 43.62500
H  -14.49700 15.99600 43.80000
H  -15.16100 16.92500 42.42500
H  -14.57500 17.77900 43.71900
H  -10.92100 14.26400 41.32100
H  -12.39500 14.83400 40.61500
H  -13.50300 12.90100 41.17000
H  -12.93800 13.02200 42.81000
H  -11.98300 12.17500 41.59900
H  -6.42600 13.07800 44.30800
H  -6.87000 12.70800 42.64000
H  -8.15000 12.86900 43.79000
H  -3.43000 17.29100 42.71600
H  -2.46800 18.96800 46.56900
H  -2.80600 17.44200 47.29300
H  -3.78500 18.67100 47.73000

