158

Mg 8.75100 3.99600 27.85100
C  9.95400 2.92900 30.88600
C  6.98200 6.55500 29.53700
C  6.94500 4.62600 24.99600
C  10.06700 1.16500 26.31100
N  8.41200 4.49700 29.97100
C  9.08700 4.01000 31.05100
C  8.71300 4.62700 32.42300
C  7.70100 5.73900 31.94300
C  7.73300 5.63400 30.37700
C  6.28500 5.67200 32.47100
C  9.94700 5.11900 33.22800
C  10.13800 4.51500 34.69900
H  10.23400 5.44900 35.93900
N  7.21700 5.44900 27.32500
C  6.73000 6.42600 28.13000
C  6.00200 7.29700 27.36200
C  5.81100 6.70600 26.13800
C  6.61700 5.53600 26.11500
C  5.33100 8.46700 27.91100
C  5.06800 7.29600 24.76200
O  4.99300 6.69500 23.67000
C  4.24100 8.60600 24.94300
N  8.41400 2.94800 25.96400
C  7.67900 3.46800 24.91400
C  7.72000 2.55800 23.67400
C  8.83200 1.45700 24.07300
C  9.13400 1.84800 25.53300
C  6.35300 2.04500 23.22900
C  9.98800 1.16700 23.17500
C  10.16100 -0.17400 22.57000
N  9.91100 2.37700 28.41300
C  10.35000 1.34100 27.69100
C  11.08400 0.42300 28.57300
C  10.92600 1.02100 29.80100
C  10.19800 2.19600 29.66600
C  11.68100 -0.91500 28.10800
C  11.25000 0.87200 31.15600
O  11.83400 0.03000 31.81800
C  10.70900 2.06900 31.94100
C  9.81800 1.53100 33.03500
O  8.61800 1.39000 32.99300
O  10.58900 1.36900 34.20700
C  9.89300 1.00300 35.46400
H  6.75400 7.44200 30.13100
H  6.49200 4.64600 24.00300
H  10.57700 0.26300 25.96800
H  8.26500 3.84100 33.03100
H  8.08100 6.70600 32.27400
H  5.73200 5.02900 31.78600
H  5.95800 6.71100 32.51200
H  6.31300 5.22300 33.46400
H  9.81900 6.19100 33.38100
H  10.87000 5.05800 32.65300
H  11.08100 3.98600 34.56000
H  9.30900 3.80800 34.70400
H  5.90900 9.35100 27.64100
H  5.24500 8.47600 28.99800
H  4.35900 8.58600 27.43200
H  3.99800 8.97600 23.94700
H  4.90900 9.33100 25.40800
H  3.30800 8.54600 25.50300
H  8.07300 3.23800 22.89900
H  8.43500 0.46500 24.28800
H  6.27100 0.97000 23.38900
H  6.12400 2.36900 22.21300
H  5.62900 2.43700 23.94300
H  10.86500 1.41500 23.77300
H  10.02400 1.80300 22.29000
H  10.46900 -0.00100 21.53900
H  9.24800 -0.77000 22.59000
H  11.00900 -0.69900 23.01000
H  12.73300 -0.72400 27.89900
H  11.16800 -1.40000 27.27700
H  11.72100 -1.59900 28.95600
H  11.51500 2.66900 32.36400
H  8.98500 0.40900 35.35700
H  9.67200 1.84300 36.12200
H  10.55700 0.41200 36.09600
Mg 8.81000 47.51100 27.57000
C  6.82100 47.20500 30.44000
C  11.52700 47.93400 29.44600
C  10.44900 48.29100 24.72000
C  5.72900 47.59400 25.63700
N  9.10300 47.55700 29.62400
C  8.21300 47.34200 30.63700
C  8.85100 47.25600 32.02800
C  10.28700 47.70100 31.68200
C  10.33400 47.69500 30.14000
C  10.78900 49.10500 32.17600
C  8.82000 45.87600 32.76000
C  9.95600 45.42100 33.73600
H  9.51900 44.89300 35.11000
N  10.77400 48.01000 27.16600
C  11.80100 48.10600 28.08100
C  13.05600 48.20200 27.39900
C  12.71300 48.41100 26.00800
C  11.25600 48.29800 25.91600
C  14.37700 48.20900 28.14800
C  13.69600 48.46400 24.88400
O  13.34600 48.65400 23.70800
C  15.21000 48.43300 25.11000
N  8.10400 47.83200 25.50000
C  9.05100 48.07400 24.52800
C  8.44700 48.44200 23.13900
C  6.97000 47.92800 23.36300
C  6.90700 47.68400 24.92000
C  8.54900 49.97500 22.84500
C  6.63800 46.55900 22.54700
C  5.51300 46.75500 21.55100
N  6.73100 47.36600 27.95100
C  5.62600 47.51000 27.06700
C  4.35900 47.39300 27.80000
C  4.82900 47.25000 29.18300
C  6.24000 47.24600 29.17400
C  2.94400 47.64300 27.20700
C  4.45000 47.06100 30.56900
O  3.34900 46.95100 31.13500
C  5.70300 46.86700 31.42300
C  5.75200 45.48400 31.86000
O  6.07700 44.52000 31.13600
O  5.30600 45.35400 33.17600
C  5.48400 43.99900 33.75800
H  12.49100 48.02400 29.94900
H  11.07500 48.66900 23.91000
H  4.80200 47.54500 25.06100
H  8.43200 48.01600 32.68800
H  11.00300 46.89200 31.82100
H  10.12900 49.46900 32.96400
H  10.69000 49.92100 31.46100
H  11.78300 49.07600 32.62400
H  8.80900 45.10900 31.98500
H  7.97300 45.70100 33.42400
H  10.54400 46.31900 33.92200
H  10.58500 44.75600 33.14400
H  15.00400 47.51900 27.58300
H  14.31200 47.87400 29.18300
H  14.72600 49.24200 28.13600
H  15.53100 48.94600 26.01600
H  15.54700 48.93000 24.20000
H  15.57300 47.40600 25.06200
H  9.01000 47.93200 22.35700
H  6.25300 48.71800 23.14100
H  8.70800 50.43100 23.82300
H  7.62400 50.36600 22.41900
H  9.39400 50.14900 22.17900
H  6.34900 45.78700 23.26000
H  7.54000 46.14300 22.09900
H  5.04200 47.73300 21.45300
H  4.67500 46.13700 21.87400
H  5.92900 46.39500 20.61000
H  2.35000 46.82800 27.62100
H  2.86000 47.78100 26.12900
H  2.51000 48.48600 27.74400
H  5.68800 47.56400 32.26100
H  6.51000 43.70500 33.53600
H  4.69500 43.28100 33.53500
H  5.60100 44.05600 34.84000

