158

Mg 48.87200 34.63700 26.67700
C  46.63300 33.29600 29.07700
C  49.36900 37.32800 28.73200
C  50.41700 36.21400 24.09000
C  47.93800 32.02200 24.49600
N  48.12400 35.24900 28.71500
C  47.25100 34.52800 29.51500
C  47.27400 35.07600 31.00300
C  47.84000 36.53900 30.67800
C  48.54700 36.38800 29.35800
C  46.85700 37.81700 30.71200
C  48.40800 34.24800 31.84200
C  48.11700 33.94000 33.30700
H  47.05000 34.81700 34.00900
N  49.84000 36.49200 26.43400
C  49.89900 37.44900 27.39100
C  50.62400 38.53800 26.90000
C  51.01000 38.21800 25.57400
C  50.39900 36.92700 25.34300
C  50.76800 39.86100 27.62500
C  51.79100 39.03100 24.54000
O  52.21800 38.60100 23.46100
C  52.14600 40.42700 24.81200
N  49.12000 34.16600 24.64400
C  49.86500 34.97300 23.78300
C  49.69500 34.46600 22.34300
C  49.24700 32.94600 22.49500
C  48.85600 32.98200 24.01900
C  48.81600 35.35700 21.49100
C  50.37200 31.92800 22.24600
C  49.93200 30.87800 21.18700
N  47.68500 32.95300 26.76400
C  47.32300 31.98500 25.77700
C  46.33300 31.07700 26.24600
C  46.02200 31.60200 27.54900
C  46.92600 32.71500 27.78300
C  45.67900 29.87500 25.60600
C  45.16600 31.38000 28.68600
O  44.22800 30.52400 28.84000
C  45.51800 32.43500 29.76100
C  45.91100 31.89300 31.08600
O  46.94000 31.24900 31.33000
O  44.84600 31.94500 31.94700
C  44.86600 31.29400 33.29100
H  49.40500 38.20100 29.38700
H  50.96200 36.61300 23.23200
H  47.59300 31.24300 23.81400
H  46.32600 35.01900 31.53600
H  48.61400 36.80800 31.39700
H  47.39600 38.61900 31.21700
H  45.95200 37.50000 31.23100
H  46.62800 38.04000 29.67000
H  49.42400 34.64500 31.82100
H  48.40200 33.27800 31.34500
H  49.09500 34.15300 33.73900
H  47.88600 32.87600 33.35000
H  51.84100 40.05000 27.66300
H  50.49700 39.74500 28.67400
H  50.25800 40.66000 27.08700
H  52.28300 40.83200 23.81000
H  53.09000 40.56000 25.34000
H  51.30200 40.94300 25.27100
H  50.72800 34.57400 22.01100
H  48.33100 32.78400 21.92800
H  49.21000 36.37200 21.44200
H  47.86300 35.55900 21.98000
H  48.73000 34.95500 20.48100
H  50.51100 31.29800 23.12500
H  51.29000 32.45400 21.98300
H  50.50400 31.13500 20.29600
H  48.89200 31.05400 20.91100
H  50.08000 29.87500 21.58600
H  44.75600 30.19100 25.11900
H  45.37600 29.32700 26.49800
H  46.30000 29.30600 24.91400
H  44.61600 33.04400 29.81700
H  45.00100 30.21300 33.26100
H  43.99400 31.54100 33.89700
H  45.76300 31.77800 33.67800
Mg 6.20200 53.75200 40.07900
C  5.83300 50.12500 40.20300
C  9.22200 53.20700 38.67200
C  6.15400 56.94000 39.61300
C  2.73200 53.82000 40.85700
N  7.21000 51.86400 39.31400
C  7.00400 50.52200 39.56100
C  8.22900 49.59000 39.14900
C  9.32300 50.69800 39.07700
C  8.52700 52.08300 39.03800
C  10.45600 50.72000 40.24500
C  7.93100 48.69400 37.88800
C  8.29000 49.22500 36.51600
H  7.26800 48.86500 35.41300
N  7.63200 54.95300 39.44000
C  8.80100 54.55400 38.86900
C  9.53800 55.74500 38.62200
C  8.61400 56.83700 38.67900
C  7.41100 56.26200 39.24700
C  10.97400 55.82500 38.23100
C  8.94500 58.28600 38.34200
O  10.07400 58.57400 37.85500
C  8.02900 59.45300 38.68400
N  4.66300 55.18000 40.15800
C  4.93400 56.49700 39.97000
C  3.66400 57.44900 39.92200
C  2.56700 56.42100 40.23500
C  3.35600 55.01000 40.41200
C  3.69100 58.66600 40.84800
C  1.45900 56.31300 39.10000
C  0.27100 57.34900 39.16200
N  4.48000 52.34900 40.49000
C  3.26400 52.53100 40.93000
C  2.70200 51.27200 41.34300
C  3.68700 50.32400 41.11100
C  4.72900 51.00500 40.55600
C  1.29400 50.95200 41.78500
C  3.94700 48.93900 41.21500
O  3.23200 48.02800 41.66900
C  5.39600 48.71900 40.70000
C  5.21600 47.72400 39.62100
O  4.60000 47.93800 38.61400
O  5.81100 46.55400 40.00300
C  5.33500 45.43300 39.17100
H  10.28600 53.10100 38.44900
H  6.10400 58.02600 39.51700
H  1.65700 54.00700 40.84500
H  8.39500 48.90700 39.98100
H  10.00000 50.63200 38.22600
H  11.34700 50.25100 39.82800
H  10.15100 50.26900 41.18900
H  10.70600 51.75500 40.48000
H  6.86500 48.46600 37.92000
H  8.35600 47.70700 38.06900
H  9.12600 48.62300 36.16200
H  8.39600 50.30100 36.65600
H  11.39700 54.83900 38.42500
H  11.53900 56.57900 38.77800
H  10.92900 55.97400 37.15200
H  8.49400 60.39400 38.39000
H  7.97400 59.28800 39.76100
H  7.05300 59.26200 38.23900
H  3.70600 57.74400 38.87400
H  2.04500 56.67100 41.15800
H  3.82400 59.54300 40.21400
H  4.50800 58.57000 41.56300
H  2.76200 58.75200 41.41200
H  0.94500 55.35200 39.09600
H  1.91700 56.39300 38.11400
H  0.42500 58.05200 39.98000
H  -0.65000 56.83600 39.44100
H  0.07700 57.90700 38.24600
H  0.65300 51.79200 41.51900
H  1.20700 50.95600 42.87100
H  0.86200 50.10100 41.25800
H  6.12600 48.25500 41.36300
H  5.21900 45.59400 38.10000
H  4.42200 45.00600 39.58600
H  6.08100 44.65800 39.34900

