158

Mg 46.68000 17.00100 28.42700
C  44.88600 16.90600 31.50600
C  49.11300 18.82500 30.08900
C  47.89900 17.64400 25.44500
C  43.89000 15.48200 26.99100
N  46.88900 17.92000 30.60200
C  46.03800 17.74300 31.61200
C  46.70200 18.10300 32.98600
C  47.97900 18.87900 32.53000
C  48.04900 18.51100 31.00200
C  47.98900 20.41100 32.82500
C  47.06400 16.89000 33.89500
C  46.89900 17.04800 35.45400
H  46.53200 18.38000 36.13500
N  48.28300 17.97100 27.88000
C  49.12600 18.67500 28.67600
C  50.21400 19.25000 27.84000
C  49.96900 18.82800 26.51300
C  48.57800 18.18500 26.54500
C  51.38000 20.05700 28.40100
C  50.84700 18.99700 25.26300
O  50.46900 18.57600 24.14400
C  52.27700 19.31900 25.39600
N  45.99300 16.62100 26.46500
C  46.78600 16.88200 25.36900
C  46.17200 16.24000 24.07600
C  44.93400 15.54600 24.66000
C  44.96600 15.83700 26.11100
C  45.88300 17.24400 22.92600
C  44.88600 14.01900 24.34300
C  43.74700 13.68800 23.36200
N  44.81500 16.29700 29.07200
C  43.86400 15.66400 28.38100
C  42.80600 15.22600 29.22700
C  43.21600 15.61500 30.47000
C  44.46300 16.32800 30.34600
C  41.57400 14.38600 28.93400
C  42.81600 15.54500 31.86400
O  41.84300 15.02300 32.46400
C  43.91300 16.34400 32.59500
C  43.26900 17.50100 33.27000
O  42.96800 18.59000 32.79100
O  42.89600 16.99100 34.52500
C  42.35600 18.11600 35.42700
H  49.99400 19.27400 30.55300
H  48.34100 17.88900 24.47600
H  42.97200 15.00500 26.64100
H  46.10100 18.80700 33.56000
H  48.86300 18.47500 33.02500
H  47.07900 20.73400 33.33200
H  47.92900 20.82600 31.81900
H  48.90600 20.70700 33.33600
H  48.12000 16.62400 33.84100
H  46.51900 15.98900 33.61200
H  47.94500 16.98300 35.75600
H  46.36400 16.27400 36.00400
H  52.31100 19.49500 28.46600
H  51.12600 20.48200 29.37200
H  51.57200 20.90400 27.74200
H  52.46600 20.37900 25.57000
H  52.77500 19.00000 24.48100
H  52.61400 18.62800 26.16800
H  46.95900 15.57400 23.72100
H  44.08100 16.09200 24.25800
H  46.51800 16.91300 22.10500
H  46.18400 18.27300 23.12200
H  44.84900 17.24500 22.58000
H  44.75200 13.46500 25.27200
H  45.85700 13.72400 23.94700
H  44.16300 13.39000 22.40000
H  43.14200 14.55500 23.09900
H  43.24600 12.79500 23.73800
H  41.20300 14.60100 27.93100
H  40.70600 14.59700 29.55900
H  41.92400 13.35500 28.95800
H  44.28400 15.67600 33.37300
H  41.64600 18.74900 34.89500
H  43.07300 18.75900 35.93800
H  41.71700 17.62200 36.16000
Mg -11.42600 16.26800 41.58800
C  -8.40200 14.31100 41.23300
C  -9.77400 18.79800 39.96000
C  -14.30200 17.61800 40.93400
C  -13.05400 13.30800 42.77700
N  -9.28900 16.45400 40.63400
C  -8.26500 15.56200 40.55900
C  -7.01000 16.12600 39.93500
C  -7.51300 17.62800 39.63100
C  -8.95800 17.67400 40.13200
C  -6.67200 18.70800 40.28500
C  -6.63200 15.37400 38.62200
C  -5.16800 15.74300 38.17300
H  -4.93100 16.70100 36.92600
N  -11.94800 18.06600 40.70600
C  -11.10100 18.98500 40.10600
C  -11.87000 20.12900 39.66100
C  -13.27800 19.73400 39.77600
C  -13.22700 18.41500 40.45600
C  -11.31100 21.38300 39.06000
C  -14.40700 20.55800 39.24400
O  -14.14500 21.65100 38.79800
C  -15.85400 20.12300 39.25500
N  -13.44200 15.59700 41.78200
C  -14.48200 16.43200 41.58000
C  -15.81900 15.79800 42.00000
C  -15.32300 14.37500 42.63900
C  -13.84600 14.42300 42.43900
C  -16.67700 16.71900 42.85300
C  -16.08100 13.22300 41.96300
C  -16.57300 12.06900 42.96800
N  -10.88300 14.28800 41.99500
C  -11.63900 13.19200 42.50700
C  -10.76800 12.11700 42.84100
C  -9.50500 12.51900 42.34500
C  -9.60600 13.84100 41.81400
C  -11.19000 10.80000 43.35100
C  -8.10400 12.11400 42.27500
O  -7.53400 11.05200 42.60600
C  -7.36600 13.25100 41.55000
C  -6.28900 13.76100 42.51000
O  -6.41800 14.26000 43.59600
O  -5.11200 13.49900 41.93500
C  -3.88000 14.05200 42.42400
H  -9.30600 19.73200 39.64100
H  -15.21500 18.19800 40.78600
H  -13.50700 12.37600 43.12200
H  -6.11700 16.10000 40.55800
H  -7.50300 17.82900 38.56000
H  -5.82800 18.26000 40.81000
H  -7.15700 19.41100 40.96200
H  -6.22900 19.24900 39.44900
H  -7.14100 15.57800 37.68000
H  -6.57500 14.29600 38.77300
H  -4.50100 14.88100 38.14100
H  -4.76200 16.34300 38.98700
H  -11.33400 21.32700 37.97200
H  -10.24500 21.44600 39.27900
H  -11.76000 22.32200 39.38400
H  -16.34100 20.78500 38.53900
H  -16.28900 20.23300 40.24900
H  -15.90400 19.06000 39.02300
H  -16.34100 15.64900 41.05500
H  -15.65500 14.31100 43.67500
H  -16.04700 17.41200 43.41100
H  -17.36200 16.14000 43.47400
H  -17.31500 17.33500 42.21900
H  -15.37700 12.75600 41.27400
H  -16.94200 13.50800 41.35900
H  -16.16800 12.23300 43.96700
H  -16.30800 11.03100 42.76500
H  -17.64500 12.17100 43.14000
H  -10.44100 10.36000 44.00800
H  -11.36600 10.08800 42.54500
H  -12.11900 10.91300 43.91100
H  -6.84600 12.81900 40.69500
H  -3.65300 13.65400 43.41400
H  -3.96700 15.13200 42.53500
H  -3.23600 13.82200 41.57500

