158

Mg 26.69000 -0.99300 29.33800
C  28.45400 -0.96500 32.59100
C  23.73100 -1.13900 31.38600
C  24.86000 -1.24700 26.49500
C  29.52800 -1.14700 27.82400
N  26.19700 -0.97400 31.73800
C  27.08900 -0.75900 32.74400
C  26.39700 -0.69300 34.13800
C  24.92300 -0.62700 33.72300
C  24.88700 -0.90200 32.15900
C  24.04800 -1.76100 34.47900
C  26.87100 0.49800 35.09500
C  27.15800 0.15500 36.61200
H  26.61400 1.16200 37.61800
N  24.56300 -1.20500 29.00600
C  23.56700 -1.23300 29.96300
C  22.32800 -1.39100 29.22100
C  22.53600 -1.34300 27.75800
C  24.03300 -1.23000 27.71300
C  20.95300 -1.58700 29.83500
C  21.57100 -1.39500 26.64000
O  22.01200 -1.44000 25.49600
C  20.07500 -1.41100 26.82100
N  27.06300 -1.26100 27.35800
C  26.21600 -1.17400 26.33100
C  26.95500 -0.99600 24.96900
C  28.43400 -0.79200 25.50300
C  28.37400 -1.01500 27.03400
C  26.78700 -2.23800 24.07900
C  29.08200 0.62300 25.21400
C  30.49700 0.44700 24.73500
N  28.59900 -1.19100 30.05900
C  29.70100 -1.30500 29.23200
C  30.86500 -1.42200 29.99600
C  30.40100 -1.23700 31.33800
C  29.05300 -1.07500 31.28200
C  32.30100 -1.57900 29.48200
C  30.82000 -1.08000 32.71400
O  31.91600 -1.21100 33.21800
C  29.58100 -0.91400 33.57400
C  29.56700 -2.03600 34.61000
O  29.08400 -3.17400 34.47900
O  30.05400 -1.52200 35.79000
C  29.83200 -2.41700 36.95000
H  22.81800 -1.19900 31.98300
H  24.30900 -1.41200 25.56700
H  30.42600 -0.95400 27.23300
H  26.59000 -1.61800 34.68200
H  24.54600 0.37500 33.93000
H  23.57900 -2.53000 33.86500
H  23.27600 -1.23200 35.03600
H  24.59600 -2.26200 35.27700
H  25.95700 1.07800 35.22100
H  27.71800 1.11200 34.79000
H  28.21300 0.00900 36.84300
H  26.74100 -0.84500 36.73600
H  20.47300 -2.39000 29.27500
H  20.36000 -0.69700 29.62400
H  21.05600 -1.77700 30.90300
H  19.72100 -2.41300 27.06200
H  19.74000 -1.20500 25.80500
H  19.85400 -0.62400 27.54200
H  26.60700 -0.11200 24.43500
H  29.07700 -1.58400 25.12000
H  26.54300 -1.96900 23.05100
H  25.93500 -2.78500 24.48100
H  27.69100 -2.84700 24.06100
H  29.01900 1.16000 26.16000
H  28.43700 1.22000 24.56900
H  30.78200 -0.59300 24.57600
H  31.19200 1.00700 25.36000
H  30.54800 0.97500 23.78300
H  32.85300 -1.89600 30.36700
H  32.64600 -0.63500 29.06000
H  32.47200 -2.39200 28.77700
H  29.56800 0.05300 34.07700
H  28.81600 -2.38700 37.34500
H  30.47400 -2.22600 37.81000
H  29.97300 -3.47300 36.71700
Mg -1.68300 35.09000 26.75700
C  -3.00700 32.74800 29.16000
C  -0.91500 37.16700 29.23100
C  -0.85300 37.22300 24.25200
C  -2.88400 32.93000 24.30300
N  -1.96200 34.94400 28.97100
C  -2.38400 33.85400 29.71300
C  -2.14800 34.16800 31.22900
C  -1.66000 35.66400 31.23200
C  -1.47700 35.98700 29.70900
C  -2.59500 36.73600 31.96100
C  -1.33600 33.11100 31.93100
C  -1.95400 32.63700 33.32900
H  -0.97200 32.44800 34.54300
N  -0.84000 36.87700 26.78500
C  -0.52400 37.56300 27.90400
C  0.08400 38.76700 27.46800
C  0.00900 38.82800 26.03800
C  -0.56700 37.60200 25.61500
C  0.59200 39.84800 28.43700
C  0.49000 39.97500 25.08400
O  0.49800 39.94000 23.86600
C  1.06500 41.27800 25.71100
N  -1.75000 34.99100 24.59400
C  -1.42100 36.02800 23.81000
C  -1.90000 35.74700 22.28200
C  -2.17600 34.21300 22.30800
C  -2.30400 34.05800 23.79700
C  -3.25000 36.38600 21.83100
C  -0.94900 33.34400 21.80900
C  0.24300 33.04400 22.77900
N  -2.84700 33.29800 26.65700
C  -3.11700 32.54500 25.57200
C  -3.78100 31.35000 25.96700
C  -3.84400 31.40200 27.37500
C  -3.19400 32.59300 27.75200
C  -4.36100 30.24500 25.08700
C  -4.32200 30.76300 28.67700
O  -4.86500 29.74200 28.92000
C  -3.75800 31.60700 29.89000
C  -4.88100 32.24500 30.68100
O  -5.41200 33.33100 30.43900
O  -5.20400 31.44900 31.69400
C  -6.08500 32.04200 32.68400
H  -0.65300 37.89300 30.00400
H  -0.62400 37.89500 23.42300
H  -3.21900 32.18100 23.58300
H  -3.12000 34.11700 31.72000
H  -0.68000 35.81200 31.68600
H  -3.35900 36.29300 32.60000
H  -2.94700 37.46900 31.23500
H  -1.89100 37.16800 32.67200
H  -0.34100 33.55000 32.00600
H  -1.25400 32.24500 31.27500
H  -2.44300 31.67200 33.19400
H  -2.73200 33.35100 33.59900
H  1.58500 40.16100 28.11500
H  0.60700 39.48800 29.46500
H  -0.00100 40.76200 28.43100
H  0.99800 41.98900 24.88700
H  2.11000 41.19500 26.00800
H  0.43800 41.72900 26.48100
H  -1.14600 35.88500 21.50700
H  -3.06000 33.92000 21.74200
H  -3.22300 36.50900 20.74900
H  -3.26700 37.42000 22.17500
H  -4.06300 35.78800 22.24500
H  -0.73600 33.71700 20.80700
H  -1.30400 32.35300 21.52600
H  0.48400 33.86000 23.46000
H  1.16600 32.86100 22.22900
H  0.07700 32.16800 23.40600
H  -5.42400 30.37600 24.88700
H  -4.25400 29.30100 25.62200
H  -3.74500 30.14500 24.19300
H  -3.02900 31.17700 30.57700
H  -5.48600 32.69900 33.31500
H  -6.50500 31.25800 33.31400
H  -6.85900 32.64600 32.21000

