158

Mg 35.41000 2.69200 30.29600
C  33.15700 3.57100 32.95200
C  37.84300 2.59900 32.65200
C  37.60100 2.31700 27.83300
C  32.75400 3.22500 27.98200
N  35.51000 3.13900 32.56900
C  34.48600 3.39700 33.42100
C  34.95600 3.46800 34.89800
C  36.47000 3.22100 34.71500
C  36.63300 2.97800 33.21000
C  37.36700 4.38300 35.27800
C  34.16200 2.53300 35.80300
C  34.80800 1.95800 37.04700
H  35.35700 2.90700 38.23400
N  37.43700 2.51100 30.25700
C  38.29800 2.44600 31.29600
C  39.60500 1.94500 30.89900
C  39.63100 1.94100 29.45200
C  38.16900 2.29600 29.09800
C  40.64900 1.75000 31.90600
C  40.70600 1.66600 28.45600
O  40.52100 1.76200 27.24300
C  42.06500 1.33100 28.88800
N  35.18100 2.89800 28.21500
C  36.27500 2.70100 27.44400
C  35.83900 2.75100 25.90400
C  34.26700 2.56000 26.02100
C  34.03500 2.92900 27.47800
C  36.30200 4.05400 25.13600
C  33.75900 1.14900 25.60600
C  32.46400 1.16000 24.82500
N  33.32500 3.28500 30.34800
C  32.40700 3.37600 29.40200
C  31.16100 3.86400 29.98200
C  31.41100 3.94600 31.35300
C  32.74300 3.56900 31.55100
C  29.81800 4.13400 29.27200
C  30.78600 4.24900 32.59900
O  29.67500 4.66600 32.82600
C  31.85400 3.94500 33.70500
C  32.08700 5.17300 34.56300
O  32.57200 6.24200 34.17400
O  31.68500 5.00000 35.85700
C  31.76500 6.11200 36.77500
H  38.58000 2.50400 33.45200
H  38.18400 2.20500 26.91800
H  31.90900 3.18600 27.29100
H  34.69400 4.47700 35.21700
H  36.74800 2.27100 35.17000
H  37.90800 4.84200 34.45000
H  38.04900 3.91400 35.98700
H  36.71700 5.07600 35.81200
H  33.73600 1.73700 35.19200
H  33.27900 2.97000 36.26900
H  35.62000 1.32000 36.69700
H  34.08400 1.31600 37.54700
H  41.38100 1.02200 31.55800
H  40.20900 1.30800 32.80000
H  40.94800 2.76600 32.16500
H  42.33800 0.27500 28.90900
H  42.36400 1.82000 29.81500
H  42.76900 1.79100 28.19500
H  36.30400 1.91000 25.38900
H  33.74100 3.35500 25.49200
H  36.96800 4.62500 25.78300
H  35.44200 4.62100 24.78300
H  36.86300 3.85600 24.22300
H  33.49100 0.49500 26.43600
H  34.54300 0.62600 25.05800
H  31.68300 0.67900 25.41300
H  32.42900 0.63300 23.87200
H  32.14600 2.14500 24.48300
H  29.06300 3.81900 29.99300
H  29.81900 3.58000 28.33300
H  29.73200 5.14900 28.88400
H  31.46400 3.09600 34.26600
H  30.73700 6.44300 36.92100
H  32.39900 6.95100 36.48800
H  32.07300 5.87900 37.79400
Mg 46.44100 17.65300 28.31300
C  44.96300 16.92500 31.49300
C  48.90400 19.36800 29.89100
C  47.69400 18.20700 25.38900
C  43.81900 15.78000 26.83600
N  46.79200 18.09500 30.36300
C  46.08500 17.69600 31.45600
C  46.82800 18.04400 32.76400
C  47.83300 19.12100 32.25800
C  47.86900 18.85400 30.68100
C  47.36000 20.53600 32.47300
C  47.42100 16.82400 33.46700
C  47.56100 16.86400 35.01800
H  47.26200 18.14700 35.79400
N  48.11200 18.64300 27.71700
C  49.08400 19.26500 28.51700
C  50.17100 19.73500 27.65700
C  49.79000 19.48100 26.33300
C  48.49300 18.71700 26.44400
C  51.40600 20.30700 28.19300
C  50.50200 19.88700 24.99200
O  49.99100 19.73700 23.92200
C  51.86600 20.63000 25.04200
N  45.89800 16.92500 26.44700
C  46.52000 17.50600 25.37300
C  45.80200 17.24300 24.03500
C  44.44300 16.49800 24.46200
C  44.72200 16.35800 25.99500
C  45.70900 18.54200 23.24100
C  44.14500 15.09700 23.83500
C  44.20700 15.10900 22.26600
N  44.71300 16.59600 29.00000
C  43.75000 15.90200 28.21700
C  42.73200 15.34300 29.11800
C  43.21100 15.77100 30.44300
C  44.39500 16.49500 30.28800
C  41.65100 14.33900 28.72000
C  42.92600 15.64800 31.87000
O  42.02700 15.05000 32.48800
C  44.06600 16.40800 32.60400
C  43.48300 17.47000 33.38900
O  43.13200 18.52900 32.86000
O  43.45300 17.15700 34.66000
C  42.95700 18.14900 35.60100
H  49.52400 20.08500 30.43200
H  48.06500 18.44100 24.38900
H  43.01600 15.33300 26.24600
H  46.14500 18.59700 33.40900
H  48.82000 19.02200 32.71100
H  48.19500 21.19700 32.24300
H  47.04600 20.52700 33.51700
H  46.51500 20.73000 31.81200
H  48.41400 16.58800 33.08500
H  46.75800 15.99400 33.22300
H  48.59000 16.55200 35.19900
H  46.97500 16.02300 35.39000
H  51.27500 20.71800 29.19400
H  51.80000 21.09400 27.55000
H  52.19800 19.57300 28.34100
H  51.78900 21.62900 25.47100
H  52.16400 20.66700 23.99400
H  52.63700 20.06800 25.56900
H  46.48200 16.56100 23.52500
H  43.62600 17.21900 24.42900
H  45.88400 19.33600 23.96700
H  44.71600 18.72200 22.83000
H  46.37300 18.53200 22.37600
H  43.11400 14.87000 24.10900
H  44.86500 14.35700 24.18400
H  44.54800 16.12100 22.05000
H  43.29600 14.78500 21.76300
H  45.06100 14.55800 21.87300
H  40.72300 14.87900 28.53200
H  41.59900 13.71400 29.61200
H  41.94300 13.71300 27.87700
H  44.67300 15.70900 33.17900
H  42.07200 17.68900 36.04100
H  42.75700 19.16200 35.25100
H  43.67900 18.39400 36.38000

