158

Mg -1.63600 34.52500 26.71700
C  -3.34200 32.61500 29.06600
C  -0.77900 36.77400 29.17800
C  -0.80400 36.63000 24.29600
C  -3.10400 32.39300 24.17800
N  -1.90100 34.61000 28.92200
C  -2.53900 33.63200 29.66000
C  -2.46400 34.04200 31.17800
C  -1.75500 35.45300 31.16500
C  -1.49000 35.66300 29.67800
C  -2.68200 36.53600 31.88800
C  -1.73600 33.01700 32.18000
C  -2.40500 32.68300 33.58000
H  -1.63600 32.59300 34.88700
N  -0.68600 36.27900 26.70400
C  -0.35900 37.03900 27.82000
C  0.47800 38.14300 27.32100
C  0.44000 38.25000 25.93500
C  -0.37500 37.00900 25.57200
C  1.25700 38.94900 28.31500
C  1.03000 39.17200 24.98700
O  0.91600 38.99000 23.78700
C  1.95400 40.37500 25.48800
N  -1.77500 34.45000 24.53500
C  -1.44900 35.46300 23.81400
C  -1.70200 35.23700 22.29700
C  -2.27800 33.80600 22.26100
C  -2.32300 33.45500 23.76200
C  -2.59900 36.41900 21.60400
C  -1.59800 32.87400 21.30600
C  -0.38000 32.08000 21.90000
N  -2.79700 32.79000 26.62500
C  -3.32900 32.08100 25.53900
C  -4.14100 30.96400 26.04900
C  -4.22100 31.16900 27.42900
C  -3.39200 32.28100 27.76300
C  -4.89700 29.95200 25.23100
C  -4.77200 30.68700 28.66200
O  -5.53900 29.79500 28.82500
C  -4.08800 31.53800 29.80200
C  -5.15200 32.01600 30.76800
O  -5.92700 32.94700 30.66400
O  -5.20300 31.13100 31.79700
C  -6.19600 31.45100 32.83300
H  -0.52700 37.49300 29.96000
H  -0.52600 37.34000 23.51400
H  -3.59100 31.85500 23.36100
H  -3.48500 34.15200 31.54500
H  -0.82600 35.41300 31.73500
H  -3.54000 36.02100 32.32100
H  -3.09600 37.22300 31.14900
H  -1.99500 37.00000 32.59500
H  -0.71200 33.25000 32.47400
H  -1.78600 32.07200 31.63800
H  -3.05200 31.80800 33.51200
H  -3.03300 33.56400 33.70900
H  1.21500 38.65300 29.36300
H  0.88600 39.97200 28.27100
H  2.30100 38.93500 28.00100
H  2.80800 39.91700 25.98800
H  1.39600 40.91600 26.25200
H  2.46700 41.04100 24.79500
H  -0.75100 35.18500 21.76700
H  -3.30500 33.91000 21.90900
H  -2.02700 36.74600 20.73600
H  -2.70500 37.28300 22.26100
H  -3.54500 35.98600 21.27900
H  -1.26100 33.28500 20.35500
H  -2.36300 32.15300 21.01900
H  -0.07200 32.45600 22.87600
H  0.46700 32.25500 21.23600
H  -0.65300 31.04100 22.08700
H  -4.26600 29.78700 24.35800
H  -5.87100 30.33200 24.92100
H  -4.97200 28.97800 25.71400
H  -3.39000 30.82700 30.24500
H  -7.23500 31.26100 32.56300
H  -6.21200 32.48600 33.17700
H  -5.97300 30.85300 33.71600
Mg -4.46600 25.42300 25.47700
C  -3.26500 26.73700 28.58500
C  -6.53700 23.28500 27.37800
C  -5.79700 24.46000 22.71800
C  -2.29100 27.59200 23.83300
N  -4.79200 25.01900 27.66200
C  -4.23800 25.77800 28.73300
C  -4.85400 25.34500 30.04700
C  -5.70000 24.09100 29.64500
C  -5.61200 24.05100 28.12700
C  -5.40200 22.80900 30.46800
C  -5.72700 26.45400 30.67600
C  -5.52200 26.61400 32.28100
H  -5.21100 25.31200 33.12500
N  -5.88600 23.98800 25.08900
C  -6.68500 23.26500 26.00500
C  -7.63000 22.47500 25.18200
C  -7.40000 22.82100 23.87200
C  -6.36900 23.84700 23.88000
C  -8.56500 21.41900 25.72900
C  -7.94300 22.19400 22.50700
O  -7.61800 22.59000 21.38300
C  -8.83700 21.04400 22.47000
N  -4.02300 25.94200 23.54300
C  -4.69500 25.36100 22.54400
C  -4.24700 25.88400 21.12200
C  -3.13800 26.92700 21.52300
C  -3.14000 26.82700 23.05200
C  -3.61000 24.68100 20.30200
C  -3.23600 28.42800 21.05500
C  -3.31400 28.66300 19.48600
N  -3.05000 26.90400 26.05500
C  -2.18000 27.61900 25.23500
C  -1.41000 28.58300 26.06200
C  -1.80700 28.28300 27.38100
C  -2.74600 27.23300 27.35600
C  -0.41400 29.57900 25.62200
C  -1.65400 28.62600 28.78600
O  -1.01100 29.50200 29.32200
C  -2.57300 27.58500 29.62600
C  -1.69400 26.92500 30.72000
O  -1.13900 25.81800 30.67500
O  -1.62000 27.65200 31.83900
C  -0.78600 27.11100 32.93400
H  -7.22600 22.74900 28.03400
H  -6.21000 24.26600 21.72600
H  -1.71200 28.31800 23.25700
H  -4.06900 25.05500 30.74500
H  -6.75300 24.35800 29.73800
H  -6.18000 22.72300 31.22700
H  -4.42100 22.88900 30.93500
H  -5.36200 21.97500 29.76700
H  -6.76300 26.24900 30.40900
H  -5.36500 27.36200 30.19400
H  -6.41000 27.06100 32.72600
H  -4.67900 27.28500 32.44600
H  -7.97200 20.61900 26.17400
H  -9.41700 21.14200 25.10900
H  -9.02500 22.13100 26.41400
H  -8.84400 20.70500 21.43400
H  -9.84600 21.32800 22.77100
H  -8.46200 20.25900 23.12800
H  -5.06000 26.41600 20.62700
H  -2.12500 26.60300 21.28400
H  -3.70900 23.84200 20.99100
H  -2.56900 24.68700 19.98000
H  -4.29100 24.47100 19.47700
H  -2.42300 29.02500 21.46800
H  -4.09300 28.86200 21.57000
H  -2.60600 29.46400 19.27300
H  -4.31700 29.01400 19.24700
H  -3.05800 27.94300 18.70900
H  0.01100 29.42400 24.63000
H  0.36800 29.62800 26.38000
H  -0.87300 30.56800 25.64400
H  -3.26800 28.24200 30.14900
H  -0.98600 26.09300 33.26900
H  -1.08300 27.84500 33.68300
H  0.25600 27.23700 32.64100

