158

Mg 46.99300 24.26000 28.38400
C  47.64100 26.74100 30.77500
C  46.17900 22.05000 30.70400
C  46.56300 21.89800 25.88700
C  48.23300 26.54100 26.02100
N  46.99000 24.39700 30.50600
C  47.11500 25.55000 31.31400
C  46.75100 25.26100 32.81200
C  46.41200 23.71100 32.75700
C  46.54700 23.32100 31.24100
C  47.36100 22.74100 33.48000
C  45.52800 26.07800 33.24800
C  44.93400 25.58600 34.57500
H  44.72800 26.64400 35.70000
N  46.49500 22.23000 28.34000
C  46.17400 21.49700 29.38500
C  45.81900 20.12000 28.98600
C  45.89000 20.05400 27.54600
C  46.39500 21.44300 27.21800
C  45.52100 19.08300 30.08700
C  45.60000 18.86000 26.69500
O  45.67000 18.92100 25.46700
C  44.93500 17.66600 27.28600
N  47.46000 24.14600 26.30700
C  47.07400 23.14800 25.49600
C  47.19200 23.63400 24.02500
C  47.43800 25.15700 24.05300
C  47.69000 25.31000 25.53500
C  48.10200 22.78000 23.12000
C  46.22900 26.14100 23.55800
C  44.81600 25.80800 24.11400
N  47.90600 26.17500 28.37100
C  48.31300 26.95500 27.34900
C  48.79100 28.24200 27.77900
C  48.49000 28.26500 29.19300
C  47.98600 26.95700 29.44400
C  49.36500 29.28400 26.92600
C  48.49500 29.05900 30.40500
O  48.86700 30.22500 30.53000
C  47.88600 28.09400 31.48000
C  48.79000 27.85300 32.69700
O  49.93800 27.42100 32.60200
O  48.19100 28.12800 33.87900
C  48.84700 27.63800 35.07800
H  45.87000 21.39200 31.51900
H  46.37200 21.24300 25.03500
H  48.48800 27.28300 25.26100
H  47.56300 25.52000 33.49200
H  45.38400 23.51700 33.06300
H  46.73800 21.99400 33.97200
H  47.89400 23.33200 34.22400
H  48.09900 22.20200 32.88500
H  44.79200 26.06700 32.44300
H  45.80300 27.10200 33.50100
H  45.47500 24.73200 34.98300
H  43.90300 25.27300 34.41100
H  44.49100 18.72500 30.08500
H  45.54600 19.49900 31.09500
H  46.23300 18.26600 29.96700
H  44.13100 18.07400 27.89900
H  45.62500 17.18600 27.98000
H  44.48800 16.92300 26.62600
H  46.17900 23.49800 23.64400
H  48.33900 25.34300 23.46900
H  47.64700 22.21800 22.30500
H  48.54600 22.03400 23.77900
H  48.91100 23.40200 22.73600
H  46.15300 26.02900 22.47700
H  46.55900 27.13700 23.85100
H  44.16100 25.36800 23.36200
H  44.45100 26.79500 24.40000
H  44.81500 25.20200 25.02000
H  48.56100 29.95500 26.62200
H  49.78000 28.86800 26.00800
H  50.18900 29.79000 27.42900
H  46.99900 28.52400 31.94600
H  49.92800 27.66100 34.93300
H  48.55500 26.62200 35.34100
H  48.55700 28.23100 35.94600
Mg -2.40900 34.34000 26.73700
C  -3.52600 32.40400 29.33600
C  -1.08900 36.64100 28.82100
C  -1.50600 36.40200 24.05600
C  -3.85400 32.13600 24.56800
N  -2.42000 34.49400 28.83100
C  -2.86100 33.59100 29.78500
C  -2.57400 34.08600 31.26500
C  -1.82600 35.44100 31.05900
C  -1.83400 35.58300 29.44100
C  -2.40900 36.73100 31.79000
C  -1.69800 33.04200 32.10900
C  -2.28300 32.49000 33.42300
H  -1.32900 32.59900 34.63600
N  -1.50800 36.30300 26.52100
C  -0.97400 37.05100 27.57700
C  -0.51200 38.33800 27.07300
C  -0.66800 38.29600 25.64500
C  -1.15600 36.92700 25.34000
C  -0.19200 39.43400 28.07200
C  -0.37100 39.45500 24.68500
O  -0.43900 39.30500 23.45300
C  0.02500 40.77900 25.32800
N  -2.86000 34.43600 24.60500
C  -2.31800 35.29400 23.77400
C  -2.72400 34.91500 22.27800
C  -3.09200 33.40200 22.46000
C  -3.30700 33.30400 23.97700
C  -3.84800 35.85700 21.79300
C  -2.04100 32.41300 21.85100
C  -0.77800 32.04500 22.67000
N  -3.57200 32.65000 26.90900
C  -4.14900 31.85700 25.93300
C  -4.86800 30.70000 26.51600
C  -4.61600 30.79900 27.84000
C  -3.89400 32.04200 28.04800
C  -5.43000 29.54200 25.77100
C  -4.75900 30.27200 29.12900
O  -5.46400 29.33400 29.54100
C  -4.05100 31.24300 30.10100
C  -5.06400 31.61000 31.07100
O  -5.98600 32.42300 30.82600
O  -4.99300 30.91400 32.16000
C  -5.96500 31.13800 33.29300
H  -0.61700 37.17300 29.64900
H  -1.24100 37.03900 23.21000
H  -4.26200 31.37300 23.90100
H  -3.43700 34.40700 31.84900
H  -0.79600 35.24100 31.35300
H  -2.97500 37.35200 31.09500
H  -1.53600 37.30100 32.10700
H  -2.92300 36.46000 32.71200
H  -0.70600 33.41600 32.36300
H  -1.51300 32.16100 31.49500
H  -2.45000 31.42200 33.27700
H  -3.32300 32.77600 33.58100
H  -0.00900 39.16200 29.11100
H  -0.99900 40.16600 28.05200
H  0.75600 39.88500 27.78200
H  0.13500 41.44500 24.47300
H  0.98700 40.68900 25.83200
H  -0.74500 41.09000 26.03500
H  -1.97900 35.05500 21.49500
H  -4.10500 33.23500 22.09300
H  -4.15800 36.56800 22.55800
H  -4.77000 35.30800 21.60000
H  -3.59900 36.35700 20.85700
H  -1.73900 32.83800 20.89300
H  -2.64200 31.53400 21.61700
H  -0.54800 32.64300 23.55200
H  0.08900 31.74900 22.07900
H  -1.07200 31.16600 23.24300
H  -5.30000 28.76500 26.52400
H  -4.90600 29.32600 24.84000
H  -6.51300 29.60600 25.66800
H  -3.23700 30.68100 30.55900
H  -6.96000 31.34300 32.89900
H  -5.60100 31.96900 33.89800
H  -5.99200 30.23600 33.90500

