158

Mg 16.75000 -1.66000 27.73500
C  15.50100 0.39100 30.41300
C  18.53900 -3.41900 30.02200
C  18.44900 -3.32300 25.07500
C  15.05800 0.21200 25.51300
N  16.92800 -1.53800 29.96300
C  16.39100 -0.63200 30.83100
C  16.90900 -0.80100 32.27900
C  17.92500 -2.02100 32.09100
C  17.81100 -2.37200 30.60600
C  19.40600 -1.90800 32.59700
C  15.62400 -1.04200 33.17200
C  15.76000 -0.58100 34.72700
H  17.16200 -0.22200 35.28300
N  18.21000 -3.15900 27.57500
C  18.81300 -3.74200 28.63200
C  19.71500 -4.80500 28.20000
C  19.60700 -4.84600 26.76300
C  18.71400 -3.78200 26.41800
C  20.61200 -5.57700 29.18200
C  20.17500 -5.86500 25.76900
O  19.92400 -5.82700 24.59600
C  21.20400 -6.97000 26.20200
N  16.85200 -1.58900 25.57000
C  17.54400 -2.26500 24.71300
C  17.37600 -1.72400 23.19500
C  16.24500 -0.66000 23.44700
C  16.00200 -0.67500 24.95000
C  18.69500 -1.16200 22.62200
C  14.95800 -0.89600 22.56900
C  14.42900 0.35400 21.97600
N  15.57500 -0.04000 27.90400
C  14.85800 0.61900 26.87000
C  14.04000 1.73400 27.39700
C  14.26800 1.67300 28.78200
C  15.17500 0.56900 29.02300
C  13.20800 2.61000 26.55900
C  13.90900 2.33000 30.04900
O  13.21600 3.31500 30.30700
C  14.69400 1.54500 31.16400
C  15.58400 2.47700 31.96800
O  16.78500 2.73200 31.75300
O  14.85400 3.00900 32.97700
C  15.73200 3.62300 34.03500
H  19.21800 -3.83200 30.77100
H  18.96800 -3.79100 24.23500
H  14.48700 0.76600 24.76500
H  17.42700 0.02700 32.76300
H  17.46500 -2.88000 32.58200
H  19.48900 -0.98400 33.16900
H  20.12200 -1.77600 31.78500
H  19.65100 -2.81800 33.14400
H  15.38400 -2.10100 33.07400
H  14.80500 -0.51700 32.67900
H  15.44200 -1.38700 35.38900
H  15.02000 0.19800 34.90700
H  20.52000 -6.64000 28.95900
H  20.37500 -5.30300 30.21000
H  21.64200 -5.26000 29.01600
H  20.68600 -7.84200 26.60100
H  21.81200 -6.44800 26.94100
H  21.85500 -7.18200 25.35400
H  17.00600 -2.55200 22.58900
H  16.57300 0.37500 23.35000
H  18.39400 -0.51200 21.80100
H  19.28000 -1.93900 22.12900
H  19.20700 -0.44600 23.26500
H  14.19200 -1.24700 23.26000
H  15.22500 -1.66000 21.83900
H  14.30300 0.20400 20.90400
H  15.04700 1.22900 22.18000
H  13.45200 0.60200 22.39000
H  13.74700 3.54900 26.43600
H  12.28500 2.94800 27.03200
H  13.02400 2.21800 25.55900
H  13.96100 1.20700 31.89700
H  15.24100 3.66500 35.00700
H  16.04300 4.59900 33.66100
H  16.53700 2.92300 34.26000
Mg 26.80500 49.94900 26.53700
C  24.51000 51.06400 29.02500
C  28.95300 48.93700 29.08100
C  29.10000 49.25700 24.27600
C  24.60800 51.26700 24.13700
N  26.73200 49.97500 28.81400
C  25.61700 50.34800 29.53500
C  26.00300 50.24100 31.01600
C  27.56300 49.82500 31.00300
C  27.74200 49.47400 29.52200
C  28.50000 50.94800 31.55900
C  25.04200 49.41300 31.84000
C  24.47100 49.99000 33.12000
H  24.52000 49.12900 34.43000
N  28.67800 49.14500 26.68500
C  29.38900 48.76900 27.79600
C  30.63000 48.12900 27.39200
C  30.69200 48.19300 25.95000
C  29.41100 48.80600 25.56000
C  31.60200 47.57100 28.33800
C  31.81000 47.80000 25.06800
O  31.82000 48.00400 23.85100
C  33.03000 47.21100 25.53800
N  26.84100 50.11300 24.60700
C  27.92800 49.80200 23.83800
C  27.62600 49.83100 22.35700
C  26.15700 50.28900 22.37800
C  25.83200 50.62100 23.80300
C  28.50400 50.78600 21.57200
C  25.26500 49.16900 21.75600
C  24.70100 49.66000 20.40700
N  24.92400 50.99200 26.56800
C  24.21200 51.44200 25.48100
C  23.04500 52.07100 25.98000
C  23.14800 52.02500 27.38300
C  24.31900 51.29500 27.63200
C  21.93800 52.76900 25.17100
C  22.50800 52.36000 28.49500
O  21.39600 52.82700 28.57400
C  23.35500 51.71900 29.64300
C  23.78600 52.86500 30.44400
O  24.69800 53.70600 30.17100
O  22.88100 52.86600 31.50200
C  22.99800 53.96700 32.42100
H  29.50500 48.57900 29.95200
H  29.74400 48.96900 23.44200
H  23.90200 51.62200 23.38400
H  25.87500 51.21400 31.49100
H  27.69200 48.98400 31.68500
H  28.89000 51.43100 30.66300
H  29.23400 50.40000 32.15000
H  27.95100 51.72900 32.08500
H  25.54600 48.46600 32.03400
H  24.28100 49.11400 31.11900
H  23.38500 50.05500 33.04900
H  24.92200 50.95900 33.33300
H  32.53500 47.99500 27.96600
H  31.59000 46.48600 28.23100
H  31.42100 47.80300 29.38800
H  32.80700 46.35800 26.17900
H  33.50700 48.03400 26.06900
H  33.75500 46.98700 24.75600
H  27.76100 48.82000 21.97200
H  25.99500 51.21400 21.82400
H  29.32000 51.15200 22.19500
H  27.86700 51.53700 21.10400
H  29.09000 50.30600 20.78800
H  24.37900 48.90000 22.33200
H  25.74900 48.19900 21.64000
H  23.64700 49.88200 20.57400
H  24.83300 48.84400 19.69600
H  25.27900 50.48000 19.97900
H  22.38900 52.95300 24.19500
H  21.70900 53.76300 25.55700
H  21.07800 52.10100 25.14600
H  22.79300 51.04600 30.29100
H  23.35400 54.89200 31.96600
H  23.74200 53.72400 33.18000
H  22.07400 54.08300 32.98700

