158

Mg 8.36600 4.38600 28.24400
C  9.82100 2.87700 31.13600
C  6.39400 6.17100 30.36300
C  7.00000 5.69600 25.44000
C  10.03300 1.99900 26.17000
N  8.18000 4.51000 30.50100
C  8.86800 3.86100 31.50400
C  8.53100 4.32800 32.91900
C  7.36600 5.28000 32.58900
C  7.28700 5.35600 31.07000
C  5.93000 5.01500 33.22600
C  9.78300 4.83500 33.74200
C  9.45400 5.71100 34.91200
H  10.08300 5.35700 36.31300
N  6.91100 5.68000 27.94400
C  6.18400 6.31600 28.96200
C  5.32700 7.26700 28.28900
C  5.64600 7.21700 26.92000
C  6.54700 6.18500 26.69700
C  4.26700 8.12600 29.00100
C  5.14300 8.18000 25.74600
O  5.56500 8.06500 24.61500
C  4.31800 9.38500 25.99400
N  8.34800 3.75200 26.10900
C  7.82000 4.59100 25.14900
C  8.08900 4.13300 23.70900
C  9.21200 3.07600 24.00100
C  9.16700 2.84800 25.50100
C  6.88900 3.42600 23.03800
C  10.58400 3.31200 23.36200
C  11.56300 4.25900 24.00200
N  9.70900 2.85900 28.55700
C  10.24900 1.98100 27.60400
C  11.14200 1.05200 28.29200
C  11.04600 1.39900 29.71800
C  10.08500 2.43600 29.80400
C  11.92300 0.00400 27.63700
C  11.43500 1.01100 31.00100
O  12.16200 0.05500 31.37800
C  10.82700 2.08300 31.94500
C  10.29600 1.39800 33.17900
O  9.17600 0.91800 33.24700
O  11.28600 1.45100 34.13600
C  11.13300 0.57000 35.35600
H  5.89900 7.02100 30.83700
H  6.57400 6.01900 24.48800
H  10.47100 1.19600 25.57400
H  8.07000 3.49000 33.44200
H  7.58200 6.27400 32.98000
H  5.91700 3.97700 33.55600
H  5.13900 5.05100 32.47700
H  5.58600 5.68600 34.01400
H  10.50100 5.41900 33.16600
H  10.36700 4.04200 34.20700
H  8.37200 5.72200 35.04400
H  9.84200 6.70100 34.67400
H  4.59900 9.15800 28.88000
H  4.05100 7.92100 30.04900
H  3.30600 8.03200 28.49600
H  3.25900 9.20900 26.18300
H  4.45700 10.12300 25.20400
H  4.81400 9.86700 26.83600
H  8.50300 4.97100 23.14700
H  8.84400 2.15500 23.55000
H  7.02800 3.02400 22.03400
H  6.10000 4.16200 22.88800
H  6.60100 2.64000 23.73600
H  10.42100 3.69800 22.35600
H  11.14200 2.37900 23.29900
H  11.03400 4.79800 24.78700
H  12.04300 4.96800 23.32700
H  12.29300 3.63000 24.51200
H  11.32800 -0.62600 26.97600
H  12.33300 -0.63400 28.42000
H  12.81000 0.29300 27.07200
H  11.52400 2.81100 32.36200
H  10.78900 1.30100 36.08800
H  12.05200 0.07000 35.66300
H  10.33400 -0.15800 35.21100
Mg 16.77500 51.84300 25.77800
C  18.72600 50.55600 28.36000
C  14.36500 52.47000 28.04600
C  14.97300 53.00800 23.14900
C  19.23400 50.64300 23.45300
N  16.47200 51.42200 27.93300
C  17.50600 51.11900 28.75300
C  17.07000 51.29400 30.21000
C  15.54100 51.56100 30.13200
C  15.42200 51.78700 28.63500
C  14.53200 50.50400 30.53200
C  17.94600 52.35600 30.92300
C  18.27500 52.22900 32.37500
H  17.24800 51.43600 33.22400
N  14.99800 52.76000 25.64400
C  14.09800 52.86700 26.67700
C  12.87500 53.60000 26.13100
C  13.04900 53.79200 24.66700
C  14.40600 53.20200 24.41700
C  11.70500 53.95700 26.96400
C  12.17900 54.45900 23.68700
O  12.50100 54.68500 22.52000
C  10.86900 55.11600 24.10000
N  17.05100 51.76900 23.65500
C  16.15100 52.36100 22.75500
C  16.61400 52.30200 21.31000
C  18.02900 51.69100 21.49800
C  18.15000 51.36300 22.94500
C  15.75300 51.28200 20.41300
C  19.12100 52.51900 20.79500
C  19.86800 51.90000 19.57600
N  18.61100 50.72300 25.86800
C  19.42600 50.29500 24.86900
C  20.57800 49.67300 25.49300
C  20.32400 49.61000 26.86100
C  19.10500 50.40400 27.01600
C  21.94500 49.31000 24.78100
C  20.78500 49.17600 28.19000
O  21.74000 48.51700 28.51600
C  19.81200 49.78700 29.18500
C  19.26300 48.75800 30.02900
O  18.34200 48.02100 29.76600
O  19.96800 48.71800 31.20700
C  19.31800 47.85800 32.18000
H  13.61600 52.88800 28.72200
H  14.49300 53.42600 22.26100
H  19.88500 50.32500 22.63700
H  17.33200 50.35600 30.69800
H  15.35100 52.53400 30.58400
H  13.82200 51.06200 31.14300
H  14.97300 49.79300 31.23100
H  14.06400 50.01500 29.67700
H  17.59400 53.38800 30.91600
H  18.89200 52.34500 30.38200
H  18.40600 53.19800 32.85700
H  19.20500 51.66100 32.40200
H  10.89200 53.27100 26.72600
H  11.48100 55.00300 26.75800
H  11.94300 53.95200 28.02800
H  10.98000 56.05000 24.65000
H  10.12800 54.43800 24.52200
H  10.37800 55.33800 23.15300
H  16.59900 53.34400 20.99000
H  18.15800 50.76100 20.94400
H  14.84800 50.87200 20.86300
H  16.35000 50.40300 20.17200
H  15.54500 51.86200 19.51400
H  19.66000 52.95800 21.63400
H  18.68600 53.40600 20.33500
H  19.24000 51.14700 19.10000
H  20.81500 51.43300 19.84600
H  20.15200 52.67400 18.86300
H  22.12700 49.72200 23.78800
H  22.11200 48.24200 24.91700
H  22.66700 49.88600 25.36000
H  20.38300 50.50000 29.78000
H  19.28200 46.79700 31.92900
H  18.28900 48.11700 32.43000
H  19.90400 47.80900 33.09800

