158

Mg 35.83600 0.83900 29.88900
C  33.79400 2.08900 32.50700
C  38.45400 0.79900 32.14600
C  37.88300 -0.24000 27.38400
C  33.30100 1.45500 27.63700
N  35.99000 1.33500 32.09200
C  35.05200 1.74200 32.99200
C  35.64000 2.01400 34.35200
C  37.15300 1.76200 34.19500
C  37.23800 1.17800 32.73700
C  38.08700 3.04300 34.42500
C  34.87300 1.18800 35.47200
C  34.35000 1.95000 36.78500
H  35.08300 3.08300 37.39400
N  37.88700 0.19600 29.76800
C  38.81300 0.36300 30.78700
C  40.17200 0.11500 30.32100
C  39.96500 -0.36100 28.94600
C  38.54400 -0.18500 28.61400
C  41.45600 0.30400 31.12200
C  41.08200 -0.86600 27.95500
O  40.79300 -1.21200 26.79900
C  42.49200 -0.92500 28.48800
N  35.62800 0.64500 27.81400
C  36.56800 0.09700 26.99100
C  36.12600 0.01000 25.53700
C  34.62500 0.56500 25.65300
C  34.52100 0.91400 27.12900
C  37.05800 0.60200 24.46500
C  33.56300 -0.37900 25.17500
C  33.30300 -1.64800 25.94100
N  34.03300 1.72800 29.97500
C  33.06300 1.81800 28.97000
C  31.82700 2.19500 29.51400
C  32.09300 2.46100 30.90000
C  33.42100 2.02500 31.15000
C  30.53000 2.43600 28.77000
C  31.52400 2.85500 32.15100
O  30.31600 3.11300 32.34400
C  32.59200 2.70900 33.23800
C  32.92600 4.05400 33.78200
O  33.70700 4.86200 33.24600
O  32.12000 4.35000 34.81800
C  32.32500 5.63300 35.55800
H  39.27800 0.92300 32.85200
H  38.53800 -0.58900 26.58300
H  32.45300 1.53700 26.95400
H  35.44600 3.06500 34.56400
H  37.56900 1.02900 34.88600
H  37.49100 3.93800 34.24800
H  38.94300 3.00900 33.75100
H  38.62300 2.99200 35.37300
H  35.58200 0.41400 35.76500
H  33.97000 0.72300 35.07600
H  34.19300 1.17800 37.53800
H  33.37300 2.38400 36.57000
H  41.32500 0.98200 31.96600
H  42.20900 0.85500 30.55700
H  41.95100 -0.62200 31.41400
H  42.91100 0.07900 28.42100
H  43.02900 -1.62600 27.84900
H  42.64500 -1.35500 29.47800
H  36.05000 -1.03200 25.22400
H  34.60200 1.57200 25.23500
H  37.58500 -0.11400 23.83400
H  37.91300 1.20400 24.77300
H  36.47000 1.27700 23.84200
H  33.95300 -0.67300 24.20100
H  32.65600 0.19700 24.99000
H  34.00500 -1.76500 26.76700
H  33.35500 -2.50700 25.27300
H  32.33600 -1.57600 26.43700
H  29.72400 1.90200 29.27400
H  30.65000 2.01400 27.77200
H  30.21900 3.47400 28.65900
H  32.19600 2.10300 34.05200
H  33.32000 6.05700 35.42200
H  32.21200 5.49600 36.63300
H  31.54800 6.33200 35.24800
Mg 41.25700 41.38400 27.00000
C  40.18900 43.66700 29.56900
C  42.18800 39.24800 29.52000
C  42.61500 39.61600 24.65300
C  40.70100 43.99800 24.70200
N  41.42500 41.58400 29.29800
C  40.74200 42.51800 30.11300
C  40.84300 42.08200 31.64300
C  41.60300 40.65500 31.56600
C  41.77900 40.49000 30.03700
C  42.94000 40.33800 32.26200
C  39.45700 41.99800 32.41900
C  39.43800 41.68300 33.87300
H  38.84900 42.75700 34.83000
N  42.17000 39.70200 27.06200
C  42.37500 38.85600 28.10200
C  42.98300 37.64300 27.61800
C  43.02100 37.69700 26.26700
C  42.65300 39.06500 25.92700
C  43.30900 36.46700 28.59900
C  43.32100 36.59500 25.25600
O  43.40900 36.78300 24.04900
C  43.62700 35.21200 25.70700
N  41.55500 41.69300 24.90200
C  42.22700 40.83200 24.10800
C  42.27900 41.27500 22.62000
C  41.55400 42.67300 22.76800
C  41.22900 42.78100 24.18000
C  43.71900 41.28500 22.11000
C  40.45100 43.00100 21.73000
C  38.91300 42.66300 22.02100
N  40.42200 43.34400 27.02300
C  40.32500 44.31000 26.03100
C  39.75900 45.55500 26.56100
C  39.74500 45.32200 27.94300
C  40.23600 43.99000 28.16900
C  39.37500 46.76600 25.88000
C  39.39200 45.97400 29.15800
O  38.97000 47.10700 29.37900
C  39.67300 44.96100 30.21200
C  40.50400 45.50200 31.32500
O  41.68700 45.84600 31.28200
O  39.63200 45.65600 32.46200
C  40.13400 46.44900 33.59200
H  42.53200 38.57100 30.30400
H  43.07500 39.00000 23.87800
H  40.55700 44.69200 23.87100
H  41.38200 42.71900 32.34400
H  40.84100 39.92900 31.85000
H  42.62400 39.49000 32.87000
H  43.16100 41.17700 32.92200
H  43.72100 39.98600 31.58800
H  38.92100 41.13300 32.02700
H  39.08200 42.99700 32.19900
H  40.47000 41.43400 34.12100
H  38.75500 40.84700 34.02000
H  42.98900 36.59500 29.63400
H  44.39100 36.33600 28.60600
H  42.84900 35.52600 28.29900
H  43.75900 34.55400 24.84800
H  42.82900 34.84500 26.35300
H  44.52100 35.25200 26.32900
H  41.62600 40.65100 22.00900
H  42.28600 43.47600 22.68500
H  43.81500 40.57600 21.28700
H  44.48500 41.01800 22.83700
H  44.12100 42.27500 21.89700
H  40.65400 42.41500 20.83300
H  40.63500 44.04700 21.48300
H  38.58500 42.05900 21.17500
H  38.29200 43.54900 21.88600
H  38.88400 42.15200 22.98300
H  38.46000 47.05400 26.39700
H  38.96000 46.47500 24.91500
H  40.08900 47.58300 25.77500
H  38.70700 44.77700 30.68200
H  40.57400 45.80900 34.35700
H  39.32300 47.09700 33.92200
H  40.96600 47.11700 33.36900

