158

Mg 47.59300 16.15300 29.02000
C  45.35500 15.93300 31.63400
C  49.90200 17.53500 30.93700
C  49.35900 17.05100 26.16200
C  45.17000 14.80600 26.91500
N  47.58800 16.63400 30.99400
C  46.61500 16.46900 31.95800
C  47.08500 16.70300 33.34700
C  48.39700 17.44700 33.07500
C  48.68400 17.17600 31.59100
C  48.36900 18.99600 33.42000
C  47.24500 15.30300 34.04700
C  47.32200 15.37600 35.57200
H  46.95500 16.66500 36.24900
N  49.48900 17.09000 28.61600
C  50.28500 17.56000 29.57100
C  51.54000 18.03300 28.95400
C  51.36600 17.87400 27.58200
C  49.98900 17.32300 27.42400
C  52.72200 18.45300 29.76200
C  52.31100 18.26900 26.42600
O  52.08800 18.04500 25.32000
C  53.67700 18.80900 26.64300
N  47.34500 15.82800 26.90300
C  48.21300 16.27500 25.95200
C  47.64800 16.11200 24.54400
C  46.37000 15.16000 24.80100
C  46.28900 15.21800 26.32100
C  47.38900 17.42300 23.76200
C  46.61300 13.68500 24.31200
C  46.34800 13.54000 22.79700
N  45.63400 15.35700 29.19900
C  44.77300 14.87500 28.28200
C  43.61400 14.44700 28.89100
C  43.73600 14.84900 30.27600
C  44.96400 15.38700 30.36400
C  42.35400 14.05300 28.10900
C  43.11000 14.91800 31.53200
O  41.96300 14.60700 31.83200
C  44.13200 15.58500 32.59900
C  43.43200 16.76800 33.14700
O  43.19800 17.83400 32.55100
O  42.84800 16.42500 34.31900
C  41.95000 17.47500 34.97200
H  50.64700 17.95300 31.61600
H  49.85500 17.38700 25.24900
H  44.48500 14.30100 26.23000
H  46.44800 17.39900 33.89300
H  49.14500 16.99800 33.72900
H  48.55500 19.53000 32.48900
H  49.11500 19.39400 34.10800
H  47.41800 19.33100 33.83500
H  48.26500 15.02200 33.78700
H  46.58700 14.48800 33.74600
H  48.35600 15.15100 35.83200
H  46.82800 14.50200 35.99500
H  53.55200 18.05100 29.18200
H  52.72000 18.21100 30.82500
H  52.78500 19.54100 29.74400
H  54.17900 19.16900 25.74500
H  54.35900 18.13400 27.15900
H  53.59200 19.56900 27.42000
H  48.48500 15.51000 24.19000
H  45.46700 15.50800 24.29700
H  46.33500 17.70200 23.75600
H  47.83700 17.36500 22.76900
H  47.94000 18.17700 24.32400
H  45.98400 13.03400 24.92000
H  47.60400 13.28300 24.51800
H  45.88600 12.55600 22.71800
H  47.34600 13.50300 22.36000
H  45.77700 14.37700 22.39400
H  41.94300 14.81100 27.44200
H  41.62000 13.79200 28.87100
H  42.58600 13.19000 27.48500
H  44.22700 14.76300 33.30900
H  41.05500 17.66000 34.37900
H  42.47000 18.40100 35.21900
H  41.67500 17.10400 35.95900
Mg 30.29000 59.79300 40.27300
C  27.51400 57.65900 39.30100
C  32.41000 57.32000 39.01900
C  32.74100 61.92800 40.78400
C  27.91100 62.22600 40.77200
N  30.00900 57.64800 39.55900
C  28.79000 57.05700 39.13000
C  29.01100 55.76600 38.33600
C  30.57100 55.51500 38.58600
C  31.06100 56.91600 39.06200
C  30.94300 54.41700 39.49500
C  28.61500 55.94600 36.88300
C  27.81700 54.90300 36.19900
H  27.01900 55.35200 34.98800
N  32.28500 59.65100 39.98100
C  32.97100 58.56600 39.43700
C  34.37000 58.89700 39.33700
C  34.53100 60.18500 39.86900
C  33.21600 60.66100 40.29800
C  35.42100 57.97400 38.78700
C  35.83400 60.89800 40.04800
O  36.86200 60.30400 39.70000
C  35.99100 62.19900 40.82000
N  30.30500 61.90400 40.49700
C  31.48000 62.53000 40.82900
C  31.12900 63.95200 41.32800
C  29.60700 64.04800 41.07300
C  29.26800 62.59000 40.88300
C  31.54500 64.19700 42.78100
C  29.17400 64.97200 39.85600
C  28.41100 66.32900 40.20100
N  28.12600 59.97900 40.11500
C  27.32900 61.09500 40.27100
C  25.99400 60.81800 39.98600
C  26.00500 59.38400 39.62600
C  27.34300 58.96300 39.68200
C  24.79500 61.71400 40.11000
C  25.17800 58.26000 39.18400
O  23.97200 58.23200 39.08300
C  26.19500 57.13800 38.95700
C  25.69700 55.90800 39.68800
O  25.65700 55.73400 40.89500
O  25.51400 54.92500 38.81400
C  25.24700 53.60600 39.28400
H  32.98300 56.46100 38.66500
H  33.47700 62.73400 40.74900
H  27.15800 63.00200 40.92600
H  28.46600 54.90900 38.73300
H  30.93500 55.28400 37.58500
H  31.66800 54.88800 40.15900
H  31.27200 53.54200 38.93400
H  30.10700 54.20000 40.16100
H  29.48800 56.12100 36.25400
H  28.21500 56.94400 36.70600
H  27.11500 54.42100 36.87900
H  28.57000 54.23900 35.77500
H  36.35000 58.03700 39.35300
H  35.68100 58.20300 37.75400
H  35.06100 56.95000 38.68000
H  35.35300 61.94400 41.66700
H  35.63600 63.11800 40.35400
H  37.05100 62.29500 41.05400
H  31.65900 64.69300 40.73000
H  29.09100 64.38100 41.97300
H  32.22200 65.04100 42.91600
H  32.00400 63.29900 43.19500
H  30.70400 64.39800 43.44400
H  28.49900 64.41300 39.20700
H  30.04600 65.33100 39.30900
H  28.22000 66.47900 41.26300
H  27.45100 66.37800 39.68600
H  29.08800 67.14000 39.93300
H  25.04400 62.44200 39.33800
H  24.81300 62.21800 41.07600
H  23.84300 61.20500 39.95700
H  26.14400 56.83300 37.91200
H  24.17100 53.43700 39.34300
H  25.65800 53.36200 40.26400
H  25.71600 53.04700 38.47500

