158

Mg 25.55500 1.29800 30.02500
C  27.35500 1.46200 33.21700
C  22.65600 1.85400 31.92800
C  23.79400 0.66400 27.29600
C  28.53400 0.61000 28.44900
N  25.09100 1.65800 32.35400
C  25.98500 1.65900 33.40500
C  25.32300 2.00500 34.76700
C  23.82600 1.88000 34.27900
C  23.85200 1.83900 32.74400
C  23.14100 0.57500 34.78200
C  25.71300 3.35200 35.41100
C  26.42500 3.25500 36.82900
H  26.05100 4.31100 37.86500
N  23.44200 1.28700 29.68700
C  22.41300 1.62800 30.53500
C  21.15600 1.64300 29.81600
C  21.52500 1.23700 28.48300
C  22.97700 0.98900 28.40700
C  19.80600 2.05000 30.41900
C  20.57700 1.13900 27.37900
O  20.91100 0.57800 26.34000
C  19.15900 1.68400 27.48600
N  26.11300 0.66300 28.17300
C  25.22200 0.59200 27.15600
C  25.87900 0.26800 25.78700
C  27.40300 0.49000 26.14000
C  27.33100 0.63900 27.66400
C  25.52800 -1.20700 25.37100
C  28.10800 1.73800 25.46600
C  27.19700 2.96200 25.35600
N  27.55500 1.01600 30.63600
C  28.69200 0.82000 29.84500
C  29.78400 0.82100 30.70700
C  29.35100 1.13000 31.99600
C  27.99600 1.23900 31.93500
C  31.21100 0.52000 30.36900
C  29.79800 1.37700 33.33300
O  30.92600 1.46100 33.77600
C  28.49100 1.52900 34.22700
C  28.34900 0.45000 35.22400
O  27.86400 -0.65100 35.00500
O  28.70500 0.85600 36.55100
C  28.78600 -0.14200 37.52600
H  21.84300 2.18900 32.57600
H  23.26900 0.43300 26.36700
H  29.47500 0.46800 27.91400
H  25.49700 1.30900 35.58800
H  23.35500 2.77700 34.68200
H  22.57100 -0.00400 34.05500
H  22.43300 0.92900 35.53100
H  23.92000 -0.03500 35.24000
H  24.84600 3.98700 35.59500
H  26.40500 3.68100 34.63600
H  27.45900 3.53000 36.62000
H  26.44300 2.25800 37.27000
H  19.09500 1.26900 30.15000
H  19.51300 2.97400 29.92000
H  19.80800 2.08800 31.50800
H  18.41300 1.05000 27.96600
H  18.75600 1.56300 26.48100
H  19.11600 2.72200 27.81600
H  25.49600 0.91400 24.99700
H  28.07500 -0.31600 25.84600
H  24.68300 -1.59100 25.94300
H  26.32300 -1.95200 25.38800
H  25.13200 -1.14400 24.35800
H  28.38600 1.35200 24.48500
H  28.94000 1.96200 26.13400
H  26.28000 2.86300 25.93700
H  26.94600 3.05200 24.29900
H  27.70200 3.89500 25.60700
H  31.44100 0.98600 29.41000
H  31.35400 -0.56000 30.38200
H  31.84600 0.68600 31.23900
H  28.45300 2.52500 34.66700
H  27.79400 -0.31000 37.94600
H  29.60300 -0.01300 38.23600
H  29.00300 -1.13500 37.13100
Mg 54.44600 24.52200 45.00200
C  51.85600 26.94300 44.09000
C  52.36500 22.01400 43.79500
C  57.07300 22.44900 44.93500
C  56.50400 27.23000 45.51100
N  52.40500 24.54600 43.92400
C  51.48900 25.60600 43.83400
C  50.08200 25.03900 43.33600
C  50.27300 23.44900 43.63000
C  51.77700 23.29300 43.82700
C  49.46500 22.85000 44.88100
C  49.78800 25.34400 41.83700
C  48.26800 25.15200 41.49900
H  47.97200 24.89900 40.03000
N  54.65800 22.48300 44.61400
C  53.72300 21.66200 44.04700
C  54.32100 20.37300 43.84000
C  55.67800 20.45800 44.34800
C  55.86200 21.86200 44.59700
C  53.56700 19.15400 43.45600
C  56.67100 19.22000 44.46800
O  56.31100 18.03300 44.28200
C  57.99900 19.35400 44.88100
N  56.54800 24.83300 45.01900
C  57.40900 23.74400 45.16100
C  58.79900 24.33700 45.43500
C  58.65200 25.88500 45.60300
C  57.13100 26.00500 45.40400
C  59.59300 23.64000 46.65000
C  59.48500 26.72900 44.59700
C  58.88000 27.11700 43.23100
N  54.18900 26.56700 45.08300
C  55.13200 27.52500 45.36100
C  54.53900 28.77100 45.45200
C  53.25700 28.63300 44.86200
C  53.13400 27.26500 44.58900
C  55.23800 30.06600 45.71600
C  52.14900 29.40900 44.38500
O  52.01100 30.64800 44.46100
C  51.12200 28.31700 43.85000
C  50.85000 28.64000 42.40900
O  51.67500 28.60900 41.45500
O  49.53300 28.84200 42.26000
C  48.86000 29.17900 40.96800
H  51.62600 21.22300 43.65500
H  57.97100 21.82800 44.93600
H  57.23300 27.98900 45.80200
H  49.39900 25.49700 44.05200
H  50.14200 22.94600 42.67200
H  50.05500 22.06600 45.35500
H  48.54100 22.33900 44.61000
H  49.35700 23.68300 45.57600
H  50.40700 24.69000 41.22300
H  50.10200 26.37300 41.66500
H  47.84100 26.09600 41.83800
H  48.02400 24.28300 42.11000
H  54.06300 18.72300 42.58600
H  52.55300 19.38000 43.12500
H  53.50300 18.32600 44.16300
H  58.42700 18.37500 45.09500
H  58.01300 19.77900 45.88500
H  58.63300 19.93600 44.21100
H  59.30000 24.09800 44.49800
H  58.96100 26.07200 46.63100
H  59.21800 24.08400 47.57200
H  60.68100 23.64300 46.59100
H  59.17600 22.63300 46.62900
H  60.13200 25.97000 44.15600
H  60.05900 27.45400 45.17400
H  58.38400 26.19800 42.92000
H  59.73000 27.39600 42.60900
H  58.17000 27.90700 43.47800
H  55.51000 30.68200 44.85900
H  56.10100 29.88600 46.35600
H  54.59100 30.69300 46.33000
H  50.17100 28.33800 44.38100
H  49.65300 29.80400 40.55800
H  47.99200 29.82600 41.09100
H  48.61900 28.41200 40.23100

