158

Mg 45.86700 17.24200 29.00600
C  44.30500 16.83600 32.23500
C  48.16000 19.20900 30.51900
C  46.92300 17.88700 26.03100
C  43.07300 15.52000 27.66000
N  46.18800 17.92500 31.03400
C  45.42500 17.65100 32.21600
C  46.16300 18.15400 33.47400
C  47.38200 18.98100 32.88300
C  47.25900 18.75200 31.40000
C  47.39600 20.48600 33.17700
C  46.61600 17.09800 34.47900
C  46.20100 17.23300 35.98700
H  45.91000 18.64700 36.49000
N  47.37300 18.28600 28.37600
C  48.24500 18.96200 29.15600
C  49.41000 19.39800 28.38400
C  49.07500 19.04900 27.05600
C  47.71500 18.42200 27.09400
C  50.63900 20.08400 28.99400
C  49.89600 19.42900 25.81000
O  49.49000 19.11600 24.68100
C  51.18400 20.24600 25.82100
N  45.06500 16.76800 27.13800
C  45.67100 17.25900 26.05800
C  44.82500 17.04600 24.78500
C  43.81900 15.95900 25.24200
C  43.92200 16.11200 26.78300
C  44.17700 18.35100 24.25400
C  44.14900 14.47100 24.77600
C  43.71800 14.07500 23.36600
N  44.08500 16.25100 29.75700
C  43.04100 15.60600 29.05200
C  42.09000 15.15500 30.00100
C  42.59300 15.51600 31.25600
C  43.80100 16.22700 31.05400
C  40.83100 14.40800 29.64700
C  42.27000 15.51200 32.67600
O  41.36600 14.97300 33.29600
C  43.36100 16.45900 33.35000
C  42.72800 17.66400 34.01500
O  42.45200 18.69800 33.44400
O  42.49200 17.41000 35.33400
C  41.81800 18.42300 36.20000
H  48.95300 19.79800 30.98400
H  47.28900 18.03800 25.01400
H  42.32700 14.90600 27.15200
H  45.47800 18.91000 33.85600
H  48.31800 18.47900 33.13100
H  46.71700 20.84200 33.95200
H  47.30600 21.06800 32.25900
H  48.39700 20.70200 33.55000
H  47.69300 16.93900 34.42400
H  46.14500 16.18100 34.12300
H  46.94800 16.76400 36.62700
H  45.24400 16.71300 36.03400
H  51.51600 19.71300 28.46400
H  50.83600 19.88100 30.04600
H  50.60800 21.16600 28.86300
H  51.84500 19.65700 26.45700
H  51.03500 21.28900 26.10000
H  51.53700 20.23500 24.79000
H  45.38800 16.59200 23.97000
H  42.84400 16.17100 24.80500
H  43.90700 18.98900 25.09600
H  43.26300 18.12400 23.70400
H  44.72800 18.95800 23.53600
H  43.98800 13.72900 25.55700
H  45.22900 14.58900 24.68200
H  43.53400 15.01100 22.83900
H  42.80000 13.49600 23.46200
H  44.49700 13.46800 22.90500
H  40.78500 13.95900 28.65500
H  40.04900 15.15000 29.80800
H  40.70800 13.61800 30.38700
H  43.77800 15.77400 34.08800
H  42.11500 18.21800 37.22900
H  40.74500 18.23900 36.16900
H  42.21700 19.43000 36.07600
Mg -12.06700 16.30600 41.34900
C  -9.18400 14.37300 40.93100
C  -10.17600 18.98100 40.04400
C  -14.83200 17.98700 40.86000
C  -13.87800 13.41200 42.46200
N  -9.96300 16.71100 40.63600
C  -8.94900 15.71300 40.54400
C  -7.71300 16.30300 40.00300
C  -7.88900 17.86400 40.00400
C  -9.41300 17.90600 40.21500
C  -7.15200 18.70400 41.15000
C  -7.42100 15.75300 38.52300
C  -6.16900 15.03400 38.17700
H  -5.43700 15.57800 36.85700
N  -12.48000 18.28800 40.66700
C  -11.59400 19.15200 40.15900
C  -12.25600 20.34900 39.77700
C  -13.63200 20.15600 40.05900
C  -13.71500 18.74500 40.55400
C  -11.49300 21.57100 39.15600
C  -14.76100 21.05000 39.63700
O  -14.65300 21.97700 38.86200
C  -16.20100 20.75000 39.99100
N  -14.13400 15.72900 41.44800
C  -15.08800 16.63400 41.22200
C  -16.48300 15.99400 41.46600
C  -16.17400 14.64400 42.24000
C  -14.62400 14.56300 42.04800
C  -17.60800 16.93900 42.07100
C  -16.97400 13.32200 41.83600
C  -17.44500 12.56300 43.06300
N  -11.56700 14.28400 41.76700
C  -12.44900 13.21600 42.16400
C  -11.60700 11.98800 42.23700
C  -10.32600 12.38200 41.71100
C  -10.35700 13.81200 41.52400
C  -12.05600 10.55700 42.70300
C  -8.97300 11.98300 41.31500
O  -8.47900 10.88300 41.22900
C  -8.15300 13.29200 41.00600
C  -7.14400 13.64200 41.98800
O  -7.31100 13.88400 43.14300
O  -5.95200 13.50800 41.35700
C  -4.79800 13.88500 42.21500
H  -9.61600 19.89200 39.82000
H  -15.69700 18.65300 40.88700
H  -14.43500 12.54000 42.81000
H  -6.95500 16.02200 40.73400
H  -7.80300 18.39000 39.05300
H  -6.29900 18.10900 41.47900
H  -7.80700 18.94700 41.98700
H  -6.74800 19.62800 40.73700
H  -7.42600 16.62900 37.87500
H  -8.26400 15.14300 38.19700
H  -6.43300 13.97700 38.13800
H  -5.48100 15.25500 38.99300
H  -12.23800 22.36700 39.17400
H  -11.21500 21.34300 38.12700
H  -10.64300 21.93700 39.73200
H  -16.83500 21.60400 39.75400
H  -16.21200 20.70000 41.08000
H  -16.59400 19.91000 39.41800
H  -16.85800 15.68600 40.49000
H  -16.54200 14.86000 43.24300
H  -18.12900 16.41700 42.87400
H  -18.41500 17.38000 41.48500
H  -17.19600 17.79900 42.59800
H  -16.34400 12.64000 41.26600
H  -17.78600 13.63600 41.18000
H  -18.24200 13.16700 43.49800
H  -16.62700 12.51900 43.78200
H  -17.75300 11.52300 42.95300
H  -12.30800 9.78400 41.97800
H  -12.90400 10.57500 43.38900
H  -11.23100 10.22700 43.33400
H  -7.66600 13.15200 40.04100
H  -4.36100 14.86600 42.03200
H  -4.14800 13.07700 41.87800
H  -4.92000 13.72600 43.28700

