158

Mg 57.20500 23.67100 45.30200
C  55.34600 26.23000 43.69300
C  54.82800 21.44600 43.78600
C  59.26600 21.14600 46.05100
C  59.70400 25.97000 45.86500
N  55.38300 23.82200 43.83900
C  54.80200 25.00500 43.36200
C  53.52100 24.76300 42.57700
C  53.24800 23.27600 43.00400
C  54.61200 22.80400 43.52900
C  52.25100 23.12200 44.20300
C  53.74000 24.81000 41.04700
C  52.64200 25.34800 40.07300
H  52.08800 24.32300 38.99700
N  57.00800 21.54300 45.06800
C  55.96700 20.88200 44.45100
C  56.22300 19.44600 44.61000
C  57.51000 19.27200 45.20700
C  58.01800 20.66000 45.48900
C  55.31400 18.42600 43.91500
C  58.18400 17.93600 45.42800
O  57.71500 16.86900 44.99900
C  59.51600 17.94200 46.08100
N  59.11300 23.59200 46.07200
C  59.80100 22.42000 46.28900
C  61.28600 22.67600 46.74200
C  61.35500 24.22000 46.57900
C  60.00400 24.62400 46.08700
C  61.57200 22.07800 48.17500
C  62.50700 24.65800 45.61100
C  63.41900 25.75700 46.08900
N  57.42000 25.69000 45.14000
C  58.50700 26.52800 45.40800
C  58.12600 27.89600 45.12800
C  56.82300 27.82100 44.64600
C  56.54600 26.47900 44.47200
C  59.07800 29.11100 45.48700
C  55.67900 28.55700 44.21400
O  55.46500 29.74000 44.33600
C  54.74800 27.54900 43.40300
C  54.76000 27.93400 42.02000
O  55.69200 27.82400 41.25900
O  53.57000 28.52900 41.71600
C  53.35100 29.08900 40.39000
H  54.05000 20.77600 43.41300
H  60.03700 20.44000 46.36600
H  60.53000 26.65100 46.07900
H  52.75900 25.43300 42.97600
H  53.01600 22.60400 42.17700
H  52.64400 22.55500 45.04700
H  51.35600 22.64400 43.80500
H  51.94200 24.10600 44.55300
H  54.02100 23.79100 40.78200
H  54.61500 25.39600 40.76500
H  53.03400 26.19100 39.50500
H  51.82100 25.69400 40.70100
H  55.45400 18.49800 42.83600
H  54.25700 18.59200 44.12200
H  55.57800 17.39900 44.16600
H  59.92800 16.94600 46.23900
H  59.38000 18.60100 46.93900
H  60.10600 18.53500 45.38300
H  61.86400 22.10300 46.01700
H  61.46700 24.73200 47.53500
H  62.42700 21.42700 47.99900
H  60.83100 21.39300 48.58800
H  61.80000 22.75500 48.99800
H  61.95500 24.95800 44.72100
H  63.17800 23.90900 45.19100
H  64.41700 25.39500 45.84400
H  63.44300 25.93200 47.16400
H  63.36200 26.72100 45.58300
H  60.02700 28.73200 45.86700
H  58.65300 29.80200 46.21500
H  59.23000 29.63400 44.54300
H  53.73200 27.49400 43.79500
H  53.29800 30.17500 40.46600
H  52.36700 28.79300 40.02600
H  54.06400 28.79800 39.61700
Mg 48.27600 25.21700 28.30300
C  49.21300 27.45100 30.86800
C  47.55600 22.93700 30.66500
C  47.62600 23.13100 25.76800
C  49.18900 27.79300 25.90900
N  48.50800 25.22900 30.57900
C  48.69500 26.27600 31.39500
C  48.40200 25.92700 32.85800
C  47.97700 24.45100 32.75600
C  48.02400 24.14100 31.24000
C  48.99200 23.49000 33.56900
C  47.42500 26.96100 33.43000
C  47.86200 27.60100 34.76900
H  47.04100 27.54500 35.99900
N  47.65400 23.30500 28.22500
C  47.34400 22.55000 29.32100
C  46.75900 21.28100 28.88800
C  46.88200 21.23600 27.45900
C  47.45400 22.61500 27.13900
C  46.28600 20.24300 29.75400
C  46.56400 20.10200 26.45300
O  46.68700 20.23200 25.29400
C  45.92400 18.86400 26.98000
N  48.43800 25.42400 26.17500
C  48.00400 24.37900 25.30500
C  48.13700 24.81900 23.84400
C  48.41100 26.38500 23.93600
C  48.68000 26.58800 25.43800
C  49.22800 23.97900 23.07000
C  47.30700 27.18300 23.42200
C  46.00600 27.25000 24.28200
N  49.22600 27.07300 28.34000
C  49.50700 28.01600 27.30600
C  50.05900 29.21700 27.86900
C  49.91900 29.05800 29.23900
C  49.42500 27.73800 29.49600
C  50.57600 30.43600 27.16100
C  50.06500 29.72000 30.51300
O  50.50800 30.84000 30.76600
C  49.68400 28.73000 31.57900
C  50.87300 28.36600 32.49600
O  51.54200 27.37400 32.36300
O  50.85800 29.16600 33.58400
C  51.91300 29.01200 34.61200
H  47.36400 22.33200 31.55300
H  47.33400 22.49400 24.93000
H  49.34200 28.51100 25.10000
H  49.36200 26.06100 33.35700
H  46.93200 24.36400 33.05300
H  49.81300 23.03700 33.01300
H  48.53500 22.59500 33.99200
H  49.26700 24.04700 34.46400
H  46.47700 26.42400 33.46200
H  47.19800 27.82000 32.79900
H  47.91700 28.64200 34.44900
H  48.84400 27.21800 35.04700
H  46.87900 19.33000 29.80300
H  45.24500 20.07600 29.47500
H  46.32100 20.66500 30.75800
H  46.64000 18.09600 27.27300
H  45.39400 18.42800 26.13300
H  45.12400 18.98200 27.71100
H  47.10400 24.60500 23.56900
H  49.37100 26.64300 23.48900
H  50.07100 24.59800 22.76200
H  48.79400 23.63000 22.13300
H  49.63000 23.17500 23.68700
H  47.01200 26.71500 22.48200
H  47.63900 28.21900 23.35600
H  46.19800 27.16300 25.35100
H  45.32000 26.47700 23.93600
H  45.55000 28.21300 24.05300
H  50.06300 30.56400 26.20800
H  51.63700 30.29000 26.95700
H  50.35800 31.34900 27.71500
H  48.79400 29.04100 32.12600
H  52.63700 28.26900 34.27700
H  51.49600 28.70000 35.57000
H  52.22300 30.03000 34.84700

