158

Mg 34.71400 3.46100 29.13200
C  32.54100 4.13700 31.72400
C  37.27700 3.02500 31.48100
C  36.76200 2.62000 26.71000
C  32.14200 3.82300 26.92500
N  34.84400 3.56000 31.41000
C  33.80400 3.87800 32.22200
C  34.15400 3.75800 33.74100
C  35.80800 3.57800 33.61200
C  36.04300 3.37500 32.09100
C  36.73700 4.78000 34.11300
C  33.42200 2.56200 34.35000
C  32.97200 2.81300 35.78100
H  34.01400 3.47300 36.73300
N  36.75200 2.88800 29.07200
C  37.63700 2.73600 30.12100
C  38.96100 2.42500 29.62700
C  38.79000 2.29500 28.19300
C  37.38800 2.56300 27.89000
C  40.15600 2.21100 30.46500
C  39.86200 1.84800 27.18400
O  39.65000 1.85100 25.96900
C  41.27900 1.43800 27.64700
N  34.47800 3.10500 27.12200
C  35.52300 2.90900 26.32600
C  35.12000 2.96200 24.86000
C  33.55700 3.21000 24.86300
C  33.34600 3.34200 26.41600
C  35.91500 4.00000 23.93300
C  32.83600 2.00300 24.35300
C  32.84300 1.64800 22.82800
N  32.79500 4.00600 29.24700
C  31.86300 4.12700 28.25800
C  30.63400 4.69300 28.77700
C  30.86500 4.73700 30.11800
C  32.19200 4.23500 30.39000
C  29.44800 5.05100 28.00500
C  30.31800 5.10400 31.38900
O  29.25900 5.70200 31.67200
C  31.32000 4.57300 32.48500
C  31.65800 5.72800 33.31300
O  32.36900 6.68600 33.04800
O  31.06100 5.56200 34.54000
C  31.59800 6.48200 35.52900
H  38.03400 2.89200 32.25700
H  37.45100 2.60100 25.86300
H  31.32300 3.92800 26.21000
H  33.90100 4.67000 34.28200
H  36.20100 2.69500 34.11600
H  36.01500 5.59600 34.14800
H  37.55100 5.03700 33.43600
H  37.10400 4.48600 35.09600
H  34.09300 1.70600 34.27500
H  32.50400 2.31800 33.81400
H  32.60800 1.82900 36.07600
H  32.06000 3.40000 35.89100
H  40.59700 1.25300 30.19000
H  39.87600 2.11700 31.51400
H  40.81600 3.07900 30.48700
H  41.89100 2.09500 28.26600
H  41.87200 1.39500 26.73300
H  41.25500 0.48400 28.17300
H  35.39000 2.03000 24.36500
H  33.30100 4.14300 24.36100
H  36.43600 4.61700 24.66400
H  35.21400 4.46000 23.23700
H  36.67200 3.50100 23.32900
H  31.77700 2.12200 24.58400
H  33.16800 1.11000 24.88300
H  33.49800 2.15200 22.11700
H  31.79000 1.67400 22.55000
H  33.28300 0.65000 22.84000
H  29.19900 4.25800 27.30000
H  29.58100 6.05000 27.58900
H  28.61400 5.14100 28.70100
H  31.01400 3.74600 33.12500
H  30.88600 7.30500 35.58200
H  32.66400 6.69900 35.45900
H  31.44500 5.86300 36.41200
Mg -12.18600 38.44400 42.68600
C  -10.22800 35.61900 41.82000
C  -9.68100 40.49500 41.36400
C  -14.16400 41.22700 42.98000
C  -14.81400 36.28900 43.40100
N  -10.19500 38.05400 41.71900
C  -9.60200 36.83200 41.53900
C  -8.31500 36.99000 40.65600
C  -8.04900 38.56200 40.87800
C  -9.41300 39.08500 41.33900
C  -6.90200 38.96100 41.88200
C  -8.50700 36.52700 39.17600
C  -7.20900 35.81700 38.70900
H  -6.44400 36.47800 37.56100
N  -11.94900 40.60700 42.24900
C  -10.84000 41.17300 41.77300
C  -11.08500 42.61600 41.59300
C  -12.36200 42.90600 42.19800
C  -12.91200 41.55800 42.51500
C  -10.12800 43.62000 40.97500
C  -13.07600 44.19700 42.54500
O  -12.74400 45.32300 42.17600
C  -14.41400 44.19600 43.34300
N  -14.18900 38.74100 43.12400
C  -14.75200 39.94400 43.25300
C  -16.23500 39.91400 43.72700
C  -16.48400 38.28400 43.77600
C  -15.08100 37.72700 43.36700
C  -16.61600 40.68600 44.96600
C  -17.69100 37.72200 42.91200
C  -18.90300 37.38400 43.68800
N  -12.46500 36.39800 42.86100
C  -13.58500 35.65700 43.17900
C  -13.31100 34.28500 42.92300
C  -11.98100 34.23300 42.50900
C  -11.52300 35.58800 42.37800
C  -14.20600 33.07400 43.08900
C  -10.89700 33.38400 42.07100
O  -10.80800 32.18700 42.01800
C  -9.74300 34.24000 41.53000
C  -8.66600 33.90100 42.44800
O  -8.65800 34.11000 43.65200
O  -7.56300 33.24800 41.89100
C  -6.37400 33.11000 42.64800
H  -8.99300 41.10500 40.77500
H  -14.99200 41.87700 43.27100
H  -15.64700 35.65900 43.71900
H  -7.51100 36.42000 41.12100
H  -7.92200 38.99700 39.88700
H  -6.50800 38.03900 42.31000
H  -7.21500 39.70400 42.61500
H  -6.14200 39.37200 41.21800
H  -8.69000 37.32600 38.45900
H  -9.35800 35.84800 39.11400
H  -7.40500 34.77600 38.45200
H  -6.42600 35.78900 39.46700
H  -10.29600 43.62300 39.89800
H  -9.08700 43.31700 41.08800
H  -10.18200 44.63700 41.36300
H  -15.23000 43.84700 42.71000
H  -14.65900 45.18200 43.73900
H  -14.24300 43.61400 44.24800
H  -16.82200 40.21600 42.86000
H  -16.56900 37.97900 44.81800
H  -17.16300 40.13900 45.73300
H  -17.19200 41.56900 44.68900
H  -15.70200 40.97600 45.48400
H  -17.40300 36.85300 42.32100
H  -18.04200 38.50900 42.24400
H  -18.97900 36.30300 43.80100
H  -19.80800 37.73300 43.19100
H  -18.86100 37.78400 44.70100
H  -15.15600 33.35000 42.63200
H  -14.43100 32.90600 44.14200
H  -13.90200 32.20100 42.51200
H  -9.46800 33.99800 40.50300
H  -5.56300 32.96900 41.93300
H  -6.50400 32.15500 43.15700
H  -6.18300 33.94400 43.32200

