158

Mg 45.06800 3.03000 46.96300
C  42.67900 5.81800 46.60700
C  42.42900 0.90200 46.69600
C  47.28300 0.65900 46.97400
C  47.61100 5.50600 46.91600
N  42.88600 3.41100 46.81200
C  42.18700 4.55000 46.45000
C  40.75600 4.12900 46.11800
C  40.64700 2.66800 46.69100
C  42.08400 2.29300 46.81000
C  39.87200 2.56400 48.03000
C  40.38700 4.28500 44.56500
C  39.25400 5.21600 44.15400
H  39.62600 6.13100 43.02300
N  44.84100 1.01000 46.83700
C  43.66800 0.34800 46.70300
C  44.04000 -1.07600 46.53600
C  45.45600 -1.18100 46.63200
C  45.88100 0.17700 46.82800
C  42.98700 -2.15400 46.28700
C  46.25900 -2.48200 46.58800
O  45.66000 -3.51200 46.31900
C  47.75000 -2.66700 46.87500
N  47.16100 3.04500 46.65600
C  47.83300 1.91900 47.06800
C  49.30700 2.19200 47.42400
C  49.46000 3.74700 47.14200
C  47.96600 4.13500 46.93400
C  49.73000 1.60500 48.81800
C  50.35400 4.08900 45.87700
C  51.63100 4.90700 46.20300
N  45.13300 5.24500 46.79800
C  46.26900 6.07200 46.90800
C  45.93500 7.46700 46.87100
C  44.48200 7.44700 46.81600
C  44.05800 6.05000 46.80000
C  46.90900 8.64300 46.79400
C  43.28800 8.25200 46.77600
O  43.18000 9.44400 46.64000
C  42.05700 7.23600 46.69900
C  41.39800 7.32500 48.01500
O  41.61900 6.70700 49.04500
O  40.46200 8.36800 47.77100
C  39.53900 8.58100 48.92400
H  41.53500 0.27500 46.67900
H  47.90600 -0.20100 47.22900
H  48.45400 6.15600 47.15800
H  40.13300 4.83500 46.66600
H  40.03600 2.00200 46.08100
H  40.51200 2.20300 48.83500
H  39.09100 1.81700 47.88800
H  39.30200 3.43200 48.36000
H  40.13300 3.27800 44.23400
H  41.26100 4.59200 43.99100
H  38.97500 5.66900 45.10500
H  38.42200 4.58800 43.83700
H  42.08000 -1.75500 45.83400
H  42.70200 -2.72500 47.17000
H  43.34600 -2.88500 45.56200
H  47.97500 -3.73000 46.95600
H  48.15000 -2.27500 47.81000
H  48.34900 -2.20800 46.08800
H  49.96900 1.72400 46.69500
H  49.85100 4.25300 48.02500
H  50.41900 0.76600 48.72700
H  48.81800 1.37500 49.36800
H  50.26600 2.33900 49.42000
H  49.86400 4.66100 45.08900
H  50.54400 3.16800 45.32500
H  52.41300 4.45500 45.59300
H  51.96500 4.77300 47.23200
H  51.62000 5.97400 45.97900
H  47.49200 8.42500 47.68900
H  46.45700 9.63200 46.86900
H  47.70300 8.60400 46.04900
H  41.31700 7.42900 45.92300
H  38.79900 7.78400 48.86400
H  38.95800 9.49700 48.80900
H  40.11200 8.49200 49.84700
Mg 26.16800 50.32700 26.94600
C  24.04600 51.78900 29.56200
C  28.08500 49.14100 29.46800
C  28.26800 49.26300 24.68900
C  24.50200 52.25300 24.65100
N  25.99200 50.32200 29.26500
C  25.00000 50.91900 30.03500
C  25.19100 50.50900 31.48900
C  26.64400 50.03100 31.51200
C  27.03000 49.88700 29.98000
C  27.66500 51.01900 32.17500
C  24.04900 49.52300 31.98800
C  23.62500 49.62200 33.53100
H  24.44200 50.25200 34.67400
N  27.95500 49.30000 27.01200
C  28.57000 48.90700 28.17200
C  29.76400 48.15500 27.78100
C  29.88900 48.16200 26.38700
C  28.69100 48.86700 25.96200
C  30.60900 47.45000 28.77400
C  30.91100 47.62500 25.45400
O  30.71000 47.63900 24.19400
C  32.19900 47.03700 26.02600
N  26.34400 50.70200 25.00200
C  27.22200 50.03400 24.21600
C  26.96300 50.17200 22.71500
C  25.69200 51.02200 22.74100
C  25.51500 51.39300 24.21900
C  27.99600 50.57500 21.66300
C  24.46600 50.44500 22.08100
C  23.41500 51.40700 21.37000
N  24.56500 51.68000 27.02200
C  23.97500 52.47500 25.98300
C  22.82400 53.18200 26.44600
C  22.90500 53.00700 27.86700
C  23.96100 52.08700 28.20100
C  21.93300 53.98100 25.59700
C  22.19200 53.35200 29.12800
O  21.17200 53.98400 29.28300
C  23.01800 52.63600 30.29100
C  23.71100 53.59100 31.28400
O  24.65300 54.32500 30.99600
O  23.00100 53.68400 32.48300
C  23.65400 54.45700 33.48700
H  28.65900 48.71400 30.29300
H  28.77600 48.84200 23.81900
H  23.88000 52.65900 23.85000
H  25.17900 51.46300 32.01600
H  26.67900 49.03400 31.95100
H  27.10400 51.52800 32.95900
H  28.05800 51.82500 31.55600
H  28.42400 50.45700 32.71900
H  24.26200 48.45700 31.91500
H  23.15500 49.66300 31.38100
H  23.21500 48.63500 33.74900
H  22.83100 50.36400 33.44700
H  31.62600 47.81000 28.62200
H  30.59000 46.37900 28.57100
H  30.29000 47.59100 29.80700
H  32.69100 47.77200 26.66300
H  32.76800 46.59300 25.21000
H  31.81900 46.26400 26.69400
H  26.65300 49.14600 22.51600
H  25.74200 51.99900 22.26000
H  27.79700 51.56700 21.25800
H  27.79900 49.83400 20.88900
H  29.02100 50.49900 22.02700
H  23.90500 49.80400 22.76100
H  24.74300 49.69800 21.33700
H  23.28800 51.11700 20.32700
H  23.80700 52.42400 21.36700
H  22.45500 51.31300 21.87700
H  22.02200 53.77900 24.53000
H  22.01800 55.01600 25.92800
H  20.93600 53.69700 25.93300
H  22.35100 51.91300 30.75900
H  23.95100 55.43400 33.10500
H  24.62900 53.98400 33.61000
H  23.02100 54.48700 34.37400

