158

Mg 41.85200 40.74300 26.51800
C  41.05200 43.16400 29.11600
C  43.04500 38.78500 28.98400
C  42.56300 38.64900 24.06000
C  41.33600 43.34000 24.17800
N  41.93300 41.02700 28.77800
C  41.43400 41.92800 29.64100
C  41.42800 41.46800 31.08100
C  42.30100 40.22300 31.03000
C  42.40600 39.93000 29.47600
C  43.71600 40.32900 31.69000
C  40.00300 41.35700 31.71200
C  39.87600 42.12500 33.07700
H  38.92600 41.59400 34.17100
N  42.59600 38.97900 26.50600
C  43.20500 38.36000 27.62500
C  43.68100 37.10900 27.24000
C  43.33200 36.93900 25.88200
C  42.78500 38.17100 25.38600
C  44.35600 36.15600 28.22100
C  43.53800 35.73400 24.89800
O  43.23700 35.76500 23.74100
C  44.36000 34.47800 25.43800
N  42.13000 41.07300 24.43700
C  42.31900 39.95900 23.64000
C  42.24900 40.36100 22.19900
C  41.78000 41.83600 22.20500
C  41.76000 42.13100 23.73400
C  43.49700 40.14400 21.32600
C  40.35300 42.13500 21.55700
C  40.08500 43.64800 20.98000
N  41.36300 42.83100 26.52200
C  41.16900 43.67800 25.52800
C  40.79800 44.96900 26.08700
C  40.72000 44.77500 27.45900
C  41.12000 43.46900 27.75100
C  40.44600 46.15700 25.31100
C  40.29600 45.43100 28.67100
O  39.87800 46.52600 28.75700
C  40.52900 44.41700 29.77300
C  41.57500 44.94300 30.71700
O  42.76900 45.06000 30.39400
O  41.05100 45.14000 32.01200
C  42.03900 45.55800 33.04400
H  43.28900 38.08200 29.78300
H  42.81700 37.98300 23.23200
H  41.05300 44.14900 23.50100
H  42.11200 42.08600 31.66300
H  41.72900 39.41400 31.48600
H  43.93300 39.33700 32.08800
H  43.64700 41.05000 32.50500
H  44.55800 40.53900 31.03100
H  39.63900 40.34700 31.89900
H  39.27300 41.75800 31.00800
H  39.57500 43.14300 32.82900
H  40.88100 42.15900 33.49600
H  44.47200 36.64200 29.19000
H  45.33800 35.77900 27.93600
H  43.70900 35.29400 28.38400
H  43.85400 33.87500 26.19200
H  45.16300 34.89700 26.04300
H  44.65800 33.87400 24.58100
H  41.41100 39.76400 21.83900
H  42.50000 42.53900 21.78600
H  44.08100 41.06200 21.39800
H  43.23600 39.99200 20.27800
H  44.02200 39.31300 21.79700
H  39.66500 41.77500 22.32300
H  40.18500 41.39900 20.77000
H  39.50900 44.29300 21.64400
H  39.39700 43.61400 20.13500
H  41.05800 43.93300 20.57900
H  40.77000 46.06200 24.27400
H  41.09500 46.97200 25.63300
H  39.43400 46.44600 25.59400
H  39.59000 44.21000 30.28500
H  41.98200 44.76800 33.79300
H  41.56600 46.43800 33.48000
H  43.07400 45.65300 32.71700
Mg 26.07000 49.51000 26.79000
C  24.23600 50.73600 29.45000
C  28.55400 48.62900 29.08800
C  28.24900 49.02900 24.25400
C  23.73600 50.75000 24.54000
N  26.24100 49.53000 29.08400
C  25.36600 50.03200 29.92800
C  25.79100 49.66300 31.38700
C  27.20000 49.11400 31.17100
C  27.39200 49.11700 29.67300
C  28.37400 49.75000 31.89500
C  24.68000 48.63800 31.97400
C  24.35800 48.94800 33.42900
H  25.30900 49.47400 34.48300
N  28.06700 48.86800 26.69600
C  28.92300 48.58100 27.72000
C  30.20000 48.12800 27.23000
C  30.13600 48.20300 25.81400
C  28.80500 48.71100 25.51700
C  31.30800 47.62000 28.13600
C  31.24800 47.95200 24.79900
O  30.99100 48.01500 23.60800
C  32.63900 47.64300 25.10600
N  25.96700 49.85900 24.60500
C  26.94400 49.48800 23.79800
C  26.46800 49.45900 22.39200
C  25.05700 50.06800 22.47200
C  24.86200 50.14700 23.91300
C  27.42500 49.93800 21.30500
C  23.99000 49.24500 21.71200
C  23.11300 49.88300 20.59600
N  24.39600 50.50600 26.91500
C  23.53800 50.93000 25.88700
C  22.46500 51.65000 26.47600
C  22.70200 51.62800 27.89200
C  23.92500 50.94500 28.11100
C  21.42100 52.26700 25.76100
C  22.12500 52.02400 29.18600
O  21.14900 52.66400 29.52800
C  23.05500 51.35800 30.35000
C  23.46400 52.47200 31.26800
O  24.30200 53.32900 31.13700
O  22.92700 52.13300 32.47700
C  23.36200 53.06100 33.55600
H  29.22800 48.17900 29.82000
H  28.93800 48.80400 23.43800
H  22.93000 51.06200 23.87300
H  25.83600 50.49700 32.08700
H  27.29800 48.05000 31.38600
H  27.82800 50.37100 32.60500
H  28.97600 50.39800 31.25900
H  28.91900 48.91700 32.33900
H  25.13600 47.65400 31.87200
H  23.80600 48.69900 31.32500
H  24.08300 47.92500 33.68400
H  23.45200 49.55000 33.50700
H  31.97800 47.11900 27.43700
H  31.09100 46.78300 28.80000
H  31.90100 48.37000 28.65900
H  33.07700 48.32600 25.83300
H  33.22300 47.71300 24.18800
H  32.72000 46.57500 25.30900
H  26.36600 48.38200 22.26100
H  25.15700 51.05800 22.02600
H  28.08100 50.72800 21.67100
H  26.88000 50.32700 20.44400
H  27.92100 49.06900 20.87300
H  23.36200 48.76800 22.46500
H  24.52100 48.37900 21.31700
H  23.62300 50.76500 20.20700
H  22.07400 50.07400 20.86600
H  23.14900 49.19300 19.75300
H  21.03000 51.67200 24.93600
H  21.78400 53.19000 25.30900
H  20.67400 52.45600 26.53100
H  22.59000 50.52400 30.87600
H  23.92600 52.52400 34.31800
H  22.46300 53.40600 34.06500
H  23.78700 54.01200 33.23600

