158

Mg 9.73900 47.68000 25.73800
C  7.69000 48.34600 28.47200
C  12.41500 48.53100 27.71000
C  11.82600 46.87400 23.11400
C  6.96500 47.68900 23.65900
N  9.99900 48.06600 27.90700
C  9.04300 48.34900 28.79700
C  9.66500 48.57400 30.22700
C  11.08000 49.13400 29.77700
C  11.17100 48.56600 28.35900
C  11.21800 50.68200 29.70800
C  9.75200 47.22000 30.96300
C  10.31000 47.24400 32.39200
H  9.39100 46.64400 33.53000
N  11.80500 47.63500 25.44300
C  12.80200 48.04600 26.40600
C  14.15100 47.91600 25.81800
C  13.93900 47.46400 24.47000
C  12.49500 47.25700 24.33900
C  15.42200 48.32500 26.57700
C  14.98400 47.20800 23.31800
O  14.69600 46.88300 22.15500
C  16.48300 47.05900 23.72600
N  9.45500 47.27800 23.71100
C  10.40800 46.95200 22.75700
C  9.81100 46.42300 21.46600
C  8.30500 46.90000 21.68500
C  8.22000 47.30800 23.11000
C  10.51300 47.00900 20.18500
C  7.29400 45.87500 21.07700
C  6.15900 46.47400 20.21000
N  7.78500 47.92700 25.92100
C  6.71200 47.95900 25.02100
C  5.45300 48.16900 25.65400
C  5.76000 48.34200 27.02300
C  7.21100 48.20800 27.16800
C  4.10400 48.34800 25.03900
C  5.25700 48.68000 28.34800
O  4.12800 48.87600 28.57400
C  6.48500 48.66400 29.36000
C  6.02300 47.66700 30.36800
O  5.87700 46.47200 30.27500
O  5.92100 48.30200 31.55400
C  5.22300 47.57400 32.57700
H  13.25000 49.04500 28.18900
H  12.42800 46.32700 22.38600
H  6.03400 47.80600 23.10200
H  9.07300 49.24800 30.84500
H  11.84500 48.80500 30.48100
H  10.24400 51.15400 29.83900
H  11.62200 50.96700 28.73700
H  11.90700 51.10100 30.44100
H  10.30000 46.47500 30.38600
H  8.71800 46.88000 31.01400
H  10.55800 48.27800 32.63200
H  11.27100 46.73200 32.39600
H  15.25100 48.16500 27.64200
H  15.81500 49.32900 26.41700
H  16.24700 47.61800 26.48700
H  17.15500 46.93700 22.87600
H  16.53300 46.10800 24.25500
H  16.76400 47.90800 24.34900
H  9.92900 45.34700 21.34100
H  8.03500 47.79600 21.12600
H  10.99900 47.96100 20.39900
H  9.77100 47.21500 19.41400
H  11.19200 46.29400 19.72100
H  6.70800 45.38700 21.85600
H  7.81000 45.04800 20.58900
H  6.47200 47.37400 19.67900
H  5.28300 46.90700 20.69200
H  5.82000 45.73400 19.48400
H  3.92300 47.37600 24.57900
H  4.02100 49.21200 24.37900
H  3.37800 48.38000 25.85100
H  6.66600 49.58500 29.91500
H  5.96800 46.88400 32.97200
H  4.31900 47.10200 32.19300
H  4.82300 48.26300 33.32100
Mg -12.14700 16.38500 42.80800
C  -9.03800 14.83300 42.03300
C  -10.96900 19.18900 41.16000
C  -15.28400 17.52400 42.56100
C  -13.37800 13.13900 43.68200
N  -10.24100 16.86100 41.63900
C  -9.12300 16.15700 41.54800
C  -8.00600 16.97200 40.88800
C  -8.67400 18.36900 40.73800
C  -10.06600 18.10900 41.24700
C  -7.90900 19.47100 41.32300
C  -7.54200 16.24400 39.54600
C  -6.00300 16.12800 39.32700
H  -5.42600 16.62800 37.98500
N  -12.96400 18.15300 42.12100
C  -12.30300 19.19100 41.57900
C  -13.23900 20.31300 41.45200
C  -14.49200 19.88200 41.98000
C  -14.30400 18.46400 42.22400
C  -12.83600 21.64400 40.85400
C  -15.70900 20.73500 42.29200
O  -15.74500 21.90600 42.03200
C  -17.00100 20.26500 42.88800
N  -14.10000 15.42800 43.09300
C  -15.25000 16.16800 42.96100
C  -16.50300 15.30700 43.32400
C  -15.79300 13.90600 43.71500
C  -14.26300 14.17400 43.48200
C  -17.69500 15.80900 44.17800
C  -16.29700 12.71300 42.84000
C  -16.35600 11.32200 43.52300
N  -11.38400 14.38700 42.96200
C  -11.94200 13.25300 43.50800
C  -10.97000 12.15900 43.52100
C  -9.81700 12.83000 42.99800
C  -10.12500 14.14900 42.62000
C  -11.16000 10.79900 44.04400
C  -8.36600 12.63200 42.78200
O  -7.65500 11.67600 43.02900
C  -7.81900 13.90300 42.09800
C  -6.65900 14.49600 42.85500
O  -6.77700 15.19200 43.88000
O  -5.52000 14.20400 42.20700
C  -4.20500 14.42000 42.84100
H  -10.72900 20.11600 40.63700
H  -16.32100 17.85700 42.48100
H  -13.71700 12.20000 44.12500
H  -7.17400 16.99300 41.59200
H  -8.72200 18.68400 39.69500
H  -8.00100 20.48300 40.92900
H  -6.87700 19.14300 41.20200
H  -8.16600 19.52900 42.38100
H  -7.84000 16.76800 38.63700
H  -7.99700 15.25500 39.61300
H  -5.86300 15.05800 39.47900
H  -5.36300 16.54300 40.10600
H  -13.32500 21.81600 39.89500
H  -11.77100 21.73100 40.64000
H  -13.03200 22.46100 41.54800
H  -17.53100 19.87800 42.01700
H  -17.53200 21.14800 43.24300
H  -16.85500 19.63200 43.76300
H  -17.00400 15.00800 42.40300
H  -15.83000 13.66100 44.77600
H  -18.67500 15.76700 43.70200
H  -17.45800 16.86000 44.33800
H  -17.79900 15.29800 45.13500
H  -15.70300 12.54600 41.94100
H  -17.22600 12.80400 42.27700
H  -15.88500 10.61400 42.84200
H  -17.33500 10.95600 43.83200
H  -15.80300 11.28900 44.46200
H  -10.88000 10.75200 45.09700
H  -10.52600 10.08000 43.52400
H  -12.19400 10.49400 43.88500
H  -7.44900 13.49200 41.15900
H  -4.00200 14.03900 43.84200
H  -3.99200 15.48500 42.93000
H  -3.53000 13.97300 42.11100

