158

Mg -2.01700 17.26400 27.44500
C  -2.62300 14.90700 30.10500
C  -2.35100 19.75900 29.86100
C  -1.67300 19.44400 24.99300
C  -1.92400 14.60300 25.23900
N  -2.33200 17.26100 29.80600
C  -2.49100 16.21700 30.62800
C  -2.62700 16.73800 32.01300
C  -2.94600 18.31100 31.84400
C  -2.56100 18.48900 30.39100
C  -4.35500 18.82400 32.28700
C  -1.46500 16.28900 32.97300
C  -1.01200 17.17800 34.11700
H  -0.49600 16.57300 35.40400
N  -1.91500 19.31700 27.43500
C  -2.08000 20.12300 28.54400
C  -2.01300 21.48800 28.05800
C  -1.75700 21.48700 26.64700
C  -1.76300 20.07300 26.30600
C  -2.27400 22.66500 28.97200
C  -1.64700 22.58200 25.68200
O  -1.38500 22.43100 24.52900
C  -1.95900 23.95300 26.18000
N  -1.78000 17.04900 25.34800
C  -1.71700 18.11800 24.57000
C  -1.82900 17.70900 23.11700
C  -1.64100 16.20200 23.19800
C  -1.79800 15.92100 24.65000
C  -3.08100 18.27300 22.41400
C  -0.27000 15.64400 22.72900
C  0.98300 16.34000 23.34400
N  -2.26300 15.20300 27.56700
C  -2.22400 14.24900 26.57000
C  -2.42100 12.95700 27.11400
C  -2.51000 13.15300 28.53100
C  -2.46100 14.53000 28.75600
C  -2.46600 11.68900 26.34900
C  -2.76400 12.53500 29.77200
O  -3.08600 11.35600 29.95200
C  -2.77900 13.62300 30.82600
C  -1.60300 13.26800 31.71900
O  -0.42600 13.54200 31.50400
O  -1.98900 12.68300 32.89500
C  -0.98000 12.40300 33.92600
H  -2.60200 20.43900 30.67800
H  -1.63400 20.11500 24.13200
H  -1.92600 13.72000 24.59600
H  -3.51400 16.30200 32.47300
H  -2.15700 18.82000 32.39600
H  -4.39600 19.79300 32.78300
H  -4.85800 18.09600 32.92400
H  -5.01300 19.01400 31.43800
H  -0.58500 15.90400 32.45700
H  -1.85700 15.44700 33.54400
H  -1.90700 17.63500 34.53900
H  -0.59900 18.15800 33.87700
H  -1.44300 23.36900 28.93500
H  -2.33900 22.40000 30.02800
H  -3.20100 23.22000 28.82100
H  -2.96700 24.10500 26.56400
H  -1.73500 24.59100 25.32500
H  -1.25100 24.25900 26.95000
H  -0.93700 17.93700 22.53300
H  -2.44300 15.79900 22.57900
H  -3.85700 17.53500 22.20800
H  -2.80700 18.68900 21.44400
H  -3.61600 19.03200 22.98400
H  -0.19900 15.68500 21.64200
H  -0.47000 14.60100 22.97200
H  1.55500 16.87800 22.58800
H  1.67700 15.73500 23.92800
H  0.73000 17.17600 23.99600
H  -1.87800 11.66700 25.43100
H  -3.51900 11.44600 26.21000
H  -2.09200 10.92100 27.02600
H  -3.66700 13.54600 31.45300
H  -1.02200 13.18200 34.68700
H  -0.04900 12.19200 33.40000
H  -1.31500 11.45800 34.35500
Mg 47.11300 16.55500 28.06900
C  45.08800 16.44400 30.90800
C  49.50900 18.30700 30.13700
C  48.89000 17.35900 25.28700
C  44.48300 15.36900 26.18700
N  47.27500 17.29000 30.29700
C  46.29700 17.04700 31.24100
C  46.78500 17.43300 32.64300
C  47.99100 18.38800 32.24700
C  48.27600 18.02600 30.77100
C  47.92100 19.93300 32.55600
C  47.15900 16.11400 33.39000
C  46.82500 16.26900 34.96800
H  46.82000 17.64700 35.63900
N  48.95900 17.46300 27.80600
C  49.85300 18.00000 28.80000
C  51.05200 18.41600 28.12500
C  50.93600 18.15900 26.74100
C  49.54100 17.67400 26.53600
C  52.25100 19.14100 28.85400
C  51.98100 18.28700 25.61600
O  51.67700 18.14400 24.41200
C  53.36500 18.60600 25.91700
N  46.85000 16.27200 26.04300
C  47.71300 16.66200 24.99300
C  47.07900 16.34900 23.64500
C  45.81000 15.48400 24.03000
C  45.63400 15.68400 25.52700
C  46.81400 17.62400 22.84400
C  45.96300 13.93100 23.78100
C  45.56600 13.59700 22.34700
N  45.22400 15.94200 28.42300
C  44.26000 15.39400 27.61800
C  43.11000 14.91800 28.36700
C  43.40300 15.34900 29.65800
C  44.65900 15.96800 29.65900
C  41.85900 14.18200 27.96600
C  42.83700 15.53100 30.94800
O  41.70800 15.25200 31.27600
C  44.03000 16.12600 31.91800
C  43.47900 17.22100 32.66300
O  43.43500 18.30900 32.15800
O  42.89200 16.86400 33.94100
C  42.36400 17.94800 34.73100
H  50.25800 18.82000 30.74500
H  49.26600 17.85200 24.38800
H  43.85400 14.66000 25.64500
H  46.00100 17.93600 33.21000
H  48.87200 17.97400 32.73700
H  47.87100 20.45300 31.60000
H  48.78100 20.33500 33.09100
H  47.08400 20.27300 33.16700
H  48.15800 15.71500 33.21700
H  46.47800 15.29400 33.16300
H  47.67300 15.72500 35.38600
H  45.92000 15.68900 35.14900
H  52.77300 18.49600 29.56100
H  51.82900 19.89100 29.52400
H  52.94200 19.56800 28.12800
H  53.57100 19.67500 25.88200
H  54.01300 18.03100 25.25500
H  53.69600 18.19200 26.86900
H  47.75900 15.64700 23.16100
H  44.93700 15.93200 23.55600
H  47.60900 17.93000 22.16400
H  46.85300 18.46000 23.54300
H  45.88500 17.62200 22.27500
H  45.41700 13.30000 24.48300
H  46.99100 13.63900 23.99400
H  46.43200 13.67000 21.69000
H  44.73600 14.25900 22.09700
H  45.19900 12.57700 22.45500
H  41.16500 14.05600 28.79700
H  42.14800 13.26200 27.45700
H  41.27800 14.84600 27.32800
H  44.32000 15.32200 32.59400
H  42.68000 18.90400 34.31300
H  42.61600 17.90100 35.79100
H  41.28200 18.01900 34.62300

