158

Mg 47.83700 34.80100 27.61900
C  46.16600 32.89800 30.06100
C  47.94600 37.46000 29.90400
C  49.16000 36.77000 25.25700
C  46.84500 32.46300 25.27300
N  47.24800 35.07200 29.69300
C  46.60400 34.10900 30.47200
C  46.68700 34.58300 31.96000
C  46.78100 36.15300 31.79600
C  47.38800 36.25500 30.41000
C  45.45500 37.02400 31.89200
C  48.09400 34.02400 32.48700
C  48.24100 33.44500 33.91600
H  47.40100 34.03300 35.14300
N  48.56500 36.82500 27.62500
C  48.62900 37.66800 28.67500
C  49.39500 38.82300 28.36000
C  49.77900 38.67600 27.01700
C  49.15800 37.40800 26.54100
C  49.58200 39.93500 29.26800
C  50.50300 39.61300 26.14300
O  50.75700 39.35500 24.97500
C  50.88100 40.98000 26.68900
N  48.00300 34.66100 25.55100
C  48.55000 35.60700 24.73400
C  48.42400 35.22300 23.21700
C  47.70900 33.82400 23.33600
C  47.56600 33.61100 24.78700
C  47.67100 36.22000 22.31400
C  48.34100 32.69800 22.47600
C  47.59200 32.23800 21.22000
N  46.91200 32.98600 27.64500
C  46.57500 32.14000 26.59500
C  45.90700 30.94400 27.10800
C  45.76500 31.27800 28.50700
C  46.27000 32.48800 28.72700
C  45.45700 29.76500 26.32700
C  45.13300 30.80800 29.66500
O  44.44700 29.80600 29.86400
C  45.46200 31.82600 30.76400
C  46.25800 31.15700 31.88500
O  47.40600 30.83300 31.86700
O  45.27000 30.70300 32.81100
C  45.76600 29.93200 33.97800
H  48.05400 38.28000 30.61600
H  49.52300 37.40400 24.44500
H  46.70000 31.66200 24.54400
H  45.80000 34.19800 32.46400
H  47.54400 36.49300 32.49700
H  44.58600 36.36800 31.83500
H  45.47400 37.71800 31.05200
H  45.35200 37.58100 32.82300
H  48.77800 34.87200 32.47600
H  48.46400 33.24900 31.81500
H  49.31300 33.44700 34.11500
H  47.95300 32.41200 34.10800
H  49.40700 39.68700 30.31500
H  49.07500 40.83500 28.91900
H  50.62400 40.25200 29.22700
H  51.80500 41.04100 27.26400
H  50.04200 41.50400 27.14800
H  50.89600 41.69400 25.86500
H  49.39300 34.98300 22.77900
H  46.65600 33.87700 23.05900
H  46.92700 35.77200 21.65500
H  48.36600 36.92300 21.85400
H  47.16200 36.91400 22.98300
H  48.56300 31.88100 23.16300
H  49.16400 33.19400 21.96200
H  47.87000 32.77200 20.31200
H  46.51100 32.29200 21.34800
H  47.80600 31.18400 21.04400
H  44.45800 30.08700 26.03200
H  45.50600 28.95200 27.05100
H  46.18300 29.56400 25.53900
H  44.61500 32.30900 31.25200
H  46.32900 30.59600 34.63400
H  46.37300 29.13000 33.55900
H  44.88600 29.55700 34.50100
Mg -4.35600 24.88200 26.06100
C  -2.80500 26.49800 28.81900
C  -5.34200 22.42700 28.36000
C  -5.47100 23.25500 23.47400
C  -2.86300 27.32100 23.98400
N  -4.04100 24.52800 28.32100
C  -3.59600 25.45900 29.20600
C  -3.94700 25.03200 30.68600
C  -4.41200 23.51100 30.51000
C  -4.58400 23.44900 28.93800
C  -3.44200 22.40900 31.02700
C  -5.20900 26.00700 31.00900
C  -5.44200 26.37500 32.52500
H  -5.26400 25.24700 33.56900
N  -5.24400 23.16800 25.92700
C  -5.67600 22.32800 27.01400
C  -6.32900 21.24300 26.38900
C  -6.41300 21.35300 24.99200
C  -5.72100 22.68200 24.74800
C  -6.77400 20.00800 27.15300
C  -7.06200 20.46100 23.99200
O  -6.97100 20.78700 22.78000
C  -7.90100 19.29700 24.42200
N  -4.34700 25.33700 24.03600
C  -4.83500 24.45900 23.15800
C  -4.48900 24.90700 21.67900
C  -3.90500 26.32700 21.90800
C  -3.65800 26.37500 23.41300
C  -3.53300 23.87300 20.97400
C  -4.66900 27.55100 21.30900
C  -4.97400 27.58500 19.76700
N  -3.08200 26.52400 26.24400
C  -2.51400 27.36000 25.33400
C  -1.52100 28.16600 25.98400
C  -1.64100 27.92500 27.39600
C  -2.58500 26.86300 27.47900
C  -0.72900 29.15800 25.23200
C  -1.13400 28.29200 28.67100
O  -0.28000 29.08600 28.99000
C  -1.93800 27.44400 29.65400
C  -1.10100 26.70300 30.70500
O  -0.46700 25.66600 30.51100
O  -1.22900 27.37900 31.89500
C  -0.40600 26.81200 32.96900
H  -5.82100 21.78300 29.10000
H  -5.78700 22.74900 22.55900
H  -2.58300 28.09700 23.26900
H  -3.10400 25.05800 31.37600
H  -5.29200 23.41000 31.14600
H  -2.76600 22.86700 31.74900
H  -2.75900 21.97700 30.29600
H  -3.99000 21.62600 31.55100
H  -6.14900 25.60300 30.63400
H  -5.12600 27.00100 30.56900
H  -6.52100 26.52900 32.54100
H  -4.83100 27.22500 32.83000
H  -7.83400 19.89000 26.93000
H  -6.57400 20.21000 28.20600
H  -6.24800 19.11900 26.80400
H  -7.38400 18.48000 24.92500
H  -8.54600 18.91000 23.63300
H  -8.70000 19.58800 25.10400
H  -5.34900 24.98500 21.01400
H  -2.89600 26.39400 21.49900
H  -3.18800 23.04100 21.58700
H  -2.61100 24.34000 20.62900
H  -4.13800 23.38100 20.21200
H  -4.09000 28.44500 21.54100
H  -5.66300 27.69600 21.73300
H  -4.11100 27.07500 19.33900
H  -4.93800 28.66500 19.62000
H  -5.95100 27.21600 19.45700
H  -1.33800 29.72400 24.52700
H  0.02800 28.58300 24.69900
H  -0.27700 29.88100 25.91100
H  -2.54500 28.11800 30.25800
H  0.66800 26.97500 32.87000
H  -0.54000 25.73800 33.10100
H  -0.43900 27.35300 33.91400

