158

Mg 47.67800 35.09200 26.48900
C  45.59600 33.72300 28.92800
C  48.12200 37.82800 28.31400
C  49.23900 36.46700 23.75700
C  46.46600 32.53500 24.27900
N  47.09800 35.56500 28.39400
C  46.39000 34.82200 29.35900
C  46.44300 35.45200 30.71900
C  46.90200 36.88300 30.41200
C  47.40600 36.79900 28.94300
C  45.77300 37.95500 30.49000
C  47.47800 34.73800 31.64700
C  47.30400 34.86000 33.09700
H  46.22100 35.81000 33.60300
N  48.65900 36.87100 26.13400
C  48.66500 37.88900 27.02200
C  49.31300 38.99900 26.39800
C  49.68400 38.60400 25.03700
C  49.16400 37.21100 24.89900
C  49.52500 40.30700 27.17500
C  50.27500 39.44000 23.88100
O  50.48500 39.06100 22.72300
C  50.55300 40.83100 24.30200
N  48.00500 34.44300 24.38800
C  48.78000 35.18400 23.54700
C  48.85900 34.57400 22.17900
C  48.03800 33.25300 22.39500
C  47.42800 33.37400 23.75900
C  48.40500 35.41300 20.97500
C  48.73500 31.88900 22.04600
C  47.95200 30.82200 21.23900
N  46.34800 33.55900 26.53600
C  45.94900 32.61500 25.55800
C  45.01000 31.63100 26.13100
C  44.77700 32.10000 27.46700
C  45.63400 33.22900 27.65700
C  44.37000 30.46200 25.47800
C  43.99700 31.81300 28.68700
O  43.31100 30.85500 28.97800
C  44.40700 32.96800 29.67800
C  44.79300 32.34900 30.99600
O  45.85700 31.78300 31.15500
O  43.80500 32.51800 32.02500
C  44.20200 32.08600 33.38400
H  48.29300 38.68000 28.97400
H  49.72600 36.87800 22.87000
H  46.12500 31.72400 23.63200
H  45.42200 35.41200 31.09800
H  47.65700 37.25800 31.10200
H  46.18800 38.87500 30.90100
H  45.02900 37.60300 31.20500
H  45.40700 38.20400 29.49400
H  48.49400 34.99700 31.35100
H  47.23100 33.68000 31.55200
H  48.25000 35.26300 33.45900
H  47.12800 33.92000 33.62000
H  50.56700 40.59300 27.03600
H  49.31800 40.09300 28.22400
H  48.86100 41.11700 26.87400
H  50.96300 41.46500 23.51600
H  51.47100 40.69900 24.87400
H  49.64700 41.25200 24.73600
H  49.90000 34.36100 21.93900
H  47.24800 33.21700 21.64500
H  47.64800 36.11900 21.31700
H  48.00200 34.73600 20.22200
H  49.31900 35.85300 20.57700
H  48.93500 31.50700 23.04700
H  49.69500 32.01400 21.54600
H  46.93200 31.15700 21.04900
H  47.92200 29.83900 21.71000
H  48.36400 30.67000 20.24200
H  43.44400 30.20600 25.99200
H  45.00300 29.58400 25.34800
H  44.05000 30.73700 24.47300
H  43.50000 33.53800 29.87900
H  43.46400 32.60600 33.99400
H  45.22300 32.25700 33.72700
H  44.15500 30.99700 33.39000
Mg 0.79300 43.13300 26.36500
C  2.69500 42.90600 29.28800
C  -2.07200 42.47000 28.15200
C  -0.75300 42.72000 23.43700
C  3.83700 43.43200 24.63500
N  0.34100 42.59400 28.46500
C  1.32200 42.77300 29.49900
C  0.64000 42.90500 30.89000
C  -0.88300 42.52600 30.50600
C  -0.89000 42.59800 28.92600
C  -1.45900 41.22400 31.12900
C  0.84800 44.27700 31.50800
C  1.32800 44.38100 32.93300
H  0.97000 43.27900 33.94100
N  -1.11400 42.77800 25.87000
C  -2.20500 42.57200 26.74000
C  -3.43500 42.47700 26.01300
C  -3.06900 42.51700 24.63300
C  -1.58000 42.67800 24.60400
C  -4.81700 42.45600 26.63600
C  -3.88100 42.53600 23.40800
O  -3.40100 42.78400 22.31700
C  -5.31200 42.46100 23.47300
N  1.50500 42.85100 24.40000
C  0.66300 42.78100 23.33700
C  1.38600 42.71100 21.96100
C  2.77300 43.27900 22.34000
C  2.72900 43.12200 23.90400
C  1.45400 41.32700 21.32300
C  3.11900 44.72800 21.83000
C  4.24400 44.80000 20.78100
N  2.92500 43.03500 26.80700
C  3.99900 43.33500 25.99800
C  5.17600 43.61600 26.78300
C  4.73500 43.24600 28.08000
C  3.32000 43.04300 28.05800
C  6.52700 44.00700 26.32400
C  5.12300 43.04200 29.49000
O  6.26100 42.98100 29.91300
C  3.85700 42.91600 30.35900
C  4.02800 41.69600 31.29900
O  3.97900 40.53600 30.90500
O  4.22000 42.17100 32.56300
C  4.57000 41.19000 33.53900
H  -3.02800 42.28500 28.64500
H  -1.06200 42.77300 22.39000
H  4.73800 43.80300 24.14200
H  1.08700 42.08900 31.45700
H  -1.52300 43.37000 30.76500
H  -0.74900 40.80600 31.84300
H  -1.53700 40.49700 30.32000
H  -2.42600 41.33000 31.62100
H  -0.03600 44.91100 31.43700
H  1.50800 44.89500 30.89900
H  0.93000 45.30900 33.34500
H  2.41700 44.41900 32.95900
H  -5.53100 43.18600 26.25400
H  -4.89800 42.63100 27.70800
H  -5.29300 41.48100 26.52900
H  -5.75400 41.88500 24.28600
H  -5.60900 41.94600 22.55900
H  -5.69400 43.48100 23.41700
H  0.85400 43.42700 21.33400
H  3.57300 42.62800 21.98800
H  2.43700 41.10100 20.90900
H  0.79000 41.21000 20.46600
H  1.30400 40.67200 22.18100
H  3.25900 45.41300 22.66700
H  2.16000 45.00500 21.39200
H  5.08900 45.33100 21.21900
H  3.86800 45.34600 19.91600
H  4.51400 43.84000 20.34200
H  6.89900 43.33300 25.55300
H  7.26000 44.00400 27.13100
H  6.53900 44.98500 25.84300
H  3.81400 43.80500 30.98900
H  3.98900 41.33000 34.45100
H  5.62400 41.29200 33.79600
H  4.38500 40.14500 33.29100

