158

Mg 40.40800 9.19800 29.26800
C  42.33700 10.60400 31.93100
C  38.28500 7.92100 31.62200
C  38.92900 7.54600 26.86300
C  42.94900 10.19400 27.06700
N  40.34700 9.33700 31.49900
C  41.12400 10.01800 32.37900
C  40.61800 9.90400 33.87800
C  39.36600 8.99000 33.63500
C  39.27800 8.73900 32.17300
C  39.32300 7.63500 34.53600
C  40.32000 11.26800 34.46500
C  39.36100 11.38200 35.69200
H  39.62700 12.30100 36.83600
N  38.82700 7.87300 29.22600
C  37.99500 7.54200 30.25500
C  36.87200 6.85700 29.73100
C  36.91700 6.80600 28.31300
C  38.27200 7.42700 28.10900
C  35.80600 6.29800 30.57600
C  35.93100 6.22400 27.20200
O  36.28300 6.24000 25.97100
C  34.55700 5.58700 27.57800
N  40.97100 8.76900 27.27800
C  40.20900 8.05100 26.49100
C  40.68200 8.01400 25.02900
C  42.02800 8.85800 25.05200
C  41.97300 9.31500 26.51800
C  40.81300 6.59400 24.55600
C  42.21600 9.94700 23.93400
C  41.62700 11.31700 24.24200
N  42.23200 10.24100 29.45900
C  43.17400 10.54100 28.43900
C  44.27400 11.25700 28.99500
C  43.89200 11.38000 30.41900
C  42.68700 10.68400 30.61200
C  45.51300 11.79600 28.20200
C  44.30400 11.90600 31.69700
O  45.26700 12.58100 31.99900
C  43.30400 11.37900 32.77800
C  43.98000 10.57200 33.81400
O  44.72500 9.66200 33.65200
O  43.58500 11.01900 35.03600
C  44.13500 10.43000 36.22500
H  37.54800 7.61500 32.36700
H  38.38300 7.11400 26.02100
H  43.61800 10.59900 26.30400
H  41.27600 9.36200 34.55800
H  38.41100 9.41500 33.94400
H  38.94600 6.75700 34.01200
H  38.88400 7.68300 35.53300
H  40.38400 7.39500 34.60000
H  39.99700 12.03400 33.76000
H  41.21300 11.66500 34.94700
H  39.30400 10.35300 36.04800
H  38.38700 11.66300 35.29400
H  35.67600 6.46000 31.64600
H  35.62400 5.23200 30.44400
H  34.98900 6.90200 30.18100
H  34.64700 4.51300 27.41300
H  33.73900 6.04900 27.02600
H  34.28800 5.69200 28.62900
H  39.97300 8.48900 24.35200
H  42.93500 8.25400 25.01800
H  40.11100 5.88500 24.99600
H  41.76900 6.13800 24.81600
H  40.76900 6.58100 23.46700
H  41.66400 9.71800 23.02300
H  43.26500 9.96300 23.63800
H  40.80800 11.60400 23.58300
H  42.43800 12.02900 24.09000
H  41.15200 11.38700 25.22000
H  45.21400 12.28900 27.27700
H  46.34500 11.15300 27.91500
H  46.00300 12.60300 28.74700
H  42.90300 12.28000 33.24000
H  45.15200 10.77900 36.40400
H  43.93700 9.35800 36.23400
H  43.55600 10.83500 37.05400
Mg -11.44600 38.21900 42.73100
C  -9.39400 35.53800 41.49200
C  -9.27700 40.41400 41.33400
C  -13.92400 40.42700 43.18600
C  -13.71600 35.62800 43.57600
N  -9.63100 37.97700 41.54200
C  -8.92800 36.83800 41.14300
C  -7.70100 37.08900 40.25600
C  -7.59400 38.62800 40.53300
C  -8.92200 39.06000 41.17300
C  -6.36600 38.99700 41.33400
C  -8.01700 36.69900 38.76400
C  -7.18500 35.62600 38.06400
H  -6.14500 35.90900 36.97800
N  -11.56800 40.17600 42.30200
C  -10.54400 40.95900 41.78200
C  -10.96600 42.36800 41.93300
C  -12.25300 42.35000 42.56500
C  -12.64400 40.96100 42.68400
C  -10.07400 43.55400 41.59700
C  -12.97400 43.64600 42.89200
O  -12.62900 44.78800 42.58300
C  -14.18700 43.49900 43.62100
N  -13.52600 38.04500 43.30700
C  -14.30600 39.14200 43.47500
C  -15.78900 38.81000 43.73400
C  -15.69900 37.24400 43.98600
C  -14.24900 36.94500 43.52100
C  -16.35800 39.43800 45.04700
C  -16.74800 36.35900 43.39800
C  -18.03000 36.42600 44.25000
N  -11.48900 36.01500 42.83000
C  -12.50100 35.16800 43.16600
C  -11.96500 33.77800 43.14900
C  -10.75700 33.84600 42.40000
C  -10.50000 35.29100 42.27300
C  -12.52500 32.53800 43.72500
C  -9.57800 33.13500 41.84300
O  -9.30500 31.98500 41.86500
C  -8.61000 34.21600 41.26200
C  -7.14800 34.09700 41.58700
O  -6.60700 34.39700 42.64700
O  -6.40900 33.42000 40.65600
C  -5.03600 33.02800 40.98200
H  -8.45300 41.12600 41.24700
H  -14.86100 40.97900 43.28000
H  -14.33800 34.82100 43.96800
H  -6.83300 36.58400 40.67900
H  -7.51500 39.16700 39.58800
H  -6.62700 39.56600 42.22700
H  -5.64400 39.48400 40.67800
H  -5.84300 38.10800 41.68600
H  -8.18500 37.55800 38.11400
H  -8.99600 36.24200 38.90800
H  -7.88500 34.86500 37.71900
H  -6.57500 35.13400 38.82200
H  -10.56700 44.15900 40.83500
H  -9.07400 43.25800 41.27900
H  -9.89600 44.07300 42.53800
H  -14.90400 42.91400 43.04400
H  -14.59200 44.50200 43.75800
H  -14.13000 43.04200 44.60900
H  -16.40700 39.05500 42.87000
H  -15.57900 37.03200 45.04900
H  -16.72000 38.70200 45.76500
H  -17.25800 40.00100 44.80200
H  -15.65700 40.09200 45.56600
H  -16.55200 35.28800 43.35000
H  -16.85000 36.78100 42.39800
H  -17.88300 36.89700 45.22200
H  -18.56100 35.47600 44.31800
H  -18.80500 37.02900 43.77600
H  -11.72700 31.99200 44.22800
H  -13.17400 31.99100 43.04100
H  -13.27300 32.74600 44.49100
H  -8.66500 33.84100 40.24000
H  -4.85400 32.97100 42.05500
H  -4.47000 33.87900 40.60500
H  -4.61800 32.18900 40.42500

