158

Mg 47.60800 15.97700 28.61800
C  45.34800 15.61300 31.30700
C  49.33400 18.16300 30.52000
C  49.50500 16.70800 25.87900
C  45.50000 13.99900 26.59400
N  47.36000 16.67000 30.65500
C  46.40600 16.43400 31.68400
C  46.80200 17.06800 32.97000
C  47.88900 18.07500 32.55300
C  48.19800 17.62800 31.13100
C  47.49500 19.61300 32.69000
C  47.26400 16.16800 34.17100
C  47.57300 16.98300 35.48500
H  48.60600 16.37000 36.47800
N  49.20000 17.24300 28.28300
C  49.81200 18.01500 29.22200
C  50.97000 18.79700 28.63800
C  51.04400 18.35700 27.24800
C  49.88900 17.36900 27.06100
C  51.78000 19.80300 29.42500
C  51.94700 18.81800 26.09900
O  51.96400 18.24000 25.00500
C  52.67000 20.06000 26.22800
N  47.50800 15.38100 26.57800
C  48.43600 15.78700 25.63600
C  48.30700 14.99200 24.29900
C  47.22000 13.91800 24.67800
C  46.74100 14.43600 26.06100
C  47.92000 15.96900 23.10600
C  47.74000 12.47000 24.64000
C  48.88900 12.04300 23.71700
N  45.82600 15.07400 28.85200
C  45.00600 14.38300 27.92700
C  43.77400 13.96800 28.56100
C  43.91900 14.36800 29.87500
C  45.11600 15.03600 30.02600
C  42.62600 13.24300 28.02600
C  43.24800 14.41100 31.15900
O  42.12700 14.00700 31.49500
C  44.19700 15.13700 32.21400
C  43.47000 16.19300 32.86800
O  42.73300 16.99700 32.30300
O  43.86000 16.28800 34.19400
C  43.12200 17.36000 34.92000
H  49.92100 18.89200 31.08300
H  50.13400 16.72100 24.98600
H  44.95100 13.31000 25.94900
H  46.00300 17.67900 33.38900
H  48.81100 17.98200 33.12700
H  46.44800 19.81400 32.91900
H  47.77600 20.24800 31.85100
H  48.05900 19.95400 33.55800
H  48.24600 15.80900 33.86500
H  46.63200 15.32500 34.45200
H  46.61300 17.02700 36.00000
H  47.95400 17.99100 35.32100
H  51.48300 19.97700 30.45900
H  51.82900 20.85300 29.13700
H  52.82400 19.49200 29.46400
H  52.00700 20.90500 26.41300
H  53.09200 20.28100 25.24700
H  53.56100 19.94300 26.84500
H  49.31200 14.62600 24.09000
H  46.36400 14.00000 24.00800
H  46.95900 15.68000 22.67900
H  48.69300 15.93700 22.33900
H  47.87200 17.04200 23.29200
H  46.90400 11.79600 24.45800
H  48.15300 12.25100 25.62400
H  48.58800 11.17200 23.13400
H  49.76000 11.72500 24.28800
H  49.33200 12.78300 23.05000
H  42.96600 12.82000 27.08100
H  41.81500 13.96000 27.89200
H  42.19200 12.52000 28.71700
H  44.58000 14.44500 32.96400
H  43.55600 17.29400 35.91800
H  42.03700 17.32000 35.01600
H  43.36400 18.33900 34.50500
Mg 46.90500 45.44000 43.86400
C  43.67300 45.17900 43.14300
C  47.42200 42.14900 42.87300
C  50.27100 46.06200 43.92800
C  46.48800 48.99900 44.26600
N  45.76800 43.87800 43.11500
C  44.44600 44.03600 42.81200
C  43.92500 42.85200 42.05000
C  44.97300 41.74400 42.47700
C  46.16400 42.66800 42.66300
C  44.59200 40.91600 43.76300
C  43.67900 43.10000 40.49900
C  42.63000 42.12500 39.89700
H  42.94700 41.48100 38.49300
N  48.65300 44.22500 43.52200
C  48.64100 42.85100 43.18300
C  49.94600 42.29800 43.36200
C  50.72900 43.46500 43.57400
C  49.89200 44.66900 43.74600
C  50.32100 40.89700 43.08500
C  52.28300 43.47800 43.50300
O  52.90700 42.45500 43.45500
C  53.11100 44.76000 43.55800
N  48.21700 47.41900 43.86000
C  49.56500 47.24700 43.92100
C  50.29800 48.58000 44.24300
C  49.08100 49.52300 44.33000
C  47.87400 48.61800 44.14600
C  51.11300 48.43700 45.59000
C  49.18200 50.86200 43.53000
C  49.42700 52.12400 44.30200
N  45.40400 46.86000 43.91000
C  45.30500 48.20900 44.08500
C  43.92600 48.66600 43.91900
C  43.23000 47.46700 43.58800
C  44.15900 46.45000 43.61200
C  43.43000 50.06200 43.85300
C  41.97600 46.88400 43.20200
O  40.88000 47.42200 42.96100
C  42.16100 45.42500 42.98400
C  41.35000 44.54700 43.92100
O  40.35700 43.90600 43.53800
O  41.99500 44.39300 45.16300
C  41.17300 43.66900 46.16700
H  47.55800 41.11600 42.54800
H  51.24900 46.19300 44.39500
H  46.29400 50.05500 44.46200
H  42.96300 42.64100 42.51900
H  45.22400 41.08500 41.64600
H  45.11100 41.23600 44.66600
H  44.90100 39.88100 43.62200
H  43.52700 41.03900 43.96000
H  44.64500 43.12400 39.99400
H  43.30300 44.12100 40.42600
H  41.72100 42.70500 39.73800
H  42.36700 41.36100 40.62800
H  51.31900 40.63500 43.43600
H  50.22100 40.66700 42.02400
H  49.59900 40.25200 43.58500
H  53.21000 45.16400 44.56500
H  52.72200 45.57000 42.94100
H  54.11300 44.51400 43.20600
H  51.08700 48.81700 43.52800
H  49.01300 49.85400 45.36700
H  50.84300 49.23200 46.28500
H  52.17500 48.40100 45.34600
H  50.85700 47.49700 46.07900
H  48.28400 50.87100 42.91300
H  50.05700 50.79300 42.88400
H  50.07000 51.93900 45.16200
H  48.51200 52.62900 44.61300
H  49.98000 52.86100 43.71900
H  42.34700 50.06100 43.72900
H  43.93300 50.66400 43.09600
H  43.53200 50.58300 44.80500
H  41.80100 45.23200 41.97300
H  41.61200 43.81900 47.15300
H  41.23900 42.64200 45.80700
H  40.11900 43.93600 46.09000

