158

Mg 7.55400 2.95000 27.66800
C  9.15200 1.94000 30.68900
C  5.46500 4.78700 29.82100
C  6.48400 4.48000 24.95300
C  9.68700 0.88400 25.83900
N  7.46200 3.37600 29.99100
C  8.20600 2.82800 30.96200
C  8.01300 3.51100 32.30000
C  6.63400 4.31300 32.05000
C  6.44900 4.07800 30.53200
C  5.47100 3.74400 33.00100
C  9.16100 4.46500 32.67200
C  9.10000 5.05500 34.07200
H  9.93900 4.49700 35.29900
N  6.03500 4.32800 27.35200
C  5.27900 4.91300 28.37600
C  4.30000 5.91600 27.70900
C  4.61800 5.84100 26.33100
C  5.70900 4.89700 26.11900
C  3.31300 6.76600 28.53900
C  4.00000 6.68000 25.26000
O  4.31800 6.57700 24.05800
C  3.07100 7.84200 25.57600
N  7.89500 2.60800 25.71600
C  7.38500 3.43500 24.77400
C  7.95100 3.06800 23.33300
C  9.05200 1.99000 23.65000
C  8.89600 1.82400 25.12300
C  6.79500 2.57000 22.42500
C  10.48200 2.24800 23.11700
C  10.94200 1.59300 21.83700
N  8.96100 1.50000 28.12300
C  9.75800 0.77100 27.24500
C  10.64700 -0.10300 28.03100
C  10.47000 0.44800 29.39900
C  9.48300 1.39200 29.35400
C  11.64300 -1.09800 27.46700
C  10.95700 0.33100 30.77700
O  11.84300 -0.47000 31.17200
C  10.09000 1.23600 31.64600
C  9.25300 0.36800 32.61100
O  8.22600 -0.23400 32.37100
O  9.83200 0.37200 33.83100
C  9.18200 -0.19600 35.01400
H  4.92000 5.43600 30.51000
H  6.16600 5.02700 24.06300
H  10.34700 0.24500 25.24900
H  7.96100 2.79100 33.11700
H  6.84700 5.32400 32.39600
H  4.53700 3.76500 32.43900
H  5.36500 4.46600 33.81100
H  5.70100 2.75000 33.38300
H  9.19300 5.29000 31.96100
H  10.05100 3.83900 32.61600
H  8.11100 4.88600 34.49600
H  9.25500 6.12400 33.92300
H  3.16200 6.32400 29.52400
H  2.34700 6.60200 28.06100
H  3.53900 7.83200 28.54800
H  2.57500 8.15800 24.65900
H  3.68400 8.59400 26.07400
H  2.27000 7.50000 26.23100
H  8.38800 3.97600 22.91800
H  8.72700 1.03400 23.24000
H  5.81000 2.54900 22.89100
H  6.94000 1.61600 21.91800
H  6.69700 3.30100 21.62100
H  11.20100 1.98700 23.89300
H  10.62800 3.30700 22.90300
H  10.18100 0.98700 21.34500
H  11.75700 0.90000 22.04500
H  11.27600 2.41600 21.20500
H  11.51900 -2.02900 28.02000
H  12.62200 -0.65200 27.63800
H  11.50100 -1.39200 26.42700
H  10.66900 2.00000 32.16300
H  9.78500 0.30600 35.77100
H  9.20600 -1.27400 35.17000
H  8.15800 0.17300 35.06300
Mg 47.49700 17.34500 29.01800
C  45.56300 16.73700 31.82600
C  50.09500 18.42600 31.13200
C  49.56700 17.64800 26.33100
C  45.07600 15.82000 27.02900
N  47.65400 17.78600 31.15500
C  46.78100 17.37100 32.13900
C  47.38800 17.56200 33.55700
C  48.68100 18.35000 33.38200
C  48.85800 18.18500 31.80600
C  48.78200 19.81300 33.89000
C  47.44500 16.19800 34.38500
C  47.19900 16.25600 35.93100
H  47.11000 17.66900 36.63000
N  49.54800 17.94700 28.76900
C  50.43200 18.39100 29.72600
C  51.67900 18.84900 29.16900
C  51.63200 18.53400 27.77300
C  50.18900 18.01100 27.50100
C  52.83100 19.47600 29.97800
C  52.68300 18.67000 26.66100
O  52.40500 18.46000 25.50700
C  54.15400 19.07200 27.01900
N  47.30700 16.83100 26.98300
C  48.28700 17.17200 26.03500
C  47.90500 16.66200 24.63200
C  46.51900 15.86500 24.94300
C  46.23800 16.19700 26.37400
C  47.75100 17.72200 23.56600
C  46.65700 14.32200 24.76100
C  46.22400 13.84600 23.38900
N  45.63900 16.56400 29.21000
C  44.71600 16.04900 28.34900
C  43.49900 15.66100 29.00600
C  43.83800 15.92500 30.36500
C  45.13700 16.52300 30.44200
C  42.18600 15.09500 28.42500
C  43.27400 15.85900 31.76500
O  42.12500 15.38700 32.00700
C  44.35200 16.29300 32.71300
C  43.91200 17.42600 33.48500
O  43.91900 18.55900 33.05300
O  43.51300 17.14200 34.71700
C  43.16100 18.14300 35.75300
H  50.92700 18.63500 31.80600
H  50.25000 17.56300 25.48300
H  44.33400 15.24200 26.47400
H  46.79700 18.24400 34.16800
H  49.47200 17.83200 33.92500
H  49.08500 20.41500 33.03400
H  49.55100 19.88700 34.65900
H  47.85800 20.16700 34.34800
H  48.45700 15.82200 34.23500
H  46.83700 15.47700 33.83800
H  47.93800 15.60900 36.40300
H  46.24800 15.75300 36.11200
H  53.58000 18.73500 30.25600
H  52.43900 19.91400 30.89600
H  53.30800 20.25000 29.37600
H  54.12100 20.14100 27.23100
H  54.69500 18.76600 26.12400
H  54.51900 18.37400 27.77300
H  48.65900 15.93100 24.34200
H  45.71800 16.30300 24.34900
H  48.44900 17.52700 22.75200
H  47.96400 18.68700 24.02500
H  46.77800 17.68900 23.07600
H  46.14300 13.74600 25.53000
H  47.71200 14.06100 24.85500
H  46.91500 13.14400 22.92200
H  46.04800 14.69500 22.72900
H  45.22700 13.41100 23.44300
H  42.25100 14.06000 28.76000
H  42.15500 15.25700 27.34800
H  41.37900 15.67700 28.87200
H  44.60100 15.45300 33.36100
H  42.20500 18.66100 35.67000
H  43.91800 18.92600 35.79200
H  43.13200 17.63300 36.71600

