158

Mg 52.38900 23.45300 44.69100
C  49.44400 25.29600 43.83400
C  50.59700 20.57100 43.78900
C  55.26900 21.72100 44.54700
C  53.97200 26.32800 45.29800
N  50.27400 23.02200 43.88800
C  49.25800 23.93000 43.59400
C  47.94700 23.18200 43.34200
C  48.31000 21.76900 43.75400
C  49.83600 21.71100 43.82200
C  47.45000 21.39700 45.00900
C  47.51500 23.22600 41.86400
C  48.41000 22.68300 40.83200
H  48.62100 23.52700 39.56900
N  52.84000 21.41800 44.26000
C  51.98800 20.41500 44.00400
C  52.75100 19.14100 43.98100
C  54.11300 19.45900 44.08000
C  54.11200 20.94500 44.32300
C  52.14900 17.79900 43.65500
C  55.27300 18.40600 43.99800
O  55.03700 17.25700 43.82300
C  56.63900 18.69800 44.26000
N  54.41600 24.02600 44.85200
C  55.40900 23.13500 44.76300
C  56.75000 23.92200 44.76400
C  56.30600 25.37300 45.18800
C  54.78400 25.25100 45.14700
C  57.87200 23.33600 45.66100
C  56.98600 26.51800 44.37200
C  57.84700 27.48600 45.12100
N  51.93700 25.44000 44.71100
C  52.67200 26.52200 45.14500
C  51.81400 27.64400 45.24200
C  50.55900 27.26100 44.72200
C  50.71200 25.89300 44.33100
C  52.18100 28.99900 45.76700
C  49.26300 27.70300 44.39200
O  48.76800 28.84200 44.49300
C  48.51500 26.48500 43.76100
C  48.18600 26.87000 42.35100
O  48.94200 26.90900 41.42800
O  46.84200 27.13400 42.23000
C  46.38100 27.58400 40.90700
H  50.11500 19.59400 43.87200
H  56.17700 21.12600 44.66500
H  54.42100 27.28900 45.55900
H  47.17500 23.55100 44.01700
H  47.94800 21.13300 42.94700
H  47.85000 20.51100 45.50300
H  46.48700 21.16600 44.55200
H  47.32600 22.19200 45.74500
H  47.22200 24.25400 41.64800
H  46.56900 22.69600 41.74900
H  48.03900 21.72300 40.47100
H  49.39800 22.57400 41.27800
H  52.72500 17.44700 42.79900
H  51.08200 17.86600 43.44200
H  52.30700 17.09000 44.46700
H  57.17200 17.78300 44.00300
H  56.87900 18.96000 45.29100
H  56.92300 19.51100 43.59200
H  57.06900 23.87900 43.72300
H  56.58600 25.60200 46.21600
H  57.69000 22.32100 46.01400
H  57.93800 24.03600 46.49300
H  58.77400 23.32500 45.04900
H  56.29700 27.18200 43.85000
H  57.65700 25.93400 43.74200
H  58.74400 27.02700 45.53600
H  57.29700 27.98500 45.91800
H  58.10800 28.27900 44.42000
H  51.81600 29.72200 45.03800
H  53.25200 29.20200 45.79600
H  51.83100 29.08300 46.79600
H  47.61100 26.27400 44.33200
H  46.83700 26.93600 40.15900
H  46.65200 28.61700 40.68900
H  45.30600 27.41500 40.97900
Mg -8.73100 40.10800 43.19400
C  -8.07200 36.79900 42.29200
C  -5.91200 40.99700 41.32800
C  -9.64400 43.40400 43.30100
C  -11.79600 39.26500 44.33900
N  -7.16200 38.99800 42.07200
C  -7.07500 37.66500 41.90000
C  -5.90600 37.31300 40.99800
C  -5.05900 38.61400 40.94900
C  -6.09700 39.63800 41.41900
C  -3.81800 38.74000 41.82400
C  -6.49400 36.75100 39.68400
C  -5.59100 35.58500 38.99100
H  -4.74600 36.08900 37.77800
N  -7.87000 41.95800 42.43000
C  -6.72500 42.09000 41.73600
C  -6.46500 43.53300 41.41200
C  -7.56100 44.26700 41.99900
C  -8.43700 43.24300 42.61700
C  -5.34900 44.09400 40.55100
C  -7.64800 45.79700 42.05800
O  -6.88000 46.52800 41.44300
C  -8.79700 46.50700 42.85000
N  -10.49800 41.26200 43.62100
C  -10.63100 42.56400 43.77200
C  -11.97000 43.06600 44.30100
C  -12.61400 41.70700 44.71700
C  -11.55600 40.65300 44.15400
C  -11.87600 44.25300 45.33900
C  -14.14800 41.46000 44.44400
C  -14.48400 41.35800 42.92300
N  -9.69700 38.32200 43.52300
C  -11.00800 38.14200 43.94200
C  -11.28800 36.66200 43.88800
C  -10.12500 36.14900 43.29300
C  -9.21200 37.16800 43.06000
C  -12.52600 35.89800 44.42500
C  -9.50300 34.93500 42.95400
O  -9.98500 33.77700 43.02100
C  -8.19500 35.29600 42.14700
C  -7.08300 34.57800 42.69700
O  -6.44500 34.86400 43.69800
O  -6.57800 33.71200 41.73200
C  -5.29600 33.03500 42.00000
H  -5.00900 41.24900 40.76800
H  -9.88800 44.43500 43.56600
H  -12.72600 38.98800 44.83800
H  -5.35100 36.54200 41.53200
H  -4.96600 38.81300 39.88100
H  -3.88600 39.44600 42.65100
H  -2.92800 39.14000 41.33700
H  -3.62000 37.73200 42.19100
H  -6.48900 37.55200 38.94500
H  -7.52900 36.41100 39.69900
H  -6.27000 34.77600 38.72500
H  -4.87200 35.05300 39.61400
H  -5.63300 44.94100 39.92600
H  -4.95600 43.34200 39.86600
H  -4.60900 44.35900 41.30600
H  -8.74600 47.56900 42.61300
H  -8.70500 46.33000 43.92200
H  -9.75400 46.16500 42.45600
H  -12.53300 43.34400 43.41000
H  -12.44500 41.57600 45.78600
H  -10.82800 44.44000 45.57300
H  -12.37000 44.07600 46.29500
H  -12.27800 45.16800 44.90500
H  -14.69000 42.34800 44.76800
H  -14.42800 40.58300 45.02800
H  -14.82100 40.35100 42.67700
H  -13.59100 41.59000 42.34200
H  -15.17900 42.10500 42.53900
H  -12.68500 36.22200 45.45400
H  -12.28700 34.83500 44.43100
H  -13.43300 36.06500 43.84400
H  -8.37700 35.07700 41.09500
H  -4.51500 33.73300 42.30300
H  -4.89700 32.55200 41.10800
H  -5.34900 32.31200 42.81400

