158

Mg 40.13200 9.63200 29.71200
C  41.95100 10.61800 32.48800
C  37.97700 7.86500 31.87200
C  38.28900 8.79400 26.93900
C  42.72300 10.81300 27.57700
N  39.99700 9.36600 31.90100
C  40.77900 9.91600 32.85800
C  40.33600 9.45500 34.28000
C  39.38400 8.24200 33.97800
C  39.05600 8.53700 32.50900
C  40.00300 6.82800 34.14400
C  39.80000 10.66200 35.13000
C  40.29800 10.86800 36.64400
H  40.75200 12.17900 37.34200
N  38.36500 8.54100 29.45300
C  37.61100 7.97400 30.48000
C  36.27300 7.49900 29.92000
C  36.41200 7.65500 28.48100
C  37.76400 8.35900 28.24600
C  35.15800 6.86700 30.69300
C  35.49600 7.30300 27.33000
O  35.74900 7.47100 26.16600
C  34.13000 6.72700 27.64800
N  40.58000 9.72800 27.55200
C  39.54800 9.40900 26.62400
C  39.95300 9.82300 25.16400
C  41.31000 10.51600 25.38900
C  41.60100 10.33000 26.91200
C  40.03100 8.63200 24.23900
C  41.50800 11.90500 24.77500
C  40.67400 12.95600 25.31200
N  41.93800 10.55300 29.93600
C  42.92200 10.89200 29.03700
C  44.04400 11.48700 29.69900
C  43.72700 11.43500 31.10300
C  42.40500 10.79700 31.18100
C  45.30900 12.04600 29.09100
C  44.12200 11.78400 32.48600
O  45.11900 12.39200 32.91800
C  42.95500 11.29400 33.40300
C  43.59900 10.37800 34.33200
O  44.22900 9.41000 34.03800
O  43.44600 10.86900 35.64100
C  44.18800 10.12400 36.68100
H  37.42100 7.16100 32.49400
H  37.66200 8.60200 26.06600
H  43.47800 11.30000 26.95700
H  41.19200 9.01600 34.79200
H  38.46700 8.19600 34.56500
H  40.53600 6.75300 35.09200
H  40.61200 6.50800 33.29800
H  39.09600 6.24100 34.28800
H  38.71400 10.57400 35.17000
H  39.91800 11.61100 34.60800
H  41.06100 10.13600 36.90900
H  39.43400 10.56800 37.23800
H  35.39900 6.99600 31.74800
H  35.01400 5.81500 30.44800
H  34.22100 7.41000 30.56900
H  34.34500 5.81100 28.19900
H  33.59700 6.59900 26.70600
H  33.61400 7.48100 28.24200
H  39.10500 10.43400 24.85400
H  42.07000 9.88000 24.93500
H  40.23200 7.70300 24.77300
H  40.90900 8.83900 23.62600
H  39.11100 8.70100 23.65800
H  41.09600 11.75500 23.77700
H  42.54400 12.22600 24.66700
H  40.11400 12.64900 26.19600
H  40.04400 13.35000 24.51400
H  41.41100 13.72700 25.53600
H  46.12900 12.28100 29.76900
H  45.06900 12.91200 28.47300
H  45.70000 11.28400 28.41700
H  42.46000 12.09400 33.95300
H  43.53100 10.22000 37.54500
H  45.17900 10.49000 36.94800
H  44.32100 9.05400 36.51800
Mg 6.00000 53.22400 41.27200
C  4.20800 50.24400 41.45900
C  8.54100 51.47400 39.76100
C  7.54800 56.21800 40.76000
C  3.27300 54.78500 42.47700
N  6.25800 51.10500 40.60100
C  5.41400 50.06400 40.76700
C  5.86800 48.90800 39.89500
C  7.35900 49.17700 39.70900
C  7.42200 50.68200 40.06200
C  8.27800 48.25100 40.51400
C  5.07000 48.99300 38.55300
C  4.88000 47.70500 37.75600
H  5.64300 47.52300 36.50600
N  7.73900 53.75700 40.43700
C  8.66900 52.89200 39.86000
C  9.78200 53.61500 39.32600
C  9.62600 54.94100 39.77200
C  8.28100 55.01100 40.38400
C  10.87600 52.95600 38.49100
C  10.55900 56.08600 39.51600
O  11.49300 56.06000 38.75300
C  10.44700 57.43400 40.20200
N  5.47100 55.22400 41.54800
C  6.24800 56.29000 41.32400
C  5.52500 57.60300 41.50200
C  4.23200 57.13600 42.12700
C  4.28000 55.61500 41.98000
C  6.27500 58.63000 42.31500
C  2.91600 57.80200 41.50600
C  1.92400 58.44800 42.47300
N  4.05400 52.67500 41.83900
C  3.13000 53.41000 42.45500
C  2.06700 52.56300 43.00500
C  2.40300 51.27400 42.66700
C  3.63500 51.47700 41.91700
C  0.92000 53.02400 43.86100
C  2.10100 49.84500 42.70100
O  1.11200 49.31200 43.12300
C  3.30600 49.09200 42.08800
C  2.93100 47.95500 41.19400
O  2.25900 48.08300 40.17000
O  3.54400 46.77600 41.61900
C  3.53300 45.62500 40.71200
H  9.43300 51.04500 39.29900
H  7.92700 57.22000 40.54700
H  2.45500 55.37000 42.90100
H  5.57700 47.99600 40.41600
H  7.69200 49.00700 38.68600
H  7.71300 47.48400 41.04500
H  9.01300 48.79100 41.11100
H  8.80600 47.64100 39.78100
H  5.53800 49.65300 37.82300
H  4.04700 49.36700 38.59500
H  3.81700 47.64800 37.52000
H  5.00500 46.78300 38.32400
H  11.05800 53.69500 37.71000
H  10.63900 52.02400 37.97900
H  11.82400 52.88700 39.02400
H  11.40400 57.94100 40.32700
H  10.02100 57.24300 41.18700
H  9.95500 58.21500 39.62400
H  5.39200 58.04800 40.51600
H  4.12400 57.32600 43.19500
H  6.62400 59.46800 41.71000
H  7.15800 58.17800 42.76600
H  5.65400 58.94700 43.15200
H  2.40400 56.98200 41.00400
H  3.08500 58.54200 40.72400
H  2.35100 58.61300 43.46300
H  1.05900 57.78700 42.51200
H  1.65800 59.37100 41.95700
H  1.11200 53.95500 44.39400
H  0.62800 52.22600 44.54400
H  0.05300 53.25300 43.24000
H  3.92700 48.58800 42.82900
H  4.55300 45.23900 40.71600
H  3.20700 45.79200 39.68500
H  2.83100 44.87100 41.06700

