158

Mg 48.34500 24.69900 27.53800
C  49.26700 26.98200 29.85800
C  47.66900 22.42000 30.04600
C  47.65100 22.35400 25.14000
C  49.76300 26.70700 25.04300
N  48.38300 24.70300 29.76400
C  48.82900 25.74800 30.51600
C  48.52200 25.58200 32.05500
C  48.23300 24.00500 32.09300
C  48.12100 23.61600 30.53900
C  49.29800 23.12900 32.80200
C  47.27400 26.41300 32.43800
C  46.69300 26.05000 33.76400
H  46.52200 27.14800 34.82300
N  47.67500 22.70200 27.54800
C  47.44300 21.95000 28.64200
C  46.81700 20.69000 28.27000
C  46.70200 20.71700 26.81500
C  47.30200 22.01000 26.42800
C  46.36800 19.68600 29.26000
C  46.13100 19.69700 25.86600
O  46.03600 19.97300 24.67800
C  45.54700 18.43200 26.41200
N  48.71900 24.61000 25.41900
C  48.25800 23.53700 24.71800
C  48.50100 23.73600 23.18800
C  49.03900 25.24700 23.09100
C  49.19400 25.56700 24.54300
C  49.54900 22.73000 22.42200
C  48.04400 26.20200 22.37600
C  48.67300 27.36700 21.57100
N  49.16200 26.49000 27.41200
C  49.73600 27.19800 26.36200
C  50.19700 28.45300 26.88200
C  49.95800 28.46000 28.20900
C  49.38200 27.23200 28.49700
C  50.85600 29.53100 26.03400
C  50.11600 29.18000 29.42400
O  50.56700 30.29400 29.62600
C  49.63100 28.27100 30.55500
C  50.70000 28.10400 31.51800
O  51.72900 27.49600 31.23500
O  50.33800 28.60000 32.77900
C  51.32900 28.44100 33.85700
H  47.27300 21.81600 30.86400
H  47.38300 21.63600 24.36100
H  49.95100 27.40400 24.22300
H  49.35700 25.93900 32.65900
H  47.22000 23.73900 32.39400
H  48.89600 22.19000 33.18200
H  49.92500 23.63400 33.53700
H  49.93300 22.91400 31.94300
H  46.48700 26.22700 31.70700
H  47.58200 27.45800 32.44900
H  47.28900 25.26400 34.22800
H  45.72100 25.61500 33.53400
H  45.39200 19.21400 29.14800
H  46.51600 20.05200 30.27600
H  47.02100 18.81300 29.27800
H  45.51300 17.77000 25.54700
H  44.54600 18.66100 26.78000
H  46.24200 17.93000 27.08500
H  47.57200 23.58100 22.64000
H  50.03600 25.32100 22.65500
H  50.41300 23.37200 22.25100
H  49.17500 22.27500 21.50600
H  49.80200 22.02600 23.21500
H  47.51500 26.75900 23.14900
H  47.34800 25.57300 21.82100
H  48.40000 28.34400 21.96800
H  48.50500 27.24700 20.50100
H  49.76100 27.42600 21.52700
H  50.92800 29.20800 24.99500
H  51.88000 29.84400 26.24200
H  50.08400 30.29700 26.09900
H  48.80100 28.86000 30.94400
H  52.33900 28.23100 33.50500
H  50.98200 27.58000 34.42700
H  51.43500 29.34200 34.46100
Mg -4.73400 25.77200 26.23100
C  -3.34100 27.39800 28.80200
C  -6.70200 23.88100 28.38400
C  -5.62700 23.73100 23.64700
C  -2.74600 27.52000 23.94300
N  -4.93200 25.55200 28.38100
C  -4.33900 26.48500 29.25700
C  -4.69600 26.06000 30.71600
C  -5.59600 24.80800 30.47900
C  -5.80200 24.79900 28.96600
C  -4.91800 23.44100 30.94900
C  -5.36700 27.15900 31.50900
C  -4.99200 27.22900 33.01100
H  -4.70800 25.95400 33.70600
N  -5.98800 24.01600 26.05600
C  -6.80200 23.49600 27.01200
C  -7.65900 22.45000 26.48100
C  -7.31100 22.31000 25.11800
C  -6.29900 23.37000 24.88600
C  -8.80000 21.81000 27.31200
C  -7.92000 21.35600 24.18800
O  -7.56500 21.38200 22.99000
C  -8.90000 20.34500 24.55900
N  -4.20900 25.62600 24.14500
C  -4.71600 24.73800 23.32300
C  -4.37600 25.02000 21.80200
C  -3.53900 26.32300 21.95600
C  -3.53200 26.51600 23.42400
C  -3.64200 23.79900 21.24000
C  -4.05100 27.55000 21.17000
C  -3.02000 28.06200 20.17900
N  -3.37200 27.25200 26.29500
C  -2.65400 27.91300 25.27700
C  -1.68900 28.76300 25.99600
C  -1.91100 28.55300 27.33500
C  -2.96600 27.64600 27.46200
C  -0.63000 29.65700 25.22800
C  -1.47700 28.95600 28.58100
O  -0.55200 29.67900 28.89500
C  -2.38200 28.25100 29.62700
C  -1.57000 27.41900 30.51100
O  -0.84400 26.57100 30.11600
O  -1.80500 27.66900 31.83600
C  -1.09400 26.73900 32.79900
H  -7.24700 23.28200 29.11700
H  -5.93700 23.11700 22.79900
H  -1.92000 27.94200 23.36700
H  -3.73300 25.71800 31.09300
H  -6.53700 24.90600 31.02000
H  -3.88100 23.64500 31.21400
H  -5.02900 22.66800 30.18800
H  -5.42900 23.08700 31.84400
H  -6.45300 27.07500 31.45700
H  -5.17400 28.11400 31.02000
H  -5.88900 27.67700 33.43800
H  -4.18300 27.93400 33.20100
H  -8.75400 20.72700 27.19000
H  -9.76800 22.23200 27.04600
H  -8.68400 21.87600 28.39400
H  -9.38200 19.88500 23.69600
H  -9.75700 20.86600 24.98600
H  -8.59100 19.59000 25.28200
H  -5.32500 25.21000 21.30000
H  -2.51400 26.12900 21.64000
H  -4.41200 23.12900 20.85500
H  -2.98800 23.46800 22.04600
H  -3.08000 24.06000 20.34300
H  -4.36200 28.34100 21.85200
H  -4.98900 27.29700 20.67500
H  -3.39800 28.80300 19.47400
H  -2.40100 27.32900 19.66000
H  -2.31500 28.56400 20.84200
H  -1.15400 30.54900 24.88400
H  -0.29200 29.15900 24.31900
H  0.13800 29.86500 25.97300
H  -2.99900 29.03600 30.06400
H  -0.91600 27.18100 33.78000
H  -0.09400 26.51700 32.42800
H  -1.78700 25.89800 32.78400

