158

Mg 25.81500 0.15000 29.41200
C  27.57800 0.14300 32.34600
C  22.88800 0.43000 31.16400
C  24.17600 0.03600 26.51500
C  28.85300 -0.47800 27.75000
N  25.37100 0.33100 31.46800
C  26.27400 0.43300 32.55700
C  25.57700 0.91700 33.89300
C  24.04300 0.98700 33.41200
C  24.08500 0.48000 31.96500
C  22.94000 0.29400 34.34700
C  26.14100 2.26100 34.43900
C  25.32800 2.81500 35.63800
H  26.03600 2.79300 36.98200
N  23.77100 0.23500 28.94800
C  22.68200 0.33500 29.74200
C  21.45600 0.40200 29.01600
C  21.88100 0.49600 27.68800
C  23.35500 0.21900 27.67200
C  20.07600 0.54800 29.53800
C  21.03800 0.80600 26.44700
O  21.45500 0.87100 25.25900
C  19.60300 1.06200 26.62100
N  26.44200 -0.30200 27.37000
C  25.51400 -0.20300 26.36300
C  26.28600 -0.34700 25.07100
C  27.75300 -0.25400 25.42900
C  27.69600 -0.44500 26.93600
C  25.83600 -1.66700 24.47200
C  28.33500 1.22000 24.95500
C  29.88700 1.28100 24.75700
N  27.74900 -0.32900 29.93300
C  28.85100 -0.54600 29.12600
C  30.03400 -0.75600 29.95200
C  29.57700 -0.48000 31.25300
C  28.22000 -0.13200 31.17000
C  31.36300 -1.16300 29.47600
C  29.91900 -0.33000 32.67100
O  30.93400 -0.60100 33.29600
C  28.66500 0.09200 33.38300
C  28.39700 -0.99300 34.33100
O  27.63300 -1.92400 34.11600
O  29.09700 -0.76800 35.46000
C  28.91200 -1.66700 36.60100
H  21.96400 0.60900 31.71800
H  23.68200 -0.05600 25.54500
H  29.81400 -0.51100 27.23300
H  25.51500 0.16700 34.68100
H  23.81900 2.05100 33.33200
H  22.30300 1.08500 34.74200
H  23.34400 -0.30000 35.16700
H  22.37200 -0.43400 33.76800
H  26.31400 2.91100 33.58100
H  27.13100 2.00300 34.81600
H  24.35900 2.32300 35.72500
H  25.09200 3.86100 35.44200
H  19.37900 -0.22600 29.22000
H  19.59500 1.50900 29.35400
H  20.16800 0.47000 30.62200
H  18.98800 1.13200 25.72500
H  19.55600 2.06300 27.05000
H  19.14400 0.27100 27.21500
H  25.93900 0.55500 24.56600
H  28.39100 -1.05300 25.05100
H  26.60500 -2.41900 24.30000
H  25.26400 -1.47400 23.56400
H  25.09600 -2.13200 25.12300
H  27.98400 2.06700 25.54400
H  27.85500 1.49000 24.01500
H  30.13300 1.32900 23.69700
H  30.39300 0.42400 25.20200
H  30.35700 2.13700 25.24200
H  31.65400 -2.20900 29.57700
H  32.07100 -0.69600 30.16100
H  31.62800 -0.81000 28.48000
H  28.74500 1.07800 33.84000
H  29.16400 -1.13700 37.52000
H  29.62500 -2.49200 36.60400
H  27.90600 -2.07800 36.67800
Mg 41.03100 8.52600 29.87600
C  42.72600 9.92100 32.63500
C  38.60000 7.46800 32.08300
C  39.31800 7.13900 27.25700
C  43.83700 8.75000 28.04800
N  40.69000 8.71800 32.14800
C  41.49500 9.45700 33.02200
C  40.75200 9.53100 34.36100
C  39.53600 8.67200 34.17700
C  39.57300 8.30200 32.69400
C  39.38500 7.33000 34.98900
C  40.62800 11.03100 34.94500
C  39.87400 11.33800 36.24400
H  40.67900 12.14500 37.34600
N  39.17400 7.49000 29.67600
C  38.40300 7.10500 30.71700
C  37.20500 6.48200 30.18500
C  37.33700 6.47000 28.77700
C  38.60000 7.10800 28.47900
C  36.09500 6.08200 31.09200
C  36.53300 5.79000 27.67700
O  36.78200 5.78800 26.45700
C  35.32200 4.98400 28.07000
N  41.51100 7.94300 28.02400
C  40.61600 7.47500 27.11100
C  41.35200 7.04300 25.75500
C  42.72800 7.66900 26.00200
C  42.71000 8.17400 27.43400
C  41.30000 5.54000 25.43600
C  43.06800 8.80100 24.88600
C  42.34900 10.11700 25.20700
N  42.89800 9.34000 30.20000
C  44.01400 9.31400 29.32600
C  45.08500 9.96800 29.99700
C  44.67400 10.28600 31.25500
C  43.33000 9.77300 31.36000
C  46.33700 10.21300 29.33600
C  45.06600 10.83700 32.46500
O  46.02400 11.42600 32.84300
C  43.81500 10.53500 33.53500
C  44.26500 9.69300 34.65200
O  45.02100 8.72600 34.54800
O  43.64700 10.02300 35.79900
C  44.18200 9.34300 36.96800
H  37.88500 7.19000 32.85900
H  38.91200 6.76200 26.31600
H  44.68100 8.67600 27.35900
H  41.30800 9.01800 35.14500
H  38.65700 9.30000 34.32400
H  39.48400 6.54800 34.23600
H  38.39500 7.29200 35.44300
H  40.17700 7.04700 35.68300
H  40.09600 11.65600 34.22800
H  41.61800 11.42100 35.18100
H  39.55400 10.36300 36.61100
H  38.99200 11.96400 36.10500
H  36.25400 6.04400 32.17000
H  35.89100 5.02000 30.95000
H  35.20400 6.68300 30.91200
H  35.62700 4.25500 28.82100
H  35.03300 4.45000 27.16400
H  34.52500 5.62700 28.44300
H  40.82700 7.54500 24.94200
H  43.56100 6.97000 26.08000
H  42.33100 5.19100 25.50400
H  40.96500 5.44500 24.40300
H  40.64400 5.01400 26.12900
H  42.77600 8.57400 23.86100
H  44.15200 8.89500 24.93700
H  41.55300 10.19600 24.46800
H  42.97100 11.01000 25.15600
H  41.80200 10.16300 26.14900
H  46.58700 9.39400 28.66100
H  47.17300 10.28900 30.03000
H  46.18300 11.15000 28.80000
H  43.55000 11.51300 33.93600
H  45.25800 9.23600 37.10200
H  43.72300 8.36100 37.08200
H  43.82000 9.86600 37.85300

