158

Mg 53.91600 23.98500 44.82900
C  50.93200 25.79100 44.00800
C  52.28100 21.16800 43.96700
C  56.81500 22.31000 45.24300
C  55.58100 27.00400 45.44000
N  51.92600 23.60800 43.97100
C  50.85200 24.42800 43.72700
C  49.69300 23.66300 43.24400
C  49.97300 22.15500 43.72200
C  51.49200 22.34700 43.91300
C  49.15600 21.69700 45.00100
C  49.55500 23.91800 41.69100
C  48.20900 23.94600 41.04200
H  48.03800 23.23600 39.68600
N  54.44800 22.08000 44.54300
C  53.64800 21.01300 44.27400
C  54.32100 19.79700 44.35900
C  55.58900 20.11600 44.82500
C  55.66300 21.56700 44.82300
C  53.68400 18.46800 43.94900
C  56.65600 19.05900 45.24500
O  56.37800 17.85500 45.19100
C  57.93900 19.42000 45.86400
N  55.99200 24.57700 45.08800
C  57.00600 23.69500 45.30700
C  58.24000 24.46400 45.69100
C  57.80900 25.96200 45.85600
C  56.34300 25.83800 45.38800
C  59.03300 23.76000 46.91700
C  58.78500 27.03700 45.14700
C  59.24900 28.22400 46.04300
N  53.41600 25.97900 44.69300
C  54.20700 27.08400 45.14600
C  53.24200 28.24100 45.17500
C  51.98900 27.75800 44.80100
C  52.13600 26.35600 44.46400
C  53.71700 29.62800 45.62500
C  50.56800 28.13100 44.66200
O  50.05200 29.22600 44.82900
C  49.87900 26.93300 43.96900
C  49.43900 27.36500 42.69800
O  50.11300 27.58600 41.70000
O  48.03500 27.34600 42.63400
C  47.51000 27.90500 41.39500
H  51.70000 20.27300 43.73800
H  57.72000 21.72400 45.41000
H  55.99000 27.92400 45.86400
H  48.79900 23.95800 43.79300
H  49.69400 21.47100 42.92000
H  49.74400 21.90400 45.89500
H  48.78800 20.67400 44.92200
H  48.31900 22.35500 45.23600
H  50.23300 23.21100 41.21400
H  49.89600 24.93100 41.47900
H  47.80800 24.95000 40.90100
H  47.55600 23.42200 41.74000
H  54.50000 17.79300 43.69300
H  52.98200 18.59000 43.12400
H  53.19200 18.12800 44.86100
H  58.66100 19.92900 45.22700
H  58.36900 18.49100 46.23900
H  57.59500 20.05900 46.67700
H  58.85100 24.39300 44.79100
H  57.73700 26.12000 46.93200
H  58.51800 22.93000 47.40200
H  59.32800 24.50000 47.66000
H  59.91200 23.39200 46.38700
H  58.43600 27.45700 44.20300
H  59.68300 26.50800 44.82800
H  58.89100 29.16200 45.61900
H  60.33400 28.28900 46.12300
H  58.83700 28.16900 47.05000
H  54.79500 29.68900 45.77200
H  53.18900 29.84400 46.55400
H  53.30500 30.38300 44.95600
H  48.96200 26.72000 44.51900
H  48.11200 27.68700 40.51300
H  47.42800 28.98400 41.52700
H  46.55100 27.40100 41.27900
Mg 48.37000 14.95700 28.17200
C  46.40000 14.99700 31.24400
C  50.48800 17.04100 29.72600
C  50.07300 14.92200 25.27200
C  45.73300 13.04200 26.69400
N  48.34600 15.94800 30.19500
C  47.54500 15.72900 31.31300
C  48.16600 16.38900 32.56300
C  49.27400 17.35700 31.91300
C  49.35900 16.79100 30.49300
C  49.04500 18.89200 31.91600
C  48.63500 15.31100 33.64400
C  48.38000 15.43500 35.13200
H  49.51200 15.34400 36.12900
N  50.09300 15.82000 27.60700
C  50.89500 16.64400 28.42400
C  52.21400 16.70700 27.81400
C  52.13100 16.19900 26.52200
C  50.71500 15.62700 26.41800
C  53.42100 17.33900 28.46400
C  53.19200 15.96900 25.46000
O  53.02500 15.41500 24.39400
C  54.63800 16.39300 25.70300
N  47.82000 14.39700 26.14400
C  48.75600 14.38300 25.13200
C  48.43100 13.31800 24.04800
C  46.98500 12.81600 24.44100
C  46.84000 13.39300 25.86300
C  48.57400 13.81400 22.52000
C  46.93000 11.18800 24.53800
C  45.78200 10.46600 23.88900
N  46.37900 14.27800 28.71300
C  45.49000 13.48400 28.02700
C  44.35100 13.23000 28.94400
C  44.66800 13.70800 30.17000
C  45.92100 14.40600 30.04000
C  43.14300 12.40200 28.64200
C  44.26200 13.78400 31.58200
O  43.25900 13.32700 32.14000
C  45.42400 14.53100 32.32200
C  44.76900 15.69800 33.01300
O  44.05500 16.53000 32.48000
O  45.23500 15.80500 34.30700
C  44.75500 16.94300 34.98300
H  51.20100 17.71700 30.20200
H  50.69200 14.79700 24.38100
H  44.97000 12.33800 26.35400
H  47.35700 16.94400 33.03700
H  50.25900 17.22800 32.36200
H  49.84500 19.36300 32.48700
H  48.08100 19.18400 32.33300
H  49.14700 19.27300 30.90000
H  49.71800 15.26700 33.53500
H  48.08700 14.39200 33.43600
H  47.60300 14.70400 35.35800
H  47.95200 16.42800 35.27100
H  53.44900 18.38200 28.14900
H  54.31100 16.71100 28.41000
H  53.24900 17.46000 29.53300
H  54.80300 17.43300 25.98500
H  55.14800 16.04900 24.80300
H  55.00600 15.76800 26.51700
H  49.22200 12.58200 24.19100
H  46.16900 13.18400 23.81900
H  49.29500 14.62600 22.60100
H  47.56500 14.12000 22.24500
H  48.95200 13.01700 21.87900
H  47.15300 10.91500 25.57000
H  47.75000 10.86400 23.89800
H  45.06200 11.20800 23.54300
H  45.32400 9.71800 24.53700
H  46.05800 10.02700 22.93000
H  42.23700 12.69100 29.17300
H  43.40900 11.40000 28.97900
H  43.00800 12.27500 27.56800
H  45.68700 13.82000 33.10500
H  43.68300 17.07300 34.83900
H  45.37400 17.76900 34.63200
H  45.03300 16.77500 36.02300

