158

Mg -2.02200 16.91600 26.71800
C  -2.69500 14.75300 29.46000
C  -2.29700 19.59800 28.96300
C  -1.97900 18.97500 24.05400
C  -1.93200 14.10300 24.58400
N  -2.41700 17.10400 28.99800
C  -2.69100 16.10500 29.88900
C  -3.04900 16.66400 31.26000
C  -2.85400 18.23000 31.02300
C  -2.44600 18.36500 29.59500
C  -4.08700 19.09100 31.41000
C  -2.14800 16.03700 32.44600
C  -1.59100 16.87500 33.57000
H  -1.65800 16.30200 34.99600
N  -1.98500 18.98900 26.52700
C  -2.12300 19.87700 27.58700
C  -2.17200 21.18200 27.03100
C  -1.98700 21.14300 25.64800
C  -2.03600 19.66000 25.32700
C  -2.52700 22.43600 27.78200
C  -1.86700 22.18900 24.51500
O  -1.77400 21.97600 23.31500
C  -1.72000 23.64700 24.93100
N  -2.18500 16.61000 24.67600
C  -2.04700 17.61600 23.77700
C  -1.79000 16.99100 22.38000
C  -1.45900 15.51500 22.62700
C  -2.04900 15.36100 24.02300
C  -3.02100 17.18500 21.46500
C  0.10200 15.14000 22.55600
C  1.16000 15.96400 23.30500
N  -2.31600 14.85500 26.94400
C  -2.24600 13.80100 25.98300
C  -2.50100 12.52300 26.62300
C  -2.62100 12.83900 28.01100
C  -2.49300 14.25400 28.16900
C  -2.70500 11.21700 25.89700
C  -2.92200 12.22000 29.31900
O  -3.18900 11.10300 29.76200
C  -2.87100 13.49500 30.31300
C  -1.60600 13.22600 31.01600
O  -0.46500 13.41900 30.56800
O  -1.81800 12.70800 32.25700
C  -0.61700 12.61800 33.14700
H  -2.32700 20.50700 29.56700
H  -1.90500 19.64700 23.19600
H  -1.73200 13.22800 23.96200
H  -4.06500 16.33500 31.47800
H  -1.99700 18.49600 31.64100
H  -4.70200 18.47700 32.06700
H  -4.58600 19.47700 30.52100
H  -3.71000 19.91100 32.02100
H  -1.29800 15.55400 31.96400
H  -2.75100 15.23200 32.86500
H  -2.26700 17.72900 33.60500
H  -0.66100 17.35000 33.25500
H  -1.96100 23.30600 27.44700
H  -2.16600 22.31900 28.80500
H  -3.57900 22.66200 27.60800
H  -2.68000 23.86400 25.39900
H  -1.57300 24.25900 24.04100
H  -0.85800 23.75600 25.59000
H  -0.95500 17.44200 21.84300
H  -1.93500 14.91900 21.84800
H  -3.72500 17.82400 21.99800
H  -3.57900 16.26900 21.26800
H  -2.69900 17.62800 20.52300
H  0.34400 15.09300 21.49400
H  0.29500 14.11600 22.87600
H  1.68500 15.22300 23.90800
H  0.57700 16.71300 23.84000
H  1.89600 16.39400 22.62600
H  -1.70900 10.93200 25.55700
H  -3.18900 11.36000 24.93100
H  -3.15200 10.47800 26.56200
H  -3.77600 13.52100 30.91900
H  0.18600 13.31700 32.91300
H  -0.18300 11.62100 33.07800
H  -0.86100 12.80900 34.19200
Mg 31.18500 58.79100 40.67100
C  28.32500 57.21900 39.37300
C  33.03700 56.29600 39.15000
C  33.94300 60.71400 41.01400
C  29.13500 61.52000 41.66700
N  30.70300 57.01300 39.28800
C  29.49400 56.47800 39.09100
C  29.62200 55.05300 38.60200
C  31.16500 54.73400 38.85300
C  31.68000 56.09100 39.12700
C  31.45100 53.75500 39.98000
C  29.28600 54.86400 37.06300
C  27.97400 54.22200 36.61600
H  27.18800 54.81700 35.38700
N  33.20900 58.46300 40.13000
C  33.78800 57.42700 39.57000
C  35.24500 57.59200 39.36000
C  35.54700 58.79100 40.03500
C  34.22200 59.35500 40.49600
C  36.09300 56.56300 38.74800
C  36.87700 59.37500 40.24200
O  37.89200 58.79400 39.86700
C  37.03900 60.74100 40.88000
N  31.49300 60.80300 41.25500
C  32.78200 61.32400 41.30200
C  32.70600 62.76000 41.86900
C  31.18300 63.11900 42.01000
C  30.53500 61.75200 41.68000
C  33.73700 63.03600 43.00800
C  30.71000 64.33800 41.17000
C  29.49800 65.15200 41.67100
N  29.18400 59.27500 40.60100
C  28.53600 60.38400 41.04400
C  27.10700 60.25900 40.85500
C  26.96800 59.02100 40.22400
C  28.24700 58.48700 40.04200
C  26.00700 61.18900 41.35700
C  25.97900 58.00700 39.73600
O  24.72100 58.00200 39.64000
C  26.84500 56.80300 39.18900
C  26.56400 55.63500 40.01800
O  27.14400 55.38600 41.08700
O  25.59500 54.84400 39.41300
C  25.26000 53.65100 40.15700
H  33.55500 55.39800 38.80700
H  34.79900 61.37600 41.16000
H  28.49200 62.32700 42.02600
H  28.95200 54.43400 39.19800
H  31.73600 54.38700 37.99100
H  30.59300 53.73000 40.65200
H  32.32600 53.99200 40.58600
H  31.54800 52.68900 39.77400
H  30.06500 54.32700 36.52300
H  29.20400 55.86900 36.64900
H  27.24900 54.15700 37.42700
H  28.29400 53.19500 36.44100
H  36.64600 57.08100 37.96400
H  35.47800 55.83500 38.21900
H  36.78700 56.12300 39.46400
H  36.55400 61.52300 40.29500
H  38.09100 61.01200 40.96000
H  36.73700 60.77400 41.92700
H  33.10400 63.43400 41.11000
H  31.05800 63.31100 43.07500
H  34.15800 62.15500 43.49300
H  33.34500 63.63000 43.83300
H  34.63500 63.59000 42.73400
H  30.32200 63.86000 40.27100
H  31.65400 64.82500 40.92500
H  29.79100 66.20100 41.72000
H  29.09100 64.66300 42.55600
H  28.71000 65.09600 40.91900
H  26.31800 62.17300 41.00700
H  26.04800 61.14900 42.44600
H  25.03200 60.97800 40.91900
H  26.57900 56.41200 38.20700
H  26.16200 53.08700 40.39500
H  24.61900 52.99200 39.57100
H  24.72300 53.77600 41.09700

