158

Mg 2.80600 -3.20900 45.07600
C  5.72500 -1.14000 44.37900
C  1.08200 -1.32000 42.97400
C  0.64400 -5.50900 45.45300
C  5.29600 -5.34800 46.75100
N  3.44900 -1.36800 43.82000
C  4.62100 -0.79100 43.61300
C  4.55200 0.36400 42.57900
C  2.99100 0.27300 42.14200
C  2.40500 -0.84000 43.09000
C  2.25500 1.62500 42.27100
C  5.47100 0.21100 41.31300
C  6.53600 1.28100 41.12000
H  6.60800 1.93600 39.77900
N  1.03300 -3.32200 44.35200
C  0.41700 -2.43500 43.52800
C  -0.89200 -3.01900 43.11300
C  -1.02100 -4.24900 43.83200
C  0.24600 -4.47900 44.61100
C  -1.85700 -2.30800 42.17400
C  -2.25100 -5.19600 43.67300
O  -3.18400 -4.83400 42.93000
C  -2.29200 -6.54600 44.18700
N  3.00200 -5.24800 45.99900
C  1.80800 -5.88500 46.13300
C  1.96800 -7.12200 47.06900
C  3.49700 -7.20200 47.22300
C  4.02200 -5.83700 46.63100
C  1.06400 -7.07500 48.35600
C  4.09700 -8.40100 46.37400
C  3.68300 -9.71500 46.91900
N  4.99500 -3.18700 45.69400
C  5.76000 -4.10100 46.38600
C  7.07500 -3.65100 46.59500
C  7.10500 -2.41100 45.87600
C  5.85500 -2.22700 45.24800
C  8.35300 -4.28400 47.40500
C  7.92200 -1.30900 45.51400
O  9.10100 -1.05100 45.67800
C  7.06500 -0.46000 44.43000
C  6.97800 0.95600 44.89900
O  7.61000 1.88600 44.46100
O  6.09500 1.01800 45.93900
C  5.88100 2.28500 46.63800
H  0.44300 -0.68100 42.36100
H  -0.17800 -6.17000 45.73400
H  6.03300 -5.99400 47.23200
H  4.84800 1.23000 43.17200
H  2.80900 -0.12600 41.14400
H  1.81200 1.98800 41.34400
H  2.90200 2.40900 42.66500
H  1.52800 1.46400 43.06700
H  4.87100 0.14000 40.40600
H  6.03300 -0.72200 41.37200
H  7.50000 0.91400 41.47100
H  6.20400 2.11400 41.73900
H  -1.53500 -1.29200 41.94700
H  -2.86700 -2.34400 42.58200
H  -1.72500 -2.85100 41.23800
H  -1.29300 -6.94300 44.00500
H  -3.07500 -7.06500 43.63400
H  -2.45900 -6.56400 45.26400
H  1.53700 -7.87600 46.41000
H  3.85400 -7.20100 48.25200
H  0.83600 -6.00900 48.35400
H  1.67900 -7.30600 49.22600
H  0.14800 -7.65300 48.23400
H  5.17900 -8.29600 46.45800
H  3.79000 -8.47300 45.33100
H  2.93400 -9.61000 47.70300
H  4.50300 -10.31600 47.31400
H  3.30700 -10.23900 46.04000
H  8.43000 -5.31000 47.04600
H  8.16800 -4.30700 48.47900
H  9.25000 -3.68400 47.25200
H  7.50100 -0.35000 43.43700
H  5.49500 1.91700 47.58900
H  5.32000 3.09300 46.17000
H  6.84700 2.74800 46.83900
Mg 17.17400 51.48500 26.40600
C  19.04900 50.33500 29.16100
C  14.63900 52.31600 28.51800
C  15.45500 52.39100 23.71200
C  19.79700 50.27600 24.23600
N  16.83000 51.30400 28.55700
C  17.80200 50.95800 29.55400
C  17.29500 51.14200 30.96700
C  15.81100 51.64400 30.67400
C  15.74300 51.79500 29.14900
C  14.66200 50.79200 31.24800
C  17.97900 52.16200 31.82300
C  17.97500 51.90100 33.38400
H  17.48400 53.06800 34.31400
N  15.27800 52.22800 26.14000
C  14.39100 52.50600 27.13300
C  13.20800 52.95800 26.49600
C  13.32200 52.89800 25.09500
C  14.75300 52.51400 24.95400
C  11.96600 53.30500 27.34600
C  12.31400 53.22300 24.09300
O  12.58400 53.09100 22.90400
C  10.97200 53.90100 24.43400
N  17.55300 51.28400 24.24500
C  16.72600 51.90200 23.40000
C  17.30400 51.89000 21.97000
C  18.81600 51.46400 22.22100
C  18.72900 50.94300 23.62700
C  16.65100 50.95800 20.93100
C  19.98400 52.38500 22.02600
C  20.80000 51.97900 20.78400
N  18.97000 50.41700 26.58500
C  19.91200 50.03600 25.62800
C  21.04300 49.38900 26.30000
C  20.70700 49.43800 27.69600
C  19.47400 50.05100 27.81300
C  22.25900 48.86900 25.61000
C  21.08100 49.11100 29.05900
O  22.08000 48.53300 29.41400
C  20.09500 49.69600 30.09400
C  19.69100 48.69900 31.06800
O  19.16400 47.60400 30.84600
O  20.11800 49.14300 32.31100
C  19.80600 48.45800 33.57300
H  13.85300 52.50600 29.25100
H  14.93800 52.89600 22.89300
H  20.65500 50.02400 23.61000
H  17.32600 50.17700 31.47200
H  15.61500 52.64700 31.05300
H  15.06000 50.03400 31.92400
H  14.25300 50.14600 30.47200
H  13.87300 51.30800 31.79600
H  17.58000 53.17300 31.73900
H  19.00100 52.23800 31.45100
H  18.95900 51.51500 33.65100
H  17.20000 51.14400 33.51000
H  12.03300 54.26400 27.86000
H  11.84300 52.58000 28.15100
H  10.96900 53.33700 26.90600
H  11.14400 54.76700 25.07400
H  10.28700 53.19300 24.90000
H  10.45900 54.19600 23.51800
H  17.28000 52.89000 21.53700
H  19.02100 50.65200 21.52300
H  15.86800 51.33300 20.27100
H  16.22600 50.07400 21.40800
H  17.42300 50.63500 20.23200
H  20.57400 52.37400 22.94300
H  19.63500 53.40800 21.88200
H  20.40400 51.14800 20.20000
H  21.81800 51.83200 21.14500
H  20.83900 52.83400 20.10900
H  22.66700 49.54700 24.86000
H  21.85300 47.93200 25.22800
H  23.06900 48.72100 26.32400
H  20.59200 50.51000 30.62300
H  18.90900 48.93600 33.96600
H  20.61300 48.52500 34.30300
H  19.63500 47.39200 33.42600

