158

Mg 15.76400 -2.11500 27.64300
C  14.60600 0.13700 30.19400
C  17.78500 -3.42100 30.04000
C  17.08700 -3.93800 25.19400
C  13.81500 -0.25900 25.39000
N  16.33800 -1.50200 29.79100
C  15.60800 -0.74200 30.64000
C  16.10900 -0.85400 32.04900
C  17.22700 -1.90000 31.96900
C  17.19200 -2.24900 30.49600
C  18.62800 -1.55000 32.53400
C  15.08200 -1.26500 33.16900
C  15.15100 -0.64700 34.56000
H  16.43200 0.09900 34.99700
N  17.11800 -3.56600 27.65400
C  17.73900 -4.06200 28.78200
C  18.50400 -5.19300 28.41200
C  18.27100 -5.39400 27.00700
C  17.41200 -4.29200 26.56000
C  19.33200 -5.89800 29.43600
C  18.98500 -6.36300 26.01700
O  18.84000 -6.29000 24.79300
C  19.93500 -7.49100 26.47200
N  15.68500 -1.95900 25.52600
C  16.32500 -2.81800 24.72600
C  16.11800 -2.53200 23.30000
C  14.86400 -1.54100 23.36700
C  14.70100 -1.23900 24.83200
C  17.27500 -2.11500 22.39300
C  13.51900 -2.07500 22.76600
C  13.02600 -1.32100 21.44200
N  14.50000 -0.42500 27.70700
C  13.71900 0.11600 26.72600
C  12.90300 1.24300 27.31300
C  13.22300 1.21800 28.63400
C  14.13900 0.20400 28.85900
C  11.96500 2.08600 26.54700
C  13.04100 1.91500 29.88800
O  12.36500 2.85400 30.21500
C  13.84200 1.17100 31.01400
C  14.83900 2.07300 31.76300
O  15.98600 2.37400 31.44900
O  14.17800 2.65200 32.85700
C  14.96300 3.60800 33.66100
H  18.09500 -3.95800 30.93900
H  17.40400 -4.58400 24.37300
H  13.10700 0.21900 24.70900
H  16.58300 0.12000 32.17200
H  16.89100 -2.81600 32.45500
H  18.87100 -2.14300 33.41500
H  18.69600 -0.48100 32.73900
H  19.42800 -1.79200 31.83400
H  15.05500 -2.34800 33.29100
H  14.09600 -0.93800 32.83900
H  14.93100 -1.45200 35.26200
H  14.34000 0.08000 34.50900
H  18.74200 -6.18100 30.30700
H  20.05600 -5.19000 29.83900
H  19.82800 -6.82500 29.14300
H  20.31700 -7.89400 25.53500
H  19.65600 -8.29100 27.15800
H  20.80400 -7.04600 26.95800
H  15.73400 -3.43600 22.82700
H  15.11900 -0.58800 22.90300
H  17.14900 -1.06100 22.14700
H  17.50300 -2.79400 21.57100
H  18.02800 -2.23400 23.17200
H  12.74900 -1.96100 23.52800
H  13.65800 -3.14800 22.63300
H  12.59600 -2.04900 20.75400
H  13.84700 -0.73000 21.03700
H  12.26900 -0.57200 21.67500
H  11.01600 1.91900 27.05800
H  11.81200 1.61900 25.57400
H  12.19000 3.14100 26.39200
H  13.05400 0.89100 31.71300
H  15.89600 4.04800 33.30800
H  15.12500 3.20200 34.66000
H  14.42200 4.53700 33.84100
Mg 40.60500 9.24700 29.92800
C  42.73500 10.46800 32.57800
C  38.28500 8.44400 32.05500
C  38.87200 8.23400 27.24000
C  43.39400 10.03200 27.75300
N  40.60500 9.32900 32.07700
C  41.45400 9.94400 32.96000
C  40.93800 9.97600 34.43200
C  39.53200 9.28800 34.17900
C  39.45800 8.90800 32.66000
C  39.25700 8.09600 35.08500
C  41.01200 11.40000 34.99000
C  40.23000 11.62700 36.29600
H  40.91500 12.40800 37.39000
N  38.78300 8.45300 29.63700
C  37.95100 8.20900 30.67400
C  36.70200 7.65400 30.18300
C  36.80200 7.68000 28.75900
C  38.19000 8.13200 28.46000
C  35.54100 7.17600 31.10800
C  35.82600 7.31800 27.65900
O  36.06900 7.44800 26.43500
C  34.41200 6.74800 28.06000
N  41.12500 9.10400 27.75700
C  40.17500 8.67600 26.91000
C  40.71400 8.65600 25.47100
C  42.14500 9.17700 25.66600
C  42.20200 9.60100 27.14400
C  40.52000 7.29000 24.68800
C  42.62400 10.33100 24.72000
C  42.22800 11.74400 25.04400
N  42.63400 10.12400 30.09500
C  43.54900 10.35900 29.15800
C  44.79200 10.90000 29.76800
C  44.56200 10.95100 31.11600
C  43.18800 10.52200 31.23300
C  46.04900 11.23800 28.97400
C  45.07400 11.31800 32.40700
O  46.17200 11.74200 32.67700
C  43.93100 11.01500 33.52100
C  44.42700 9.88100 34.36300
O  44.71400 8.73100 34.02700
O  44.71300 10.40000 35.64800
C  45.33900 9.49000 36.53400
H  37.52000 8.05700 32.73300
H  38.31100 7.95700 26.34500
H  44.16200 10.20000 26.99600
H  41.58800 9.37500 35.06700
H  38.81200 10.03300 34.51600
H  40.17900 7.75800 35.55800
H  38.75300 7.29900 34.53800
H  38.57100 8.33100 35.89900
H  40.69800 12.06900 34.18900
H  42.09100 11.50800 35.10500
H  39.86000 10.64500 36.59100
H  39.38500 12.24900 36.00000
H  35.55800 7.67600 32.07600
H  35.43500 6.10700 31.29200
H  34.55600 7.40100 30.69700
H  33.99000 6.33700 27.14300
H  33.95500 7.60100 28.56100
H  34.43400 5.92000 28.76800
H  40.14300 9.45600 25.00100
H  42.84700 8.35900 25.50300
H  41.47200 6.98200 24.25500
H  39.81600 7.48100 23.87700
H  40.19100 6.47100 25.32800
H  42.31600 10.07500 23.70600
H  43.70500 10.19300 24.74700
H  42.95200 12.15300 25.74900
H  41.30100 11.71100 25.61800
H  42.06200 12.28000 24.10900
H  46.93200 10.90300 29.51900
H  46.15000 12.32000 28.88200
H  46.20100 10.70900 28.03400
H  43.74200 11.87400 34.16600
H  45.89100 10.01400 37.31400
H  45.77800 8.63700 36.01700
H  44.49000 9.09700 37.09200

