158

Mg 2.20800 -1.18800 43.93800
C  5.35300 -0.19000 43.44300
C  0.98000 1.43200 42.02700
C  -1.02000 -2.64000 44.14300
C  3.49500 -4.42900 44.93300
N  3.12300 0.26900 42.68600
C  4.42300 0.62100 42.76100
C  4.77900 1.81600 41.82800
C  3.32200 2.50400 41.85700
C  2.36100 1.35800 42.22500
C  3.18800 3.69100 42.81800
C  5.27500 1.36200 40.40100
C  6.42800 2.15800 39.80100
H  6.25400 2.87400 38.47300
N  0.26600 -0.66600 43.23400
C  -0.01300 0.46700 42.47500
C  -1.43900 0.53100 42.21700
C  -1.99600 -0.65600 42.78300
C  -0.89700 -1.41800 43.47200
C  -2.13300 1.57200 41.42500
C  -3.50000 -0.94800 42.68100
O  -4.33800 -0.10000 42.29700
C  -4.04200 -2.21300 43.20400
N  1.40800 -3.18100 44.22300
C  0.04800 -3.41600 44.49100
C  -0.12100 -4.80400 45.30100
C  1.23100 -5.49300 45.03600
C  2.10400 -4.28200 44.63200
C  -0.58600 -4.48900 46.76100
C  1.20500 -6.66100 43.91900
C  1.49500 -8.04900 44.50500
N  4.08800 -2.17400 44.24600
C  4.46300 -3.40600 44.76400
C  5.89400 -3.41500 44.96300
C  6.28000 -2.08600 44.48300
C  5.13800 -1.42600 44.07000
C  6.79400 -4.41500 45.54700
C  7.45900 -1.26100 44.29200
O  8.63400 -1.47700 44.64000
C  6.86800 0.02300 43.60500
C  7.07800 1.23600 44.46400
O  6.21700 1.79500 45.15000
O  8.43900 1.56700 44.41000
C  8.80300 2.71900 45.22500
H  0.66600 2.33000 41.49100
H  -1.98900 -3.09900 44.35400
H  3.86500 -5.41300 45.23000
H  5.39900 2.40100 42.50600
H  3.07900 2.83900 40.84800
H  3.96800 3.63400 43.57700
H  2.18900 3.73100 43.25400
H  3.39600 4.62400 42.29600
H  4.43900 1.24100 39.71100
H  5.63000 0.33200 40.42000
H  7.32000 1.53400 39.74500
H  6.67300 2.93200 40.52800
H  -3.07600 1.17200 41.05200
H  -1.47300 1.66000 40.56300
H  -2.27900 2.54700 41.89100
H  -3.38900 -3.04000 42.92600
H  -5.03500 -2.36200 42.77800
H  -4.16300 -2.15300 44.28500
H  -0.93500 -5.21600 44.70500
H  1.68900 -5.88500 45.94400
H  -1.63800 -4.74300 46.89300
H  -0.57000 -3.42100 46.97400
H  0.08500 -5.03600 47.42300
H  1.90900 -6.48100 43.10700
H  0.21800 -6.70000 43.45800
H  1.30200 -8.13400 45.57400
H  2.47400 -8.42900 44.21400
H  0.84000 -8.67600 43.90100
H  6.98900 -5.35500 45.03100
H  6.44900 -4.67300 46.54900
H  7.71900 -3.86600 45.72600
H  7.46600 0.03600 42.69300
H  8.40200 3.61200 44.74700
H  9.87900 2.89000 45.26600
H  8.44700 2.55100 46.24100
Mg 26.15700 0.51300 29.71400
C  27.83200 -0.01200 32.82400
C  23.16900 0.74300 31.51500
C  24.57800 0.56900 26.80600
C  29.11600 -0.32300 28.01200
N  25.66000 0.48500 31.92700
C  26.48900 0.39800 33.00800
C  25.79400 0.57800 34.35700
C  24.33400 0.68900 33.88700
C  24.34600 0.65800 32.36200
C  23.31300 -0.33500 34.59900
C  26.33600 1.88400 34.95000
C  25.52100 2.37100 36.19700
H  26.17700 2.53100 37.55800
N  24.15600 0.55500 29.26400
C  23.07500 0.78100 30.08000
C  21.84900 0.89900 29.32400
C  22.19900 0.77800 27.93300
C  23.66600 0.61300 27.92900
C  20.50100 1.20100 29.90800
C  21.30700 0.80100 26.63200
O  21.77700 0.62100 25.55100
C  19.81800 1.10500 26.73700
N  26.73500 0.13700 27.73400
C  25.94000 0.39800 26.63300
C  26.64300 0.30800 25.28800
C  28.10500 0.34600 25.83100
C  27.99300 0.06600 27.31800
C  26.20000 -0.95100 24.48100
C  28.82600 1.67800 25.50100
C  28.16000 2.99300 25.97000
N  28.10800 -0.08800 30.26000
C  29.19700 -0.44700 29.44300
C  30.32300 -0.76900 30.30400
C  29.83600 -0.57600 31.62900
C  28.47700 -0.28600 31.51100
C  31.66000 -1.18500 29.85000
C  30.26900 -0.54600 32.96800
O  31.40300 -0.72900 33.45300
C  28.92700 -0.14900 33.83700
C  28.79200 -1.11900 34.95300
O  28.98100 -2.32500 34.91300
O  28.87900 -0.37300 36.08900
C  29.49800 -0.94700 37.24900
H  22.22500 0.75800 32.06400
H  24.05200 0.52900 25.85000
H  30.06500 -0.45500 27.48700
H  25.99700 -0.26600 35.01700
H  23.87700 1.67200 34.00000
H  22.80300 0.21400 35.39000
H  23.95100 -1.13100 34.98200
H  22.60000 -0.67200 33.84700
H  26.36300 2.69800 34.22600
H  27.38100 1.70000 35.19900
H  24.63400 1.73700 36.17800
H  25.27800 3.40300 35.94500
H  19.77900 0.38600 29.96300
H  20.06800 2.04700 29.37400
H  20.57700 1.43700 30.96900
H  19.52900 1.84900 27.48000
H  19.30200 0.18100 27.00000
H  19.43400 1.47300 25.78500
H  26.47400 1.20800 24.69800
H  28.64100 -0.44300 25.30300
H  27.05000 -1.62600 24.38000
H  25.92100 -0.73100 23.45100
H  25.30100 -1.45700 24.83300
H  29.25600 1.67300 24.49900
H  29.71100 1.73800 26.13400
H  28.78800 3.19000 26.83900
H  27.10700 2.90200 26.23400
H  28.36000 3.80900 25.27500
H  31.99000 -0.48900 29.07900
H  31.66200 -2.21600 29.49700
H  32.38000 -1.09000 30.66200
H  29.17000 0.84900 34.20300
H  29.30500 -2.00000 37.45400
H  29.12900 -0.50600 38.17500
H  30.57400 -0.80200 37.16000

