158

Mg 45.19200 4.17700 47.14500
C  43.04600 6.91100 47.01100
C  42.56800 2.02500 46.72700
C  47.41900 1.73800 46.37700
C  47.97300 6.47800 47.26800
N  43.07500 4.44300 46.88700
C  42.37500 5.63600 46.95200
C  40.83800 5.33400 46.87700
C  40.75800 3.82200 46.86800
C  42.21600 3.39900 46.84800
C  39.93900 3.08800 48.01500
C  40.12700 6.11100 45.67800
C  40.86800 6.21200 44.32500
H  40.04500 6.40100 43.06100
N  45.02700 2.11100 46.67100
C  43.84200 1.43300 46.54000
C  44.19700 0.08500 46.36800
C  45.56300 -0.01700 46.08800
C  46.08000 1.31400 46.38700
C  43.25800 -1.03000 46.32800
C  46.26200 -1.25800 45.61700
O  45.60600 -2.30900 45.61000
C  47.67800 -1.36400 45.07500
N  47.44500 4.14900 46.98000
C  48.04700 3.00800 46.65500
C  49.61400 3.26400 46.45700
C  49.71900 4.71500 46.77100
C  48.30200 5.15700 47.07200
C  50.53400 2.30900 47.19800
C  50.37400 5.60700 45.64600
C  51.74500 5.09600 45.16700
N  45.47500 6.27500 47.17300
C  46.62800 7.04800 47.25600
C  46.13800 8.44900 47.21300
C  44.79400 8.40700 47.25300
C  44.42200 7.04700 47.19500
C  46.95400 9.60200 47.07400
C  43.62200 9.20000 47.26300
O  43.49100 10.42600 47.55500
C  42.45300 8.27300 47.11500
C  41.57800 8.44300 48.29600
O  41.58300 7.78000 49.31500
O  40.62400 9.40200 48.11400
C  39.64600 9.72800 49.17400
H  41.68100 1.38800 46.72300
H  48.08200 0.92600 46.07300
H  48.81600 7.17000 47.20700
H  40.29400 5.65400 47.76600
H  40.44900 3.45700 45.88800
H  39.21000 3.80400 48.39300
H  40.59000 2.84400 48.85400
H  39.36500 2.23100 47.66100
H  39.94300 7.13600 46.00200
H  39.16500 5.60000 45.63900
H  41.46900 5.30800 44.22400
H  41.61800 7.00200 44.35300
H  42.28700 -0.60600 46.58500
H  43.63300 -1.87600 46.90400
H  43.10600 -1.42600 45.32400
H  47.88400 -2.39100 44.77400
H  48.30800 -1.14200 45.93600
H  47.83600 -0.62100 44.29300
H  49.69000 3.11800 45.37900
H  50.28900 4.85100 47.69000
H  49.97400 1.80600 47.98700
H  51.33600 2.90000 47.63900
H  50.78200 1.46100 46.56000
H  50.49300 6.65000 45.94000
H  49.62000 5.63600 44.85900
H  52.46500 5.91300 45.19000
H  51.72100 4.66700 44.16500
H  52.15400 4.39400 45.89400
H  47.14300 10.13200 48.00700
H  46.45900 10.38000 46.49300
H  47.95200 9.44200 46.66500
H  42.01500 8.55000 46.15600
H  38.69200 10.10300 48.80500
H  40.00400 10.54100 49.80600
H  39.43600 8.91500 49.86900
Mg 0.60100 43.26900 25.60500
C  1.85400 43.19100 28.90500
C  -2.47600 42.42000 26.89300
C  -0.63000 42.98200 22.46500
C  3.75600 43.66300 24.37800
N  -0.21900 43.02200 27.71700
C  0.46400 43.14100 28.90000
C  -0.40200 42.85100 30.06800
C  -1.75500 42.41000 29.40200
C  -1.50300 42.61200 27.92900
C  -2.28900 40.98500 29.71700
C  -0.54100 44.09100 31.00100
C  -0.02600 43.94800 32.44900
H  -1.17600 43.87900 33.46700
N  -1.30500 42.86100 24.72100
C  -2.40500 42.50000 25.49100
C  -3.48200 42.10500 24.56300
C  -3.03400 42.30000 23.22600
C  -1.62200 42.77500 23.40900
C  -4.75500 41.48200 24.95200
C  -3.65600 42.00400 21.90900
O  -3.00500 42.04100 20.85400
C  -5.03000 41.58000 21.70300
N  1.48000 43.13600 23.71800
C  0.72700 43.14900 22.56300
C  1.58800 43.35900 21.25100
C  2.93000 43.73800 21.91900
C  2.76600 43.42700 23.45200
C  1.57600 41.99800 20.48000
C  3.18300 45.21500 21.74600
C  3.51600 45.72700 20.29300
N  2.42500 43.33700 26.46900
C  3.70000 43.64400 25.81800
C  4.64000 43.65900 26.88000
C  4.00900 43.38900 28.06700
C  2.63000 43.26100 27.79000
C  6.22400 43.77900 26.72700
C  4.23000 43.23500 29.49100
O  5.32400 43.23600 30.08600
C  2.79300 43.03400 30.10800
C  2.68000 41.72500 30.71500
O  2.23600 40.68500 30.25800
O  2.98600 41.81900 32.04600
C  2.31500 40.90600 33.00300
H  -3.49400 42.06900 27.07500
H  -1.10600 43.16900 21.50000
H  4.76600 43.73500 23.97100
H  0.04900 42.04100 30.64100
H  -2.54600 43.10600 29.68300
H  -2.48700 40.49800 28.76200
H  -3.15700 40.94300 30.37600
H  -1.47800 40.42100 30.17800
H  -1.61800 44.22500 31.10000
H  -0.10300 44.96200 30.51300
H  0.65600 44.75300 32.72400
H  0.48300 42.98500 32.48900
H  -5.12300 40.88000 24.12200
H  -5.27100 42.41900 25.15800
H  -4.54500 40.82800 25.79800
H  -5.72100 41.95300 22.45800
H  -4.95600 40.49300 21.68200
H  -5.48200 42.05700 20.83300
H  1.30300 44.15300 20.56100
H  3.78700 43.35200 21.36600
H  1.20200 42.13500 19.46500
H  0.92300 41.29400 20.99500
H  2.60100 41.64900 20.35400
H  4.15100 45.39200 22.21600
H  2.41500 45.87100 22.15500
H  3.24900 44.91900 19.61200
H  4.58700 45.92500 20.33600
H  2.89400 46.57300 20.00200
H  6.58200 44.08200 25.74300
H  6.68500 42.81600 26.94600
H  6.49900 44.46000 27.53300
H  2.62400 43.83100 30.83200
H  3.11700 40.43400 33.57000
H  1.71000 40.11600 32.55700
H  1.64800 41.54800 33.57800

