158

Mg 44.82600 3.74900 47.48200
C  42.63100 6.52400 47.15700
C  42.10400 1.71400 47.05500
C  46.82100 1.16200 46.86200
C  47.49500 5.98300 47.03900
N  42.65400 4.15600 47.05900
C  42.00000 5.31700 47.12800
C  40.42000 5.01500 47.14100
C  40.34800 3.51000 47.35800
C  41.79900 3.10900 47.17100
C  39.68000 3.08600 48.69900
C  39.74400 5.65000 45.90100
C  40.52300 5.60200 44.58200
H  39.86700 5.05600 43.30800
N  44.49900 1.63900 47.12100
C  43.29100 1.00300 47.07700
C  43.58600 -0.44000 46.95800
C  44.96600 -0.61900 46.84900
C  45.47900 0.76800 46.91700
C  42.54200 -1.55000 46.81900
C  45.60300 -1.92100 46.71600
O  44.84600 -2.92900 46.85700
C  47.09800 -2.21900 46.58900
N  46.82500 3.61000 47.05700
C  47.47300 2.42200 46.92600
C  48.93600 2.57100 46.66300
C  49.17000 4.09600 47.06800
C  47.75700 4.64300 47.05600
C  49.83800 1.55100 47.36600
C  50.12500 4.79500 46.15200
C  51.35500 5.35900 46.79700
N  45.07800 5.87300 47.34600
C  46.21700 6.63600 47.12600
C  45.90300 8.04100 47.19800
C  44.46100 8.04800 47.16600
C  44.03700 6.68800 47.20200
C  46.77300 9.18600 46.98100
C  43.38300 8.87000 47.13000
O  43.29700 10.08000 47.04100
C  42.09200 7.99600 47.12100
C  41.23000 8.36100 48.27100
O  41.31100 7.90500 49.37200
O  40.27500 9.19700 47.80200
C  39.13700 9.37900 48.76200
H  41.25700 1.02500 47.08400
H  47.45100 0.28200 46.71700
H  48.30100 6.71900 47.04700
H  40.09900 5.60700 47.99800
H  39.69700 3.04700 46.61600
H  39.42300 3.92500 49.34500
H  40.47700 2.53600 49.19900
H  38.89800 2.33800 48.56600
H  39.53100 6.68100 46.18400
H  38.81900 5.07700 45.83000
H  41.50100 5.12300 44.62800
H  40.76900 6.64500 44.38200
H  41.55700 -1.08600 46.86100
H  42.41500 -2.31400 47.58600
H  42.54000 -2.00100 45.82700
H  47.51300 -1.78400 45.68000
H  47.13500 -3.30800 46.58300
H  47.61600 -1.86400 47.47900
H  49.06200 2.39400 45.59500
H  49.54400 4.24500 48.08100
H  50.66300 2.11200 47.80500
H  50.22300 0.80500 46.67200
H  49.23200 1.06400 48.13100
H  49.59400 5.58600 45.62300
H  50.54700 3.98600 45.55500
H  51.19300 6.10700 47.57300
H  51.90000 5.90800 46.02900
H  51.93500 4.50800 47.15300
H  46.85300 9.39300 45.91400
H  47.77200 9.07100 47.40000
H  46.29900 10.00400 47.52500
H  41.51900 8.18900 46.21400
H  38.49800 8.56300 48.42400
H  38.68400 10.36000 48.61500
H  39.28600 9.33200 49.84100
Mg -10.48500 40.91500 42.61000
C  -9.71400 37.62900 41.81300
C  -7.58700 41.92000 41.06000
C  -11.50600 43.99400 43.15100
C  -13.86000 39.69700 43.39200
N  -8.84800 39.83600 41.45900
C  -8.71500 38.54500 41.37000
C  -7.60900 38.14400 40.45500
C  -6.75700 39.50400 40.35700
C  -7.78100 40.53600 40.95000
C  -5.32600 39.60500 41.00400
C  -7.99800 37.57900 39.09100
C  -7.42400 36.21800 38.63900
H  -6.29700 36.16800 37.54600
N  -9.57800 42.69000 42.21500
C  -8.34900 42.91000 41.66600
C  -8.22300 44.38300 41.63200
C  -9.32700 45.00600 42.20100
C  -10.17500 43.91000 42.55200
C  -6.94800 45.00200 41.25600
C  -9.43200 46.54600 42.37800
O  -8.66800 47.28600 41.72500
C  -10.56900 47.18900 43.24500
N  -12.45700 41.66300 43.15400
C  -12.50500 43.02200 43.43900
C  -13.88900 43.41100 43.82800
C  -14.73300 42.09000 43.71400
C  -13.66200 41.06600 43.37300
C  -13.88500 44.17400 45.15400
C  -15.99600 42.11800 42.81500
C  -16.75600 43.43800 42.71100
N  -11.56500 39.07300 42.75100
C  -12.88800 38.77700 43.10800
C  -13.01200 37.36500 43.04400
C  -11.76700 36.90700 42.63900
C  -10.93700 37.96100 42.43900
C  -14.16400 36.55200 43.35800
C  -11.04800 35.65900 42.26300
O  -11.39000 34.46900 42.29600
C  -9.68000 36.13800 41.71600
C  -8.54100 35.40500 42.37800
O  -7.82000 35.82200 43.24500
O  -8.42600 34.19800 41.80400
C  -7.48700 33.17600 42.32200
H  -6.62000 42.33600 40.76700
H  -11.92800 44.99500 43.26400
H  -14.81500 39.30100 43.74300
H  -6.92300 37.42800 40.90700
H  -6.76400 39.71200 39.28700
H  -5.44200 40.43300 41.70400
H  -4.62200 39.93400 40.23900
H  -4.93100 38.68500 41.43400
H  -7.69500 38.17700 38.23100
H  -9.07700 37.44600 39.01400
H  -8.26900 35.67000 38.22300
H  -7.04100 35.66500 39.49600
H  -6.81600 45.39100 40.24700
H  -6.12700 44.29000 41.17500
H  -6.65600 45.76500 41.97800
H  -10.17100 48.11400 43.66100
H  -10.81500 46.50700 44.05900
H  -11.43800 47.40200 42.62300
H  -14.23100 44.21400 43.17400
H  -15.10500 41.82000 44.70300
H  -14.13100 45.22800 45.02700
H  -12.98000 44.18200 45.76200
H  -14.62200 43.74300 45.83200
H  -16.57900 41.27900 43.19500
H  -15.62600 41.84200 41.82800
H  -17.82100 43.21400 42.76800
H  -16.56000 43.88900 41.73900
H  -16.46300 44.18500 43.44800
H  -15.04400 37.19300 43.29100
H  -13.93000 36.19000 44.35900
H  -14.11500 35.71600 42.66000
H  -9.57400 35.81600 40.68000
H  -6.96600 32.73200 41.47400
H  -8.06100 32.37600 42.78800
H  -6.89500 33.62700 43.11800

