158

Mg 1.00800 8.50100 26.40700
C  1.82900 10.37300 29.24400
C  1.40300 5.60400 28.11300
C  0.78000 6.76400 23.35400
C  1.17000 11.50400 24.50500
N  1.53500 8.10300 28.51600
C  1.83800 8.96900 29.52200
C  1.95900 8.27100 30.83400
C  2.06400 6.74500 30.39300
C  1.61200 6.79400 28.91900
C  3.41600 6.02000 30.76700
C  0.80600 8.48100 31.83900
C  1.22200 8.95100 33.22200
H  2.28300 8.15400 34.10200
N  0.98800 6.48000 25.82900
C  1.09500 5.40300 26.71200
C  0.84700 4.13900 26.09300
C  0.67800 4.47300 24.69400
C  0.78500 5.96100 24.52700
C  0.95900 2.72800 26.84100
C  0.40200 3.50500 23.56100
O  0.31700 3.96000 22.38600
C  0.13200 2.00900 23.80000
N  0.99900 9.04200 24.25000
C  0.98700 8.15600 23.25200
C  1.00900 8.86400 21.88400
C  0.73400 10.28500 22.22400
C  0.99300 10.26600 23.72800
C  2.29800 8.57800 20.97900
C  -0.60500 10.83500 21.71000
C  -1.72700 10.85200 22.74000
N  1.32800 10.54900 26.76500
C  1.32900 11.65100 25.91200
C  1.58900 12.83800 26.70200
C  1.74100 12.35900 28.02200
C  1.58600 10.98600 28.02300
C  1.66300 14.26200 26.17000
C  2.02800 12.81100 29.32600
O  2.27200 13.95600 29.75600
C  1.91300 11.53100 30.22300
C  3.17200 11.57400 30.99600
O  4.15700 10.88000 30.82100
O  2.89700 12.26300 32.15300
C  3.69400 11.89900 33.32700
H  1.39600 4.74000 28.78100
H  0.72600 6.39600 22.32800
H  1.21900 12.45600 23.97200
H  2.92100 8.63800 31.19300
H  1.30700 6.18200 30.93800
H  3.83000 5.39700 29.97400
H  3.19600 5.33500 31.58600
H  4.08300 6.80800 31.11600
H  0.22500 7.56900 31.97500
H  0.19200 9.34000 31.57000
H  0.36700 9.17600 33.86000
H  1.72100 9.90700 33.06400
H  0.10100 2.06200 26.74900
H  1.21800 2.92800 27.88000
H  1.72800 2.07700 26.42500
H  -0.50800 1.72800 24.63600
H  1.10900 1.53700 23.90700
H  -0.16400 1.67600 22.80600
H  0.18100 8.49700 21.27800
H  1.42800 10.98300 21.75600
H  2.85800 9.49600 20.80100
H  2.05100 8.15800 20.00400
H  2.96300 7.84900 21.44100
H  -0.90400 10.17300 20.89700
H  -0.51400 11.86100 21.35300
H  -2.48900 10.12700 22.45600
H  -2.14900 11.85600 22.78400
H  -1.50700 10.58300 23.77300
H  1.32600 14.34200 25.13700
H  2.67500 14.64700 26.28900
H  1.07200 14.88200 26.84400
H  1.07200 11.73600 30.88500
H  4.47400 11.20900 33.00700
H  3.03900 11.55600 34.12800
H  4.16900 12.84300 33.59400
Mg 48.10000 24.81900 28.76600
C  48.78700 27.21500 31.30100
C  47.08400 22.65700 31.22300
C  47.98900 22.52300 26.43400
C  49.34400 27.19400 26.47900
N  47.99300 24.91700 31.01900
C  48.29100 26.03100 31.84400
C  48.04800 25.69100 33.32700
C  47.47900 24.20100 33.23000
C  47.54200 23.91600 31.74300
C  48.30900 23.20900 34.07400
C  47.05800 26.69500 33.92900
C  46.54800 26.31900 35.29600
H  47.14000 27.07800 36.48200
N  47.49400 22.84900 28.80100
C  47.03100 22.16300 29.90600
C  46.63300 20.84000 29.45400
C  46.88300 20.77600 27.99200
C  47.47700 22.05200 27.68200
C  46.01700 19.84700 30.38500
C  46.51100 19.80800 26.91300
O  46.83100 19.93900 25.68800
C  45.73900 18.56600 27.29700
N  48.60000 24.84800 26.70400
C  48.38900 23.73300 25.95200
C  48.75000 24.07300 24.50400
C  48.79400 25.64800 24.40800
C  48.88800 25.96700 25.95600
C  50.08400 23.42000 23.92800
C  47.52300 26.14200 23.61100
C  47.71800 27.51800 22.87900
N  48.91100 26.83300 28.83700
C  49.40600 27.61200 27.82600
C  49.85000 28.88200 28.25500
C  49.72400 28.76600 29.66800
C  49.10500 27.48700 29.94400
C  50.35700 29.96800 27.43800
C  49.82700 29.47100 30.91900
O  50.11800 30.60600 31.26100
C  49.35200 28.45000 32.04900
C  50.39000 28.18100 32.99800
O  51.26300 27.31900 32.85400
O  50.17700 28.93500 34.09400
C  51.17200 28.74000 35.16800
H  46.74900 21.94400 31.97900
H  48.11100 21.89500 25.54900
H  49.57000 27.92900 25.70300
H  49.03200 25.78700 33.78500
H  46.45000 24.14300 33.58400
H  48.62900 23.67200 35.00700
H  49.08900 23.03100 33.33400
H  47.67100 22.33900 34.23200
H  46.21500 26.73200 33.23900
H  47.61600 27.62400 34.04400
H  46.63100 25.24500 35.46400
H  45.48500 26.55100 35.23800
H  44.94000 19.69800 30.31100
H  46.22000 20.08000 31.43000
H  46.49000 18.87700 30.23400
H  44.86000 18.65900 27.93600
H  46.53700 17.92200 27.66900
H  45.42100 18.16900 26.33300
H  47.85400 23.73100 23.98600
H  49.67300 26.06100 23.91300
H  50.57700 22.88400 24.73800
H  50.75000 24.18700 23.53200
H  49.84200 22.70600 23.14100
H  46.69800 26.26400 24.31400
H  47.20300 25.42700 22.85300
H  48.70000 27.90800 23.14900
H  47.08700 28.33100 23.23700
H  47.69500 27.45000 21.79100
H  50.74200 30.77000 28.06800
H  49.58300 30.40700 26.80900
H  51.13100 29.42300 26.89600
H  48.45700 28.92900 32.44500
H  52.18800 28.79700 34.77700
H  50.92100 27.76100 35.57800
H  51.00300 29.52300 35.90600

