158

Mg 42.76600 42.04500 26.74100
C  42.10400 44.45600 29.15900
C  43.57700 39.84200 29.28800
C  44.01800 39.97100 24.34100
C  42.57500 44.63800 24.29500
N  42.89600 42.14600 28.93900
C  42.50700 43.24500 29.72100
C  42.24000 42.83000 31.17000
C  43.03300 41.49500 31.29900
C  43.14100 41.11700 29.78100
C  44.40500 41.62300 31.99600
C  40.76100 42.68600 31.53600
C  40.41400 43.22900 32.92500
H  41.50700 43.21500 34.04800
N  43.75600 40.22200 26.81200
C  43.98300 39.48100 27.95300
C  44.58200 38.22600 27.50000
C  44.41700 38.11700 26.07800
C  44.06800 39.46000 25.66600
C  45.00200 37.24500 28.51500
C  44.65500 36.92300 25.17100
O  44.58500 36.92400 23.94100
C  44.88700 35.57100 25.76300
N  43.34400 42.35700 24.66500
C  43.78900 41.30000 23.89300
C  43.84100 41.66100 22.42900
C  43.23300 43.11200 22.39300
C  42.97100 43.38300 23.92700
C  45.15700 41.56800 21.72700
C  41.96600 43.15600 21.47500
C  40.82900 42.10100 21.97700
N  42.30700 44.11600 26.62600
C  42.24200 45.07600 25.63800
C  41.71000 46.38100 26.17700
C  41.65600 46.15100 27.52700
C  42.11800 44.82700 27.77600
C  41.21600 47.47800 25.27800
C  41.32900 46.75700 28.84700
O  40.80200 47.82600 29.10600
C  41.56100 45.66200 29.92900
C  42.53700 46.20300 30.96300
O  43.71300 46.06100 30.76600
O  41.94100 46.91200 31.96600
C  42.79700 47.09300 33.14400
H  43.69600 39.01700 29.99400
H  43.98600 39.25500 23.51700
H  42.42400 45.45500 23.58700
H  42.75600 43.55200 31.80300
H  42.34500 40.77500 31.74200
H  45.15600 41.09300 31.41000
H  44.23300 41.14600 32.96100
H  44.78200 42.62200 32.21600
H  40.37900 41.66600 31.55600
H  40.14100 43.17000 30.78200
H  39.57900 42.62200 33.27200
H  40.03000 44.21700 32.66800
H  44.21600 36.53900 28.78200
H  45.35500 37.66500 29.45700
H  45.82800 36.59800 28.22000
H  45.84300 35.58900 26.28600
H  44.88900 34.74400 25.05300
H  44.04600 35.27500 26.39100
H  43.27400 40.96100 21.81600
H  43.92700 43.86500 22.01900
H  45.71800 41.20400 22.58700
H  45.50900 42.49500 21.27400
H  45.07500 40.84400 20.91700
H  42.14400 42.87600 20.43600
H  41.68700 44.20600 21.56300
H  40.62200 41.30800 21.25800
H  39.96600 42.61400 22.40200
H  41.07700 41.63100 22.92900
H  40.92600 47.17700 24.27200
H  41.93500 48.27400 25.08400
H  40.37700 47.97000 25.76900
H  40.58800 45.46900 30.37900
H  43.37400 48.01300 33.23900
H  43.43300 46.23000 33.34200
H  42.10700 47.19000 33.98300
Mg 17.88600 51.49700 26.27300
C  19.55200 49.97600 28.71400
C  15.38800 52.45100 28.50000
C  15.92300 52.43200 23.72200
C  20.10100 50.10400 23.89700
N  17.52200 51.17300 28.38400
C  18.38800 50.61800 29.24400
C  18.00100 50.79300 30.70100
C  16.50400 51.37100 30.51900
C  16.47300 51.68700 29.04700
C  15.32400 50.34000 30.88500
C  18.94600 51.81800 31.52000
C  18.32600 52.48800 32.81900
H  17.48300 51.61300 33.68200
N  16.04400 52.42800 26.10600
C  15.24100 52.80400 27.17600
C  14.05500 53.51000 26.70700
C  14.15100 53.44500 25.29100
C  15.38200 52.82200 24.98300
C  13.26600 54.41000 27.62100
C  13.12200 53.97300 24.25600
O  13.39700 54.26900 23.07900
C  11.79400 54.47200 24.74000
N  18.02000 51.38500 23.98400
C  17.01000 51.72000 23.23700
C  17.25800 51.31500 21.76900
C  18.71000 50.83700 21.79200
C  19.02300 50.86800 23.28700
C  16.24500 50.33700 21.14300
C  19.78100 51.72100 21.01700
C  19.77500 53.25100 21.29600
N  19.46100 50.24500 26.27000
C  20.34800 49.87200 25.27300
C  21.50000 49.15600 25.79500
C  21.30000 49.18500 27.22400
C  20.03400 49.82500 27.42300
C  22.58800 48.59300 24.90400
C  21.75600 48.76800 28.59100
O  22.68100 48.07100 29.02800
C  20.65500 49.40500 29.55500
C  20.17700 48.27300 30.41200
O  19.80100 47.16200 30.03600
O  20.12900 48.70500 31.71600
C  19.57100 47.73200 32.66600
H  14.57900 52.66200 29.20200
H  15.28200 52.72400 22.88800
H  20.78600 49.64200 23.18300
H  17.99900 49.82200 31.19600
H  16.35900 52.27500 31.11000
H  15.01500 50.50300 31.91700
H  15.70400 49.31900 30.93300
H  14.47700 50.31700 30.19900
H  19.30100 52.58700 30.83400
H  19.81500 51.27700 31.89600
H  17.74300 53.31100 32.40500
H  19.15300 52.86700 33.42000
H  13.83400 54.66700 28.51500
H  12.27500 54.00500 27.82500
H  13.06000 55.32700 27.07000
H  11.56500 54.00900 25.69900
H  11.08000 54.02700 24.04600
H  11.85200 55.55700 24.65400
H  17.11700 52.24100 21.21200
H  18.82300 49.85100 21.34000
H  15.59600 50.16200 22.00100
H  16.61400 49.34000 20.90000
H  15.79300 50.88600 20.31700
H  19.57600 51.66100 19.94800
H  20.71700 51.22600 21.27400
H  20.75200 53.65900 21.55800
H  19.08700 53.26300 22.14100
H  19.45000 53.81800 20.42400
H  23.31100 48.20900 25.62400
H  22.98200 49.37100 24.25000
H  22.24100 47.72700 24.34100
H  21.16000 50.12400 30.20000
H  19.87100 46.70800 32.44500
H  18.49800 47.92000 32.62700
H  20.00600 47.95600 33.64000

