158

Mg 42.50500 40.89400 26.04400
C  41.44600 43.28300 28.33500
C  43.49400 39.02000 28.73100
C  43.88600 38.83300 23.91700
C  41.59300 43.04900 23.51100
N  42.52400 41.13500 28.22400
C  41.95200 42.15800 28.93100
C  42.04600 41.96900 30.43500
C  42.81700 40.59300 30.52900
C  42.87300 40.22700 29.04100
C  44.13200 40.65900 31.32200
C  40.69300 41.86800 31.13200
C  40.63100 42.67100 32.47000
H  40.13700 41.85700 33.72500
N  43.60300 39.18600 26.29200
C  43.83000 38.52400 27.46000
C  44.51400 37.31200 27.18500
C  44.69600 37.22700 25.76600
C  44.07700 38.48700 25.24000
C  45.08100 36.44100 28.38200
C  45.29500 36.13100 24.99700
O  45.53300 36.18700 23.74200
C  45.80400 34.90500 25.77200
N  42.69100 40.91900 24.00300
C  43.19300 39.85900 23.35200
C  42.72700 39.94900 21.85400
C  42.18400 41.36100 21.77600
C  42.15200 41.83100 23.18500
C  43.77000 39.57400 20.80100
C  40.78000 41.54100 21.04700
C  40.95800 42.52300 19.82000
N  41.76300 42.82500 25.91400
C  41.49900 43.61500 24.80900
C  41.05000 44.92200 25.26400
C  40.97000 44.79900 26.63600
C  41.42900 43.53900 26.98800
C  40.65400 46.09200 24.41900
C  40.51500 45.42800 27.86500
O  39.93900 46.52600 27.93500
C  40.71800 44.43500 28.99800
C  41.43800 45.16800 30.00300
O  42.61300 45.52700 29.98200
O  40.67700 45.54200 31.06700
C  41.37400 46.25000 32.12500
H  43.61400 38.23800 29.48300
H  44.29800 38.14100 23.17900
H  41.33100 43.67100 22.65300
H  42.67700 42.72400 30.90400
H  42.17300 39.80100 30.91000
H  44.41900 41.67300 31.59800
H  44.84400 40.17600 30.65300
H  44.17500 40.12000 32.26800
H  40.55400 40.86700 31.54200
H  39.83300 42.15600 30.52800
H  40.00100 43.55400 32.36500
H  41.53200 43.23000 32.72200
H  45.11500 37.02300 29.30400
H  46.12400 36.15900 28.23400
H  44.50900 35.51600 28.45500
H  46.20900 34.24900 25.00200
H  45.16700 34.38400 26.48800
H  46.70000 35.33600 26.21800
H  42.00700 39.13400 21.92700
H  42.86200 41.99800 21.20700
H  43.85900 40.38200 20.07500
H  43.43700 38.66200 20.30500
H  44.78000 39.48800 21.20200
H  39.96400 42.02900 21.58000
H  40.40200 40.57900 20.70200
H  40.95900 41.88200 18.93900
H  41.85600 43.13200 19.92300
H  40.04900 43.11500 19.93200
H  40.55800 45.88200 23.35400
H  41.31600 46.93000 24.63600
H  39.63700 46.36900 24.69900
H  39.75700 44.27900 29.48700
H  42.03700 45.51900 32.58700
H  40.59300 46.53400 32.83100
H  41.84800 47.14300 31.71700
Mg -10.28500 38.53900 41.60800
C  -8.77700 35.62700 40.32300
C  -7.95300 40.39800 39.89700
C  -12.12600 41.33400 42.23100
C  -12.84000 36.59200 42.98700
N  -8.67900 38.00500 40.08400
C  -8.18600 36.76300 39.86200
C  -7.02000 36.85900 38.83100
C  -6.51400 38.30500 39.19500
C  -7.81700 38.99400 39.75100
C  -5.35700 38.38400 40.20600
C  -7.61200 36.68600 37.40400
C  -7.00900 35.53000 36.51200
H  -6.46300 35.98000 35.14400
N  -9.99800 40.54800 41.24000
C  -8.96600 41.10900 40.55300
C  -9.16600 42.59300 40.53200
C  -10.31500 42.96600 41.26100
C  -10.91400 41.61200 41.64500
C  -8.10400 43.57000 39.87500
C  -10.79600 44.25500 41.61700
O  -10.05700 45.24500 41.46300
C  -12.03600 44.42900 42.45900
N  -12.19300 38.81800 42.32400
C  -12.72200 40.12200 42.52100
C  -14.13000 40.12600 43.08300
C  -14.35400 38.53600 43.22800
C  -13.05700 37.94200 42.82500
C  -14.49400 40.95000 44.34100
C  -15.51500 38.06600 42.40300
C  -16.86100 38.12900 43.11100
N  -10.73700 36.51100 41.69100
C  -11.74800 35.83300 42.40500
C  -11.47300 34.40100 42.32700
C  -10.39900 34.31300 41.46300
C  -9.97100 35.61400 41.08700
C  -12.15400 33.28100 43.09800
C  -9.51400 33.29800 40.80600
O  -9.51700 32.12800 40.90500
C  -8.41100 34.12800 40.00300
C  -7.04400 33.79700 40.51500
O  -6.57800 34.31600 41.53300
O  -6.37900 32.95600 39.66600
C  -4.96700 32.61600 39.99500
H  -7.14800 40.91600 39.37100
H  -12.77500 42.19400 42.40700
H  -13.62900 35.96300 43.40400
H  -6.36500 36.00000 38.98000
H  -6.20900 38.83600 38.29300
H  -4.97300 37.36400 40.21200
H  -5.60300 38.57300 41.25100
H  -4.59800 39.08000 39.84800
H  -7.51600 37.66100 36.92600
H  -8.68100 36.47800 37.44000
H  -7.85500 34.86800 36.32600
H  -6.18700 35.03400 37.02800
H  -7.95200 44.44200 40.51100
H  -8.45500 43.89300 38.89500
H  -7.13300 43.07400 39.89900
H  -11.80900 43.87800 43.37200
H  -12.95900 44.14500 41.95500
H  -12.12500 45.48900 42.69500
H  -14.61900 40.56900 42.21500
H  -14.54500 38.37000 44.28900
H  -15.33200 40.64000 44.96500
H  -14.82700 41.93600 44.01800
H  -13.53600 40.92100 44.86100
H  -15.36500 37.07500 41.97400
H  -15.69100 38.83000 41.64500
H  -17.63300 38.76900 42.68300
H  -16.86700 38.28400 44.19000
H  -17.26600 37.12500 42.99100
H  -13.22500 33.14800 42.95100
H  -11.89400 33.32600 44.15500
H  -11.67700 32.36700 42.74300
H  -8.57500 34.02600 38.93000
H  -4.45000 33.42200 40.51600
H  -4.35100 32.42600 39.11600
H  -4.87000 31.70600 40.58700

