158

Mg 47.45500 16.84900 28.75900
C  45.32800 16.69400 31.63600
C  49.70700 18.54500 30.43300
C  48.78900 17.66300 25.84500
C  44.65200 15.60700 26.89100
N  47.64300 17.38800 30.86900
C  46.66900 17.34600 31.83000
C  47.13800 17.83400 33.19700
C  48.47500 18.49600 32.77000
C  48.72100 18.07400 31.31500
C  48.39900 20.07900 32.89200
C  47.25200 16.58000 34.12600
C  46.70200 16.70500 35.56500
H  46.38400 18.12400 36.02900
N  49.13700 17.80600 28.26000
C  50.00700 18.37300 29.06600
C  51.20100 18.86800 28.42300
C  50.84000 18.66300 27.02700
C  49.57500 17.98300 27.00300
C  52.43700 19.55400 29.00500
C  51.68500 19.07100 25.81700
O  51.43700 18.58900 24.68100
C  52.91900 19.83200 25.93400
N  46.79800 16.66500 26.57200
C  47.63500 17.01600 25.61800
C  47.03900 16.76900 24.24900
C  45.85700 15.79400 24.61900
C  45.71800 16.02700 26.12900
C  46.39300 17.95600 23.54000
C  46.21200 14.32200 24.26900
C  45.34400 13.75000 23.16900
N  45.43700 16.17500 29.13400
C  44.50800 15.64800 28.28900
C  43.27000 15.33300 29.01400
C  43.59100 15.76700 30.36600
C  44.94500 16.18900 30.37700
C  41.94900 14.82300 28.39000
C  43.14700 15.87300 31.70800
O  42.02700 15.54000 32.18700
C  44.20900 16.47300 32.64100
C  43.62100 17.71200 33.23400
O  43.79800 18.82600 32.72800
O  42.83700 17.42600 34.33700
C  41.94500 18.48400 34.72400
H  50.41100 19.10200 31.05500
H  49.33400 17.88900 24.92600
H  43.97100 15.06000 26.23600
H  46.56500 18.71300 33.49200
H  49.27200 18.20500 33.45300
H  49.08600 20.37800 33.68300
H  47.41700 20.41000 33.22800
H  48.66500 20.50000 31.92200
H  48.29000 16.25100 34.17700
H  46.69500 15.71300 33.77200
H  47.48400 16.30600 36.21100
H  45.69700 16.28900 35.63900
H  53.33000 19.01600 28.68800
H  52.42700 19.47600 30.09200
H  52.48600 20.60200 28.70900
H  53.56300 19.20400 26.54900
H  52.76900 20.80900 26.39400
H  53.36700 20.11200 24.98100
H  47.80900 16.27100 23.66000
H  44.85800 15.96700 24.22100
H  45.46300 17.73100 23.01800
H  47.12000 18.27800 22.79600
H  46.21900 18.72200 24.29600
H  45.96000 13.72300 25.14400
H  47.27900 14.21900 24.06700
H  44.65800 14.45100 22.69300
H  44.78600 12.88800 23.53400
H  46.00100 13.42000 22.36500
H  41.57300 13.96200 28.94200
H  42.19800 14.54500 27.36600
H  41.14400 15.55000 28.50100
H  44.40400 15.70200 33.38500
H  41.60400 19.13200 33.91700
H  42.39900 18.97600 35.58500
H  41.04700 18.07700 35.18900
Mg 43.68000 42.20800 26.55400
C  42.45500 44.63500 28.79900
C  44.73400 40.37100 29.22200
C  44.82000 40.01200 24.44400
C  43.13800 44.57800 23.99200
N  43.77400 42.64200 28.69300
C  43.04500 43.52200 29.38800
C  43.22200 43.29900 30.95800
C  43.88400 41.88900 31.08600
C  44.22600 41.64200 29.57100
C  45.19600 41.83500 31.95300
C  41.92300 43.38800 31.94900
C  42.14000 44.31100 33.09400
H  42.45400 43.67100 34.50400
N  44.50700 40.34600 26.82000
C  44.97600 39.78000 27.97100
C  45.40000 38.42000 27.74800
C  45.31100 38.26900 26.32900
C  44.86500 39.54300 25.75700
C  45.97000 37.59100 28.82900
C  45.64400 37.02400 25.50000
O  45.37700 36.90500 24.34200
C  46.44500 35.93900 26.10000
N  44.03300 42.37400 24.59300
C  44.50400 41.29600 23.91700
C  44.61500 41.56300 22.41600
C  43.88400 42.96300 22.23500
C  43.72200 43.34000 23.68400
C  46.14200 41.59000 22.08500
C  42.56100 42.95400 21.38400
C  41.21500 42.78800 21.97700
N  42.91700 44.29100 26.41400
C  42.66800 45.01800 25.25200
C  41.93000 46.18000 25.61900
C  41.84800 46.17800 27.05200
C  42.48800 44.99300 27.46500
C  41.64600 47.30200 24.57300
C  41.26200 46.84600 28.18000
O  40.63600 47.90200 28.25400
C  41.66300 45.80900 29.45200
C  42.41500 46.72700 30.41600
O  43.51900 47.20200 30.24000
O  41.58300 47.10400 31.43700
C  42.20300 47.97300 32.52600
H  45.16100 40.00200 30.15700
H  45.16000 39.29100 23.69800
H  42.85200 45.30700 23.23000
H  43.99700 44.04600 31.12900
H  43.20800 41.09400 31.40300
H  45.13600 42.74300 32.55400
H  46.10600 41.81300 31.35400
H  45.15700 41.04100 32.69900
H  41.66300 42.38900 32.29900
H  41.02300 43.70300 31.42100
H  41.16500 44.77900 33.22900
H  42.88900 45.08700 32.93800
H  47.01700 37.88900 28.78100
H  45.83600 36.52500 28.64500
H  45.63100 37.90600 29.81600
H  46.78900 35.18600 25.39100
H  45.85000 35.41600 26.84800
H  47.38000 36.31200 26.51700
H  43.94800 40.88000 21.89100
H  44.51300 43.64800 21.66800
H  46.83100 41.59700 22.92900
H  46.35200 42.55800 21.63000
H  46.37000 40.73400 21.45000
H  42.61600 42.22500 20.57500
H  42.50200 43.92000 20.88200
H  41.28800 42.60900 23.04900
H  40.64100 41.99000 21.50500
H  40.70900 43.74800 21.87500
H  41.23100 46.83000 23.68200
H  42.50400 47.93600 24.35000
H  40.85300 47.90100 25.02100
H  40.75700 45.42000 29.91800
H  43.20300 48.36800 32.34800
H  42.18900 47.53300 33.52400
H  41.39600 48.70500 32.55300

