158

Mg 46.21300 44.25300 43.08100
C  42.90200 43.38000 42.53000
C  46.92400 40.94600 42.69100
C  49.49900 45.07500 42.80300
C  45.38400 47.68900 43.23000
N  45.07000 42.42700 42.64200
C  43.72500 42.27200 42.45600
C  43.21200 40.81500 42.39500
C  44.51300 40.03800 42.57800
C  45.58000 41.22100 42.66800
C  44.42800 39.07300 43.78200
C  42.41900 40.34700 41.18500
C  43.03800 40.93200 39.85800
H  42.57000 40.10700 38.66900
N  47.98200 43.12600 42.84200
C  48.05900 41.79500 42.69700
C  49.53700 41.39200 42.54700
C  50.29600 42.59000 42.75200
C  49.25000 43.66500 42.82500
C  50.01900 39.91500 42.38600
C  51.89000 42.72400 42.84300
O  52.57000 41.73600 42.70100
C  52.63700 43.99200 43.03900
N  47.19400 46.09400 42.86400
C  48.55700 46.13500 42.85500
C  49.09800 47.59100 42.76600
C  47.80300 48.35800 43.05800
C  46.70600 47.34000 43.00200
C  50.29600 47.96400 43.65100
C  47.58000 49.71400 42.27600
C  47.23000 50.92400 43.14900
N  44.48100 45.42300 42.82100
C  44.26500 46.76800 43.07700
C  42.79700 46.95200 42.98900
C  42.22500 45.64800 42.83300
C  43.34700 44.74400 42.71600
C  42.03300 48.23700 42.95200
C  40.96300 44.95200 42.67900
O  39.78500 45.26000 42.65800
C  41.42300 43.42500 42.58100
C  40.62000 42.57900 43.54600
O  40.03700 41.56300 43.26500
O  40.81500 42.95300 44.88600
C  40.32800 41.96300 45.81800
H  47.13900 39.87600 42.73100
H  50.51700 45.42900 42.62400
H  45.09500 48.71700 43.46100
H  42.73000 40.77300 43.37200
H  44.78700 39.43800 41.71000
H  43.42800 38.64500 43.84800
H  44.53600 39.67800 44.68200
H  45.18700 38.29600 43.69300
H  41.39900 40.69600 41.34600
H  42.53600 39.26500 41.25000
H  44.10700 41.13200 39.92700
H  42.50300 41.87300 39.72700
H  51.02800 39.94600 41.97400
H  49.37100 39.37500 41.69600
H  49.95000 39.42500 43.35700
H  52.68900 44.48900 42.07000
H  53.65300 43.81200 43.39000
H  52.20200 44.70200 43.74200
H  49.44500 47.66400 41.73500
H  47.70100 48.60800 44.11400
H  50.74200 47.08000 44.10700
H  49.80400 48.52000 44.44800
H  51.09200 48.49300 43.12600
H  46.71400 49.58600 41.62700
H  48.41400 49.93300 41.60900
H  47.79000 50.86400 44.08300
H  46.15700 50.91500 43.34100
H  47.41600 51.84500 42.59700
H  42.07000 48.43300 41.88100
H  42.48900 49.00100 43.58300
H  41.01200 48.19600 43.33100
H  41.05800 43.05800 41.62200
H  39.24000 41.90600 45.85100
H  40.64100 42.25400 46.82000
H  40.67900 40.94600 45.64300
Mg 25.34000 51.52600 26.19600
C  23.16400 52.35900 28.74000
C  27.73000 50.83200 28.54600
C  27.57400 51.18400 23.56100
C  23.07500 52.87000 23.90900
N  25.45300 51.84700 28.43400
C  24.36400 52.03600 29.23400
C  24.64700 51.79300 30.77400
C  26.21100 51.39400 30.58700
C  26.54800 51.30200 29.08400
C  27.21300 52.32200 31.43900
C  23.79800 50.64000 31.44700
C  23.23700 50.89500 32.87900
H  24.11800 51.49100 33.90300
N  27.26400 50.93500 26.11800
C  28.08400 50.69500 27.20100
C  29.38500 50.34500 26.73800
C  29.40400 50.54100 25.31300
C  28.01100 50.91800 24.92600
C  30.53600 49.98200 27.68600
C  30.57600 50.34100 24.40000
O  30.59400 50.63400 23.22900
C  31.82800 49.69700 24.91500
N  25.28200 51.89300 23.95700
C  26.37000 51.70900 23.16500
C  26.03000 52.08900 21.71200
C  24.45800 52.40300 21.82700
C  24.25200 52.38400 23.30500
C  26.86300 53.29200 21.12700
C  23.68500 51.25800 21.09900
C  23.67300 51.42100 19.52800
N  23.55700 52.41200 26.23300
C  22.75400 52.91100 25.27400
C  21.50500 53.43800 25.70900
C  21.65300 53.26000 27.11600
C  22.90700 52.66600 27.42200
C  20.36100 54.00000 24.91700
C  20.95400 53.40800 28.37500
O  19.80800 53.75700 28.64900
C  21.91600 52.86600 29.50500
C  22.10500 53.97800 30.49000
O  22.83100 54.95200 30.30500
O  21.31100 53.83400 31.58100
C  21.44300 54.89300 32.58600
H  28.44600 50.45000 29.27700
H  28.19800 51.07700 22.67100
H  22.35300 53.17000 23.14700
H  24.49300 52.75900 31.25500
H  26.53000 50.42600 30.97400
H  27.66100 51.71800 32.22800
H  26.69500 53.07300 32.03600
H  28.01400 52.78200 30.86100
H  24.45900 49.77600 31.38800
H  22.85000 50.50700 30.92500
H  23.05000 49.89300 33.26500
H  22.33500 51.50700 32.87700
H  31.47200 50.51600 27.52400
H  30.80700 48.98500 27.33900
H  30.28900 50.07100 28.74400
H  32.56300 49.48200 24.14000
H  31.83700 48.87400 25.63000
H  32.24600 50.55000 25.44900
H  26.21600 51.15600 21.18000
H  24.36500 53.39000 21.37300
H  27.72400 53.37900 21.78900
H  26.34700 54.24400 21.00000
H  27.24600 53.06600 20.13200
H  22.64600 51.22400 21.42600
H  24.13500 50.28700 21.30700
H  22.64600 51.52100 19.17600
H  24.25200 50.62200 19.06700
H  24.27700 52.28100 19.23800
H  20.50100 53.89000 23.84200
H  20.28500 55.04200 25.22800
H  19.46000 53.49100 25.26100
H  21.42300 52.02900 29.99900
H  22.33200 54.61400 33.15400
H  20.58700 54.97400 33.25500
H  21.62900 55.90600 32.22900

