158

Mg 43.27900 3.88700 47.09900
C  41.36000 6.84900 47.09400
C  40.29000 2.11600 46.74700
C  45.01600 1.20800 46.25400
C  46.08400 6.00600 46.50100
N  41.09000 4.49800 46.94500
C  40.51400 5.72300 47.06200
C  38.96800 5.66400 47.08200
C  38.79900 4.10500 47.11800
C  40.15700 3.47400 46.88300
C  38.15300 3.58800 48.43200
C  38.26200 6.36800 45.86300
C  39.19600 6.92100 44.76000
H  38.80600 6.38900 43.36100
N  42.75300 1.87000 46.85600
C  41.49000 1.31400 46.69700
C  41.54600 -0.04300 46.42700
C  42.95200 -0.39800 46.32500
C  43.63800 0.86800 46.53400
C  40.34200 -0.89300 46.22500
C  43.44100 -1.89200 46.07400
O  42.63500 -2.82800 45.86200
C  44.85500 -2.29600 46.03300
N  45.21600 3.65600 46.36100
C  45.71800 2.39400 46.16400
C  47.15400 2.49400 45.68000
C  47.54700 3.97800 45.98200
C  46.18400 4.64600 46.29800
C  48.02500 1.46500 46.39800
C  48.53500 4.71300 44.99000
C  49.87800 4.95600 45.62300
N  43.70400 6.04600 46.75800
C  44.94500 6.72300 46.65300
C  44.65300 8.18700 46.75000
C  43.26800 8.26400 46.97000
C  42.74300 6.94700 46.97300
C  45.75600 9.23800 46.65800
C  42.19700 9.17100 47.29600
O  42.22400 10.39100 47.34900
C  40.91600 8.28900 47.31200
C  40.08900 8.54100 48.49600
O  40.10800 7.81700 49.46000
O  39.28000 9.59700 48.33200
C  38.28800 10.07800 49.27000
H  39.28800 1.70900 46.59900
H  45.53400 0.30400 45.92900
H  47.03300 6.53400 46.61600
H  38.65800 6.13000 48.01800
H  38.21500 3.64000 46.32400
H  37.72500 4.40900 49.00600
H  38.93200 3.14500 49.05300
H  37.39100 2.85400 48.17100
H  37.72200 7.23800 46.23700
H  37.52700 5.73500 45.36600
H  40.23600 6.60600 44.84300
H  39.06500 8.00300 44.77700
H  39.85000 -0.80100 45.25700
H  39.55800 -0.62800 46.93500
H  40.46400 -1.94800 46.46800
H  45.44600 -1.88200 46.85000
H  45.16400 -1.94400 45.04900
H  44.99100 -3.37700 46.03700
H  47.16700 2.30400 44.60700
H  48.02600 3.81400 46.94700
H  48.90400 1.91400 46.86000
H  48.26900 0.79300 45.57500
H  47.51000 0.99800 47.23700
H  48.16800 5.71100 44.75000
H  48.52700 4.20900 44.02300
H  50.62000 4.47900 44.98200
H  49.95400 4.49100 46.60500
H  49.98000 6.03300 45.75500
H  46.13200 9.48600 47.65000
H  45.39900 10.20500 46.30400
H  46.58600 8.89600 46.04000
H  40.30000 8.64100 46.48400
H  38.28200 9.43100 50.14700
H  37.38300 10.03500 48.66400
H  38.58200 11.10000 49.51200
Mg 16.89500 52.30700 26.10300
C  18.89500 51.03000 28.62700
C  14.55200 53.12300 28.32700
C  14.91600 53.33300 23.50400
C  19.05800 50.94500 23.74900
N  16.80300 52.06000 28.25600
C  17.74500 51.62000 29.13300
C  17.37000 51.92000 30.59700
C  15.88200 52.37200 30.50300
C  15.67900 52.44100 28.93200
C  14.87300 51.25800 30.99100
C  18.31700 52.96500 31.21300
C  18.39800 53.05400 32.77300
H  17.48700 52.11700 33.65400
N  15.06000 53.13300 25.97800
C  14.30100 53.45000 27.03200
C  13.17900 54.27200 26.58100
C  13.22600 54.30600 25.16700
C  14.47800 53.61200 24.84100
C  12.21300 54.94200 27.55300
C  12.33500 54.98400 24.14800
O  12.57500 55.03500 22.94300
C  11.11000 55.67300 24.59600
N  16.90200 52.17300 23.81600
C  16.02200 52.69600 23.03000
C  16.35300 52.57300 21.53800
C  17.68800 51.78300 21.59100
C  17.97900 51.58000 23.13900
C  15.15300 51.88000 20.75600
C  18.88900 52.32300 20.78800
C  19.52800 53.61900 21.23700
N  18.59900 51.31700 26.16200
C  19.35100 50.73900 25.12900
C  20.44400 49.90200 25.64800
C  20.19900 49.98200 27.03500
C  19.17600 50.86900 27.28200
C  21.34800 49.00500 24.87600
C  20.79700 49.50600 28.32500
O  21.79400 48.84200 28.63600
C  19.91400 50.20300 29.46400
C  19.25600 49.20100 30.32900
O  18.36800 48.35100 30.08000
O  19.80000 49.31300 31.51300
C  19.11200 48.54400 32.56700
H  13.96500 53.55200 29.14200
H  14.33700 53.70100 22.65500
H  19.74600 50.45000 23.06000
H  17.51700 51.04600 31.23100
H  15.78100 53.27300 31.10800
H  14.04000 51.80300 31.43400
H  15.32000 50.68700 31.80600
H  14.61200 50.62800 30.14200
H  18.18500 53.94300 30.75000
H  19.28700 52.58500 30.89200
H  18.26200 54.11800 32.96600
H  19.44200 52.87400 33.03000
H  12.24800 56.02600 27.44000
H  12.45500 54.77600 28.60300
H  11.17400 54.70200 27.32600
H  10.42300 55.76600 23.75500
H  11.32800 56.71100 24.84700
H  10.48600 55.09600 25.27800
H  16.54400 53.54200 21.07600
H  17.50700 50.85900 21.04300
H  14.36700 51.87800 21.51100
H  15.37400 50.87300 20.40000
H  14.69900 52.54900 20.02500
H  18.58600 52.36100 19.74200
H  19.60900 51.50500 20.79900
H  19.88300 54.17000 20.36600
H  20.37600 53.39200 21.88300
H  18.72200 54.20200 21.68400
H  22.37200 49.15400 25.21800
H  21.38000 49.20400 23.80500
H  21.04000 47.97200 25.04300
H  20.49100 50.97900 29.96800
H  18.03100 48.47100 32.44700
H  19.44700 49.07100 33.46100
H  19.40100 47.49300 32.54200

