158

Mg 48.92900 34.97200 27.62400
C  46.78500 33.43800 29.93800
C  49.36600 37.64500 29.97300
C  50.88700 36.50400 25.42800
C  48.22300 32.40900 25.39300
N  48.18600 35.48900 29.64600
C  47.42500 34.58700 30.45400
C  47.50600 35.08600 31.84700
C  47.73500 36.61300 31.67300
C  48.49500 36.60600 30.37000
C  46.47300 37.46200 31.59900
C  48.59800 34.35300 32.68700
C  48.25000 33.91300 34.10200
H  47.08100 34.68900 34.80800
N  49.92900 36.77400 27.67900
C  50.04600 37.69700 28.74200
C  50.98100 38.75100 28.39500
C  51.53600 38.37500 27.13900
C  50.79600 37.15900 26.71600
C  51.34700 40.00300 29.16400
C  52.74900 38.98300 26.28700
O  53.14800 38.56500 25.21700
C  53.58800 40.15000 26.78200
N  49.22600 34.67500 25.57700
C  50.20800 35.42300 24.92500
C  50.57400 34.77600 23.58400
C  49.87400 33.35900 23.62900
C  49.07000 33.41600 24.96800
C  50.18700 35.76800 22.35900
C  50.92800 32.25000 23.56600
C  50.45100 31.00200 22.79800
N  47.66300 33.32000 27.56500
C  47.54100 32.35300 26.61700
C  46.58100 31.32200 27.11400
C  46.24000 31.76100 28.37600
C  46.90900 32.90200 28.63500
C  46.09400 30.11900 26.37700
C  45.39600 31.49900 29.45600
O  44.50700 30.71500 29.66300
C  45.73200 32.52300 30.54700
C  46.10700 31.79100 31.76200
O  46.99200 30.97000 31.78500
O  45.28500 31.99200 32.79400
C  45.33700 31.02400 33.94800
H  49.38000 38.42100 30.74100
H  51.61900 36.89900 24.72000
H  48.27900 31.58400 24.68000
H  46.50800 34.99400 32.27500
H  48.42300 37.05300 32.39500
H  46.37900 37.92300 30.61600
H  46.38900 38.13000 32.45700
H  45.60000 36.81500 31.68300
H  49.52200 34.92600 32.61300
H  48.88400 33.47100 32.11400
H  49.07000 34.07400 34.80200
H  47.94500 32.87100 34.20500
H  50.72700 39.87600 30.05100
H  51.15000 40.86400 28.52500
H  52.37100 39.88500 29.51600
H  53.09600 40.95800 27.32400
H  54.09200 40.68600 25.97900
H  54.43300 39.80700 27.37900
H  51.65000 34.71200 23.42500
H  49.14700 33.29300 22.82000
H  49.70300 36.63200 22.81300
H  49.64100 35.21000 21.59700
H  51.10200 36.13200 21.89200
H  51.09700 32.05900 24.62600
H  51.86100 32.59100 23.11800
H  50.55100 30.04000 23.29900
H  50.98300 30.99700 21.84600
H  49.38200 31.02600 22.59000
H  46.63400 30.01700 25.43500
H  45.07500 30.15800 25.99100
H  46.37900 29.31000 27.04800
H  44.88400 33.13500 30.85700
H  44.85300 31.57800 34.75300
H  46.30800 30.70500 34.32800
H  44.90700 30.08600 33.59900
Mg 42.11700 40.50400 27.08200
C  41.21100 42.73000 29.52200
C  42.99600 38.35900 29.44700
C  42.90900 38.34000 24.71000
C  41.19600 42.83300 24.52600
N  41.98100 40.51300 29.21600
C  41.50400 41.49200 29.99800
C  41.55500 41.12400 31.48800
C  42.16400 39.72200 31.37600
C  42.38300 39.53300 29.95800
C  43.48300 39.49900 32.27800
C  40.17700 41.25700 32.23000
C  40.14700 42.10500 33.62000
H  39.54200 41.34400 34.84200
N  42.93700 38.62800 27.09000
C  43.25800 37.94400 28.18300
C  43.81400 36.61800 27.85300
C  43.65200 36.53300 26.42000
C  43.06800 37.79900 26.02500
C  44.26900 35.57500 28.79100
C  44.00000 35.43100 25.47500
O  43.76300 35.43900 24.26100
C  44.66300 34.16900 25.99400
N  42.03800 40.59500 24.93800
C  42.37000 39.51000 24.19600
C  42.18100 39.72900 22.67300
C  41.46700 41.16600 22.63800
C  41.57900 41.57600 24.10400
C  43.44200 39.58500 21.78700
C  40.00900 41.30800 22.06800
C  39.50000 42.72400 21.63500
N  41.35000 42.42100 26.94900
C  41.08800 43.26100 25.88100
C  40.61600 44.49500 26.42600
C  40.65900 44.34600 27.86600
C  41.14800 43.06000 28.08100
C  40.34000 45.66500 25.69500
C  40.50800 45.10400 29.12900
O  40.09600 46.21500 29.36400
C  40.74600 44.03900 30.27400
C  41.66900 44.60900 31.30800
O  42.82200 44.81100 31.07100
O  41.02400 44.97000 32.45700
C  41.74800 45.48700 33.61200
H  43.22800 37.69100 30.27900
H  43.11900 37.65100 23.88900
H  41.09800 43.55900 23.71600
H  42.25400 41.68200 32.11200
H  41.35600 39.11300 31.78200
H  43.62100 38.44500 32.52100
H  43.31100 39.91200 33.27200
H  44.32200 39.92600 31.72800
H  39.82400 40.28300 32.56900
H  39.51200 41.71400 31.49700
H  39.55500 42.98000 33.35000
H  41.14800 42.43400 33.90200
H  43.71900 34.64600 28.64000
H  44.19100 35.91700 29.82300
H  45.28800 35.31700 28.50100
H  43.81500 33.77300 26.55300
H  45.54000 34.51200 26.54300
H  44.92500 33.40000 25.26800
H  41.40600 39.07700 22.27200
H  42.04300 41.92700 22.10900
H  43.46500 40.23200 20.91100
H  43.56100 38.58600 21.36700
H  44.37700 39.86700 22.27000
H  39.27200 40.78300 22.67700
H  40.00600 40.83900 21.08400
H  39.13900 42.65800 20.60800
H  40.36300 43.38700 21.57300
H  38.83900 43.22600 22.34200
H  40.54500 45.57000 24.62900
H  41.05200 46.41900 26.03000
H  39.33000 46.03900 25.86100
H  39.77200 43.91200 30.74700
H  42.75200 45.85200 33.39400
H  41.79500 44.60400 34.24900
H  41.20500 46.30400 34.08700

