158

Mg 8.90100 3.47400 27.38400
C  10.48700 2.01000 30.29700
C  7.24000 5.48100 29.63500
C  7.00800 4.47100 24.80000
C  10.64500 1.22300 25.49800
N  8.85600 3.64700 29.73200
C  9.59300 3.05500 30.65900
C  9.33500 3.54700 32.07900
C  8.15400 4.49800 31.87600
C  8.04200 4.60600 30.34500
C  6.86500 3.98200 32.55500
C  10.61700 4.25800 32.69100
C  11.20400 3.80800 34.04100
H  10.38400 3.31400 35.24800
N  7.38500 4.86100 27.23900
C  6.90400 5.60600 28.24300
C  6.04100 6.53200 27.64700
C  5.82500 6.22700 26.28700
C  6.73600 5.15600 26.01600
C  5.28500 7.57000 28.44700
C  4.85600 6.84100 25.21000
O  4.83400 6.44600 24.07300
C  3.80800 7.91800 25.56700
N  8.76000 2.84300 25.46900
C  7.96200 3.47300 24.55500
C  8.24100 3.00500 23.16500
C  9.33800 1.90600 23.37200
C  9.66600 2.00800 24.83700
C  7.00200 2.54300 22.30500
C  10.56000 1.95200 22.44200
C  10.58300 0.93100 21.25700
N  10.29900 2.04600 27.78500
C  10.94100 1.24600 26.88000
C  11.86600 0.39200 27.56700
C  11.73900 0.71700 28.88400
C  10.77800 1.67100 28.97300
C  12.74400 -0.63200 26.92400
C  12.17500 0.33600 30.18500
O  13.02800 -0.49800 30.50900
C  11.45100 1.26500 31.10400
C  10.78800 0.45900 32.16400
O  9.67200 -0.04800 32.13300
O  11.48100 0.69200 33.32900
C  10.85800 0.09200 34.51300
H  6.78800 6.19600 30.32500
H  6.46800 4.79100 23.90600
H  11.30700 0.58000 24.91400
H  9.03300 2.70200 32.69800
H  8.30100 5.44700 32.39100
H  6.12700 3.92200 31.75500
H  6.53600 4.79700 33.19900
H  6.92600 3.05600 33.12800
H  10.35000 5.28500 32.94000
H  11.43600 4.25800 31.97200
H  12.00400 4.46600 34.38300
H  11.85100 3.03300 33.63000
H  5.68500 8.52900 28.11800
H  5.40000 7.53300 29.53100
H  4.21700 7.58300 28.22900
H  3.23300 8.24300 24.70000
H  4.24200 8.78700 26.06200
H  3.16500 7.35000 26.23900
H  8.71400 3.83300 22.63800
H  9.00600 0.87100 23.29500
H  7.23500 1.54800 21.92700
H  6.94700 3.25500 21.48200
H  6.06500 2.46000 22.85600
H  11.47500 1.79700 23.01400
H  10.59900 2.90900 21.92200
H  10.98600 1.45300 20.38900
H  9.56700 0.66100 20.96900
H  11.19700 0.04100 21.39700
H  12.11700 -1.25200 26.28200
H  13.17400 -1.39600 27.57200
H  13.49500 -0.02800 26.41500
H  12.26400 1.87500 31.49500
H  10.74800 -0.99200 34.50800
H  9.88600 0.54600 34.70600
H  11.61300 0.45000 35.21300
Mg -6.69500 24.81800 26.67200
C  -4.40200 26.12500 28.92200
C  -7.57300 22.51600 29.11800
C  -8.41900 23.18500 24.31300
C  -5.11800 26.77800 24.14800
N  -6.01300 24.34000 28.61700
C  -5.23700 25.17300 29.43000
C  -5.56400 25.00200 30.89100
C  -6.21800 23.57400 30.87100
C  -6.57200 23.44000 29.41600
C  -5.21300 22.42600 31.23000
C  -6.34100 26.18200 31.56700
C  -5.87900 26.73400 32.92800
H  -5.90000 25.77900 34.10500
N  -7.91000 23.22000 26.72600
C  -8.23200 22.47800 27.85400
C  -9.29400 21.57400 27.58100
C  -9.60200 21.79600 26.18500
C  -8.60300 22.74500 25.66900
C  -9.92900 20.54400 28.46600
C  -10.75800 21.25100 25.29500
O  -10.99000 21.55200 24.13900
C  -11.70900 20.18800 25.91600
N  -6.82500 24.98500 24.59500
C  -7.59800 24.22700 23.79300
C  -7.53900 24.63500 22.25100
C  -6.65600 25.93800 22.33700
C  -6.21000 25.92900 23.78800
C  -7.05300 23.49600 21.25900
C  -7.37900 27.19300 22.01800
C  -7.69600 27.40800 20.44100
N  -5.06100 26.15600 26.52600
C  -4.55100 26.87000 25.43100
C  -3.49000 27.75700 25.93700
C  -3.43600 27.49900 27.28600
C  -4.42300 26.54100 27.56600
C  -2.64500 28.78400 25.24700
C  -2.81200 27.95700 28.44500
O  -1.90900 28.71000 28.63300
C  -3.33800 27.05200 29.56400
C  -2.18400 26.34200 30.15200
O  -1.68600 25.38000 29.60500
O  -2.02300 26.73300 31.48600
C  -1.09300 25.87400 32.23800
H  -7.98000 21.88000 29.90800
H  -9.00400 22.81000 23.47000
H  -4.67100 27.48900 23.45000
H  -4.61400 24.96600 31.42400
H  -7.06500 23.50200 31.55300
H  -4.25200 22.74400 31.63600
H  -5.03500 21.77600 30.37300
H  -5.80000 21.82600 31.92400
H  -7.37900 25.86200 31.64900
H  -6.20600 27.11100 31.01300
H  -6.41700 27.62900 33.23800
H  -4.88300 27.16200 32.81300
H  -10.97300 20.78500 28.66600
H  -9.59700 20.58300 29.50400
H  -9.72000 19.55000 28.07100
H  -11.16300 19.32000 26.28700
H  -12.46400 19.73300 25.27500
H  -12.22300 20.65100 26.75800
H  -8.51000 25.03900 21.96600
H  -5.79100 25.80000 21.68900
H  -7.10800 22.53700 21.77400
H  -5.98300 23.66300 21.13900
H  -7.73000 23.41000 20.40900
H  -6.89500 28.03900 22.50600
H  -8.32100 27.20800 22.56600
H  -7.46200 26.55700 19.80200
H  -7.10700 28.22200 20.01800
H  -8.73100 27.70600 20.27300
H  -3.23200 29.28500 24.47700
H  -1.74100 28.34300 24.82600
H  -2.31400 29.56900 25.92700
H  -3.76500 27.62900 30.38400
H  -0.20600 25.66100 31.64100
H  -1.61800 25.00300 32.63000
H  -0.71100 26.34300 33.14400

