158

Mg 41.79000 8.26500 29.48300
C  43.54900 9.29200 32.21800
C  39.59100 6.56000 31.65400
C  39.85000 7.23900 26.88500
C  44.03500 9.52800 27.38400
N  41.73700 7.82800 31.67400
C  42.48300 8.49400 32.59400
C  41.91300 8.28200 34.03600
C  40.76300 7.17900 33.76900
C  40.68800 7.18500 32.25200
C  40.90700 5.78400 34.40700
C  41.47500 9.62500 34.72800
C  40.70000 9.67400 36.10300
H  41.27500 10.47900 37.27200
N  39.83700 7.11400 29.27200
C  39.09600 6.50000 30.28700
C  37.83200 6.11300 29.77100
C  37.90300 6.30800 28.32900
C  39.24600 6.86100 28.13800
C  36.76100 5.56500 30.74400
C  36.80200 6.12800 27.24300
O  36.92600 6.34000 26.08300
C  35.34500 5.71200 27.71600
N  42.09900 8.10300 27.51000
C  41.14800 7.67100 26.57000
C  41.60100 7.72300 25.17500
C  42.68800 8.78400 25.25300
C  42.99700 8.80600 26.80800
C  42.22400 6.35600 24.88200
C  42.18000 10.14700 24.70900
C  43.14300 10.87200 23.75500
N  43.59500 9.10000 29.69800
C  44.42000 9.63400 28.76600
C  45.57600 10.22500 29.37200
C  45.23500 10.15700 30.76900
C  44.03100 9.45400 30.87400
C  46.85900 10.85100 28.74300
C  45.62200 10.58300 32.13100
O  46.56600 11.24300 32.49600
C  44.47300 10.06400 33.13100
C  45.07200 9.29900 34.24500
O  45.70200 8.28200 34.14700
O  44.75600 9.80600 35.44000
C  45.19000 9.11600 36.60700
H  38.90700 6.18000 32.41600
H  39.25100 6.97900 26.01000
H  44.67000 10.00000 26.63100
H  42.80600 7.86600 34.50300
H  39.80200 7.58900 34.07900
H  41.73400 5.76200 35.11800
H  41.13200 5.01300 33.67100
H  39.98400 5.56800 34.94400
H  41.01700 10.28600 33.99300
H  42.41900 10.14500 34.89300
H  40.42800 8.68600 36.47300
H  39.76900 10.15600 35.80500
H  37.00800 5.50700 31.80400
H  36.36600 4.57600 30.51100
H  35.91500 6.22500 30.55200
H  34.91800 6.65000 28.07100
H  35.44800 4.93900 28.47800
H  34.80500 5.35400 26.83900
H  40.82800 7.82400 24.41200
H  43.58000 8.64200 24.64300
H  43.29500 6.46300 24.71200
H  41.96600 6.03600 23.87300
H  41.98200 5.56600 25.59300
H  41.98000 10.82700 25.53700
H  41.25500 10.09200 24.13500
H  44.05000 10.28700 23.59800
H  43.42900 11.83600 24.17500
H  42.70300 11.08000 22.78000
H  47.14200 11.75900 29.27500
H  46.77900 10.99300 27.66500
H  47.63500 10.13800 29.02000
H  43.95200 10.95000 33.49400
H  46.21800 9.46800 36.68400
H  45.11500 8.02800 36.57900
H  44.58700 9.47000 37.44300
Mg -4.74300 25.68200 25.57400
C  -3.80900 26.91400 28.68500
C  -6.86600 23.46100 27.18100
C  -5.31000 24.20700 22.59300
C  -2.58800 27.92800 24.05000
N  -5.52300 25.47100 27.70400
C  -4.82800 25.90000 28.77100
C  -5.40500 25.32000 30.08400
C  -6.30900 24.12100 29.55600
C  -6.23100 24.35200 28.06700
C  -5.79800 22.72700 29.99000
C  -6.16600 26.38800 30.84000
C  -6.93900 26.00300 32.10700
H  -6.46400 24.76100 32.91500
N  -6.04100 24.11700 24.95200
C  -6.85800 23.33500 25.72100
C  -7.64700 22.44400 24.88400
C  -7.19300 22.70100 23.55700
C  -6.14400 23.70700 23.63000
C  -8.67400 21.55900 25.47300
C  -7.56200 21.91400 22.27700
O  -7.00600 22.14200 21.20300
C  -8.68200 20.96700 22.32600
N  -3.91000 25.91600 23.66400
C  -4.35300 25.19600 22.60200
C  -3.54400 25.59700 21.35300
C  -3.09000 27.00300 21.71100
C  -3.18400 26.95100 23.20500
C  -2.48900 24.55300 20.92500
C  -4.02600 28.12500 21.08100
C  -3.48100 28.71900 19.85800
N  -3.33800 27.06400 26.13700
C  -2.62700 28.03900 25.38600
C  -1.78200 28.77400 26.36900
C  -2.19200 28.36600 27.63700
C  -3.21400 27.36900 27.46600
C  -0.80300 29.84000 26.13100
C  -2.03500 28.51700 29.08300
O  -1.16800 29.19800 29.70200
C  -2.99700 27.65800 29.79500
C  -2.41400 26.80100 30.89200
O  -1.67000 25.87700 30.68700
O  -2.75100 27.28800 32.12000
C  -2.07300 26.83200 33.28600
H  -7.50800 22.78000 27.74400
H  -5.52400 23.90800 21.56500
H  -1.96600 28.66600 23.53900
H  -4.65000 24.98500 30.79500
H  -7.35300 24.27700 29.82600
H  -6.56000 22.11400 30.47100
H  -5.21500 22.75000 30.91000
H  -5.40800 22.19100 29.12500
H  -7.02900 26.52500 30.18800
H  -5.53200 27.27400 30.87500
H  -8.02400 25.97200 32.00800
H  -6.95000 26.83700 32.80800
H  -8.51000 20.50700 25.24000
H  -9.63400 21.84100 25.03800
H  -8.93700 21.68000 26.52400
H  -8.56100 20.16500 23.05400
H  -8.85500 20.58200 21.32100
H  -9.54200 21.51000 22.71700
H  -4.26300 25.65500 20.53500
H  -2.04000 27.11500 21.44200
H  -2.22300 23.94800 21.79200
H  -1.54000 25.00500 20.63800
H  -2.93200 23.93200 20.14600
H  -4.29600 28.93100 21.76300
H  -4.96400 27.62800 20.83500
H  -4.02000 28.45500 18.94800
H  -2.46800 28.35200 19.69300
H  -3.36300 29.79600 19.97800
H  -0.12300 29.48100 25.35800
H  -0.14800 30.10200 26.96200
H  -1.33800 30.72000 25.77400
H  -3.61800 28.33200 30.38400
H  -1.74000 25.79400 33.27200
H  -2.62200 26.99800 34.21400
H  -1.17800 27.45100 33.35500

