158

Mg -2.47200 17.50800 26.79800
C  -2.71100 15.26300 29.45700
C  -3.04900 20.12000 28.99500
C  -2.32400 19.63000 24.12800
C  -2.38900 14.82400 24.56000
N  -3.15500 17.59900 29.01000
C  -2.96800 16.56900 29.95200
C  -3.24900 17.06800 31.31700
C  -3.36800 18.67200 31.14900
C  -3.06700 18.87000 29.63300
C  -4.63100 19.54400 31.62400
C  -2.20300 16.57300 32.41300
C  -1.72200 17.53600 33.60700
H  -1.08300 16.80500 34.80000
N  -2.50000 19.60400 26.63800
C  -2.82300 20.46000 27.63800
C  -2.80400 21.86600 27.12700
C  -2.48600 21.70100 25.72900
C  -2.43700 20.24900 25.40200
C  -3.15500 23.15000 27.97300
C  -2.28900 22.75400 24.71600
O  -1.97600 22.46800 23.59100
C  -2.44300 24.19000 25.09000
N  -2.71300 17.26100 24.56600
C  -2.56400 18.29600 23.66100
C  -2.55500 17.77200 22.18100
C  -2.26300 16.27500 22.44600
C  -2.53800 16.07300 23.91600
C  -3.71200 18.06100 21.22300
C  -0.86200 15.71200 21.99500
C  0.30900 16.33700 22.82700
N  -2.58600 15.43100 26.90800
C  -2.53900 14.47500 25.91400
C  -2.66400 13.17500 26.49900
C  -2.72700 13.42800 27.87100
C  -2.65400 14.76900 28.05100
C  -2.64400 11.84300 25.81500
C  -2.85700 12.83300 29.21600
O  -2.92500 11.63700 29.51900
C  -2.95100 13.95600 30.31100
C  -1.91400 13.69800 31.32900
O  -0.76700 13.94100 31.13000
O  -2.48100 13.07700 32.41100
C  -1.52700 12.27300 33.24500
H  -3.24700 20.92100 29.71100
H  -2.28100 20.25000 23.23000
H  -2.28800 13.95900 23.90100
H  -4.18400 16.67000 31.71200
H  -2.56200 19.06200 31.77100
H  -5.10400 18.99600 32.43900
H  -5.31200 19.72900 30.79300
H  -4.30200 20.50600 32.01800
H  -1.31600 16.39700 31.80400
H  -2.52800 15.64600 32.88600
H  -2.40200 18.34500 33.87400
H  -0.84600 17.99000 33.14400
H  -2.27700 23.79500 27.94800
H  -3.25000 22.87900 29.02500
H  -4.07700 23.64600 27.66900
H  -3.45300 24.45000 25.40800
H  -2.21900 24.70800 24.15700
H  -1.62100 24.38800 25.77900
H  -1.65100 18.07500 21.65300
H  -2.97200 15.68400 21.86600
H  -4.53000 18.56600 21.73600
H  -4.24100 17.22800 20.76100
H  -3.42600 18.55300 20.29400
H  -0.60000 15.99100 20.97400
H  -0.85900 14.62800 22.10700
H  0.54500 17.28600 22.34500
H  1.22600 15.76400 22.95800
H  0.07800 16.76300 23.80400
H  -2.20900 11.82700 24.81500
H  -3.67300 11.49500 25.73000
H  -2.13100 11.05100 26.35900
H  -3.95700 14.04400 30.72100
H  -2.04800 11.47400 33.77200
H  -1.09700 12.91100 34.01800
H  -0.71500 11.80200 32.69100
Mg 47.69600 16.96600 28.76800
C  46.08700 16.33600 31.69100
C  50.08300 18.78300 30.27200
C  49.13100 17.33500 25.67000
C  44.98800 15.42800 27.06000
N  47.99200 17.57700 30.73000
C  47.28900 17.13500 31.83900
C  47.92700 17.64700 33.11000
C  48.99300 18.62200 32.58800
C  49.04800 18.38400 31.10600
C  48.78800 20.19300 33.01300
C  48.51800 16.39900 33.96100
C  48.59600 16.53300 35.49800
H  48.20900 17.92700 36.13400
N  49.37900 17.94900 28.05700
C  50.27500 18.50700 28.87900
C  51.43600 18.95800 28.12200
C  51.09600 18.69100 26.80100
C  49.78600 17.87300 26.78800
C  52.65900 19.70100 28.68600
C  51.91400 19.00700 25.51500
O  51.46200 18.67700 24.42300
C  53.21700 19.66900 25.57200
N  47.16900 16.26900 26.60800
C  47.93300 16.57000 25.52700
C  47.35800 16.05100 24.20800
C  45.94300 15.58400 24.70800
C  45.98700 15.75500 26.19600
C  47.15700 17.17200 23.07300
C  45.69000 14.11000 24.26800
C  44.76400 14.10000 23.03700
N  45.95500 16.00400 29.21500
C  45.00900 15.40900 28.42300
C  43.94100 14.88900 29.27200
C  44.35100 15.09000 30.59400
C  45.56900 15.90900 30.45600
C  42.69000 14.19400 28.86900
C  44.08100 14.97000 31.99900
O  43.14700 14.34100 32.50100
C  45.19100 15.79100 32.76600
C  44.40800 16.79000 33.47400
O  43.67700 17.67500 32.99100
O  44.61200 16.59400 34.87100
C  43.76500 17.53200 35.62200
H  50.87200 19.38000 30.73500
H  49.53300 17.41400 24.65800
H  44.11500 15.08300 26.50000
H  47.14500 18.12900 33.69600
H  49.95400 18.24900 32.94400
H  48.37700 20.76400 32.18100
H  49.76400 20.57500 33.31200
H  48.06000 20.19700 33.82500
H  49.54700 16.24700 33.63400
H  48.10200 15.43400 33.67100
H  49.56100 16.14700 35.82500
H  47.90000 15.83000 35.95700
H  52.89600 20.60600 28.12700
H  53.45900 18.96100 28.70600
H  52.43700 19.93400 29.72800
H  53.28000 20.69100 25.94300
H  53.76400 19.54900 24.63700
H  53.86200 19.01000 26.15500
H  47.89700 15.18800 23.81700
H  45.18000 16.24700 24.29900
H  47.72300 18.09100 23.22400
H  46.12300 17.36700 22.79100
H  47.69600 16.67300 22.26800
H  45.11000 13.56400 25.01200
H  46.59000 13.49600 24.24400
H  44.71200 15.05800 22.52000
H  43.73500 14.06600 23.39400
H  44.88700 13.12800 22.55800
H  42.62900 13.41800 29.63300
H  42.68700 13.80300 27.85200
H  41.82700 14.84500 29.00900
H  45.73100 15.13200 33.44600
H  43.93700 18.54300 35.25300
H  44.11200 17.61800 36.65100
H  42.74400 17.19500 35.79700

