158

Mg 17.92700 -1.78600 27.70700
C  16.92000 0.28700 30.33300
C  19.98200 -3.55500 29.72400
C  18.94000 -3.55700 24.89200
C  16.26100 0.44800 25.60600
N  18.49500 -1.51800 29.74400
C  17.82900 -0.80700 30.70700
C  18.23000 -1.17300 32.14300
C  19.40600 -2.22900 31.88800
C  19.37900 -2.42300 30.35400
C  20.75900 -1.80700 32.32500
C  17.02700 -1.62500 32.97000
C  16.92500 -1.25200 34.46800
H  18.11000 -0.49100 35.02000
N  19.21400 -3.42600 27.37600
C  19.85000 -4.09200 28.43000
C  20.44300 -5.29000 27.86200
C  20.23500 -5.30300 26.43000
C  19.41200 -4.04700 26.18000
C  21.20700 -6.23300 28.68700
C  20.72600 -6.22700 25.28300
O  20.42800 -6.03400 24.09300
C  21.59300 -7.35100 25.58000
N  17.74500 -1.48100 25.52900
C  18.18200 -2.39000 24.61800
C  17.91600 -1.94600 23.12300
C  16.84300 -0.81100 23.43700
C  16.98200 -0.54900 24.93000
C  19.18400 -1.45000 22.41400
C  15.45700 -1.30100 23.15500
C  14.50300 -0.28300 22.47200
N  16.84600 -0.08500 27.92500
C  16.13300 0.65600 27.01700
C  15.40500 1.77600 27.63100
C  15.73000 1.65700 28.97900
C  16.55800 0.51300 29.06600
C  14.58900 2.82300 27.03000
C  15.60800 2.26100 30.30300
O  15.01500 3.29700 30.67400
C  16.32700 1.32200 31.28700
C  17.31800 2.03200 32.11500
O  18.54500 2.18900 31.89900
O  16.64500 2.67000 33.13400
C  17.29400 3.53600 34.19400
H  20.50100 -4.14200 30.48500
H  19.28600 -4.08200 23.99900
H  15.62700 1.11300 25.01500
H  18.71900 -0.35800 32.67800
H  19.13100 -3.21100 32.27200
H  20.76200 -0.81600 32.77900
H  21.41800 -1.71800 31.46200
H  21.19200 -2.46700 33.07700
H  16.95800 -2.71000 32.89100
H  16.08100 -1.36200 32.49600
H  16.74200 -2.16600 35.03200
H  15.98600 -0.72000 34.62400
H  22.25600 -6.30500 28.40000
H  20.72600 -7.20300 28.56100
H  21.20800 -5.98200 29.74800
H  22.04500 -7.77700 24.68500
H  20.87400 -8.05800 25.99400
H  22.27200 -7.27500 26.42900
H  17.47600 -2.75100 22.53300
H  17.10600 0.03000 22.79600
H  19.14700 -2.01100 21.48100
H  20.05900 -1.72000 23.00500
H  19.06500 -0.40600 22.12500
H  14.92000 -1.62100 24.04800
H  15.38400 -2.14300 22.46700
H  14.54300 -0.27600 21.38300
H  14.47800 0.75300 22.81100
H  13.49600 -0.66800 22.62600
H  14.38300 2.50400 26.00900
H  15.19600 3.72700 26.99500
H  13.75300 3.14800 27.65000
H  15.57500 0.79100 31.87000
H  17.13300 4.58400 33.94000
H  18.37700 3.41100 34.17400
H  16.98300 3.32100 35.21700
Mg 34.85400 49.16900 25.11400
C  34.96900 47.46300 28.14300
C  33.27500 51.81700 26.63900
C  34.47600 50.59500 22.02200
C  36.21700 46.28300 23.57700
N  33.97600 49.44800 27.19700
C  34.28800 48.68900 28.34000
C  33.95200 49.46900 29.62400
C  33.26100 50.87200 29.07700
C  33.56600 50.75500 27.53400
C  31.77600 50.87600 29.21600
C  35.21700 49.73200 30.53700
C  34.88900 50.26600 31.96800
H  33.49200 50.13500 32.55200
N  33.98700 50.95800 24.41100
C  33.41100 51.92800 25.23900
C  32.93500 52.91900 24.35000
C  33.16100 52.58700 23.00600
C  33.96600 51.33200 23.10300
C  32.32600 54.09200 25.04700
C  32.73300 53.20200 21.71300
O  32.79600 52.66700 20.62400
C  31.97000 54.62400 21.86600
N  35.42800 48.57000 23.11100
C  35.14000 49.36500 22.02900
C  35.76400 48.70200 20.73100
C  36.42200 47.42400 21.30800
C  35.98900 47.41600 22.77100
C  34.80300 48.42200 19.54100
C  37.97500 47.30300 21.02300
C  38.22700 46.06300 20.22200
N  35.43800 47.28300 25.69700
C  35.90800 46.20300 24.94200
C  36.15400 45.05800 25.84800
C  35.91800 45.55000 27.14700
C  35.38000 46.87800 26.97200
C  36.44500 43.69000 25.40600
C  35.99000 45.28000 28.50300
O  36.30900 44.30500 29.15200
C  35.24200 46.42400 29.21000
C  34.05800 45.92200 29.79100
O  33.10400 45.42300 29.18200
O  34.18100 46.13600 31.14100
C  33.09700 45.64400 31.98300
H  32.87300 52.63200 27.24400
H  34.35300 51.01500 21.02200
H  36.65800 45.42800 23.06100
H  33.24800 48.89500 30.22700
H  33.74800 51.79400 29.39600
H  31.53400 50.06400 29.90100
H  31.13000 50.75600 28.34600
H  31.51400 51.81800 29.69900
H  35.67700 50.54900 29.98000
H  35.98200 48.95600 30.58200
H  35.16000 51.32200 31.99100
H  35.56800 49.84900 32.71200
H  31.27000 54.01000 25.30500
H  32.49500 54.95600 24.40400
H  32.80900 54.36900 25.98400
H  31.72600 54.90000 20.84000
H  32.69600 55.34900 22.23600
H  31.12400 54.45700 22.53300
H  36.61000 49.29200 20.37700
H  35.93300 46.51600 20.95400
H  34.65900 47.35100 19.39800
H  35.29800 48.84700 18.66800
H  33.80500 48.79800 19.76500
H  38.54700 47.24200 21.94900
H  38.42400 48.06200 20.38200
H  38.75100 46.34800 19.30900
H  37.32100 45.58800 19.84700
H  38.95300 45.36600 20.63900
H  36.10300 43.08400 26.24500
H  37.51200 43.58800 25.20800
H  35.85700 43.51200 24.50600
H  36.00200 46.75900 29.91600
H  32.50600 44.79500 31.64200
H  32.31800 46.36400 32.23300
H  33.50700 45.42500 32.96900

