158

Mg 6.34900 53.82700 41.06900
C  5.94900 50.25100 40.80800
C  9.47200 53.35900 39.70200
C  6.42800 57.10500 40.41900
C  3.05600 53.91300 41.82900
N  7.45400 51.96800 40.17100
C  7.16100 50.66900 40.19200
C  8.36600 49.70500 39.83800
C  9.53400 50.70600 39.84700
C  8.77800 52.10600 39.86900
C  10.50200 50.55900 41.08800
C  8.21300 48.94300 38.46800
C  7.90900 49.73200 37.27900
H  6.87600 49.29900 36.26500
N  7.84100 55.16800 40.35600
C  9.09400 54.75700 39.86900
C  9.90100 55.94900 39.82000
C  9.02200 57.06800 39.93300
C  7.69700 56.54300 40.27300
C  11.42800 55.95300 39.52300
C  9.38000 58.51100 39.90500
O  10.52900 58.82600 39.62600
C  8.35100 59.68200 40.06500
N  4.87100 55.26800 40.81100
C  5.11400 56.62200 40.59600
C  3.86100 57.50700 40.91600
C  2.87900 56.37300 41.17300
C  3.69200 55.11300 41.44000
C  4.02400 58.52900 42.05700
C  1.83400 56.09400 40.07600
C  0.45600 56.74000 40.19400
N  4.81800 52.39900 41.45300
C  3.54500 52.60900 41.76500
C  2.84100 51.40400 42.13000
C  3.83300 50.38000 41.80200
C  4.93500 51.08900 41.29600
C  1.47700 51.19900 42.75600
C  4.11000 49.00200 41.79700
O  3.45900 48.02200 42.19500
C  5.49100 48.83600 41.04800
C  5.16600 48.02000 39.91600
O  4.78900 48.38000 38.78200
O  5.39600 46.71900 40.27300
C  4.89800 45.77900 39.31200
H  10.46000 53.23300 39.25500
H  6.31200 58.19100 40.44000
H  2.05800 54.17700 42.18600
H  8.48200 49.02100 40.67900
H  10.19200 50.57900 38.98700
H  10.40100 51.44400 41.71500
H  11.52300 50.51800 40.70700
H  10.20700 49.74200 41.74600
H  7.52000 48.10300 38.51400
H  9.21600 48.52200 38.38300
H  8.82500 49.90100 36.71200
H  7.61100 50.71100 37.65600
H  11.76500 55.00500 39.10400
H  11.97300 56.23000 40.42500
H  11.68100 56.67800 38.74900
H  8.95800 60.56800 39.87700
H  7.87200 59.74600 41.04200
H  7.73100 59.59200 39.17200
H  3.54800 57.94900 39.97000
H  2.35900 56.63700 42.09400
H  3.34600 58.47100 42.90800
H  3.78800 59.46500 41.55100
H  5.05700 58.55600 42.40200
H  1.70700 55.04400 39.81500
H  2.19800 56.51400 39.13900
H  0.44200 57.82400 40.08400
H  0.09400 56.44600 41.18000
H  -0.16500 56.21500 39.46900
H  0.68400 51.80700 42.31900
H  1.47000 51.25100 43.84500
H  1.23300 50.19400 42.41300
H  6.03500 48.23100 41.77400
H  3.88700 46.07100 39.02500
H  4.84600 44.75000 39.66700
H  5.55000 45.75600 38.44000
Mg -9.93100 39.55300 39.97600
C  -9.14400 36.15600 39.42700
C  -6.69200 40.33200 38.86000
C  -10.53600 42.77400 40.37200
C  -13.23100 38.72200 40.46100
N  -8.14800 38.44600 39.30000
C  -8.10600 37.06500 39.12700
C  -6.65400 36.57700 38.80600
C  -5.89200 37.90500 38.94400
C  -6.97100 38.99800 39.05800
C  -4.83600 38.12200 40.16400
C  -6.33800 35.84200 37.41100
C  -6.84400 36.59000 36.15000
H  -8.07000 36.11900 35.37200
N  -8.79600 41.31000 39.65400
C  -7.54900 41.40200 39.12900
C  -7.18900 42.77400 38.91200
C  -8.29000 43.55900 39.40700
C  -9.29900 42.58100 39.83400
C  -5.90500 43.34100 38.32500
C  -8.39500 45.10400 39.51500
O  -7.52900 45.75800 38.99300
C  -9.53500 45.87600 40.15000
N  -11.66700 40.54900 40.43600
C  -11.62300 41.88600 40.60000
C  -13.05800 42.46100 40.77100
C  -13.92700 41.13000 40.88200
C  -12.89900 40.10000 40.50800
C  -13.12400 43.45000 42.03500
C  -15.22900 40.96300 40.06200
C  -16.48000 40.71400 40.88600
N  -11.04200 37.82100 40.03300
C  -12.36900 37.62900 40.33500
C  -12.63100 36.20300 40.24900
C  -11.37900 35.60300 39.94800
C  -10.45400 36.60100 39.82900
C  -14.06400 35.70200 40.44000
C  -10.70900 34.31900 39.66800
O  -11.19400 33.15900 39.58800
C  -9.19600 34.65300 39.25300
C  -8.27400 33.85000 40.15900
O  -8.47700 33.58700 41.28600
O  -7.11400 33.54700 39.58800
C  -5.99700 32.91600 40.34200
H  -5.71000 40.68500 38.53700
H  -10.67100 43.82600 40.63200
H  -14.25100 38.39800 40.67900
H  -6.44800 35.96800 39.68600
H  -5.36800 37.88900 37.98900
H  -3.86100 38.31900 39.71800
H  -4.64700 37.20700 40.72500
H  -5.05500 38.91900 40.87400
H  -6.90200 34.91400 37.50500
H  -5.26500 35.67400 37.32000
H  -5.97600 36.41000 35.51600
H  -6.98000 37.64000 36.40700
H  -6.02200 43.57500 37.26700
H  -5.03100 42.70400 38.45900
H  -5.54800 44.25200 38.80600
H  -9.68800 45.55200 41.17900
H  -10.50100 45.65600 39.69400
H  -9.28800 46.93500 40.22200
H  -13.39800 43.11600 39.96900
H  -14.29500 40.91900 41.88500
H  -12.16500 43.66200 42.51000
H  -13.89300 43.17200 42.75600
H  -13.50600 44.39200 41.64100
H  -15.18900 40.21400 39.27100
H  -15.38900 41.93900 39.60200
H  -16.33300 39.80400 41.46700
H  -17.37900 40.45300 40.32600
H  -16.76000 41.53800 41.54200
H  -14.58800 36.13800 41.29000
H  -13.85500 34.64700 40.61900
H  -14.60200 35.88800 39.51100
H  -9.05400 34.22600 38.26100
H  -5.24300 32.70900 39.58200
H  -6.37300 31.94900 40.67500
H  -5.58600 33.49700 41.16800

