158

Mg 17.25500 -1.67700 27.08700
C  16.24800 0.10600 29.88700
C  19.30900 -3.64500 28.97400
C  18.62300 -2.81900 24.16000
C  15.25400 0.51100 25.13900
N  17.87500 -1.59500 29.18000
C  17.28300 -0.86400 30.16400
C  17.69600 -1.42500 31.60600
C  18.82800 -2.50400 31.27200
C  18.67800 -2.62400 29.72500
C  20.28800 -2.14700 31.80900
C  16.53700 -2.04100 32.43500
C  16.50500 -1.70400 33.94100
H  17.64900 -0.91300 34.64900
N  18.53400 -3.22100 26.61300
C  19.27000 -3.86600 27.56000
C  19.91400 -4.96000 26.81400
C  19.74200 -4.72600 25.41400
C  18.90600 -3.54900 25.36000
C  20.82900 -5.90600 27.53800
C  20.23900 -5.59600 24.30000
O  20.00500 -5.39800 23.09300
C  20.97400 -6.87000 24.55900
N  16.95400 -1.30300 25.01400
C  17.78300 -1.71200 24.04600
C  17.30200 -1.20700 22.64800
C  16.09900 -0.28300 22.99700
C  16.07000 -0.37100 24.47400
C  18.37700 -0.56400 21.85100
C  14.82900 -0.74500 22.27300
C  14.49100 -0.07000 20.96000
N  15.99200 -0.01300 27.43500
C  15.20400 0.72600 26.49500
C  14.56700 1.78500 27.21300
C  14.87500 1.51700 28.59900
C  15.76700 0.44700 28.64300
C  13.69500 2.92700 26.64200
C  14.77200 2.07000 29.99400
O  14.15700 3.01900 30.43100
C  15.58900 1.12800 30.87200
C  16.61100 1.93500 31.54300
O  17.72900 2.26200 31.07200
O  16.07000 2.34700 32.80900
C  16.98700 3.27800 33.56700
H  19.92400 -4.26900 29.62600
H  19.07200 -3.21100 23.24500
H  14.58000 1.16600 24.58400
H  18.09200 -0.66500 32.27800
H  18.60400 -3.45400 31.75500
H  21.02200 -2.39000 31.04100
H  20.68100 -2.62100 32.70800
H  20.25000 -1.08300 32.04200
H  16.47700 -3.12900 32.39800
H  15.57000 -1.60300 32.18500
H  16.23300 -2.55000 34.57200
H  15.64600 -1.04400 34.06000
H  20.45400 -6.92700 27.46900
H  20.70100 -5.66500 28.59400
H  21.87100 -5.89600 27.22200
H  21.78000 -6.68600 25.26900
H  21.47900 -7.20000 23.65100
H  20.31000 -7.62900 24.97400
H  17.03900 -2.15600 22.18100
H  16.39800 0.74400 22.78800
H  18.84900 -1.18700 21.09100
H  19.20000 -0.25400 22.49600
H  17.87400 0.21100 21.27300
H  13.96000 -0.63100 22.92100
H  14.92700 -1.82800 22.19800
H  15.08600 0.84200 20.91700
H  13.43400 0.19000 21.01500
H  14.66600 -0.72900 20.11000
H  13.16800 2.62900 25.73600
H  14.28200 3.83500 26.49700
H  12.93200 3.29600 27.32800
H  14.96500 0.59200 31.58600
H  17.76800 2.67300 34.02700
H  16.37500 3.69800 34.36500
H  17.31100 4.12700 32.96500
Mg -10.00500 40.06300 43.15200
C  -8.69300 37.11500 42.12500
C  -7.87800 41.74100 41.02200
C  -11.91500 42.95400 43.40000
C  -12.67400 38.33500 44.61800
N  -8.60500 39.45400 41.56600
C  -8.09600 38.18900 41.41500
C  -6.98400 38.08800 40.42200
C  -6.66600 39.62500 40.15000
C  -7.72900 40.35700 40.97700
C  -5.18400 40.09700 40.56100
C  -7.49500 37.33800 39.16200
C  -6.65600 36.18600 38.58000
H  -5.56400 36.62000 37.58500
N  -9.80100 42.17000 42.48200
C  -8.78100 42.62900 41.63200
C  -9.01000 44.02900 41.40200
C  -10.20300 44.43400 42.07900
C  -10.72100 43.14400 42.74700
C  -8.21200 44.90200 40.41900
C  -10.83700 45.83700 41.93700
O  -10.25300 46.66700 41.22800
C  -12.06600 46.33000 42.66400
N  -12.02800 40.65600 43.85000
C  -12.53400 41.83100 43.92100
C  -14.02000 41.71700 44.46700
C  -14.20100 40.27100 44.81100
C  -12.87600 39.68000 44.41200
C  -14.30300 42.65900 45.70100
C  -15.39100 39.56600 44.08600
C  -16.23800 38.56000 44.91800
N  -10.49100 38.05600 43.54400
C  -11.58000 37.50700 44.13500
C  -11.42300 36.05200 44.20300
C  -10.16200 35.83000 43.40500
C  -9.75000 37.11700 43.00700
C  -12.39500 35.04300 44.76100
C  -9.24800 34.82200 42.82500
O  -9.25100 33.62700 42.85700
C  -8.11100 35.63900 42.16100
C  -6.89200 35.56900 43.04000
O  -6.52600 36.23100 43.99600
O  -6.28600 34.36300 42.78500
C  -4.98100 34.18400 43.40600
H  -7.07200 42.37200 40.64200
H  -12.59300 43.80800 43.34000
H  -13.45800 37.81300 45.17100
H  -6.14400 37.52200 40.82700
H  -6.81000 39.86500 39.09600
H  -5.32100 40.34900 41.61200
H  -4.76200 40.98300 40.08800
H  -4.50600 39.25200 40.44100
H  -7.61100 38.01500 38.31600
H  -8.47700 36.90700 39.35900
H  -7.14900 35.27100 38.25200
H  -5.98000 35.88100 39.37900
H  -8.72400 45.14800 39.48800
H  -7.29900 44.41100 40.08100
H  -7.79800 45.78100 40.91300
H  -12.28900 47.38400 42.49400
H  -11.89700 46.20400 43.73300
H  -12.92700 45.80700 42.24800
H  -14.59600 42.05100 43.60400
H  -14.25400 40.04100 45.87500
H  -14.85100 42.09500 46.45600
H  -14.97300 43.47700 45.43800
H  -13.40200 43.15300 46.06300
H  -14.98700 39.08600 43.19400
H  -16.11800 40.36300 43.93200
H  -15.59600 38.02900 45.62100
H  -16.75200 37.81700 44.30700
H  -17.06400 39.05600 45.42700
H  -12.30000 34.94300 45.84200
H  -12.40200 34.11900 44.18200
H  -13.42700 35.36900 44.63100
H  -7.96400 35.38700 41.11100
H  -5.03400 33.44300 44.20400
H  -4.61300 35.13600 43.78800
H  -4.39000 33.82500 42.56300

