158

Mg -2.01000 17.17800 26.34500
C  -2.58400 14.71100 28.63600
C  -2.58900 19.71600 28.56500
C  -1.69200 19.48900 23.70100
C  -2.36000 14.65100 23.84300
N  -2.68900 17.20000 28.37500
C  -2.76300 16.01400 29.20600
C  -2.92100 16.48200 30.72100
C  -2.97400 18.07100 30.55300
C  -2.73300 18.36800 29.07300
C  -4.25700 18.75900 31.17300
C  -1.81000 15.89500 31.61200
C  -1.61500 16.69100 32.98100
H  -1.06100 15.92300 34.22200
N  -2.11600 19.30800 26.22000
C  -2.28500 20.13100 27.30100
C  -2.19000 21.51600 26.83300
C  -1.88300 21.47100 25.40200
C  -1.86700 20.02500 25.05600
C  -2.39200 22.81200 27.68100
C  -1.75000 22.60500 24.40300
O  -1.36500 22.43300 23.19600
C  -1.89100 24.08200 24.83100
N  -2.00700 17.06600 24.04500
C  -1.84500 18.15800 23.25700
C  -1.93300 17.75400 21.79500
C  -2.37900 16.24400 21.85000
C  -2.20600 15.95000 23.34000
C  -2.83900 18.78700 20.99700
C  -1.61600 15.27300 20.89700
C  -2.48200 14.42200 19.97600
N  -2.13100 15.09400 26.18400
C  -2.23700 14.17800 25.18600
C  -2.40200 12.86400 25.72400
C  -2.49800 13.01400 27.09800
C  -2.37800 14.35500 27.30300
C  -2.44500 11.63700 24.91400
C  -2.59700 12.25800 28.35600
O  -2.62500 11.06400 28.45500
C  -2.59300 13.34800 29.41000
C  -1.36500 13.07700 30.17900
O  -0.20900 13.40900 29.85100
O  -1.63700 12.32900 31.29500
C  -0.64300 12.14600 32.36300
H  -2.76300 20.56900 29.22400
H  -1.56200 20.15300 22.84400
H  -2.69400 14.01900 23.01800
H  -3.86700 16.04500 31.04000
H  -2.05600 18.48000 30.97300
H  -3.76600 19.53100 31.76600
H  -4.67100 18.08100 31.91900
H  -5.02300 18.99200 30.43400
H  -0.86100 15.86900 31.07700
H  -2.08800 14.86800 31.85000
H  -2.58100 17.07200 33.31100
H  -1.00200 17.57900 32.82800
H  -1.45500 23.36700 27.71900
H  -2.74700 22.71100 28.70700
H  -3.05600 23.40700 27.05400
H  -2.87300 24.28400 25.25800
H  -1.77600 24.74900 23.97700
H  -1.13100 24.34400 25.56800
H  -0.92700 17.69600 21.37900
H  -3.42200 16.19900 21.53600
H  -3.29900 19.56300 21.60900
H  -3.50700 18.29400 20.29200
H  -2.05500 19.28400 20.42500
H  -0.86600 14.63500 21.36600
H  -1.08000 15.99300 20.27800
H  -2.77400 15.05500 19.13800
H  -3.36600 14.01700 20.46700
H  -1.95500 13.59300 19.50300
H  -3.25100 11.83700 24.20800
H  -2.66700 10.81300 25.59200
H  -1.47100 11.43300 24.47000
H  -3.37900 13.26800 30.16000
H  0.14500 12.89800 32.34300
H  -0.18200 11.16700 32.49600
H  -1.27100 12.33700 33.23300
Mg 1.23300 -2.70500 44.18200
C  4.53800 -2.07300 43.54800
C  0.43200 -0.13500 41.97100
C  -1.89800 -3.34200 44.84100
C  2.18400 -5.69900 45.84200
N  2.35700 -1.37300 42.73200
C  3.74000 -1.22100 42.80600
C  4.25000 -0.04700 41.87500
C  2.88700 0.69700 41.62500
C  1.80300 -0.33300 42.11200
C  2.80500 2.02600 42.35500
C  4.96200 -0.59400 40.64400
C  6.09400 0.35500 40.15500
H  6.66800 0.00700 38.73500
N  -0.47600 -1.82100 43.50000
C  -0.60200 -0.83100 42.59800
C  -2.03900 -0.52800 42.46800
C  -2.79000 -1.45200 43.28000
C  -1.72500 -2.24000 43.93800
C  -2.56200 0.49200 41.56400
C  -4.30500 -1.60200 43.41900
O  -4.99100 -0.93000 42.73600
C  -4.96100 -2.40200 44.50200
N  0.29400 -4.43400 45.10900
C  -1.01300 -4.26800 45.41000
C  -1.51000 -5.52800 46.17600
C  -0.23100 -6.49700 46.28600
C  0.81700 -5.50200 45.73800
C  -2.13400 -5.37600 47.53800
C  -0.26900 -7.79000 45.40300
C  -0.37500 -9.05900 46.34500
N  3.06700 -3.69000 44.67500
C  3.30700 -4.79200 45.44400
C  4.67300 -4.88800 45.69900
C  5.26800 -3.74200 45.07700
C  4.18800 -3.08900 44.40200
C  5.47000 -5.94900 46.48100
C  6.45500 -2.96700 44.78200
O  7.56900 -3.14200 45.16500
C  5.99000 -1.91300 43.75800
C  6.41900 -0.61600 44.23300
O  7.44100 -0.06000 43.98800
O  5.57700 -0.07800 45.12700
C  5.82000 1.29300 45.60300
H  0.25300 0.74100 41.34500
H  -2.92300 -3.60200 45.11000
H  2.53000 -6.53200 46.45900
H  4.96100 0.43000 42.54900
H  2.63400 0.93900 40.59300
H  1.88600 2.24700 42.89600
H  3.08200 2.83600 41.68000
H  3.48500 2.01000 43.20700
H  4.23700 -0.74500 39.84400
H  5.40600 -1.58100 40.76900
H  6.87000 0.13600 40.88800
H  5.95300 1.43500 40.18600
H  -2.56600 0.12900 40.53600
H  -1.87500 1.33100 41.67300
H  -3.50500 0.91100 41.91300
H  -4.48000 -2.32400 45.47700
H  -5.10600 -3.44100 44.20300
H  -5.96100 -1.99900 44.65900
H  -2.25000 -6.00300 45.53300
H  0.07900 -6.83200 47.27600
H  -2.23600 -6.35400 48.00800
H  -3.12400 -4.96600 47.33600
H  -1.58900 -4.67000 48.16500
H  0.55500 -7.88100 44.69600
H  -1.19200 -7.75400 44.82400
H  0.60600 -9.53400 46.34800
H  -1.15900 -9.71500 45.96700
H  -0.80400 -8.93500 47.34000
H  5.99600 -5.53000 47.33900
H  6.06200 -6.46000 45.72200
H  4.71000 -6.61600 46.89000
H  6.60800 -2.16800 42.89700
H  5.77800 1.86600 44.67700
H  6.81800 1.56300 45.94700
H  4.98400 1.52900 46.26300

