158

Mg 17.23700 -1.88500 27.60600
C  16.42000 0.01600 30.38100
C  19.02400 -3.99600 29.60100
C  18.32000 -3.34900 24.83000
C  15.66100 0.61000 25.63300
N  17.62500 -2.01500 29.74700
C  17.31500 -1.03100 30.68100
C  17.95300 -1.36400 32.04600
C  18.93800 -2.49600 31.64100
C  18.44600 -2.93600 30.28200
C  20.41700 -2.01700 31.68600
C  16.91400 -1.87800 33.08900
C  17.40300 -1.76800 34.68100
H  18.88400 -1.33000 34.88700
N  18.39200 -3.62100 27.25500
C  18.91600 -4.37300 28.21400
C  19.60600 -5.46300 27.57000
C  19.51100 -5.20800 26.14600
C  18.71400 -4.02700 26.02100
C  20.45900 -6.40300 28.40100
C  20.10100 -6.00000 25.05000
O  19.94300 -5.77800 23.86300
C  20.76000 -7.29000 25.45400
N  17.10100 -1.36500 25.53500
C  17.62600 -2.17200 24.60200
C  17.56300 -1.55000 23.18600
C  16.53600 -0.43300 23.37400
C  16.36900 -0.42500 24.94500
C  18.91800 -1.08700 22.63000
C  15.22400 -0.61700 22.68000
C  14.96900 0.47000 21.63800
N  16.15500 -0.10200 27.91900
C  15.49100 0.81000 27.06100
C  14.75100 1.75000 27.77800
C  15.11800 1.53400 29.14500
C  15.89600 0.33100 29.14900
C  13.90600 2.83000 27.20400
C  14.92200 1.93100 30.49000
O  14.22800 2.86200 30.92200
C  15.88400 1.09900 31.35100
C  16.92800 1.96500 31.87700
O  17.75700 2.55200 31.16700
O  16.99900 1.93600 33.21900
C  17.99200 2.89000 33.79700
H  19.62700 -4.63200 30.25200
H  18.66200 -3.80200 23.89700
H  15.08300 1.34800 25.07300
H  18.40100 -0.46300 32.46700
H  18.86200 -3.40000 32.24600
H  20.53300 -1.04900 32.17400
H  21.05800 -2.10400 30.80900
H  20.87000 -2.74700 32.35600
H  16.66500 -2.89900 32.80100
H  15.99100 -1.30400 33.00500
H  17.26500 -2.70000 35.22900
H  16.78100 -0.95200 35.05000
H  20.24300 -6.26200 29.46000
H  21.53100 -6.27700 28.24700
H  20.07100 -7.38900 28.14700
H  21.68200 -7.10700 26.00700
H  21.01600 -7.82300 24.53800
H  20.07000 -7.98600 25.93100
H  17.16900 -2.30900 22.51000
H  17.04600 0.48800 23.08900
H  19.50800 -0.89400 23.52600
H  18.81800 -0.12200 22.13300
H  19.40100 -1.73400 21.89700
H  14.37100 -0.66600 23.35600
H  15.21800 -1.53300 22.09000
H  14.17400 -0.00700 21.06500
H  15.80100 0.69900 20.97300
H  14.64400 1.40000 22.10500
H  12.90200 2.42100 27.09100
H  14.14000 3.17000 26.19500
H  13.81400 3.67300 27.89000
H  15.27700 0.86500 32.22600
H  18.92900 2.37600 34.00900
H  17.58300 3.19300 34.76000
H  18.19500 3.74700 33.15500
Mg -0.25000 43.36200 25.98200
C  2.01800 42.67700 28.73200
C  -2.73100 41.88600 27.90200
C  -2.18700 43.11300 23.30800
C  2.55800 43.81100 23.92400
N  -0.32100 42.28900 28.06100
C  0.64300 42.46000 29.06600
C  0.03900 42.08100 30.39400
C  -1.44800 41.67200 30.04200
C  -1.54900 41.98100 28.59200
C  -1.90500 40.19700 30.46200
C  0.20400 43.22900 31.42500
C  0.44200 43.03400 32.93600
H  0.40800 41.54800 33.45000
N  -2.35300 42.86600 25.70100
C  -3.13500 42.24900 26.59000
C  -4.51100 42.11900 26.05200
C  -4.33200 42.35500 24.63700
C  -2.95900 42.79100 24.49100
C  -5.56600 41.55000 26.86400
C  -5.28900 42.24500 23.41500
O  -4.92400 42.58300 22.32100
C  -6.64400 41.67500 23.65300
N  0.15800 43.46500 23.90500
C  -0.85100 43.41100 23.00300
C  -0.36300 43.89200 21.61000
C  1.14000 43.93800 21.76800
C  1.32900 43.80600 23.29400
C  -0.90500 43.00200 20.46900
C  1.75500 45.16300 21.03200
C  2.10900 46.43200 21.91900
N  1.85000 43.25300 26.21700
C  2.83400 43.51700 25.24400
C  4.16300 43.47400 25.90600
C  3.84800 43.06700 27.21200
C  2.46500 42.92800 27.36900
C  5.50500 43.76500 25.33200
C  4.49900 42.72600 28.52300
O  5.66300 42.53900 28.85900
C  3.29100 42.60400 29.58300
C  3.55600 41.42500 30.33900
O  3.38800 40.23900 30.04000
O  4.10600 41.87300 31.48700
C  4.60600 40.78400 32.30600
H  -3.49200 41.46800 28.56400
H  -2.85400 43.28900 22.46200
H  3.41500 44.05800 23.29400
H  0.55600 41.19100 30.75200
H  -2.27200 42.26100 30.44500
H  -2.34100 40.28700 31.45700
H  -1.03500 39.54000 30.46800
H  -2.58900 39.88600 29.67300
H  -0.71100 43.82200 31.41100
H  0.98400 43.91600 31.09600
H  -0.35300 43.52100 33.50200
H  1.42800 43.35100 33.27600
H  -6.39900 42.24500 26.75500
H  -5.30500 41.67900 27.91500
H  -5.92700 40.56100 26.58400
H  -6.54000 40.77900 24.26500
H  -7.00900 41.49400 22.64200
H  -7.33200 42.43400 24.02500
H  -0.79200 44.88800 21.49500
H  1.47500 42.99100 21.34500
H  -1.48300 42.24000 20.99100
H  -0.08500 42.53100 19.92700
H  -1.50400 43.39000 19.64500
H  1.10600 45.50300 20.22500
H  2.68700 44.75200 20.64600
H  1.84100 46.34000 22.97100
H  1.93300 47.42200 21.49700
H  3.19900 46.40900 21.94100
H  5.58200 44.83900 25.16300
H  5.53000 43.26100 24.36600
H  6.26500 43.50400 26.06900
H  3.14800 43.50800 30.17600
H  4.21200 40.99600 33.29900
H  5.68900 40.81700 32.42300
H  4.31200 39.77100 32.02900

