158

Mg 24.66700 1.23600 29.86500
C  26.89600 1.33400 32.58900
C  22.10800 1.63100 32.03600
C  22.77500 1.01500 27.20500
C  27.46500 0.74600 27.82100
N  24.55600 1.50600 32.06300
C  25.53700 1.49000 32.98800
C  24.99600 1.66200 34.39900
C  23.45500 1.58000 34.22500
C  23.30100 1.65400 32.68300
C  22.71600 0.33500 34.85500
C  25.36000 2.96200 35.11000
C  26.01200 2.84400 36.53400
H  25.57300 3.79200 37.58900
N  22.73100 1.41400 29.64000
C  21.81500 1.61300 30.64900
C  20.50000 1.71900 30.05000
C  20.68200 1.38700 28.66900
C  22.13600 1.22600 28.48200
C  19.17900 2.02900 30.80800
C  19.60200 1.32200 27.58300
O  19.80800 0.95000 26.45300
C  18.18200 1.68800 27.86000
N  25.12000 0.87000 27.73100
C  24.09400 0.89500 26.90400
C  24.57700 0.84000 25.49900
C  26.14800 0.91700 25.58500
C  26.29700 0.91400 27.10300
C  23.94300 -0.35700 24.62600
C  26.77600 2.18200 24.98800
C  26.58300 3.50400 25.80000
N  26.74300 1.00000 30.07600
C  27.72900 0.80300 29.19300
C  29.04100 0.64200 29.83500
C  28.74500 0.97600 31.14400
C  27.37500 1.09700 31.29100
C  30.38700 0.39500 29.18800
C  29.29800 1.11600 32.50100
O  30.49200 0.98100 32.90300
C  28.06600 1.28500 33.49000
C  27.93900 0.18600 34.49100
O  27.48500 -0.95200 34.37200
O  28.62200 0.51500 35.66100
C  28.73800 -0.41200 36.80200
H  21.17100 1.77600 32.57900
H  22.24300 1.20300 26.27100
H  28.30900 0.69900 27.13000
H  25.29300 0.78200 34.97000
H  22.82700 2.38200 34.61200
H  21.82200 0.57300 35.43300
H  23.39500 -0.06300 35.60900
H  22.51100 -0.43800 34.11500
H  24.52900 3.66600 35.13700
H  26.11400 3.38500 34.44500
H  27.06400 2.96300 36.27400
H  25.78000 1.83000 36.85900
H  18.59400 1.11300 30.72600
H  18.63900 2.80300 30.26200
H  19.24500 2.32000 31.85600
H  17.64600 1.63600 26.91300
H  18.24300 2.71800 28.21000
H  17.71300 0.94700 28.50700
H  24.26300 1.79100 25.07000
H  26.54500 0.03100 25.08900
H  23.23300 -0.90500 25.24600
H  24.65000 -1.17600 24.49200
H  23.58400 -0.08500 23.63400
H  26.31300 2.22500 24.00200
H  27.85000 2.12800 24.80900
H  25.59200 3.80900 25.46300
H  27.30900 4.21700 25.40800
H  26.58400 3.46000 26.88900
H  31.10300 0.60000 29.98300
H  30.52500 1.10700 28.37400
H  30.42500 -0.68200 29.02400
H  28.23900 2.15000 34.13000
H  29.63600 -0.26600 37.40300
H  28.69000 -1.48300 36.60500
H  27.87600 -0.19300 37.43300
Mg 43.34500 41.70500 26.10700
C  42.70100 44.10500 28.47600
C  44.13200 39.52400 28.90900
C  44.37600 39.37900 23.99900
C  43.10900 44.02900 23.61800
N  43.31100 41.81100 28.50000
C  43.00900 42.91500 29.20000
C  43.04900 42.67100 30.67000
C  43.58300 41.16400 30.79100
C  43.70700 40.77600 29.36400
C  44.79200 40.80500 31.74200
C  41.65900 43.04800 31.33300
C  41.02600 42.20000 32.52600
H  40.43200 42.82500 33.79000
N  44.06000 39.70500 26.34700
C  44.29900 39.03200 27.59200
C  44.79900 37.69600 27.19600
C  44.79200 37.54800 25.76900
C  44.39900 38.90600 25.34600
C  45.29500 36.69800 28.20600
C  44.98400 36.26500 24.95200
O  44.93200 36.32500 23.68500
C  45.18300 34.91200 25.52800
N  43.63500 41.76200 24.16500
C  43.96100 40.58900 23.52500
C  43.87300 40.79600 21.94600
C  43.61400 42.31800 21.80600
C  43.39000 42.75500 23.26300
C  45.00700 40.32600 21.08900
C  42.42200 42.67500 20.88300
C  42.69700 42.74800 19.38900
N  43.01400 43.59800 26.06100
C  42.88400 44.47200 24.96000
C  42.43900 45.76600 25.42500
C  42.35300 45.65700 26.76300
C  42.74600 44.35800 27.11900
C  42.08700 46.93300 24.63400
C  41.98400 46.40600 27.99900
O  41.59500 47.51800 28.21700
C  42.32900 45.41200 29.12800
C  43.35600 46.13400 30.03300
O  44.51000 46.40000 29.61700
O  42.79300 46.52800 31.23200
C  43.80300 46.95000 32.25400
H  44.24500 38.86300 29.77000
H  44.82300 38.75600 23.22100
H  42.94700 44.72900 22.79600
H  43.75800 43.38200 31.09300
H  42.84800 40.51800 31.27100
H  45.63900 40.41200 31.18000
H  44.48400 40.07100 32.48700
H  45.17900 41.70800 32.21500
H  40.92900 43.02100 30.52400
H  41.71500 44.05800 31.74000
H  41.60300 41.29800 32.72900
H  40.15300 41.91200 31.94000
H  46.34600 36.54000 27.96500
H  44.81300 35.73000 28.06400
H  45.26900 36.99100 29.25500
H  46.16000 34.94300 26.01200
H  45.24600 34.16600 24.73600
H  44.42000 34.61400 26.24700
H  42.95600 40.27100 21.67700
H  44.49200 42.85800 21.45300
H  44.80200 39.29900 20.78600
H  45.92200 40.52700 21.64700
H  45.15800 40.94500 20.20500
H  41.93600 43.62600 21.10100
H  41.65600 41.90400 20.97200
H  42.63200 43.73500 18.93100
H  42.06300 42.07100 18.81700
H  43.72100 42.37500 19.38200
H  41.88000 47.83200 25.21400
H  41.32000 46.76100 23.87900
H  43.00100 47.15300 24.08200
H  41.33800 45.25700 29.55400
H  44.68300 47.43500 31.83200
H  44.12000 46.13000 32.89900
H  43.30400 47.73900 32.81600

