158

Mg 35.23200 1.39600 29.38500
C  32.97600 2.26200 31.88600
C  37.85400 1.80800 31.52300
C  37.31800 0.99800 26.71500
C  32.56800 1.99500 27.09300
N  35.34500 2.05100 31.38300
C  34.29600 2.18300 32.27300
C  34.79700 2.31800 33.73100
C  36.34000 2.48900 33.46600
C  36.51100 2.03600 32.00200
C  36.91200 3.91500 33.82000
C  34.42500 1.07600 34.56400
C  34.06100 1.32000 36.06700
H  34.50500 2.62700 36.84300
N  37.28400 1.33000 29.17600
C  38.20100 1.49100 30.18000
C  39.55400 1.45300 29.66500
C  39.38100 1.34100 28.28300
C  37.94800 1.23800 27.99000
C  40.76100 1.80300 30.56500
C  40.53800 1.27400 27.22600
O  40.31800 1.16000 26.05800
C  41.99300 1.36900 27.63100
N  34.93400 1.36900 27.22200
C  36.00100 1.20700 26.31900
C  35.48100 1.29000 24.87300
C  33.98900 1.70400 25.00500
C  33.80800 1.72200 26.51000
C  36.28300 2.32900 23.95600
C  33.01400 0.75800 24.31800
C  32.98400 -0.65900 24.92700
N  33.16100 1.81200 29.43300
C  32.23100 2.02900 28.44100
C  30.93100 2.39800 29.03900
C  31.15900 2.40400 30.42400
C  32.53400 2.13800 30.59000
C  29.68300 2.90200 28.35700
C  30.57800 2.77200 31.65300
O  29.45600 3.21500 31.93200
C  31.70000 2.50100 32.71700
C  31.73700 3.83000 33.45900
O  32.07800 4.90500 32.98500
O  31.24300 3.67500 34.68800
C  31.27800 4.94200 35.44000
H  38.66800 1.99900 32.22500
H  38.08000 0.77700 25.96500
H  31.73900 2.40700 26.51400
H  34.37300 3.20200 34.20700
H  36.84000 1.74400 34.08600
H  36.05700 4.59100 33.78400
H  37.64500 4.30500 33.11400
H  37.35500 3.79600 34.80900
H  35.22600 0.33800 34.60500
H  33.49700 0.68500 34.14600
H  34.51000 0.42500 36.49800
H  32.98000 1.19900 36.13800
H  41.40800 2.28900 29.83500
H  41.26400 0.84900 30.72400
H  40.53900 2.19800 31.55600
H  42.24600 0.65300 28.41300
H  42.42100 2.34700 27.85500
H  42.56200 1.00700 26.77500
H  35.71900 0.31400 24.45100
H  33.94400 2.75000 24.70200
H  36.98100 2.00300 23.18500
H  36.94200 2.92400 24.58800
H  35.56900 2.94200 23.40700
H  33.33800 0.52600 23.30300
H  32.01500 1.19400 24.34800
H  32.85900 -1.37100 24.11100
H  31.99800 -0.81400 25.36600
H  33.79600 -0.96800 25.58500
H  29.88200 3.80200 27.77600
H  28.83800 3.16500 28.99300
H  29.42400 2.14200 27.62000
H  31.42100 1.71800 33.42200
H  30.50200 5.58000 35.01600
H  32.27000 5.39300 35.47500
H  31.04600 4.55800 36.43300
Mg 16.37200 51.58100 25.71900
C  18.41700 50.88400 28.41700
C  13.69000 51.53600 28.03200
C  14.21200 51.70000 23.10100
C  18.99500 50.89100 23.59600
N  16.15900 51.28200 27.85800
C  17.14300 51.19200 28.75800
C  16.67900 51.48200 30.19800
C  15.11300 51.19600 30.10300
C  14.98500 51.38100 28.56200
C  14.68600 49.72100 30.45000
C  16.95800 52.94200 30.47600
C  16.89100 53.29400 31.98200
H  16.17700 52.31800 32.94500
N  14.27200 51.69800 25.58000
C  13.34500 51.59800 26.63300
C  12.04300 51.66900 26.09800
C  12.12300 51.70200 24.67600
C  13.58500 51.70500 24.37000
C  10.80800 51.82600 26.87700
C  10.99800 51.64900 23.66100
O  11.23000 51.76500 22.50000
C  9.46700 51.63100 23.99800
N  16.55400 51.31800 23.60200
C  15.53700 51.44800 22.72600
C  16.07800 51.44600 21.22600
C  17.56700 50.84600 21.53300
C  17.76500 51.11700 23.00700
C  15.33200 50.65300 20.13400
C  18.68800 51.34200 20.61400
C  19.03200 52.88100 20.68100
N  18.38800 51.11200 25.89400
C  19.32200 50.88500 24.95700
C  20.57700 50.41900 25.59900
C  20.32600 50.50900 26.99300
C  18.94300 50.84900 27.09800
C  21.78900 49.99700 24.89600
C  20.85000 50.30100 28.27100
O  21.97900 49.90500 28.53900
C  19.64500 50.58500 29.25300
C  19.42700 49.32100 30.05700
O  19.25700 48.19800 29.60600
O  19.46400 49.63700 31.36900
C  19.02600 48.70400 32.36400
H  12.84300 51.51700 28.72000
H  13.61700 51.75800 22.18700
H  19.75400 50.45100 22.94600
H  17.22000 50.79100 30.84400
H  14.52000 51.87000 30.72100
H  15.57100 49.08700 30.50000
H  14.17600 49.28400 29.59100
H  13.98200 49.63400 31.27700
H  16.23000 53.61200 30.01800
H  17.96300 53.14000 30.10200
H  16.45900 54.27700 32.17000
H  17.95500 53.38700 32.19900
H  10.46200 50.79500 26.80300
H  10.15600 52.53100 26.36200
H  11.00400 52.07800 27.91900
H  9.22300 51.16600 24.95300
H  9.01100 51.05700 23.19000
H  9.04600 52.63300 24.07600
H  16.07600 52.50000 20.94700
H  17.46600 49.77300 21.37100
H  14.56700 50.08600 20.66500
H  16.08200 49.97400 19.72900
H  14.96500 51.20000 19.26500
H  18.43500 51.07300 19.58800
H  19.59700 50.77700 20.81900
H  20.08700 52.86000 20.95300
H  18.51600 53.39600 21.49200
H  18.99100 53.35700 19.70100
H  21.90200 50.78600 24.15200
H  21.69600 49.04500 24.37300
H  22.65200 49.76100 25.51800
H  19.78200 51.48200 29.85700
H  18.85500 49.19000 33.32400
H  19.86600 48.01000 32.32500
H  18.12200 48.20100 32.02000

