158

Mg 25.98300 0.86800 29.61100
C  27.98500 0.70200 32.42500
C  23.24500 1.15900 31.65400
C  24.17600 0.93500 26.76800
C  28.79700 0.09000 27.62200
N  25.67500 1.01900 31.84500
C  26.64500 1.03100 32.78200
C  26.15700 1.54300 34.10700
C  24.62000 1.27500 33.97700
C  24.44400 1.26100 32.40300
C  24.01800 0.02000 34.70800
C  26.54400 3.01900 34.50300
C  27.29500 3.11000 35.88000
H  26.59500 3.80100 37.02900
N  23.99900 0.90400 29.27800
C  23.00800 1.03300 30.26900
C  21.76000 1.13200 29.64100
C  22.02900 1.19400 28.23600
C  23.46600 0.98300 28.01300
C  20.40600 1.21000 30.43300
C  20.96300 1.21300 27.10300
O  21.25600 1.04700 25.90500
C  19.54400 1.67400 27.52900
N  26.49900 0.84300 27.39100
C  25.55300 0.74100 26.50200
C  26.15000 0.49300 25.09600
C  27.66000 0.32800 25.38000
C  27.68900 0.46700 26.86900
C  25.42400 -0.65400 24.39400
C  28.73500 1.27100 24.66200
C  29.52700 0.62800 23.49100
N  27.96400 0.42600 29.89900
C  28.96100 0.11300 29.03600
C  30.21600 -0.23500 29.80800
C  29.89300 0.16900 31.08800
C  28.50900 0.39100 31.16000
C  31.60900 -0.59500 29.28700
C  30.42600 0.33400 32.48100
O  31.53800 0.29600 32.93000
C  29.16800 0.71500 33.39500
C  29.01800 -0.21400 34.54000
O  28.68300 -1.38400 34.45500
O  29.36100 0.46300 35.67000
C  29.19700 -0.36700 36.84700
H  22.37700 1.15100 32.31700
H  23.57400 0.87800 25.85900
H  29.63700 -0.03600 26.93600
H  26.54000 0.88600 34.88700
H  23.92400 2.09200 34.16800
H  24.02100 -0.83600 34.03300
H  22.98300 0.07800 35.04700
H  24.66100 -0.04000 35.58600
H  25.69400 3.70000 34.54700
H  27.20800 3.39000 33.72300
H  28.22900 3.65000 35.72400
H  27.62000 2.10300 36.14500
H  19.97000 0.41500 29.82800
H  19.89900 2.17100 30.35800
H  20.48100 0.86200 31.46300
H  19.11200 0.79400 28.00600
H  18.99000 1.87400 26.61200
H  19.72800 2.57000 28.12200
H  26.00900 1.46700 24.62700
H  27.94300 -0.68400 25.09000
H  24.89700 -1.25200 25.13800
H  26.13500 -1.29600 23.87500
H  24.67600 -0.22300 23.72800
H  29.49100 1.51800 25.40700
H  28.24800 2.19100 24.33800
H  29.61400 1.33000 22.66200
H  29.01400 -0.28400 23.18500
H  30.55200 0.38500 23.77000
H  32.27600 -0.07700 29.97600
H  31.80600 -0.37500 28.23800
H  31.72400 -1.67400 29.38900
H  29.28000 1.70100 33.84700
H  28.15100 -0.28200 37.14100
H  29.83500 -0.04300 37.67000
H  29.48600 -1.41600 36.78000
Mg 17.06600 52.19800 26.74200
C  19.17600 50.79100 29.30100
C  14.81800 52.90800 29.24100
C  15.20600 53.48100 24.39800
C  19.25800 50.80900 24.43400
N  17.06200 51.94200 28.98000
C  18.01800 51.42400 29.78300
C  17.61000 51.52600 31.23100
C  16.07600 51.70900 31.11200
C  15.97700 52.24100 29.65600
C  15.41900 50.29700 31.08800
C  18.36000 52.73200 31.90200
C  18.38000 52.66800 33.46600
H  17.39000 51.73500 34.19900
N  15.27800 53.11200 26.77200
C  14.52400 53.36400 27.94700
C  13.41500 54.27600 27.55000
C  13.55700 54.46600 26.12900
C  14.68000 53.63400 25.66900
C  12.32600 54.75800 28.50400
C  12.78000 55.41200 25.28900
O  12.97300 55.39400 24.07800
C  11.75000 56.37000 25.85100
N  17.15800 52.01100 24.67800
C  16.29200 52.73000 23.93600
C  16.83700 52.91300 22.56200
C  18.08400 51.92700 22.52000
C  18.21600 51.58200 23.96200
C  15.81600 52.50200 21.37800
C  19.43600 52.68600 22.13600
C  20.22100 52.22200 20.93900
N  18.78700 50.99500 26.81700
C  19.54700 50.45000 25.78000
C  20.63600 49.60600 26.25300
C  20.58500 49.73100 27.59500
C  19.47200 50.64200 27.87600
C  21.65500 48.88900 25.40000
C  21.23100 49.37600 28.84200
O  22.20000 48.67500 29.11700
C  20.39600 50.16600 29.92600
C  20.01800 49.22200 31.02200
O  19.45300 48.18700 30.79900
O  20.37200 49.60600 32.20700
C  20.25500 48.64000 33.32000
H  14.11800 53.05400 30.06600
H  14.94800 54.01400 23.47900
H  20.03800 50.54600 23.71600
H  17.93800 50.59300 31.69000
H  15.51400 52.40000 31.74100
H  16.16900 49.52100 30.93400
H  14.65800 50.28900 30.30700
H  14.89100 50.25300 32.04000
H  17.93300 53.67300 31.55500
H  19.41200 52.62100 31.64100
H  18.39900 53.68500 33.85800
H  19.38000 52.26300 33.62000
H  12.47200 55.83500 28.42100
H  12.56600 54.40100 29.50600
H  11.38300 54.34800 28.14500
H  11.05800 55.79800 26.46800
H  11.29000 56.94200 25.04500
H  12.07400 57.15200 26.53700
H  17.12500 53.95400 22.42100
H  17.87800 51.05300 21.90200
H  15.19000 51.64400 21.62200
H  16.47300 52.43200 20.51100
H  15.22400 53.40800 21.24900
H  20.18500 52.80800 22.91900
H  19.09100 53.69900 21.92800
H  21.22600 52.11800 21.34800
H  20.23200 52.87400 20.06500
H  19.74900 51.29000 20.62800
H  22.62300 49.10100 25.85300
H  21.61600 49.41800 24.44700
H  21.48300 47.81300 25.37700
H  21.15200 50.88300 30.24700
H  20.12000 47.57400 33.13700
H  19.37700 48.99500 33.85900
H  21.15700 48.65700 33.93200

