158

Mg -12.65700 39.02900 41.64800
C  -11.02900 36.09700 40.77500
C  -10.13700 40.80500 40.02000
C  -14.54300 41.73600 42.02300
C  -15.25800 37.06200 43.06200
N  -10.87700 38.52200 40.48500
C  -10.40700 37.22900 40.25500
C  -9.11800 37.22800 39.46000
C  -8.74200 38.77000 39.33600
C  -9.96200 39.43600 39.99200
C  -7.44000 39.19800 39.93900
C  -9.30600 36.59400 38.05700
C  -8.37400 35.45900 37.58400
H  -7.12400 35.76700 36.57500
N  -12.32200 41.05200 41.24300
C  -11.27700 41.55600 40.48100
C  -11.45400 43.00600 40.45400
C  -12.70100 43.34400 41.14700
C  -13.28200 42.04800 41.48100
C  -10.38400 43.87600 39.74900
C  -13.16800 44.70800 41.44000
O  -12.42600 45.67000 41.38500
C  -14.55300 44.96400 42.08000
N  -14.67700 39.36500 42.42600
C  -15.11200 40.58500 42.51200
C  -16.53400 40.59100 43.32600
C  -16.61700 39.11000 43.82300
C  -15.45000 38.46300 43.10900
C  -16.62400 41.63200 44.50300
C  -17.99800 38.48300 43.52000
C  -18.61000 37.85300 44.81600
N  -13.07800 37.09500 41.90300
C  -14.08400 36.37900 42.48300
C  -13.91600 34.91400 42.50400
C  -12.69600 34.81400 41.82500
C  -12.18000 36.12100 41.52300
C  -14.87100 33.94800 43.08200
C  -11.72100 33.84200 41.43700
O  -11.67400 32.63100 41.62000
C  -10.60500 34.59400 40.70400
C  -9.26500 34.31200 41.35300
O  -8.79600 34.53000 42.48900
O  -8.61000 33.61200 40.36100
C  -7.28500 33.15900 40.77500
H  -9.33300 41.36400 39.53700
H  -15.27800 42.53900 42.10800
H  -15.97700 36.55500 43.70900
H  -8.25000 36.70200 39.85900
H  -8.73500 39.03900 38.28000
H  -6.82200 38.40300 40.35700
H  -7.58400 39.96000 40.70600
H  -6.80900 39.53700 39.11800
H  -9.25500 37.33600 37.26000
H  -10.32800 36.21500 38.05000
H  -9.02800 34.78200 37.03600
H  -8.03500 35.04200 38.53200
H  -10.43300 44.91000 40.09300
H  -10.72200 43.88800 38.71200
H  -9.37000 43.47800 39.75900
H  -15.26700 44.53900 41.37500
H  -14.75200 46.02900 42.19300
H  -14.57500 44.46400 43.04900
H  -17.28700 40.84900 42.58100
H  -16.31500 38.98900 44.86400
H  -17.62900 42.04500 44.42200
H  -15.83000 42.37600 44.45300
H  -16.51200 41.14400 45.47100
H  -17.77300 37.64100 42.86600
H  -18.72500 39.09600 42.98700
H  -18.29100 36.81100 44.83600
H  -19.68000 38.01400 44.94500
H  -18.17100 38.26300 45.72600
H  -15.50400 34.23700 43.92200
H  -14.36700 33.08500 43.51700
H  -15.51500 33.69600 42.24000
H  -10.61000 34.26000 39.66600
H  -7.48400 32.58300 41.67900
H  -6.58100 33.97000 40.96500
H  -6.98800 32.53400 39.93300
Mg -6.59900 25.08300 25.11800
C  -5.08100 26.50600 27.96700
C  -8.29000 22.99200 27.24500
C  -7.54400 23.24900 22.42400
C  -5.03300 27.40100 23.22700
N  -6.51900 24.70100 27.30200
C  -5.93500 25.47900 28.30700
C  -6.46200 25.02600 29.74600
C  -7.15000 23.69700 29.38300
C  -7.34200 23.75500 27.88000
C  -6.36500 22.45300 29.90400
C  -7.62400 26.11200 30.23200
C  -7.37200 26.70600 31.68500
H  -6.85800 25.67600 32.73400
N  -7.72900 23.33200 24.86900
C  -8.46800 22.75400 25.88000
C  -9.33400 21.73100 25.30400
C  -9.03400 21.69700 23.85400
C  -8.04900 22.77600 23.59600
C  -10.17800 20.88000 26.20400
C  -9.67700 20.89700 22.76100
O  -9.45400 21.15300 21.59000
C  -10.74100 19.90000 23.05500
N  -6.54400 25.38900 23.09700
C  -6.94000 24.49200 22.17400
C  -6.38500 24.93400 20.85000
C  -6.04700 26.39000 21.07100
C  -5.81600 26.44400 22.55100
C  -5.24000 24.04600 20.37800
C  -7.09100 27.45700 20.49600
C  -6.46700 28.31500 19.40100
N  -5.33100 26.71800 25.41900
C  -4.75500 27.56200 24.58700
C  -3.94300 28.56900 25.33800
C  -4.06800 28.12800 26.71600
C  -4.93500 26.99100 26.66900
C  -3.20400 29.74300 24.84700
C  -3.66800 28.51100 28.05700
O  -2.89700 29.33000 28.50200
C  -4.34800 27.34100 28.96900
C  -3.31000 26.62800 29.63800
O  -2.42400 25.94000 29.21100
O  -3.21100 27.10200 30.93200
C  -2.29700 26.54700 31.97300
H  -8.97400 22.45800 27.90800
H  -7.89300 22.78100 21.50100
H  -4.58000 28.09600 22.51700
H  -5.66600 24.92000 30.48300
H  -8.11300 23.56600 29.87600
H  -5.41000 22.70100 30.36700
H  -6.16500 21.78000 29.07100
H  -7.02900 21.90600 30.57300
H  -8.60900 25.64700 30.28500
H  -7.69200 26.96400 29.55500
H  -8.27100 27.07600 32.17700
H  -6.81700 27.64200 31.62200
H  -10.95700 20.36800 25.63800
H  -10.67100 21.43800 27.00000
H  -9.42500 20.24400 26.66800
H  -10.38300 19.16200 23.77300
H  -11.12000 19.47500 22.12700
H  -11.56800 20.52500 23.39200
H  -6.94700 24.84100 19.92100
H  -5.07200 26.57200 20.61800
H  -4.53300 24.69000 19.85400
H  -5.58600 23.40600 19.56700
H  -4.63900 23.51100 21.11300
H  -7.34400 28.14200 21.30500
H  -8.03700 27.01900 20.17900
H  -6.82900 28.05700 18.40600
H  -5.37800 28.34000 19.35600
H  -6.71400 29.37500 19.46000
H  -3.64600 29.98500 23.88000
H  -2.14500 29.48700 24.84900
H  -3.29100 30.59000 25.52700
H  -4.89600 27.76800 29.80900
H  -1.31000 26.48200 31.51400
H  -2.72500 25.60600 32.32000
H  -2.20600 27.27400 32.78000

