158

Mg 24.45900 -7.57800 46.11500
C  26.63500 -5.12700 44.66500
C  21.95100 -6.27400 44.24500
C  22.76300 -10.36600 46.68000
C  27.42300 -9.02400 47.45400
N  24.38600 -5.88600 44.61200
C  25.36200 -5.01700 44.22400
C  24.82600 -4.06200 43.12400
C  23.24800 -4.34100 43.27600
C  23.13000 -5.51500 44.18900
C  22.49400 -3.08800 43.84500
C  25.46300 -4.24800 41.72900
C  26.04500 -3.01800 40.95900
H  25.57800 -2.98800 39.43900
N  22.54500 -8.19300 45.67800
C  21.66200 -7.48200 44.83100
C  20.46700 -8.26000 44.77000
C  20.61900 -9.44500 45.50500
C  22.00400 -9.35800 45.96500
C  19.27600 -7.85800 43.91500
C  19.49600 -10.47400 45.77900
O  18.33800 -10.35300 45.33400
C  19.77600 -11.64900 46.67800
N  24.96900 -9.40200 47.08500
C  24.07100 -10.43700 47.08300
C  24.73500 -11.70600 47.59100
C  26.24000 -11.30800 47.90800
C  26.28700 -9.76500 47.56300
C  24.04900 -12.34900 48.84200
C  27.33700 -12.12100 47.07000
C  28.61700 -12.44600 47.81700
N  26.57300 -7.03000 46.36400
C  27.62400 -7.77700 46.82900
C  28.84900 -7.01400 46.72200
C  28.52200 -5.91500 45.93300
C  27.15400 -6.04300 45.62100
C  30.15300 -7.45000 47.27700
C  28.98200 -4.74200 45.24500
O  30.07300 -4.14200 45.19200
C  27.75500 -4.19700 44.34900
C  27.41400 -2.71300 44.54700
O  27.41500 -1.86300 43.69100
O  27.15200 -2.46100 45.88200
C  26.63300 -1.14200 46.16100
H  21.15300 -5.78500 43.68300
H  22.30500 -11.35600 46.73900
H  28.27700 -9.54600 47.89000
H  25.06000 -3.05000 43.45300
H  22.78300 -4.58500 42.32100
H  21.77000 -3.50400 44.54600
H  21.91300 -2.67600 43.02000
H  23.15500 -2.35700 44.30900
H  24.79800 -4.87800 41.13800
H  26.30500 -4.91400 41.91900
H  27.12600 -3.03100 41.09600
H  25.71500 -2.09500 41.43500
H  18.39400 -8.06900 44.52000
H  19.23800 -8.55700 43.08000
H  19.38500 -6.84700 43.52400
H  20.37300 -11.37700 47.54800
H  20.35500 -12.42500 46.17800
H  18.79500 -11.99600 47.00100
H  24.70200 -12.39600 46.74800
H  26.53700 -11.46300 48.94500
H  22.98600 -12.11200 48.88800
H  24.43600 -11.88100 49.74800
H  24.34800 -13.39400 48.76800
H  27.68400 -11.54300 46.21300
H  26.88200 -13.00500 46.62200
H  29.38700 -11.79600 47.40100
H  28.97000 -13.46500 47.66200
H  28.36700 -12.23500 48.85700
H  30.67300 -8.18600 46.66300
H  29.95700 -7.86000 48.26800
H  30.81200 -6.59000 47.40200
H  27.89500 -4.20000 43.26800
H  25.81800 -0.87400 45.48800
H  27.38800 -0.36300 46.05500
H  26.25000 -1.22000 47.17800
Mg 41.43900 42.29900 27.20200
C  40.31600 44.23100 29.81800
C  42.50300 39.93900 29.57500
C  42.77500 40.29700 24.76300
C  40.50200 44.63200 24.92800
N  41.31000 42.07300 29.46300
C  40.79800 43.00700 30.29600
C  40.83700 42.52900 31.79900
C  41.62400 41.18500 31.60500
C  41.85100 41.02600 30.11600
C  42.86500 40.97300 32.47800
C  39.44100 42.46800 32.48400
C  39.39500 41.81400 33.85700
H  39.30200 42.76100 35.06900
N  42.47700 40.41300 27.12100
C  42.74500 39.58100 28.21500
C  43.52900 38.46300 27.75800
C  43.52400 38.53000 26.34900
C  42.91000 39.79600 26.02600
C  43.94900 37.29500 28.70700
C  43.95800 37.39700 25.30900
O  43.83500 37.46500 24.08600
C  44.39900 36.14500 25.94300
N  41.58800 42.37400 25.09800
C  42.20700 41.48000 24.30300
C  42.18200 41.96500 22.85200
C  41.36700 43.32100 22.91700
C  41.09800 43.47700 24.41300
C  43.50600 42.05300 22.03100
C  40.11200 43.29800 21.95600
C  38.93700 42.55700 22.44200
N  40.58500 44.13600 27.25600
C  40.22900 44.99400 26.27100
C  39.64900 46.17400 26.82900
C  39.60500 45.95400 28.21300
C  40.22200 44.67600 28.43000
C  39.10800 47.34100 26.13300
C  39.19800 46.46800 29.51500
O  38.56200 47.44300 29.79600
C  39.60700 45.32600 30.51800
C  40.20800 45.94100 31.70700
O  41.42200 46.11300 31.80900
O  39.22800 46.26200 32.63900
C  39.71000 47.03500 33.80600
H  42.89800 39.18400 30.25700
H  43.46800 39.78600 24.09200
H  40.10900 45.37800 24.23300
H  41.48000 43.23200 32.32800
H  40.92400 40.38800 31.85500
H  43.69500 41.05800 31.77700
H  42.85300 39.99200 32.95200
H  42.96800 41.82800 33.14600
H  38.76300 41.91400 31.83500
H  39.10000 43.49800 32.58800
H  40.21000 41.11000 34.02400
H  38.50100 41.19600 33.92500
H  44.02900 37.66400 29.73000
H  44.96500 36.96100 28.49400
H  43.31900 36.40800 28.77100
H  43.51600 35.78300 26.47000
H  45.28400 36.41600 26.51900
H  44.70200 35.35800 25.25300
H  41.65000 41.15700 22.34900
H  41.99500 44.16900 22.64400
H  43.60300 41.37600 21.18200
H  44.28700 41.76000 22.73400
H  43.70100 43.04700 21.62900
H  40.24400 42.99400 20.91700
H  39.93100 44.36500 21.82300
H  38.18000 43.25700 22.79400
H  39.09900 41.90600 23.30200
H  38.51100 42.00600 21.60400
H  39.98500 47.82700 25.70500
H  38.62800 48.05500 26.80200
H  38.43700 47.17700 25.28900
H  38.60300 45.01400 30.80600
H  38.94100 47.69700 34.20300
H  40.52900 47.66600 33.46000
H  40.02400 46.45800 34.67500

