158

Mg 0.94800 8.79500 26.73700
C  1.41700 10.73300 29.46200
C  1.28900 6.02900 28.64200
C  0.77300 7.02800 23.90200
C  0.59400 11.76700 24.84000
N  1.46400 8.43300 28.86100
C  1.42900 9.39800 29.82300
C  1.26300 8.81200 31.24300
C  1.62400 7.28800 30.87200
C  1.41800 7.21000 29.37400
C  2.97100 6.72600 31.51600
C  -0.08900 9.08400 31.85700
C  -0.23100 9.22200 33.35300
H  0.94300 8.74500 34.26200
N  1.02700 6.79600 26.32900
C  1.15100 5.81500 27.27700
C  1.22200 4.54700 26.64700
C  1.10400 4.78100 25.20700
C  0.93800 6.21800 25.07900
C  1.26000 3.22500 27.46000
C  0.90600 3.80200 23.98900
O  0.74100 4.13200 22.81500
C  1.13200 2.31000 24.23700
N  0.66400 9.36300 24.72800
C  0.64000 8.40900 23.72600
C  0.48300 8.97800 22.30200
C  0.22800 10.47600 22.62200
C  0.49100 10.56900 24.15800
C  1.68900 8.72500 21.39400
C  -1.22100 10.98800 22.24900
C  -1.34000 12.06200 21.17000
N  1.13100 10.79700 27.04000
C  0.95600 11.90500 26.19800
C  1.16100 13.13600 26.97000
C  1.35700 12.70300 28.25600
C  1.31200 11.31700 28.23600
C  1.11300 14.56100 26.42300
C  1.64900 13.11000 29.53100
O  1.95500 14.18700 29.93700
C  1.40100 11.86000 30.45100
C  2.46700 11.83100 31.49900
O  3.61700 11.51900 31.24400
O  1.90100 12.06300 32.69600
C  2.76800 11.94200 33.90700
H  1.44000 5.14000 29.25900
H  0.73600 6.65300 22.87800
H  0.56400 12.68200 24.24600
H  2.13600 9.12900 31.81400
H  0.82500 6.69600 31.31800
H  2.70100 5.88900 32.16100
H  3.53500 7.53600 31.97800
H  3.60200 6.35700 30.70700
H  -0.84000 8.34300 31.58300
H  -0.53100 9.95400 31.37100
H  -1.13300 8.69400 33.66500
H  -0.52300 10.23600 33.62600
H  1.27600 2.34400 26.82000
H  0.34700 3.21700 28.05500
H  2.14500 3.27700 28.09500
H  0.23600 1.89000 24.69300
H  2.06400 2.30800 24.80200
H  1.27000 1.76200 23.30500
H  -0.39300 8.50600 21.85600
H  0.97000 11.07500 22.09500
H  2.59400 8.45100 21.93700
H  1.92200 9.60100 20.78900
H  1.42100 7.88900 20.74800
H  -1.71900 11.24200 23.18500
H  -1.83100 10.17600 21.85200
H  -0.61600 11.86900 20.37800
H  -1.11900 12.96200 21.74400
H  -2.31300 12.19000 20.69600
H  1.90500 14.65600 25.67900
H  1.01000 15.36400 27.15300
H  0.11600 14.60200 25.98600
H  0.50200 12.00200 31.05100
H  3.15400 12.96100 33.92500
H  3.53700 11.17300 33.83100
H  2.17300 11.73500 34.79600
Mg 25.86300 1.77100 29.22600
C  27.81100 1.55200 32.18600
C  23.17300 2.21700 31.14600
C  24.18400 1.89700 26.37700
C  28.86200 0.73700 27.43400
N  25.60500 2.07300 31.41600
C  26.48300 1.91100 32.42100
C  25.84700 2.20700 33.83700
C  24.35100 2.29000 33.46500
C  24.31400 2.21700 31.87600
C  23.56500 1.14700 34.10400
C  26.42500 3.44900 34.57800
C  26.95400 3.28700 36.01900
H  26.65300 4.39000 37.13400
N  23.89900 1.96200 28.87800
C  22.91500 2.09200 29.80400
C  21.62800 2.17600 29.08500
C  21.90400 2.27900 27.66900
C  23.38800 2.00900 27.58000
C  20.33100 2.35300 29.84700
C  21.00500 2.60000 26.57500
O  21.37200 2.56100 25.38900
C  19.55400 2.95500 26.81400
N  26.43600 1.39200 27.23000
C  25.52000 1.57400 26.21700
C  26.13100 1.26100 24.81600
C  27.50500 0.63200 25.14200
C  27.63600 0.93600 26.67100
C  25.19800 0.27900 23.96500
C  28.71700 1.25000 24.37800
C  29.10500 2.69900 24.69600
N  27.87700 1.24200 29.65100
C  28.98700 0.91300 28.88300
C  30.19100 0.74300 29.69400
C  29.73100 0.98600 30.98000
C  28.32100 1.27900 30.89500
C  31.53400 0.40200 29.15100
C  30.17000 1.14500 32.29500
O  31.26600 1.07600 32.83600
C  28.90200 1.49600 33.19900
C  28.79800 0.52500 34.31500
O  28.48400 -0.67300 34.19000
O  29.28100 1.07400 35.51000
C  29.61600 0.17600 36.65900
H  22.25400 2.44600 31.69000
H  23.78300 2.07000 25.37600
H  29.76100 0.47600 26.87100
H  26.12000 1.31300 34.39800
H  23.95400 3.26700 33.74200
H  23.30400 0.38500 33.37100
H  22.67000 1.43300 34.65600
H  24.17300 0.48500 34.72100
H  25.77900 4.32600 34.54500
H  27.36200 3.67400 34.06800
H  28.03900 3.17900 36.02200
H  26.63000 2.27700 36.27000
H  20.42500 2.11900 30.90700
H  19.53300 1.69000 29.51200
H  20.19500 3.42400 29.70000
H  18.99600 2.06800 27.11400
H  19.14000 3.35600 25.88900
H  19.48100 3.71700 27.59000
H  26.29100 2.17100 24.23700
H  27.51300 -0.45500 25.07200
H  24.27900 0.00400 24.48200
H  25.72000 -0.63300 23.67600
H  24.79200 0.87100 23.14400
H  28.47400 1.22100 23.31600
H  29.63900 0.70200 24.57300
H  29.98900 2.51900 25.30700
H  28.35700 3.31500 25.19700
H  29.53500 3.22800 23.84600
H  32.06700 1.27500 28.77500
H  31.33700 -0.23500 28.28900
H  32.11800 -0.13700 29.89700
H  29.02900 2.53000 33.52000
H  30.42600 0.56500 37.27500
H  29.94800 -0.84400 36.46300
H  28.75500 -0.04800 37.28900

