158

Mg 7.02500 53.92100 40.30900
C  6.63900 50.37100 39.94600
C  10.38800 53.41700 39.86700
C  7.17800 57.10900 39.53900
C  3.51800 54.06300 40.26400
N  8.32700 52.06300 39.76400
C  7.94500 50.77300 39.70200
C  9.17400 49.87900 39.63000
C  10.34400 50.85900 40.05600
C  9.67500 52.18500 39.95200
C  11.05400 50.57900 41.43800
C  9.41900 49.25300 38.17700
C  9.24700 50.34000 36.95100
H  7.98200 50.21500 36.06100
N  8.61900 55.12600 39.91100
C  9.92000 54.75500 39.84000
C  10.72100 55.89100 39.58600
C  9.83900 57.00400 39.36900
C  8.46700 56.49100 39.60500
C  12.16200 55.86600 39.64700
C  10.20200 58.45500 39.00800
O  11.40400 58.80200 39.04100
C  9.17000 59.49700 38.68500
N  5.57400 55.36000 39.81500
C  5.91700 56.66600 39.73900
C  4.68300 57.52400 39.54200
C  3.45700 56.53300 39.70500
C  4.20100 55.23700 39.93700
C  4.54600 58.77200 40.46800
C  2.39700 56.59200 38.45000
C  0.87500 56.59800 38.85500
N  5.43100 52.55600 40.25600
C  4.10800 52.78900 40.43000
C  3.32600 51.52400 40.61800
C  4.29100 50.54200 40.51900
C  5.57100 51.23700 40.18000
C  1.75500 51.37200 40.78300
C  4.60500 49.11700 40.53500
O  3.91400 48.16800 40.88400
C  6.14400 48.93800 40.16900
C  6.11200 48.16500 38.97600
O  5.77400 48.58200 37.87300
O  6.51200 46.83800 39.24000
C  6.16900 45.88300 38.18000
H  11.47300 53.29700 39.87400
H  7.17400 58.19200 39.39800
H  2.42700 54.09600 40.23000
H  9.11200 48.97900 40.24300
H  11.02800 50.83100 39.20800
H  10.75200 51.21800 42.26900
H  12.13500 50.71500 41.45900
H  10.73500 49.58600 41.75400
H  8.69900 48.50500 37.84400
H  10.44600 48.92400 38.02500
H  10.19900 50.28900 36.42300
H  9.29500 51.34600 37.36900
H  12.59100 56.72600 39.13300
H  12.56800 54.93700 39.24700
H  12.57300 55.81300 40.65500
H  9.72100 60.31900 38.22900
H  8.47700 59.81200 39.46600
H  8.56600 59.05700 37.89200
H  4.74200 57.89000 38.51700
H  2.97700 56.72300 40.66500
H  3.65600 58.77700 41.09700
H  4.44700 59.69300 39.89300
H  5.39200 58.92700 41.13700
H  2.65900 55.77500 37.77700
H  2.53400 57.41200 37.74500
H  0.32800 55.93700 38.18300
H  0.53800 57.63400 38.88600
H  0.74600 56.14800 39.83900
H  1.21300 51.67600 39.88700
H  1.27600 52.01300 41.52400
H  1.46200 50.34200 40.98700
H  6.70600 48.41200 40.94100
H  5.10800 45.84200 37.93700
H  6.36000 44.87000 38.53200
H  6.70500 46.13400 37.26400
Mg -10.20500 17.17300 40.93800
C  -6.57500 16.80600 41.22700
C  -9.59500 20.51900 40.55300
C  -13.38800 17.43300 40.77500
C  -10.51500 13.64400 41.20100
N  -8.21900 18.45300 40.75200
C  -7.00200 18.14900 41.07900
C  -6.09700 19.44100 40.95500
C  -7.11600 20.54600 41.28800
C  -8.41100 19.79100 40.86100
C  -7.07400 20.93600 42.83800
C  -5.60700 19.62700 39.38400
C  -4.14900 19.33000 39.09100
H  -3.74300 18.42300 37.89200
N  -11.30700 18.75000 40.52600
C  -10.91900 20.06600 40.39700
C  -12.08800 20.92200 40.12200
C  -13.24100 20.03700 40.26700
C  -12.70500 18.69700 40.58100
C  -12.10200 22.34800 39.81300
C  -14.68200 20.39200 40.05100
O  -15.04500 21.53300 39.82700
C  -15.80200 19.41300 40.02700
N  -11.73000 15.71400 41.04900
C  -12.97000 16.13000 41.03800
C  -14.02600 14.95000 41.17900
C  -13.04600 13.69200 41.07700
C  -11.67900 14.36900 41.15400
C  -14.98800 14.85200 42.43300
C  -13.11000 12.80100 39.81700
C  -13.04600 11.33700 39.99000
N  -8.91500 15.52600 41.06300
C  -9.20100 14.21600 41.22400
C  -7.88500 13.50700 41.40400
C  -6.86400 14.46900 41.51400
C  -7.50900 15.68600 41.23900
C  -7.69600 12.01800 41.53400
C  -5.44600 14.73300 41.80200
O  -4.51000 13.95800 42.06500
C  -5.28300 16.23000 41.53100
C  -4.48400 16.81700 42.67100
O  -3.39600 17.25300 42.60300
O  -5.21200 16.73100 43.88800
C  -4.48000 16.92300 45.11600
H  -9.53700 21.60100 40.68300
H  -14.47200 17.39800 40.90000
H  -10.56600 12.55900 41.31500
H  -5.19700 19.50900 41.56500
H  -6.80400 21.38100 40.66100
H  -6.16000 20.63200 43.34700
H  -7.84500 20.31000 43.28900
H  -7.37300 21.95700 43.07700
H  -5.88200 20.60500 38.98800
H  -6.21700 18.97900 38.75600
H  -3.56700 19.06300 39.97300
H  -3.76100 20.31100 38.81500
H  -12.56900 22.96900 40.57700
H  -12.67200 22.42800 38.88700
H  -11.08500 22.70600 39.65400
H  -15.65600 18.94400 39.05400
H  -16.70700 19.94900 39.74200
H  -15.76000 18.84400 40.95600
H  -14.79200 14.97200 40.40400
H  -13.13600 13.06400 41.96300
H  -15.99800 15.16900 42.17300
H  -14.57400 15.44500 43.24900
H  -15.25600 13.82800 42.69300
H  -12.28400 13.04800 39.14900
H  -14.05300 13.06800 39.34200
H  -12.14200 10.91300 39.55300
H  -13.86200 10.94000 39.38500
H  -13.00000 10.98500 41.02100
H  -7.81400 11.56100 40.55200
H  -8.59200 11.75200 42.09600
H  -6.73700 11.90800 42.04000
H  -4.64000 16.26200 40.65200
H  -5.01100 16.42900 45.93000
H  -4.36300 18.00600 45.16500
H  -3.52200 16.41300 45.01700

