158

Mg 36.32900 49.30200 26.43900
C  36.34700 46.94700 29.03800
C  35.47300 51.74300 28.62900
C  35.98300 51.34500 23.84600
C  36.85900 46.62800 24.19700
N  36.07600 49.37900 28.62400
C  36.12800 48.30300 29.47300
C  35.88000 48.73400 30.87700
C  35.48500 50.18600 30.63000
C  35.60100 50.49000 29.20300
C  34.17800 50.51700 31.26300
C  37.09700 48.61100 31.88800
C  36.63000 48.26400 33.33700
H  36.64100 49.39600 34.39700
N  35.77100 51.25000 26.29900
C  35.45600 52.13600 27.29000
C  35.35600 53.47000 26.75300
C  35.63100 53.46000 25.35500
C  35.83600 51.96900 25.14000
C  35.14500 54.56300 27.72300
C  35.60200 54.62200 24.38100
O  36.03800 54.39300 23.25100
C  35.37900 56.10400 24.76500
N  36.31600 48.95800 24.29000
C  36.08600 50.01700 23.45800
C  36.34300 49.64900 21.92400
C  37.03700 48.22600 22.16500
C  36.71800 47.91300 23.62500
C  35.16400 49.59200 20.91000
C  38.57300 48.09700 21.71000
C  38.90800 47.37800 20.39900
N  36.58500 47.22100 26.50500
C  36.85700 46.25900 25.53000
C  37.23600 45.09000 26.21600
C  36.98000 45.26400 27.57600
C  36.55600 46.59900 27.72100
C  37.85900 43.90700 25.54400
C  36.98900 44.61800 28.88100
O  37.38100 43.48300 29.17200
C  36.50600 45.64500 29.92700
C  35.23500 45.25100 30.65800
O  34.21900 44.85500 30.10400
O  35.40300 45.60400 31.96500
C  34.36900 45.09300 32.82400
H  35.18100 52.59200 29.25000
H  35.91300 52.03800 23.00500
H  37.11000 45.79100 23.54200
H  34.98800 48.22900 31.24800
H  36.24700 50.89300 30.95800
H  33.30200 50.20600 30.69300
H  33.96900 51.58700 31.28800
H  34.24500 50.25700 32.31900
H  37.55300 49.58300 32.07600
H  37.87900 47.89000 31.65000
H  37.14700 47.35400 33.64200
H  35.56500 48.03200 33.33600
H  36.07800 54.74400 28.25800
H  34.43300 54.22400 28.47600
H  34.78800 55.51600 27.33400
H  36.22000 56.66000 25.18100
H  34.53500 56.12100 25.45500
H  34.93200 56.57300 23.88900
H  37.08000 50.30100 21.45700
H  36.48600 47.44900 21.63500
H  35.07200 48.68600 20.31200
H  35.21500 50.39800 20.17800
H  34.30200 49.65100 21.57500
H  39.15500 47.69200 22.53700
H  39.01300 49.09000 21.61200
H  38.06200 47.43200 19.71400
H  39.11100 46.33300 20.63300
H  39.79900 47.91300 20.07000
H  38.86200 44.30700 25.39200
H  37.41900 43.62200 24.58900
H  37.85200 43.00500 26.15600
H  37.27300 45.87600 30.66600
H  34.61600 44.04400 32.98900
H  33.43500 45.23100 32.28000
H  34.37800 45.63000 33.77300
Mg 1.33700 42.64700 24.84300
C  2.33400 42.79200 28.25300
C  -1.54700 41.27000 25.90800
C  0.58700 42.20300 21.65700
C  4.57600 43.56300 23.98300
N  0.43500 42.28600 26.86400
C  0.99200 42.45800 28.12000
C  -0.00200 42.22000 29.19500
C  -1.24500 41.51000 28.44100
C  -0.75600 41.66400 26.97100
C  -1.40300 40.07800 28.81800
C  -0.38200 43.46600 30.11300
C  -0.07600 43.21900 31.64000
H  -0.63400 41.92100 32.26400
N  -0.32700 41.99300 23.93900
C  -1.40900 41.46900 24.53600
C  -2.47700 41.15300 23.49600
C  -1.80000 41.48600 22.24900
C  -0.42200 41.93000 22.60800
C  -3.94300 40.70700 23.81400
C  -2.33100 41.24400 20.89700
O  -1.67600 41.42500 19.87600
C  -3.68200 40.72000 20.72900
N  2.45100 42.71700 23.08300
C  1.86900 42.54200 21.91300
C  2.91000 42.68900 20.75700
C  4.06600 43.40600 21.51100
C  3.69000 43.22400 22.99100
C  3.30000 41.34100 20.08100
C  4.40400 44.85400 20.96700
C  3.23700 45.87700 21.14900
N  3.08900 43.06500 25.85800
C  4.29800 43.51100 25.34200
C  5.27400 43.72000 26.38700
C  4.52500 43.49100 27.58600
C  3.20600 43.06800 27.17300
C  6.66900 44.09200 26.27200
C  4.59200 43.44200 28.99300
O  5.45400 43.73500 29.79300
C  3.14300 42.87900 29.51800
C  3.49200 41.65300 30.26300
O  3.85600 40.62700 29.71900
O  3.49300 41.85600 31.63300
C  3.83200 40.68800 32.40400
H  -2.51700 40.81700 26.12400
H  0.41600 42.14400 20.58000
H  5.47800 44.01000 23.55900
H  0.51900 41.46200 29.78000
H  -2.12100 42.13600 28.60900
H  -2.46800 39.92200 28.98900
H  -0.74700 39.83400 29.65400
H  -0.93800 39.50800 28.01300
H  -1.41300 43.67800 29.83000
H  0.14300 44.35500 29.76200
H  -0.70800 43.97300 32.10900
H  0.98100 43.36500 31.86500
H  -4.05700 39.62300 23.81300
H  -4.73300 41.18900 23.23700
H  -4.12200 41.05000 24.83300
H  -3.96400 39.80100 21.24300
H  -3.87100 40.49500 19.67900
H  -4.34900 41.52400 21.03800
H  2.49400 43.30800 19.96200
H  5.02100 42.88300 21.47600
H  2.64300 40.48300 20.22600
H  4.30200 41.05000 20.39700
H  3.44400 41.54800 19.02100
H  4.54700 44.71600 19.89500
H  5.25800 45.33200 21.44700
H  2.43800 45.48300 21.77800
H  2.87400 46.26000 20.19500
H  3.62300 46.72200 21.71900
H  7.15800 43.69600 25.38100
H  7.22100 43.81300 27.16900
H  6.73600 45.18000 26.26900
H  2.66800 43.60300 30.18000
H  3.27800 39.86300 31.95500
H  3.67600 40.73900 33.48100
H  4.90500 40.51400 32.31700

