158

Mg 16.66700 52.12100 26.39700
C  18.39400 50.64300 28.88300
C  14.26400 52.96700 28.69000
C  14.90500 53.39800 23.89200
C  19.07800 51.09900 24.09400
N  16.30700 51.62400 28.64600
C  17.29900 51.33500 29.43200
C  16.92500 51.34900 30.88600
C  15.37900 51.85400 30.82900
C  15.27800 52.18600 29.36300
C  14.27500 50.73800 31.33600
C  17.77100 52.22700 31.87900
C  17.86900 51.68200 33.27200
H  16.92100 52.33400 34.25400
N  14.96700 53.13000 26.38600
C  14.02600 53.29400 27.38600
C  12.83700 54.00300 26.85900
C  13.04900 54.28300 25.49300
C  14.33500 53.61600 25.19300
C  11.61000 54.28100 27.80700
C  12.21500 54.95600 24.41800
O  12.59700 55.18200 23.32200
C  10.90000 55.50400 24.81300
N  16.81700 51.94600 24.27900
C  15.96700 52.70100 23.53800
C  16.53100 52.78800 22.00500
C  17.97100 52.47900 22.25300
C  17.99300 51.88100 23.64700
C  15.68800 51.94000 21.03600
C  18.80400 53.79400 22.33600
C  19.83300 54.02100 21.22500
N  18.33900 50.97900 26.42100
C  19.25100 50.63000 25.42500
C  20.30200 49.92600 26.00700
C  19.99900 49.88300 27.34900
C  18.81000 50.59900 27.54700
C  21.56600 49.46800 25.31100
C  20.56800 49.46600 28.60300
O  21.62900 48.86100 28.85900
C  19.53400 50.01100 29.68000
C  19.25800 48.88300 30.61800
O  18.51100 47.93700 30.33700
O  19.78900 49.09100 31.80500
C  19.49900 48.26200 33.00000
H  13.54000 53.29800 29.43700
H  14.27600 53.84400 23.11900
H  19.87600 51.05800 23.35000
H  16.84500 50.31200 31.21300
H  15.30100 52.73700 31.46400
H  14.29300 50.32100 32.34300
H  14.51100 49.87800 30.70900
H  13.30700 51.09600 30.98700
H  17.24300 53.18000 31.90700
H  18.73500 52.44000 31.41800
H  18.91600 51.77000 33.56300
H  17.69200 50.60700 33.27000
H  11.34400 55.33500 27.73800
H  11.80200 54.05200 28.85600
H  10.67400 53.76000 27.60500
H  10.06100 54.80900 24.77500
H  10.58100 56.25400 24.08900
H  10.77000 55.93600 25.80600
H  16.45900 53.79900 21.60300
H  18.41600 51.89200 21.44900
H  14.95500 52.50100 20.45700
H  15.14500 51.17500 21.59300
H  16.34600 51.41000 20.34800
H  19.34900 53.80800 23.28000
H  18.19100 54.69500 22.33900
H  19.74200 55.00900 20.77300
H  19.74700 53.24500 20.46500
H  20.80500 54.00500 21.71700
H  21.63300 49.95600 24.33900
H  21.76200 48.40100 25.42300
H  22.42500 49.84000 25.86900
H  20.02100 50.79100 30.26500
H  19.90400 47.27500 32.77600
H  18.42900 48.11400 33.14600
H  20.12600 48.50600 33.85800
Mg -10.20500 17.17300 40.93800
C  -6.57500 16.80600 41.22700
C  -9.59500 20.51900 40.55300
C  -13.38800 17.43300 40.77500
C  -10.51500 13.64400 41.20100
N  -8.21900 18.45300 40.75200
C  -7.00200 18.14900 41.07900
C  -6.09700 19.44100 40.95500
C  -7.11600 20.54600 41.28800
C  -8.41100 19.79100 40.86100
C  -7.07400 20.93600 42.83800
C  -5.60700 19.62700 39.38400
C  -4.14900 19.33000 39.09100
H  -3.74300 18.42300 37.89200
N  -11.30700 18.75000 40.52600
C  -10.91900 20.06600 40.39700
C  -12.08800 20.92200 40.12200
C  -13.24100 20.03700 40.26700
C  -12.70500 18.69700 40.58100
C  -12.10200 22.34800 39.81300
C  -14.68200 20.39200 40.05100
O  -15.04500 21.53300 39.82700
C  -15.80200 19.41300 40.02700
N  -11.73000 15.71400 41.04900
C  -12.97000 16.13000 41.03800
C  -14.02600 14.95000 41.17900
C  -13.04600 13.69200 41.07700
C  -11.67900 14.36900 41.15400
C  -14.98800 14.85200 42.43300
C  -13.11000 12.80100 39.81700
C  -13.04600 11.33700 39.99000
N  -8.91500 15.52600 41.06300
C  -9.20100 14.21600 41.22400
C  -7.88500 13.50700 41.40400
C  -6.86400 14.46900 41.51400
C  -7.50900 15.68600 41.23900
C  -7.69600 12.01800 41.53400
C  -5.44600 14.73300 41.80200
O  -4.51000 13.95800 42.06500
C  -5.28300 16.23000 41.53100
C  -4.48400 16.81700 42.67100
O  -3.39600 17.25300 42.60300
O  -5.21200 16.73100 43.88800
C  -4.48000 16.92300 45.11600
H  -9.53700 21.60100 40.68300
H  -14.47200 17.39800 40.90000
H  -10.56600 12.55900 41.31500
H  -5.19700 19.50900 41.56500
H  -6.80400 21.38100 40.66100
H  -6.16000 20.63200 43.34700
H  -7.84500 20.31000 43.28900
H  -7.37300 21.95700 43.07700
H  -5.88200 20.60500 38.98800
H  -6.21700 18.97900 38.75600
H  -3.56700 19.06300 39.97300
H  -3.76100 20.31100 38.81500
H  -12.56900 22.96900 40.57700
H  -12.67200 22.42800 38.88700
H  -11.08500 22.70600 39.65400
H  -15.65600 18.94400 39.05400
H  -16.70700 19.94900 39.74200
H  -15.76000 18.84400 40.95600
H  -14.79200 14.97200 40.40400
H  -13.13600 13.06400 41.96300
H  -15.99800 15.16900 42.17300
H  -14.57400 15.44500 43.24900
H  -15.25600 13.82800 42.69300
H  -12.28400 13.04800 39.14900
H  -14.05300 13.06800 39.34200
H  -12.14200 10.91300 39.55300
H  -13.86200 10.94000 39.38500
H  -13.00000 10.98500 41.02100
H  -7.81400 11.56100 40.55200
H  -8.59200 11.75200 42.09600
H  -6.73700 11.90800 42.04000
H  -4.64000 16.26200 40.65200
H  -5.01100 16.42900 45.93000
H  -4.36300 18.00600 45.16500
H  -3.52200 16.41300 45.01700

