158

Mg 1.06700 8.25200 27.04400
C  1.53000 10.28100 29.78200
C  1.23200 5.54400 29.03600
C  0.90200 6.33900 24.22200
C  1.37500 11.03600 24.98100
N  1.49700 7.96700 29.22200
C  1.37700 8.96100 30.14300
C  1.19200 8.36900 31.58900
C  1.07500 6.86600 31.27300
C  1.27800 6.74800 29.75400
C  2.10900 6.04700 32.08700
C  0.02400 9.04800 32.43300
C  -0.52200 8.21200 33.59800
H  0.46000 7.94200 34.67900
N  1.03300 6.17100 26.72300
C  1.07000 5.23200 27.66500
C  0.73400 3.91300 27.11400
C  0.69300 4.13500 25.69500
C  0.86400 5.63000 25.51200
C  0.60900 2.59200 28.02800
C  0.34000 3.15900 24.58300
O  0.51600 3.45100 23.37100
C  -0.07900 1.67100 24.90100
N  1.09200 8.63500 24.97100
C  1.02600 7.68300 24.05000
C  0.90600 8.30500 22.61400
C  0.73000 9.78900 22.92700
C  1.07700 9.83300 24.42400
C  2.11800 7.96700 21.68400
C  -0.75200 10.29700 22.77100
C  -0.87500 11.54300 21.84000
N  1.55600 10.26200 27.32100
C  1.63800 11.22100 26.39600
C  1.94600 12.53400 27.13900
C  1.85300 12.18400 28.46700
C  1.60800 10.83300 28.51500
C  2.21900 13.81700 26.57400
C  2.02800 12.68400 29.73100
O  2.33400 13.81900 30.11700
C  1.71900 11.49800 30.66700
C  2.79000 11.25600 31.74300
O  3.85500 10.59700 31.65100
O  2.39700 11.86600 32.90700
C  3.38600 11.93600 33.94600
H  1.05000 4.77400 29.78800
H  0.89600 5.75400 23.30000
H  1.38100 11.98000 24.43300
H  2.11400 8.67000 32.08600
H  0.06900 6.46900 31.40500
H  2.90900 6.67000 32.48800
H  2.62900 5.33300 31.44800
H  1.56500 5.48600 32.84600
H  -0.67400 9.26600 31.62500
H  0.26600 10.02500 32.85200
H  -1.00300 7.31300 33.21300
H  -1.27600 8.76000 34.16400
H  0.51000 1.61800 27.54900
H  -0.34000 2.75600 28.53800
H  1.47400 2.53600 28.68900
H  -1.04200 1.71700 25.40900
H  0.73100 1.19100 25.44900
H  -0.14700 1.08700 23.98300
H  -0.02800 7.84800 22.28600
H  1.43000 10.44500 22.41000
H  1.91200 7.00800 21.20800
H  3.02300 7.89000 22.28600
H  2.31100 8.66400 20.86800
H  -1.02800 10.71800 23.73800
H  -1.47200 9.55500 22.42600
H  0.07200 11.60100 21.30400
H  -1.19400 12.38600 22.45300
H  -1.63300 11.37200 21.07500
H  2.34900 13.79800 25.49200
H  3.13700 14.08000 27.09800
H  1.58200 14.63800 26.90500
H  0.84400 11.79600 31.24500
H  4.42300 11.72200 33.69000
H  3.09800 11.11800 34.60600
H  3.28300 12.86500 34.50700
Mg 45.23700 5.37300 48.80000
C  42.97200 7.83200 47.56400
C  42.87300 2.96000 47.79700
C  47.65500 2.98500 48.95000
C  47.72900 7.90800 48.84000
N  43.20200 5.45800 47.78300
C  42.52100 6.52600 47.35200
C  41.10300 6.14900 46.80200
C  41.12300 4.58200 46.91500
C  42.45100 4.30400 47.53200
C  39.89500 4.11400 47.76300
C  40.87600 6.62400 45.29300
C  39.56700 7.58200 45.16400
H  38.62700 7.33700 44.00700
N  45.20200 3.29200 48.64800
C  44.10000 2.50100 48.27600
C  44.52800 1.09200 48.36600
C  45.91900 1.14900 48.61500
C  46.30900 2.51400 48.77300
C  43.62500 -0.03000 48.09500
C  46.77000 -0.09400 48.81100
O  46.29800 -1.21700 48.63800
C  48.15100 -0.08200 49.28500
N  47.39000 5.45700 48.99200
C  48.16700 4.32500 49.08000
C  49.63400 4.64900 49.10400
C  49.64400 6.19600 49.08900
C  48.21400 6.54500 48.94600
C  50.41700 3.88700 50.15900
C  50.49300 6.76300 47.91900
C  51.29100 8.08800 48.24400
N  45.32300 7.44600 48.50400
C  46.41400 8.35600 48.61000
C  45.96600 9.64300 48.29700
C  44.59700 9.46800 47.99700
C  44.26600 8.12900 48.04200
C  46.86800 10.88300 48.34300
C  43.40700 10.20400 47.80900
O  43.19100 11.42100 47.88100
C  42.25000 9.14300 47.50700
C  41.17600 9.39300 48.60000
O  41.25400 8.85400 49.67100
O  40.13900 10.03800 47.99800
C  38.85800 10.03900 48.70800
H  42.03900 2.28000 47.60900
H  48.46200 2.25000 48.92900
H  48.56000 8.57900 49.06400
H  40.37500 6.56700 47.49700
H  41.12800 4.11400 45.93000
H  39.62300 3.15500 47.32400
H  39.04000 4.79100 47.74700
H  40.22600 3.86900 48.77200
H  40.97200 5.87900 44.50400
H  41.76300 7.23700 45.13100
H  39.93300 8.60700 45.10200
H  38.95800 7.53100 46.06700
H  43.38100 -0.50300 49.04600
H  44.09600 -0.74600 47.42200
H  42.70700 0.23300 47.57000
H  48.74000 0.42000 48.51700
H  48.55400 -1.04400 49.60200
H  48.23400 0.58700 50.14100
H  49.92900 4.33000 48.10400
H  49.89200 6.59500 50.07300
H  49.75200 3.17400 50.64600
H  50.89300 4.61300 50.81800
H  51.27200 3.33100 49.77300
H  49.92900 7.05300 47.03300
H  51.26700 6.03700 47.67000
H  50.80600 9.01800 47.94800
H  52.29800 7.93200 47.85500
H  51.48000 8.10700 49.31700
H  46.40500 11.54800 47.61500
H  47.88900 10.61600 48.06900
H  46.94700 11.26400 49.36200
H  41.79000 9.48300 46.58000
H  38.27000 10.90600 48.40400
H  38.97700 10.22000 49.77600
H  38.25100 9.15200 48.52700

