158

Mg 27.51000 50.77200 25.74400
C  25.34200 51.72100 28.44400
C  29.84700 49.83300 28.15200
C  29.60600 50.05700 23.34400
C  25.32700 52.32700 23.55800
N  27.55100 50.70000 28.03400
C  26.56400 51.13700 28.88200
C  26.85100 50.81400 30.35500
C  28.38700 50.32200 30.28200
C  28.67600 50.36400 28.74500
C  29.49800 51.17800 31.03600
C  25.82000 49.78400 30.85400
C  24.90300 50.10900 32.00400
H  24.72200 49.18800 33.25100
N  29.48200 49.98200 25.80100
C  30.26100 49.65200 26.84500
C  31.46600 48.93700 26.36600
C  31.44900 49.08300 24.94300
C  30.13600 49.71600 24.62300
C  32.39500 48.13400 27.19200
C  32.54200 48.78900 23.93500
O  32.39900 49.06200 22.70500
C  33.87100 48.27300 24.37000
N  27.50900 51.28100 23.76100
C  28.44100 50.74100 22.89300
C  28.03600 50.87200 21.40800
C  26.58000 51.33100 21.52900
C  26.45300 51.67500 23.05500
C  28.93200 51.96000 20.80800
C  25.55300 50.33400 21.04400
C  24.23000 50.83600 20.42100
N  25.84000 52.02000 25.97400
C  25.05700 52.51300 24.99400
C  23.98900 53.20500 25.49600
C  23.90300 52.91200 26.85800
C  25.11300 52.16300 27.10600
C  23.03600 53.98200 24.75200
C  23.25700 53.05500 28.17700
O  22.22300 53.60700 28.51500
C  24.15900 52.32300 29.24600
C  24.66900 53.25100 30.26900
O  25.70200 53.95400 30.24700
O  23.68000 53.25300 31.25700
C  23.83900 54.12400 32.43000
H  30.46100 49.29000 28.87400
H  30.13000 49.61100 22.49600
H  24.51500 52.61600 22.88700
H  26.81100 51.75100 30.91000
H  28.51700 49.27400 30.55300
H  30.27400 51.56700 30.37800
H  29.93600 50.54400 31.80700
H  29.01200 51.97200 31.60300
H  26.39900 48.91100 31.15400
H  25.25800 49.45000 29.98200
H  23.89800 50.31200 31.63400
H  25.24000 51.09300 32.33100
H  32.28800 47.05900 27.04600
H  32.25900 48.26500 28.26600
H  33.44000 48.41300 27.05800
H  34.63500 48.95800 24.73800
H  34.26100 47.80500 23.46600
H  33.64400 47.37700 24.94700
H  28.14600 49.89300 20.94200
H  26.37600 52.27500 21.02500
H  28.27600 52.76800 20.48400
H  29.38500 51.58900 19.88900
H  29.76200 52.21800 21.46500
H  25.30600 49.65600 21.86000
H  26.04700 49.75800 20.26000
H  24.19500 50.66300 19.34500
H  24.00000 51.82700 20.81100
H  23.42900 50.19400 20.78800
H  22.36900 53.32200 24.19700
H  23.59500 54.54400 24.00400
H  22.47000 54.56800 25.47600
H  23.45600 51.63000 29.70900
H  23.08800 53.78900 33.14600
H  23.87600 55.20900 32.33600
H  24.76300 53.75000 32.87100
Mg 9.34800 48.08800 25.96500
C  7.49900 47.71900 28.80200
C  12.07500 49.08400 27.70700
C  10.99800 48.39800 22.93400
C  6.38300 47.59800 24.07800
N  9.68700 48.42400 27.97600
C  8.83000 48.12800 29.01200
C  9.54100 48.28100 30.40600
C  10.90800 48.79700 29.92300
C  10.90300 48.71700 28.40300
C  11.29700 50.22200 30.58000
C  9.55000 46.98600 31.22400
C  10.48700 46.92300 32.41000
H  9.93400 46.38000 33.72800
N  11.23700 48.79900 25.40500
C  12.24000 49.05200 26.28300
C  13.50300 49.15700 25.57300
C  13.23800 48.96700 24.16600
C  11.73400 48.70100 24.14000
C  14.75000 49.43200 26.38700
C  14.14900 48.96700 22.98800
O  13.73800 48.86400 21.82700
C  15.59900 49.29600 23.12000
N  8.70000 48.14100 23.77100
C  9.61800 48.18800 22.79500
C  8.92100 47.85500 21.42300
C  7.41800 47.58200 21.77500
C  7.50000 47.76100 23.28400
C  9.10500 48.88000 20.20400
C  6.80500 46.28500 21.20200
C  7.41400 44.96200 21.75600
N  7.30000 47.83800 26.32500
C  6.23200 47.64500 25.48400
C  5.02800 47.39700 26.20300
C  5.46700 47.34200 27.59200
C  6.83700 47.69900 27.60600
C  3.64400 46.99200 25.75400
C  5.01000 47.15300 28.93900
O  3.90200 46.95400 29.38900
C  6.35400 47.31200 29.78200
C  6.52100 46.00100 30.45600
O  6.97000 44.99000 30.02200
O  6.09100 46.09200 31.80800
C  6.35800 44.96000 32.71900
H  13.01400 49.20400 28.25100
H  11.53300 48.40700 21.98200
H  5.44200 47.34500 23.58400
H  8.95200 48.96400 31.01900
H  11.76300 48.20800 30.25700
H  11.36700 51.07900 29.91100
H  12.29400 50.15100 31.01300
H  10.62000 50.50300 31.38600
H  9.76400 46.16600 30.53900
H  8.55500 46.90900 31.66400
H  10.68400 47.98000 32.58900
H  11.41700 46.39600 32.20000
H  15.42800 48.61500 26.14000
H  14.73400 49.56400 27.46900
H  15.17000 50.34600 25.96700
H  15.63100 50.19100 23.74100
H  16.04700 49.38600 22.13000
H  15.95600 48.34900 23.52400
H  9.46400 46.93500 21.20600
H  6.83400 48.37500 21.30900
H  9.09900 48.31400 19.27300
H  10.01000 49.45400 20.40500
H  8.25200 49.55800 20.22200
H  7.00600 46.29900 20.13100
H  5.73400 46.19600 21.38100
H  6.72100 44.12200 21.78200
H  7.77100 45.12900 22.77300
H  8.32200 44.68900 21.21700
H  3.20900 46.04300 26.06600
H  3.67800 46.90100 24.66800
H  3.01300 47.86400 25.92500
H  6.35000 48.05700 30.57700
H  7.24500 44.38100 32.45700
H  5.46600 44.34200 32.61600
H  6.30800 45.50000 33.66400

