158

Mg 0.37400 8.03800 26.66400
C  1.36000 9.82200 29.49900
C  0.75800 5.11000 28.45700
C  0.46900 6.30900 23.74000
C  0.71900 10.99900 24.84100
N  1.05300 7.59300 28.80000
C  1.19000 8.41700 29.81300
C  1.10900 7.69200 31.21600
C  1.22400 6.23500 30.74800
C  0.85600 6.29200 29.23700
C  2.50300 5.43900 30.98700
C  -0.22400 7.90300 32.00900
C  -0.19300 8.35500 33.45800
H  0.95000 7.90300 34.33800
N  0.41100 5.93900 26.20600
C  0.48700 4.89600 27.08700
C  0.40900 3.67700 26.35800
C  0.30000 4.02300 24.98900
C  0.34500 5.50600 24.92600
C  0.47500 2.28900 26.97800
C  -0.14300 3.07100 23.82900
O  -0.38600 3.54000 22.76200
C  -0.32900 1.54000 23.96800
N  0.40900 8.59900 24.60900
C  0.41400 7.67600 23.53400
C  0.50400 8.36300 22.25700
C  0.03700 9.76800 22.65000
C  0.38600 9.84500 24.14800
C  1.89600 8.31200 21.67700
C  -1.54300 9.92100 22.41500
C  -1.94100 10.41400 21.05100
N  0.87200 10.00200 27.02900
C  1.02400 11.08700 26.18800
C  1.30900 12.24600 26.93200
C  1.50300 11.75000 28.23700
C  1.13500 10.42800 28.23900
C  1.54200 13.71400 26.43600
C  1.96500 12.15200 29.57200
O  2.44300 13.20400 30.01100
C  1.65600 10.87600 30.51800
C  2.78800 10.57300 31.26400
O  3.90900 10.18100 30.90200
O  2.51400 11.08200 32.54900
C  3.72100 11.44100 33.33000
H  0.91400 4.21100 29.05700
H  0.60500 5.72700 22.82600
H  0.86400 11.80100 24.11400
H  1.93200 8.03100 31.84400
H  0.46400 5.72400 31.34000
H  3.22500 5.46700 30.17100
H  2.19300 4.47400 31.38800
H  2.95800 5.91900 31.85400
H  -0.86400 7.02500 32.09000
H  -0.78000 8.59900 31.38000
H  -1.09600 8.18100 34.04400
H  -0.18400 9.44400 33.50400
H  0.91600 2.39700 27.96800
H  0.98000 1.52100 26.39300
H  -0.53300 1.93500 27.19600
H  -0.86800 1.29500 23.05300
H  -0.89200 1.18700 24.83300
H  0.65900 1.10400 23.82300
H  -0.22900 7.88800 21.60500
H  0.50000 10.62200 22.15500
H  2.12200 9.32200 21.33400
H  1.95800 7.71800 20.76600
H  2.57800 8.00900 22.47100
H  -1.93300 10.67100 23.10300
H  -2.14700 9.04600 22.65500
H  -1.06600 10.47500 20.40300
H  -2.47700 11.36300 21.08800
H  -2.59600 9.62200 20.69000
H  1.82800 13.74900 25.38500
H  2.25900 14.25700 27.05200
H  0.56400 14.17600 26.57400
H  0.73400 11.08000 31.06300
H  4.28900 12.21400 32.81000
H  4.52800 10.73100 33.51400
H  3.46500 11.92500 34.27200
Mg -4.68600 25.55100 25.78800
C  -3.79000 27.10300 28.72300
C  -6.63200 23.37000 27.55200
C  -5.06900 23.63900 22.96500
C  -2.55000 27.63600 24.02000
N  -5.05000 25.27700 27.96500
C  -4.58300 26.02400 28.97100
C  -5.20500 25.63600 30.34200
C  -6.08300 24.36900 29.99600
C  -5.94200 24.32900 28.41300
C  -5.59200 23.08600 30.64600
C  -6.01100 26.83600 31.08100
C  -5.75700 26.91900 32.64300
H  -5.16600 25.65600 33.35200
N  -5.69500 23.79600 25.32800
C  -6.46400 23.07200 26.19300
C  -7.06200 21.91900 25.54500
C  -6.54400 21.96200 24.19500
C  -5.73500 23.18900 24.10900
C  -7.96000 20.90800 26.30300
C  -6.75600 21.02300 23.10000
O  -6.22900 21.05900 21.99800
C  -7.59800 19.84900 23.39000
N  -4.09800 25.68500 23.72600
C  -4.37200 24.82700 22.77200
C  -3.60600 25.14900 21.43700
C  -3.05400 26.56100 21.74000
C  -3.20600 26.68900 23.27200
C  -2.68400 24.00700 20.95000
C  -3.70000 27.66100 20.83100
C  -2.80300 28.31100 19.80700
N  -3.40000 26.98200 26.26800
C  -2.58700 27.75500 25.43800
C  -1.85400 28.75300 26.18800
C  -2.29400 28.45300 27.52200
C  -3.23200 27.44700 27.50100
C  -0.92200 29.77800 25.58500
C  -2.05700 28.85500 28.88000
O  -1.36200 29.73300 29.41800
C  -2.95100 27.95700 29.76000
C  -2.13900 27.09700 30.68100
O  -1.62700 26.03900 30.33100
O  -1.90300 27.80400 31.85300
C  -1.12900 27.06600 32.83000
H  -7.25600 22.68300 28.12600
H  -5.13200 23.08600 22.02600
H  -1.87900 28.34700 23.53500
H  -4.35000 25.34100 30.95000
H  -7.10600 24.64900 30.24700
H  -5.96800 22.29600 29.99500
H  -6.09600 22.78300 31.56400
H  -4.50600 23.11800 30.55300
H  -7.05800 26.76000 30.78800
H  -5.59900 27.74200 30.63600
H  -6.75200 27.07700 33.06000
H  -5.26200 27.86400 32.86400
H  -7.63700 19.89500 26.06600
H  -9.00700 20.95800 26.00200
H  -8.00200 20.98400 27.39000
H  -7.04600 19.24000 24.10500
H  -7.81900 19.27100 22.49200
H  -8.55200 20.23500 23.74900
H  -4.22600 25.23800 20.54600
H  -1.98700 26.36200 21.63800
H  -1.65300 24.34600 20.85400
H  -3.07200 23.72700 19.97000
H  -2.75800 23.10900 21.56400
H  -4.10800 28.43800 21.47700
H  -4.60400 27.31700 20.32800
H  -3.45000 28.30800 18.93000
H  -1.90900 27.79400 19.45900
H  -2.49000 29.27700 20.20300
H  -1.65400 30.53000 25.28900
H  -0.47100 29.41700 24.66100
H  -0.19000 29.97500 26.36700
H  -3.58300 28.72300 30.20900
H  -0.28200 26.47700 32.47800
H  -1.82500 26.39600 33.33400
H  -0.74700 27.88800 33.43600

