158

Mg -1.15600 18.52300 26.77100
C  -1.75000 16.36700 29.47700
C  -2.05700 21.11800 28.92100
C  -0.78400 20.59400 24.33500
C  -1.08000 15.83500 24.63300
N  -1.44500 18.79800 29.18200
C  -1.66500 17.70000 29.95700
C  -2.10800 18.19200 31.44500
C  -2.50400 19.70000 31.15700
C  -2.01100 19.89600 29.69300
C  -4.01000 20.04000 31.35900
C  -0.96200 18.12500 32.49400
C  -1.46500 17.54800 33.82600
H  -0.38400 17.34300 34.89600
N  -1.27100 20.58500 26.60300
C  -1.66700 21.46500 27.63000
C  -1.77400 22.77600 27.02500
C  -1.28100 22.63700 25.65300
C  -1.11800 21.20000 25.51200
C  -2.27700 24.00900 27.68600
C  -0.94300 23.66200 24.54600
O  -0.26300 23.36800 23.57600
C  -1.28200 25.06100 24.69900
N  -1.16900 18.24900 24.68800
C  -0.83100 19.28100 23.94900
C  -0.35900 18.88900 22.52800
C  -0.45600 17.29700 22.63900
C  -0.88800 17.05500 24.07900
C  -1.32800 19.41800 21.40900
C  0.79100 16.39000 22.28700
C  0.45300 15.21300 21.35800
N  -1.34800 16.51800 26.92100
C  -1.27500 15.53600 25.97600
C  -1.44600 14.27800 26.62200
C  -1.59300 14.53500 28.00900
C  -1.58700 15.93300 28.11300
C  -1.54400 12.98800 25.88400
C  -1.82400 13.95800 29.27100
O  -1.89800 12.79400 29.60600
C  -1.98600 15.19100 30.26100
C  -0.93400 15.01000 31.29800
O  0.21100 15.36300 31.22800
O  -1.48700 14.24900 32.25500
C  -0.62600 13.77900 33.42200
H  -2.52300 21.95300 29.44800
H  -0.65200 21.26000 23.48000
H  -0.87600 14.91600 24.08000
H  -3.04400 17.66400 31.62700
H  -1.89100 20.40600 31.71700
H  -4.60200 19.13900 31.51900
H  -4.49200 20.63500 30.58400
H  -3.96200 20.74200 32.19100
H  -0.50100 19.10100 32.64700
H  -0.13200 17.63900 31.98200
H  -1.96700 16.58400 33.73400
H  -2.16000 18.29100 34.21500
H  -1.88300 24.94400 27.28600
H  -1.95800 24.06100 28.72700
H  -3.35600 23.86300 27.62200
H  -1.20000 25.53000 23.71800
H  -0.70700 25.62400 25.43500
H  -2.35100 24.94600 24.87700
H  0.62800 19.30100 22.31900
H  -1.28200 17.00100 21.99300
H  -1.98400 18.64700 21.00300
H  -0.72900 19.64600 20.52700
H  -1.92800 20.22300 21.83400
H  1.31000 15.93500 23.13000
H  1.45800 17.08600 21.77800
H  0.17600 15.72700 20.43700
H  -0.49500 14.77700 21.67200
H  1.20500 14.42400 21.36100
H  -2.37500 13.16400 25.20000
H  -1.82200 12.20200 26.58600
H  -0.63500 12.75700 25.32900
H  -3.01700 15.12400 30.60800
H  0.15400 14.50200 33.66200
H  -0.18900 12.78100 33.44400
H  -1.22900 13.81100 34.33000
Mg 50.02900 44.96300 40.86400
C  47.11600 45.72200 39.06000
C  49.89900 41.76300 39.56100
C  53.41800 44.72800 41.50300
C  50.25200 48.29900 41.77500
N  48.61000 43.86100 39.51400
C  47.52500 44.42300 38.85100
C  46.74900 43.34100 38.08800
C  47.55900 42.02800 38.48700
C  48.79400 42.54100 39.18100
C  46.71000 40.99100 39.36300
C  46.76300 43.63500 36.51000
C  45.35200 43.56800 35.86400
H  45.05800 44.41600 34.59900
N  51.38700 43.39100 40.71400
C  51.11200 42.15300 40.08800
C  52.33900 41.35800 40.11400
C  53.33600 42.15200 40.84600
C  52.73600 43.49700 41.01200
C  52.47200 39.95200 39.54600
C  54.79700 41.70600 41.24000
O  55.17800 40.55400 40.91600
C  55.73500 42.51200 41.99700
N  51.52900 46.26100 41.68700
C  52.80700 45.94400 41.78900
C  53.68400 47.05100 42.26200
C  52.64300 48.21900 42.52300
C  51.35200 47.53500 42.00100
C  54.86000 46.76500 43.32800
C  53.02000 49.61000 42.01500
C  53.21000 50.63300 43.22000
N  48.81700 46.67900 40.75500
C  49.04300 47.98400 41.09700
C  48.04200 48.83900 40.62100
C  47.20900 48.03700 39.86800
C  47.70500 46.72800 39.91500
C  47.92300 50.31200 41.01500
C  46.04100 48.04500 38.99500
O  45.22300 48.89800 38.58800
C  45.93000 46.55200 38.49400
C  44.67100 45.99600 39.06000
O  43.66800 45.70600 38.36400
O  44.64100 45.98200 40.40100
C  43.33700 46.19500 41.15300
H  49.83900 40.72000 39.24300
H  54.48400 44.65700 41.73300
H  50.17200 49.35900 42.02500
H  45.73200 43.30800 38.47900
H  48.00300 41.51100 37.63600
H  46.88700 39.95400 39.07800
H  45.64300 41.17200 39.23400
H  47.00200 41.13900 40.40200
H  47.40600 42.86600 36.08300
H  47.23900 44.56800 36.20900
H  44.59600 43.84100 36.60100
H  45.15900 42.51800 35.64500
H  53.16200 39.89100 38.70400
H  51.51100 39.74800 39.07300
H  52.70000 39.16900 40.27000
H  55.22200 42.99500 42.82900
H  56.16900 43.25700 41.33100
H  56.59100 41.99700 42.43200
H  54.12200 47.36300 41.31300
H  52.49800 48.25900 43.60300
H  55.78100 46.70300 42.74900
H  54.58200 45.77400 43.68800
H  54.88000 47.53500 44.09900
H  52.19200 50.02700 41.44100
H  53.87700 49.62200 41.34200
H  52.51000 51.46800 43.18300
H  54.24000 50.98500 43.27700
H  53.10200 50.07300 44.14900
H  48.81100 50.92200 40.84700
H  47.80100 50.25700 42.09700
H  47.08200 50.80400 40.52700
H  45.92800 46.51700 37.40500
H  43.45000 47.11800 41.72100
H  43.08500 45.34300 41.78400
H  42.42900 46.32300 40.56300

