158

Mg 46.90800 16.30100 27.66900
C  45.11700 15.99700 30.68400
C  49.49500 17.88000 29.44600
C  48.55900 16.57700 24.84700
C  44.05900 14.94100 26.04600
N  47.28100 16.85800 29.86900
C  46.41700 16.60500 30.87100
C  46.98500 17.16200 32.17300
C  48.22200 18.00200 31.77600
C  48.33400 17.58600 30.28100
C  47.97300 19.53300 32.04300
C  47.17600 15.99900 33.20800
C  47.35100 16.44300 34.65300
H  47.23200 17.94900 35.08900
N  48.76200 17.06000 27.24500
C  49.67600 17.63600 28.04100
C  50.93200 17.83600 27.35600
C  50.68000 17.55800 26.02700
C  49.24300 17.07900 25.99300
C  52.16300 18.31600 28.05800
C  51.66800 17.49100 24.77300
O  51.33600 17.15900 23.65200
C  53.01100 18.02400 24.94300
N  46.30400 15.94500 25.70800
C  47.20400 16.12200 24.66700
C  46.60100 15.70800 23.31200
C  45.25300 14.99400 23.83100
C  45.21300 15.23500 25.29100
C  46.54500 16.93100 22.35900
C  45.31600 13.46700 23.49200
C  44.50200 13.17500 22.22300
N  45.02100 15.51700 28.18400
C  43.94800 15.08100 27.42600
C  42.80100 14.82800 28.23800
C  43.20900 15.13200 29.55300
C  44.54000 15.62200 29.45400
C  41.45200 14.27100 27.79000
C  42.83100 15.11800 30.84500
O  41.81000 14.56100 31.31100
C  43.98400 15.76300 31.74600
C  43.46100 16.95700 32.39900
O  43.26700 18.05600 31.88600
O  43.17400 16.62900 33.73400
C  42.81400 17.71900 34.63600
H  50.15200 18.49700 30.06400
H  49.17100 16.40200 23.95900
H  43.26700 14.49600 25.44000
H  46.16800 17.77400 32.55500
H  49.06900 17.79800 32.43100
H  48.87900 20.09500 32.27100
H  47.28200 19.66100 32.87600
H  47.52500 19.93100 31.13200
H  48.09500 15.49300 32.91300
H  46.32100 15.32400 33.16700
H  48.39000 16.23100 34.90700
H  46.64600 15.83400 35.21800
H  51.91900 19.37800 28.02400
H  53.11200 17.95600 27.66000
H  52.19100 18.14600 29.13400
H  53.46700 17.28300 25.60000
H  53.02700 19.04100 25.33500
H  53.61400 17.94000 24.03900
H  47.22500 14.94100 22.85300
H  44.55000 15.58100 23.24000
H  47.20200 17.69900 22.76700
H  45.52700 17.30600 22.25400
H  46.87900 16.71700 21.34400
H  44.87700 12.95100 24.34500
H  46.30700 13.01400 23.48500
H  45.15000 12.56600 21.59200
H  44.31600 14.09700 21.67200
H  43.54800 12.67000 22.37200
H  40.64200 14.64900 28.41300
H  41.42800 13.19200 27.93800
H  41.14500 14.38300 26.75000
H  44.09500 14.99800 32.51500
H  41.86900 18.10600 34.25400
H  43.59500 18.46700 34.49500
H  42.82400 17.53700 35.71000
Mg 1.50900 42.58000 25.38200
C  2.48000 42.96200 28.78400
C  -1.71100 41.73000 26.46700
C  0.59300 41.94000 22.15300
C  4.68400 43.36800 24.43600
N  0.61700 42.24600 27.48500
C  1.13300 42.54000 28.70600
C  0.07200 42.30800 29.88000
C  -1.19800 41.76800 29.09800
C  -0.78400 41.98500 27.54100
C  -1.60900 40.28400 29.35100
C  -0.27700 43.57200 30.76300
C  0.15500 43.48900 32.22800
H  -0.88500 43.52500 33.40600
N  -0.33000 41.99700 24.46900
C  -1.50700 41.71500 25.10000
C  -2.51700 41.46900 24.00400
C  -1.82100 41.56300 22.74000
C  -0.49000 41.91600 23.06600
C  -3.96700 41.20100 24.37400
C  -2.35500 41.41300 21.35800
O  -1.73300 41.61200 20.35100
C  -3.70500 40.76900 21.20000
N  2.48300 42.63900 23.60100
C  1.92500 42.25100 22.42200
C  2.95000 42.25400 21.28600
C  4.25600 42.68800 21.98900
C  3.75500 43.01700 23.46700
C  3.08100 40.83000 20.60500
C  5.03200 43.79900 21.23700
C  4.39300 45.20600 21.05700
N  3.29200 43.01100 26.35700
C  4.53000 43.30100 25.87200
C  5.42600 43.50800 26.93800
C  4.67100 43.36800 28.05300
C  3.33700 43.09700 27.70100
C  6.85100 43.80700 26.86400
C  4.74500 43.47700 29.44500
O  5.74400 43.64900 30.18500
C  3.31000 43.15300 29.99700
C  3.31400 41.93500 30.75100
O  3.28300 40.79500 30.30800
O  3.25800 42.20700 32.09700
C  3.40900 41.13000 33.09600
H  -2.67100 41.39700 26.86700
H  0.35900 41.65000 21.12600
H  5.72000 43.47900 24.11100
H  0.43400 41.48100 30.49000
H  -2.11000 42.35400 29.21200
H  -1.15800 39.96100 30.28900
H  -1.22100 39.69000 28.52300
H  -2.69000 40.13900 29.33500
H  -1.35600 43.70300 30.84200
H  0.07500 44.45300 30.22700
H  0.68600 44.43000 32.37000
H  0.78500 42.60000 32.27300
H  -4.17200 40.22500 24.81400
H  -4.70600 41.35600 23.58900
H  -4.21300 41.97800 25.09800
H  -3.90000 39.82000 21.70100
H  -3.72200 40.56300 20.12900
H  -4.47100 41.49400 21.47300
H  2.81800 42.89000 20.41100
H  4.87800 41.79400 22.02900
H  3.61200 40.22300 21.33900
H  3.67100 40.99900 19.70400
H  2.08000 40.49100 20.33900
H  5.25600 43.45000 20.22900
H  5.93400 43.96300 21.82700
H  3.37700 45.35700 21.41900
H  4.44500 45.46300 19.99800
H  4.98100 45.96600 21.57200
H  7.15200 44.60300 27.54600
H  7.05200 44.06100 25.82300
H  7.31000 42.88600 27.22200
H  2.99300 43.86400 30.75900
H  2.67900 41.27700 33.89200
H  4.40500 41.18900 33.53300
H  3.35400 40.08000 32.80600

