158

Mg 24.87800 1.32600 30.17500
C  27.07400 0.95900 32.89100
C  22.30500 1.72600 32.32500
C  22.82800 1.43500 27.54700
C  27.57800 0.30700 28.07700
N  24.69400 1.26800 32.36200
C  25.76400 1.30400 33.27500
C  25.19100 1.59000 34.66000
C  23.65100 1.65600 34.45200
C  23.50400 1.47900 32.96400
C  22.71700 0.63400 35.18300
C  25.83900 2.78800 35.45000
C  26.40600 2.50600 36.78800
H  26.20400 3.71300 37.78300
N  22.80400 1.53500 29.97800
C  21.91200 1.64900 30.95500
C  20.54800 1.71700 30.40600
C  20.73000 1.69300 29.03700
C  22.18400 1.58700 28.79100
C  19.29800 1.90800 31.20600
C  19.71500 1.70400 27.89700
O  19.97500 1.82200 26.71500
C  18.32600 1.62600 28.24600
N  25.15100 0.88000 28.11500
C  24.15000 1.08300 27.19900
C  24.74200 0.96800 25.73000
C  26.15900 0.57100 25.97700
C  26.30800 0.48900 27.47700
C  23.87200 0.07300 24.66200
C  27.22500 1.56800 25.43600
C  27.25200 3.07500 25.86200
N  26.95800 0.78600 30.38000
C  27.89100 0.33700 29.44500
C  29.15200 0.09200 30.11400
C  28.91600 0.44000 31.44500
C  27.56500 0.75700 31.56000
C  30.44700 -0.32100 29.49200
C  29.43500 0.50300 32.75100
O  30.54200 0.17600 33.11900
C  28.29300 0.83400 33.73100
C  28.10900 -0.24300 34.71300
O  27.49000 -1.27400 34.63100
O  28.76500 0.19900 35.78500
C  28.47000 -0.26300 37.12400
H  21.45400 1.90900 32.98400
H  22.13800 1.26700 26.71800
H  28.34900 -0.02500 27.37800
H  25.40900 0.67200 35.20600
H  23.17600 2.60600 34.69600
H  22.25900 -0.00900 34.43200
H  21.93000 1.27600 35.57700
H  23.20600 0.03000 35.94800
H  25.17500 3.65300 35.43400
H  26.61800 3.09600 34.75300
H  27.46700 2.33600 36.60200
H  25.94400 1.58600 37.14600
H  18.92700 2.76400 30.64300
H  19.41500 2.17800 32.25600
H  18.62500 1.05100 31.15800
H  17.93100 2.45800 28.83000
H  18.30400 0.79300 28.94900
H  17.68300 1.41300 27.39200
H  24.83000 1.98800 25.35700
H  26.28700 -0.41000 25.51800
H  23.09300 -0.40800 25.25400
H  24.46400 -0.67500 24.13400
H  23.31400 0.62700 23.90700
H  27.15800 1.64400 24.35100
H  28.20900 1.13800 25.62400
H  26.52200 3.30000 26.64000
H  27.02900 3.75800 25.04200
H  28.22200 3.30800 26.29900
H  30.82500 0.34200 28.71400
H  30.31500 -1.28000 28.99100
H  31.22100 -0.21500 30.25200
H  28.40300 1.82500 34.17200
H  28.59600 -1.34100 37.22400
H  27.39400 -0.10700 37.20500
H  29.01600 0.22400 37.93200
Mg 51.23300 45.28000 42.77100
C  47.93300 45.89800 42.14200
C  50.68700 41.90900 42.01700
C  54.68200 44.84100 42.37100
C  51.87700 48.73400 42.88000
N  49.52800 44.03900 42.12400
C  48.27600 44.53300 41.97700
C  47.28900 43.38400 41.59700
C  48.10800 42.03700 41.85800
C  49.51100 42.68600 42.01700
C  47.65100 41.06000 42.97000
C  46.76900 43.47800 40.13600
C  47.61800 43.95000 38.98100
H  47.60100 43.04400 37.72600
N  52.50300 43.53800 42.40800
C  52.03700 42.25900 42.13500
C  53.24800 41.45000 42.03200
C  54.35500 42.27400 42.29400
C  53.89300 43.63000 42.33700
C  53.16600 40.00300 41.60800
C  55.87600 41.80500 42.52600
O  56.14800 40.60800 42.20200
C  56.94900 42.66300 43.13100
N  52.96000 46.57000 42.71100
C  54.22000 46.11000 42.47600
C  55.13800 47.25200 42.08000
C  54.36500 48.55000 42.61500
C  52.94600 47.89800 42.69100
C  56.63500 47.27000 42.66900
C  54.50200 49.84000 41.71300
C  54.89100 51.11100 42.45600
N  50.16500 46.96200 42.71200
C  50.51400 48.25300 42.82600
C  49.25100 49.06700 42.82900
C  48.23800 48.15700 42.62800
C  48.84500 46.92100 42.41300
C  49.07400 50.44800 43.14400
C  46.78900 48.06000 42.46400
O  45.92100 48.91900 42.56100
C  46.52400 46.57900 42.01000
C  45.48800 46.03000 43.03600
O  44.30200 46.08400 42.87700
O  46.03400 45.42200 44.05000
C  45.19900 45.15400 45.22100
H  50.59200 40.85500 41.74700
H  55.71500 44.56800 42.14500
H  51.98100 49.81800 42.96900
H  46.42700 43.49600 42.25400
H  48.18600 41.34900 41.01600
H  47.17300 40.15700 42.59000
H  47.04500 41.52500 43.74700
H  48.52200 40.75800 43.55300
H  45.88800 44.11800 40.18300
H  46.48900 42.44700 39.92000
H  48.61100 44.07500 39.41300
H  47.12400 44.86600 38.65600
H  53.03200 39.42400 42.52200
H  53.95900 39.59200 40.98300
H  52.34100 39.70400 40.96200
H  57.25700 43.23700 42.25700
H  57.85900 42.13200 43.41200
H  56.65000 43.38200 43.89500
H  55.23900 47.35000 40.99900
H  54.51600 48.78200 43.66900
H  57.33800 47.22400 41.83700
H  56.88300 46.41600 43.30000
H  56.81400 48.13700 43.30400
H  53.56900 49.96100 41.16300
H  55.25700 49.62300 40.95700
H  54.25100 51.95000 42.18400
H  55.86100 51.43200 42.07500
H  55.14300 50.97200 43.50700
H  48.31500 50.87700 42.49000
H  50.02600 50.97500 43.08500
H  48.74400 50.51500 44.18000
H  46.05900 46.59100 41.02400
H  45.24000 45.90400 46.01100
H  45.50300 44.20700 45.66800
H  44.13100 45.19500 45.00700

