158

Mg 41.57900 6.85100 29.62600
C  43.12400 8.42300 32.38100
C  39.12100 5.57700 31.76000
C  39.98100 5.48600 27.01500
C  44.03400 8.03600 27.66600
N  41.17400 6.91900 31.79900
C  41.87500 7.85700 32.66400
C  41.11700 7.86100 33.97100
C  40.07400 6.69200 33.91300
C  40.09400 6.35600 32.40200
C  40.49200 5.42400 34.69000
C  40.49100 9.18700 34.48600
C  40.49800 9.35300 36.00200
H  41.38800 10.40400 36.63600
N  39.87600 5.66100 29.40100
C  38.99100 5.28200 30.39600
C  37.93800 4.58700 29.81900
C  38.04800 4.68200 28.47800
C  39.33900 5.27800 28.20400
C  36.79400 4.12500 30.68900
C  37.02000 4.25400 27.43700
O  37.21000 4.49600 26.27300
C  35.68400 3.53100 27.80800
N  42.21800 6.41300 27.66200
C  41.21300 6.02500 26.71400
C  41.79900 6.21900 25.29200
C  43.00700 7.18600 25.48600
C  43.06300 7.25400 27.07600
C  42.29200 4.88300 24.67800
C  42.90400 8.54800 24.84100
C  41.56700 9.36000 25.12900
N  43.43800 7.83100 29.94700
C  44.29700 8.24900 29.03100
C  45.44700 8.92200 29.67700
C  45.04400 9.05300 31.02400
C  43.77500 8.34200 31.11200
C  46.64600 9.55200 29.03900
C  45.26700 9.71700 32.30400
O  46.07700 10.57300 32.65100
C  44.02200 9.29100 33.26300
C  44.70400 8.60100 34.37600
O  45.40500 7.62300 34.33100
O  44.42300 9.17600 35.55800
C  44.82100 8.63300 36.85700
H  38.33100 5.30700 32.46500
H  39.40400 5.11900 26.16400
H  44.82900 8.40100 27.01300
H  41.87700 7.56100 34.69200
H  39.05100 6.89600 34.23000
H  40.97400 4.73000 34.00100
H  39.57500 4.93100 35.01200
H  41.18400 5.67100 35.49600
H  39.42900 9.22100 34.24000
H  41.01000 9.93400 33.88600
H  40.52500 8.40500 36.53900
H  39.49500 9.68700 36.26400
H  35.79600 4.48600 30.44100
H  36.93900 4.16900 31.76900
H  36.85400 3.05000 30.51700
H  36.05500 2.79900 28.52500
H  35.18900 3.00600 26.99100
H  35.12800 4.19800 28.46800
H  41.09000 6.69200 24.61300
H  43.97500 6.79900 25.16900
H  43.35900 4.66500 24.68600
H  42.04800 4.85200 23.61600
H  41.82500 3.99000 25.09400
H  42.90200 8.47900 23.75300
H  43.74900 9.21600 25.00800
H  41.12900 9.01100 26.06400
H  40.77800 9.19800 24.39500
H  41.88700 10.40200 25.14500
H  46.46000 9.58500 27.96500
H  47.55500 8.98600 29.24500
H  46.77400 10.60400 29.29200
H  43.57600 10.23000 33.59000
H  44.94800 7.56300 36.69300
H  44.06500 8.71800 37.63700
H  45.78900 9.01100 37.18800
Mg 6.49000 53.92000 41.40100
C  6.09700 50.31800 41.17200
C  9.80500 53.43700 40.25200
C  6.65700 57.23800 40.89100
C  2.97600 54.08100 41.65100
N  7.75700 52.02300 40.52700
C  7.42400 50.75600 40.79500
C  8.64500 49.88500 40.47700
C  9.80300 50.90600 40.54900
C  9.08900 52.24500 40.45600
C  10.91100 50.63100 41.63200
C  8.59400 49.00700 39.20500
C  7.84700 49.75700 37.95400
H  7.20000 48.97600 36.82100
N  8.00000 55.13800 40.69600
C  9.28900 54.79200 40.31500
C  9.95800 55.91600 39.86000
C  9.18300 57.03600 40.14400
C  7.85900 56.52300 40.59200
C  11.33100 55.97300 39.17800
C  9.58800 58.49300 39.82300
O  10.72100 58.76000 39.49700
C  8.74100 59.68000 40.14600
N  4.96900 55.40500 41.17300
C  5.38500 56.75900 41.24200
C  4.18800 57.66700 41.54100
C  3.02100 56.60900 41.87400
C  3.63500 55.30400 41.53300
C  4.38700 58.73300 42.60600
C  1.74000 56.94700 41.22000
C  0.47900 57.07400 42.15600
N  4.76900 52.54000 41.52400
C  3.44100 52.77500 41.69100
C  2.73500 51.49300 41.80500
C  3.75500 50.55000 41.73200
C  4.92900 51.20500 41.46400
C  1.21300 51.21500 42.01600
C  4.07500 49.17500 41.74400
O  3.33900 48.20400 41.90400
C  5.59900 48.89500 41.44200
C  5.49600 48.03100 40.17500
O  5.06900 48.47200 39.10600
O  5.66900 46.69600 40.33600
C  5.22600 45.87700 39.20500
H  10.86800 53.28500 40.05600
H  6.60800 58.32200 40.77100
H  1.91600 54.15800 41.90300
H  8.65900 49.14900 41.28100
H  10.47900 50.84800 39.69700
H  11.01000 51.47500 42.31600
H  11.84800 50.60700 41.07600
H  10.66700 49.75500 42.23200
H  8.03800 48.12100 39.51300
H  9.56900 48.66400 38.86000
H  8.62400 50.24200 37.36300
H  7.20600 50.58700 38.24800
H  11.32400 56.10800 38.09600
H  11.65000 54.93200 39.22600
H  12.00600 56.65000 39.70200
H  7.99900 59.81200 39.35900
H  9.51200 60.44700 40.22100
H  8.29600 59.47600 41.12000
H  3.97000 58.24900 40.64600
H  2.93400 56.53800 42.95800
H  4.32200 59.73600 42.18400
H  5.37000 58.54500 43.03500
H  3.69500 58.75200 43.44800
H  1.47700 56.26300 40.41300
H  1.87000 57.88000 40.67100
H  -0.29900 57.63100 41.63400
H  0.82200 57.53700 43.08200
H  0.05600 56.10100 42.40500
H  1.06500 50.33600 42.64400
H  0.58400 51.10200 41.13400
H  0.65400 52.00700 42.51500
H  6.21300 48.37500 42.17700
H  5.42900 44.84300 39.48700
H  5.73500 46.04700 38.25600
H  4.15000 46.04000 39.16200

