158

Mg 48.97900 44.57900 43.22600
C  45.68200 44.40200 42.19800
C  49.13600 41.09100 42.90200
C  52.37600 44.73100 43.19000
C  48.82500 48.00000 43.20800
N  47.59200 42.94000 42.67200
C  46.24800 43.12400 42.32800
C  45.55900 41.76900 42.09900
C  46.57600 40.75900 42.69200
C  47.84400 41.61000 42.78400
C  46.17600 40.18200 44.01100
C  45.17900 41.58000 40.55700
C  46.05400 42.37000 39.49100
H  46.14900 41.74000 38.04600
N  50.50800 43.08800 43.07600
C  50.37000 41.71900 42.94500
C  51.63200 41.11600 42.88200
C  52.60700 42.15500 42.96800
C  51.86300 43.36400 43.14400
C  51.82300 39.66700 42.60900
C  54.18200 41.92300 43.02000
O  54.65000 40.84100 42.75800
C  55.10700 43.00200 43.31400
N  50.39900 46.14300 43.20500
C  51.71100 45.96200 43.30300
C  52.49500 47.30400 43.44200
C  51.36700 48.34600 43.58300
C  50.11000 47.44900 43.29100
C  53.63800 47.42200 44.49000
C  51.56600 49.60500 42.69500
C  51.23300 49.47700 41.18300
N  47.52600 45.97600 42.95600
C  47.60200 47.36300 42.96500
C  46.35000 47.87900 42.58600
C  45.45600 46.76200 42.29300
C  46.29300 45.63200 42.47000
C  46.03200 49.32800 42.31500
C  44.18200 46.26500 41.89600
O  43.15800 46.86400 41.70600
C  44.20600 44.66900 41.96400
C  43.26400 44.18600 42.96300
O  42.37100 43.39100 42.73600
O  43.35500 44.92800 44.18600
C  42.14100 44.74700 45.04100
H  49.17700 40.00600 42.78600
H  53.46500 44.77800 43.26100
H  48.79500 49.09000 43.26600
H  44.58000 41.73800 42.57600
H  46.75800 40.01200 41.91900
H  45.95700 39.12300 43.87300
H  45.36000 40.64900 44.56300
H  46.96600 40.18000 44.76100
H  44.16600 41.95800 40.42300
H  45.15800 40.51300 40.33200
H  47.09900 42.52200 39.76100
H  45.59100 43.33100 39.26800
H  52.05500 39.53000 41.55300
H  50.92100 39.17600 42.97400
H  52.64500 39.26900 43.20500
H  55.20100 43.79600 42.57300
H  56.12300 42.63100 43.44900
H  54.88100 43.37600 44.31300
H  53.03700 47.50500 42.51800
H  51.09600 48.70500 44.57600
H  53.32300 48.07400 45.30500
H  54.49300 47.95800 44.07900
H  53.78100 46.41900 44.89400
H  52.63100 49.84000 42.69400
H  51.05000 50.45300 43.14500
H  50.95000 48.43300 41.04500
H  52.03900 49.68500 40.48000
H  50.47900 50.23700 40.97800
H  45.06600 49.32900 41.81000
H  46.84900 49.88500 41.85600
H  45.76600 49.94500 43.17300
H  43.90100 44.40300 40.95200
H  42.09500 45.51500 45.81300
H  42.07400 43.76300 45.50500
H  41.21000 44.87700 44.48900
Mg -6.48900 25.33600 25.49500
C  -5.04100 26.82400 28.34500
C  -8.46100 23.42400 27.51400
C  -7.67600 23.84000 22.68600
C  -4.35300 27.22300 23.50100
N  -6.71300 25.13400 27.72300
C  -6.02800 25.88900 28.64300
C  -6.47700 25.36300 29.99900
C  -7.37400 24.15700 29.78100
C  -7.60400 24.24300 28.22300
C  -6.75500 22.74300 30.20700
C  -7.12500 26.49000 30.85600
C  -6.70800 26.67800 32.29400
H  -5.90300 25.53500 32.97200
N  -7.91500 23.91500 25.18900
C  -8.72200 23.31700 26.12800
C  -9.77300 22.55900 25.51100
C  -9.50200 22.57600 24.10700
C  -8.38500 23.54000 23.95000
C  -10.85600 21.81400 26.27600
C  -10.16200 21.80700 22.94800
O  -9.74000 21.81100 21.79800
C  -11.45300 21.06800 23.20700
N  -5.98600 25.41500 23.40400
C  -6.57100 24.60400 22.43200
C  -5.74300 24.82300 21.11800
C  -4.92700 26.11800 21.35900
C  -5.15700 26.33300 22.82900
C  -4.93100 23.61400 20.74300
C  -5.22900 27.32700 20.44400
C  -4.07600 27.64000 19.43200
N  -5.05400 26.76500 25.81300
C  -4.29100 27.43000 24.89800
C  -3.33100 28.26700 25.52200
C  -3.54900 28.00700 26.87800
C  -4.65900 27.13300 27.02200
C  -2.34000 29.20400 24.77700
C  -3.16100 28.42000 28.24900
O  -2.23700 29.19400 28.65400
C  -4.05700 27.60100 29.26300
C  -3.16100 26.64800 29.98400
O  -2.74300 25.64000 29.43300
O  -2.96300 26.93200 31.23900
C  -2.03400 26.00100 31.89300
H  -9.04800 22.84800 28.23200
H  -8.16400 23.56600 21.74800
H  -3.56900 27.74500 22.94700
H  -5.49500 25.12400 30.40600
H  -8.33000 24.23300 30.29800
H  -7.42400 22.27000 30.92500
H  -5.79500 22.83500 30.71500
H  -6.65600 22.12300 29.31600
H  -8.19400 26.34900 30.70200
H  -7.07900 27.46200 30.36400
H  -7.65400 26.72200 32.83400
H  -6.20900 27.62300 32.50500
H  -11.78000 22.16900 25.81800
H  -10.91300 22.04300 27.34000
H  -10.86700 20.72800 26.17900
H  -11.32600 20.07200 23.63000
H  -11.71500 20.82700 22.17700
H  -12.23200 21.65400 23.69500
H  -6.51200 24.95500 20.35700
H  -3.85400 25.93000 21.32100
H  -5.29200 22.69900 21.21300
H  -3.87000 23.75300 20.95200
H  -5.08200 23.30900 19.70800
H  -5.47600 28.25200 20.96500
H  -6.10700 26.98100 19.89900
H  -4.33700 27.63800 18.37400
H  -3.21300 26.97500 19.46800
H  -3.56300 28.55800 19.71700
H  -2.91000 30.04700 24.38600
H  -1.69600 28.75700 24.01900
H  -1.67600 29.59100 25.55000
H  -4.56700 28.24000 29.98300
H  -2.13400 24.94100 31.66000
H  -2.06700 26.17400 32.96900
H  -1.01700 26.25900 31.59900

