158

Mg 46.90700 16.42300 28.39900
C  44.59000 16.03300 30.95700
C  48.89600 18.23200 30.37700
C  48.96000 16.80800 25.81000
C  44.56700 14.80100 26.17600
N  46.76900 17.13000 30.39600
C  45.82800 16.72600 31.32600
C  46.23200 17.08200 32.74500
C  47.39600 18.05300 32.45900
C  47.69200 17.80800 30.98300
C  47.13000 19.53400 32.93900
C  46.60400 15.80900 33.57600
C  47.18700 16.09400 34.99800
H  47.09400 17.48100 35.64500
N  48.69300 17.35300 28.14100
C  49.41800 18.02600 29.11000
C  50.63900 18.62800 28.53400
C  50.69900 18.11400 27.17800
C  49.38800 17.31800 27.01500
C  51.59500 19.53700 29.38600
C  51.84000 18.26300 26.17800
O  51.90100 17.80200 25.04400
C  53.05400 19.05300 26.47200
N  46.63400 16.04500 26.24000
C  47.71800 16.27200 25.42900
C  47.32400 15.94500 23.97800
C  46.24400 14.82400 24.21700
C  45.77100 15.23300 25.61200
C  46.77100 17.25700 23.35700
C  46.78000 13.36400 24.18300
C  46.03600 12.47300 23.17800
N  45.00400 15.56900 28.47700
C  44.20000 14.96900 27.52500
C  43.00700 14.43500 28.22500
C  43.09500 14.81200 29.55500
C  44.34000 15.60400 29.58200
C  41.96500 13.57500 27.52000
C  42.43400 14.79000 30.84000
O  41.28900 14.39900 31.11500
C  43.37300 15.51800 31.72600
C  42.70000 16.53800 32.54300
O  41.78500 17.22600 32.09900
O  43.14900 16.49700 33.84800
C  42.69500 17.56900 34.74100
H  49.50200 18.82500 31.06600
H  49.67500 17.02500 25.01400
H  43.90400 14.15700 25.59500
H  45.50200 17.64400 33.32600
H  48.29800 17.72500 32.97500
H  47.05100 20.23500 32.10800
H  48.02100 19.93400 33.42300
H  46.34600 19.59300 33.69300
H  47.24200 15.24700 32.89400
H  45.74100 15.15900 33.72300
H  48.24000 15.87500 34.82200
H  46.86100 15.41900 35.78900
H  51.18400 19.72000 30.37900
H  51.68700 20.47300 28.83600
H  52.59900 19.11400 29.41300
H  52.85200 20.08300 26.76700
H  53.74400 18.86300 25.65000
H  53.71300 18.78600 27.29800
H  48.25600 15.58700 23.54100
H  45.33600 15.03600 23.65300
H  45.82200 17.47300 23.84800
H  46.72700 17.16800 22.27200
H  47.41600 18.08000 23.66500
H  46.70400 12.90200 25.16700
H  47.84100 13.44600 23.95100
H  45.45500 11.70300 23.68500
H  46.74700 11.87800 22.60300
H  45.31800 13.06800 22.61400
H  41.00200 13.93600 27.88100
H  42.14800 12.56300 27.88200
H  42.03100 13.77000 26.45000
H  43.74800 14.79300 32.44900
H  42.65600 17.17700 35.75700
H  41.67700 17.85800 34.47800
H  43.42800 18.37200 34.66400
Mg 51.51500 46.28600 42.30200
C  48.40500 47.43500 40.60400
C  51.14800 43.52900 40.51400
C  54.77400 45.67200 43.16300
C  51.90100 49.71500 43.24600
N  49.95400 45.65300 40.66200
C  48.78800 46.16200 40.32200
C  47.92500 45.14100 39.54200
C  48.84300 43.85600 39.48200
C  50.11900 44.38600 40.23500
C  48.12600 42.53900 39.93200
C  47.32800 45.57700 38.12200
C  45.77800 45.33500 38.00100
H  45.48800 44.20600 37.02200
N  52.75300 44.76500 41.95300
C  52.33300 43.62600 41.21200
C  53.37200 42.65500 41.34500
C  54.48800 43.26700 42.08400
C  54.05800 44.61300 42.46400
C  53.28800 41.27900 40.75800
C  55.77000 42.57100 42.44000
O  56.00600 41.47900 41.89600
C  56.72500 43.03800 43.46300
N  53.04900 47.53700 43.11100
C  54.24300 46.96300 43.49500
C  55.09300 48.01500 44.27800
C  54.12500 49.20200 44.36700
C  52.98400 48.89200 43.42500
C  55.59000 47.53500 45.73100
C  54.79700 50.54900 44.09400
C  55.13500 51.39500 45.42100
N  50.40500 48.24100 42.11000
C  50.66800 49.52000 42.65200
C  49.53500 50.33600 42.44500
C  48.69200 49.61700 41.57300
C  49.19600 48.31400 41.44000
C  49.39200 51.76900 43.01300
C  47.35100 49.67100 40.96900
O  46.47100 50.50400 41.04200
C  47.12300 48.26700 40.26400
C  45.92900 47.77400 40.89900
O  45.80600 47.32100 42.01400
O  44.86300 47.89100 40.03900
C  43.48300 47.74600 40.54300
H  50.93900 42.52500 40.14000
H  55.83500 45.56000 43.39700
H  52.10100 50.73300 43.58600
H  47.12200 45.04600 40.27200
H  49.21300 43.75200 38.46200
H  48.17500 41.81100 39.12300
H  47.14100 42.74500 40.34900
H  48.59100 42.15900 40.84200
H  47.86400 45.00700 37.36300
H  47.54400 46.63100 37.94900
H  45.46600 46.33500 37.70100
H  45.20200 45.07500 38.88900
H  53.00200 41.24000 39.70700
H  52.42200 40.82000 41.23500
H  54.07700 40.55500 40.96500
H  56.21400 43.31500 44.38500
H  57.25000 43.85800 42.97400
H  57.42200 42.21000 43.60100
H  55.90600 48.29400 43.60700
H  53.69900 49.18800 45.37000
H  54.89800 47.74500 46.54800
H  56.50400 48.06200 46.00400
H  55.69100 46.46400 45.55800
H  54.24600 51.18200 43.39900
H  55.69100 50.43500 43.48100
H  55.84200 50.87800 46.07000
H  54.26500 51.62600 46.03600
H  55.64600 52.31900 45.15400
H  48.53000 52.20000 42.50400
H  50.30900 52.35800 43.01500
H  49.05700 51.49500 44.01400
H  47.09600 48.55100 39.21200
H  43.31100 46.90000 41.20800
H  42.78800 47.88500 39.71400
H  43.29600 48.61300 41.17600

