158

Mg 7.92800 3.05500 27.49100
C  9.60300 2.00600 30.32900
C  6.51100 5.60400 29.44000
C  6.30800 4.17800 24.73500
C  9.34200 0.55600 25.60900
N  8.10600 3.76000 29.61500
C  8.70900 3.03800 30.57800
C  8.53800 3.76100 32.00700
C  7.51700 4.84400 31.60500
C  7.33200 4.68700 30.11200
C  6.03600 4.74400 32.31500
C  9.88200 4.42400 32.46500
C  9.76700 5.22800 33.80100
H  10.77000 4.82000 34.97000
N  6.63800 4.64000 27.14500
C  6.14500 5.57200 28.08900
C  5.27700 6.52800 27.39300
C  5.08800 6.00600 26.00100
C  5.99800 4.86000 25.90700
C  4.54000 7.76700 28.09800
C  4.25400 6.55400 24.84900
O  4.26600 6.06600 23.70000
C  3.56500 7.87200 25.05600
N  7.72400 2.30400 25.44000
C  7.02000 3.00200 24.49900
C  7.12300 2.34400 23.07900
C  8.20700 1.21400 23.38800
C  8.48600 1.34800 24.88700
C  5.83100 1.67900 22.49800
C  9.49900 1.03900 22.53600
C  10.75600 1.89900 22.87100
N  9.11600 1.53300 27.86900
C  9.71800 0.61100 26.97900
C  10.59500 -0.22200 27.74000
C  10.64100 0.30500 29.05800
C  9.64400 1.34700 29.09900
C  11.44100 -1.38000 27.16300
C  11.17100 0.07900 30.34300
O  11.96000 -0.74000 30.78500
C  10.47900 1.24400 31.27700
C  9.81600 0.62700 32.49200
O  8.84700 -0.04500 32.55500
O  10.67900 0.89300 33.53900
C  10.33600 0.36900 34.90000
H  6.23900 6.41200 30.12200
H  5.85100 4.56300 23.82200
H  9.63500 -0.26800 24.95500
H  8.12100 3.10900 32.77500
H  7.81700 5.88000 31.76800
H  5.16200 4.96600 31.70300
H  5.93300 5.45000 33.13900
H  5.80300 3.81400 32.83500
H  10.20900 5.07200 31.65100
H  10.65000 3.68700 32.69900
H  8.76900 5.18100 34.23700
H  9.95300 6.25700 33.49400
H  4.96500 8.75200 27.90200
H  4.55400 7.64900 29.18100
H  3.46200 7.73400 27.93900
H  2.68100 7.68000 25.66400
H  3.09200 8.23800 24.14400
H  4.24900 8.59000 25.50800
H  7.57500 3.06000 22.39400
H  7.62300 0.29400 23.38200
H  5.05100 1.60200 23.25500
H  6.04200 0.66000 22.17500
H  5.46300 2.23900 21.63800
H  9.34600 1.34900 21.50200
H  9.76000 -0.01400 22.63600
H  10.44000 2.70800 23.52900
H  11.16500 2.39700 21.99200
H  11.56400 1.26300 23.23300
H  11.05800 -1.85300 26.25900
H  11.41900 -2.18100 27.90100
H  12.47300 -1.08000 26.97800
H  11.32100 1.91300 31.45600
H  9.33800 0.68000 35.20900
H  11.08600 0.75600 35.59000
H  10.42800 -0.71200 34.79200
Mg -5.82900 25.44600 25.98700
C  -4.26500 26.65200 28.93800
C  -7.82300 23.51700 28.13300
C  -6.98000 23.83100 23.32100
C  -3.49600 27.12900 24.12200
N  -5.92200 25.15500 28.27300
C  -5.30100 25.78900 29.24300
C  -5.78300 25.36600 30.66400
C  -6.66400 24.15100 30.33200
C  -6.82300 24.23600 28.80100
C  -6.19400 22.89800 30.99200
C  -6.47700 26.53600 31.36600
C  -6.23500 26.81700 32.83800
H  -6.16800 25.52500 33.72700
N  -7.25600 23.91800 25.74700
C  -7.97500 23.28800 26.73600
C  -9.01200 22.50600 26.14800
C  -8.76000 22.53000 24.73900
C  -7.62700 23.43400 24.53000
C  -10.19800 21.84700 26.95600
C  -9.46900 21.70200 23.67200
O  -9.09200 21.68800 22.48500
C  -10.76000 20.98400 24.05300
N  -5.30400 25.51500 24.02200
C  -5.94600 24.81600 23.10900
C  -5.36300 24.98900 21.67600
C  -4.25100 26.04900 21.92000
C  -4.37200 26.27200 23.45000
C  -4.95100 23.77700 20.88800
C  -4.63600 27.45900 21.21700
C  -3.83200 27.64500 19.86900
N  -4.20200 26.72900 26.37500
C  -3.30400 27.33100 25.51200
C  -2.31300 28.06200 26.31800
C  -2.64300 27.86700 27.65100
C  -3.78400 27.01100 27.61600
C  -1.11700 28.91100 25.81600
C  -2.28800 28.18100 29.03300
O  -1.43900 28.92200 29.55400
C  -3.29900 27.35100 29.91600
C  -2.50700 26.45900 30.75900
O  -1.84200 25.55900 30.32700
O  -2.44300 26.96100 32.03100
C  -1.33400 26.52200 32.91700
H  -8.51000 23.09900 28.87300
H  -7.29900 23.38500 22.37700
H  -2.70700 27.60700 23.53800
H  -4.84100 25.07700 31.12900
H  -7.62600 24.29800 30.82200
H  -5.54600 23.15100 31.83100
H  -5.60600 22.32300 30.27600
H  -7.01200 22.26700 31.33800
H  -7.56000 26.49000 31.24900
H  -6.17000 27.43200 30.82500
H  -6.97900 27.46400 33.30200
H  -5.24100 27.26000 32.90100
H  -11.08900 22.28700 26.50800
H  -10.17000 22.24900 27.96900
H  -10.18600 20.78500 26.71100
H  -11.27500 20.66000 23.14800
H  -11.41100 21.75300 24.46800
H  -10.68100 20.13900 24.73700
H  -6.17500 25.38600 21.06500
H  -3.23200 25.73600 21.69000
H  -5.66300 22.95400 20.81400
H  -4.02400 23.42000 21.33800
H  -4.69300 24.09700 19.87900
H  -4.37300 28.33200 21.81300
H  -5.71300 27.50400 21.05100
H  -3.52600 26.77100 19.29300
H  -3.05100 28.39200 20.01800
H  -4.51600 28.23300 19.25700
H  -0.79700 28.48100 24.86700
H  -0.20300 28.85500 26.40800
H  -1.39600 29.95700 25.69000
H  -3.97200 27.97700 30.50100
H  -1.71000 25.56000 33.26600
H  -1.13300 27.20700 33.74100
H  -0.40000 26.34600 32.38200

