158

Mg 25.80300 1.53900 29.38100
C  27.98700 1.17500 32.12400
C  23.17100 2.05700 31.45500
C  23.95500 1.80400 26.67500
C  28.60300 0.46900 27.39500
N  25.63500 1.59200 31.58800
C  26.63700 1.45200 32.50800
C  26.11700 1.81700 33.90000
C  24.51400 1.94300 33.63300
C  24.40400 1.86100 32.11300
C  23.55200 0.90600 34.36200
C  26.90100 2.99000 34.55600
C  27.52000 2.88800 35.98300
H  26.88500 3.72200 37.03500
N  23.85600 1.79500 29.13300
C  22.92400 1.96200 30.07100
C  21.57500 2.09300 29.45300
C  21.78400 2.11100 28.02500
C  23.21100 1.88500 27.86500
C  20.32000 2.32000 30.33400
C  20.69700 2.30700 26.99000
O  20.91100 2.02900 25.84000
C  19.28400 2.81100 27.33700
N  26.16800 1.04600 27.32300
C  25.28500 1.46700 26.40300
C  25.89100 1.59400 24.98100
C  27.29000 0.88200 25.26600
C  27.38900 0.78200 26.74900
C  25.12200 0.95300 23.80900
C  28.51200 1.67900 24.59900
C  29.77000 0.86500 24.09900
N  27.87200 0.94500 29.63900
C  28.83700 0.50000 28.79200
C  30.03600 0.20100 29.47300
C  29.75900 0.54900 30.84700
C  28.43300 0.91000 30.83800
C  31.31000 -0.26200 28.82500
C  30.28500 0.67000 32.17600
O  31.46600 0.45400 32.49300
C  29.19200 1.14100 33.11100
C  29.02100 -0.03800 34.09200
O  28.19700 -0.92600 33.85300
O  29.85700 0.02800 35.22300
C  29.45600 -0.88000 36.23400
H  22.37500 2.33300 32.14900
H  23.46400 2.07400 25.73700
H  29.38000 0.19400 26.67900
H  26.35500 0.93900 34.50100
H  23.99900 2.87100 33.88200
H  22.78500 1.53700 34.81300
H  24.13600 0.33400 35.08300
H  23.09200 0.25300 33.62100
H  26.11400 3.73100 34.70100
H  27.50800 3.53400 33.83300
H  28.57700 3.12300 35.86400
H  27.42100 1.83000 36.22700
H  19.44800 1.89000 29.84000
H  20.08800 3.38500 30.36900
H  20.42300 1.85700 31.31500
H  18.67900 1.94000 27.59000
H  18.85800 3.41200 26.53300
H  19.29300 3.36000 28.27800
H  26.09400 2.62900 24.70700
H  27.30900 -0.16200 24.95500
H  25.81700 0.30500 23.27400
H  24.76900 1.72800 23.12800
H  24.29900 0.31500 24.13000
H  28.70500 2.43400 25.36200
H  28.13100 2.19800 23.72000
H  29.50800 -0.19200 24.05300
H  30.74900 1.06100 24.53500
H  29.85700 1.04600 23.02800
H  32.18300 -0.39500 29.46300
H  31.67000 0.22700 27.91900
H  31.02900 -1.25700 28.48100
H  29.25900 2.11300 33.59900
H  30.31400 -1.04600 36.88600
H  29.23400 -1.89500 35.90600
H  28.67000 -0.47500 36.87100
Mg 36.03100 2.46900 30.13200
C  33.54400 3.46900 32.34500
C  38.40200 2.75400 32.65200
C  38.29100 1.97400 27.75200
C  33.45900 2.62200 27.47500
N  36.03300 3.14700 32.27000
C  34.83400 3.38000 32.98900
C  35.09700 3.56300 34.43700
C  36.71400 3.53900 34.46700
C  37.10600 3.12300 33.05200
C  37.27400 4.91000 34.78500
C  34.41300 2.45500 35.28300
C  33.75300 2.83100 36.60600
H  34.54300 3.87000 37.53700
N  38.08600 2.49900 30.22900
C  38.89100 2.51100 31.35200
C  40.23400 1.97900 30.94300
C  40.20300 1.95200 29.49400
C  38.84700 2.18600 29.06700
C  41.29300 1.49500 31.85900
C  41.31200 1.77100 28.57000
O  41.13200 1.87200 27.39300
C  42.64200 1.35300 29.15500
N  35.86900 2.38900 27.87600
C  36.99600 1.97000 27.22300
C  36.72300 1.88900 25.71900
C  35.13200 1.84700 25.62900
C  34.78200 2.36900 27.09500
C  37.24100 3.02600 24.85300
C  34.56700 0.46300 25.41900
C  33.32900 0.33900 24.47100
N  33.93000 2.86400 29.92900
C  33.02600 2.92400 28.83400
C  31.69200 3.35500 29.28600
C  31.87300 3.62100 30.64700
C  33.24000 3.26100 30.96800
C  30.57300 3.68700 28.44000
C  31.23100 4.09700 31.88900
O  30.12100 4.58800 32.08300
C  32.24900 4.01900 32.97300
C  32.41600 5.41300 33.54700
O  32.99800 6.34100 32.97700
O  31.72200 5.55700 34.73100
C  31.57700 6.99200 35.03400
H  39.19400 2.75100 33.40400
H  38.85200 1.60700 26.89000
H  32.65900 2.69800 26.73600
H  34.69300 4.54700 34.67600
H  37.11300 2.77100 35.12900
H  36.52900 5.69400 34.92500
H  37.98400 5.33100 34.07400
H  37.93900 4.84800 35.64700
H  35.11300 1.62900 35.41000
H  33.60400 2.01100 34.70300
H  33.63500 1.87200 37.11100
H  32.76600 3.19300 36.31500
H  40.97000 1.43500 32.89900
H  42.15200 2.16500 31.83000
H  41.76900 0.56100 31.56100
H  42.99200 2.14500 29.81800
H  43.35200 1.20400 28.34200
H  42.71700 0.35800 29.59500
H  37.17200 0.96100 25.36500
H  34.69900 2.56300 24.93100
H  36.45600 3.65600 24.43600
H  37.92400 2.68700 24.07400
H  37.81800 3.60900 25.57100
H  34.27700 0.02000 26.37200
H  35.37400 -0.12700 24.98400
H  33.19000 1.25200 23.89100
H  32.42600 0.01800 24.99000
H  33.38900 -0.50300 23.78200
H  29.68900 3.72100 29.07800
H  30.61600 2.83100 27.76700
H  30.67400 4.66800 27.97600
H  31.90200 3.45500 33.83900
H  30.94300 7.24900 35.88300
H  31.13500 7.42300 34.13600
H  32.57500 7.37000 35.25400

