158

Mg 25.81200 0.83100 29.29900
C  27.84800 0.31500 32.18400
C  23.10800 0.91800 31.38600
C  23.98400 1.28000 26.61400
C  28.71100 0.19100 27.22200
N  25.56000 0.61600 31.48300
C  26.50700 0.57000 32.46100
C  25.83600 0.74100 33.89200
C  24.25300 0.58900 33.55100
C  24.34200 0.73200 32.03200
C  23.57100 -0.71800 34.10300
C  26.34600 2.03500 34.67000
C  26.50900 1.80100 36.21800
H  25.78200 2.82400 37.16300
N  23.78400 1.18300 29.11200
C  22.80900 1.21700 30.02000
C  21.54500 1.48700 29.42700
C  21.76800 1.46800 28.02200
C  23.24600 1.23000 27.83400
C  20.20600 1.47600 30.14800
C  20.71300 1.58900 26.91800
O  20.99000 1.47900 25.70400
C  19.22500 1.81600 27.19200
N  26.31400 0.70200 27.20000
C  25.30700 1.07300 26.31000
C  25.82300 1.29900 24.87500
C  27.25800 0.73900 25.05400
C  27.48000 0.48000 26.56300
C  24.99000 0.73500 23.69200
C  28.36700 1.61100 24.43800
C  28.42400 3.04900 24.96700
N  27.84000 0.20500 29.59000
C  28.86900 0.06200 28.66900
C  30.12600 -0.22800 29.42100
C  29.75900 0.01600 30.82200
C  28.42100 0.24400 30.84300
C  31.38000 -0.54800 28.79800
C  30.31500 0.04900 32.20500
O  31.44600 -0.08000 32.61700
C  29.04800 0.38400 33.07800
C  29.07000 -0.49700 34.27100
O  28.58000 -1.61400 34.28900
O  29.77700 0.03200 35.27300
C  29.87600 -0.83300 36.46300
H  22.20100 0.96400 31.99200
H  23.31600 1.61200 25.81600
H  29.67300 0.15100 26.70800
H  26.09700 -0.15300 34.45800
H  23.66000 1.45200 33.85300
H  24.33600 -1.39100 34.49200
H  22.80800 -1.22600 33.51400
H  22.98900 -0.45500 34.98600
H  25.61800 2.84600 34.70700
H  27.27400 2.38800 34.22000
H  27.59600 1.85100 36.28100
H  26.17200 0.80200 36.49500
H  19.55400 2.33800 30.01200
H  20.30200 1.42300 31.23300
H  19.65300 0.65300 29.69500
H  18.76000 1.04800 27.81000
H  18.53000 1.96600 26.36600
H  19.03400 2.75100 27.71900
H  25.84600 2.38700 24.81700
H  27.28300 -0.17200 24.45700
H  24.36900 -0.08500 24.05200
H  25.62700 0.32500 22.90800
H  24.36100 1.49900 23.23600
H  28.00400 1.64100 23.41000
H  29.31900 1.08300 24.37400
H  29.49700 3.24200 24.98000
H  27.96600 3.07000 25.95600
H  27.79700 3.67800 24.33600
H  31.56400 -0.19400 27.78400
H  31.46700 -1.63300 28.74600
H  32.15200 -0.06400 29.39700
H  29.09100 1.38700 33.50200
H  30.63000 -0.36200 37.09400
H  30.12400 -1.87700 36.27400
H  28.97600 -0.94500 37.06800
Mg 47.83500 34.57900 27.44200
C  46.38100 33.09100 30.24800
C  47.94700 37.56100 29.11400
C  49.13100 36.10500 24.60300
C  47.59800 31.62700 25.66000
N  47.15000 35.16400 29.44600
C  46.73700 34.40900 30.48100
C  46.86100 35.16300 31.75200
C  46.93000 36.68100 31.30500
C  47.35000 36.48200 29.81300
C  45.58300 37.44000 31.69400
C  48.13300 34.63100 32.48700
C  48.69400 35.49600 33.60000
H  47.62800 36.00100 34.53200
N  48.46100 36.51600 26.97800
C  48.53000 37.58200 27.80500
C  49.12600 38.73600 27.28300
C  49.74500 38.32600 26.05200
C  49.09300 36.93900 25.77900
C  49.16700 40.11600 27.95400
C  50.55400 39.13400 25.05900
O  50.77900 38.75600 23.89800
C  50.96800 40.57800 25.40000
N  48.25400 33.97100 25.36400
C  48.85900 34.73700 24.43400
C  49.14700 33.96700 23.13700
C  48.73400 32.49800 23.52800
C  48.13100 32.68100 24.93500
C  48.54400 34.71800 21.86400
C  49.81800 31.35300 23.32100
C  51.19200 31.53900 24.05200
N  47.06300 32.76200 27.76500
C  47.12800 31.59300 27.00900
C  46.63100 30.46800 27.78800
C  46.29500 31.02100 28.98400
C  46.59100 32.40400 29.01400
C  46.44900 29.06000 27.28900
C  45.81800 30.68500 30.29900
O  45.54000 29.58100 30.74200
C  45.59700 32.05200 31.11400
C  45.82400 31.79900 32.54600
O  46.87600 31.60400 33.10100
O  44.62200 31.66400 33.12700
C  44.65500 31.46500 34.55700
H  48.02000 38.43100 29.77100
H  49.62200 36.62600 23.77800
H  47.56100 30.62200 25.23400
H  45.95400 34.87100 32.28000
H  47.72500 37.24200 31.79400
H  44.87500 37.55300 30.87300
H  45.77500 38.43900 32.08700
H  45.13800 36.97700 32.57500
H  48.98900 34.41000 31.85000
H  47.73300 33.77400 33.03000
H  49.23700 36.34300 33.18100
H  49.17500 34.81300 34.30100
H  49.25700 40.95000 27.25800
H  50.04600 40.06100 28.59700
H  48.37300 40.30200 28.67700
H  51.39300 40.56200 26.40400
H  50.19100 41.34200 25.39900
H  51.72200 40.85400 24.66300
H  50.23200 34.06400 23.10900
H  47.88800 32.25300 22.88600
H  49.39300 35.26700 21.45700
H  47.62000 35.21100 22.16400
H  48.21200 33.99100 21.12400
H  50.08200 31.27800 22.26600
H  49.32400 30.41600 23.57900
H  51.21500 30.55100 24.51200
H  51.16200 32.31700 24.81400
H  52.03400 31.59600 23.36200
H  47.13300 28.89700 26.45700
H  45.47400 28.84200 26.85300
H  46.54500 28.36700 28.12500
H  44.53500 32.29600 31.07900
H  44.99200 32.31800 35.14500
H  45.17100 30.56300 34.88600
H  43.62100 31.34400 34.88100

