158

Mg 17.68600 -1.94800 28.44000
C  16.74700 0.31300 31.08400
C  19.47900 -3.76000 30.58300
C  18.29700 -4.01400 25.90400
C  16.35200 0.39600 26.33100
N  18.24400 -1.54800 30.52700
C  17.72900 -0.64800 31.41300
C  18.20400 -1.04500 32.80500
C  19.14500 -2.24300 32.61900
C  18.85300 -2.61700 31.14700
C  20.67100 -1.88100 32.98000
C  17.04700 -1.31400 33.80400
C  17.09000 -0.72600 35.21300
H  18.35500 -0.65800 35.94800
N  18.66100 -3.76300 28.34600
C  19.38800 -4.30700 29.31500
C  19.99200 -5.55600 28.83600
C  19.72500 -5.66700 27.44500
C  18.81300 -4.49000 27.15900
C  20.56600 -6.54400 29.78900
C  20.17700 -6.75200 26.36000
O  19.79400 -6.73800 25.19200
C  21.05400 -7.88700 26.82400
N  17.44700 -1.78600 26.37900
C  17.71600 -2.79200 25.54500
C  17.50000 -2.38300 24.03900
C  16.77200 -0.97800 24.19400
C  16.92300 -0.70400 25.70400
C  18.61500 -2.48700 23.03800
C  15.31100 -0.85800 23.61600
C  15.24900 -0.19300 22.25800
N  16.73200 0.02300 28.57100
C  16.15800 0.73800 27.61100
C  15.43700 1.84500 28.13100
C  15.67500 1.78500 29.51100
C  16.48000 0.60100 29.76300
C  14.64000 2.81700 27.26200
C  15.45900 2.40900 30.79100
O  14.80600 3.38500 31.16900
C  16.11400 1.42000 31.82500
C  17.10700 2.16600 32.66400
O  18.32100 2.33800 32.41600
O  16.42700 2.79400 33.64400
C  17.33100 3.77000 34.39700
H  19.94600 -4.39500 31.33900
H  18.53600 -4.59100 25.00800
H  15.97900 1.10900 25.59300
H  18.75400 -0.13000 33.02600
H  18.77600 -3.01000 33.30100
H  20.95200 -2.02500 34.02400
H  20.90100 -0.82900 32.80700
H  21.32900 -2.50000 32.37000
H  17.11500 -2.37100 34.06300
H  16.09300 -1.13800 33.30800
H  16.43300 -1.20900 35.93600
H  16.53800 0.21400 35.19000
H  21.48000 -6.07400 30.15300
H  20.95600 -7.51100 29.47100
H  20.00300 -6.67300 30.71300
H  21.38200 -8.53400 26.01000
H  20.41900 -8.42900 27.52400
H  21.89300 -7.41000 27.32900
H  16.76300 -3.10200 23.68200
H  17.32900 -0.27100 23.57900
H  19.54700 -2.74500 23.54100
H  18.85900 -1.51300 22.61400
H  18.36400 -3.24000 22.29200
H  14.74100 -0.32100 24.37300
H  14.80000 -1.81800 23.54400
H  16.21900 -0.00400 21.79800
H  14.79400 0.79400 22.34300
H  14.72900 -0.90100 21.61300
H  15.24300 3.58800 26.78400
H  14.06400 3.33000 28.03200
H  13.95400 2.39700 26.52600
H  15.23500 1.14700 32.40900
H  16.97100 4.78200 34.21600
H  18.40300 3.74000 34.20400
H  17.16200 3.68100 35.47000
Mg 8.98500 47.75700 24.56500
C  6.91900 47.96900 27.33900
C  11.61500 48.68300 26.42300
C  10.89000 47.35200 21.69700
C  6.09100 47.50300 22.59300
N  9.23300 48.24000 26.68800
C  8.25900 48.24200 27.68300
C  8.93700 48.56700 29.00400
C  10.28200 49.29700 28.53700
C  10.41100 48.74700 27.09500
C  10.13900 50.91300 28.65700
C  9.25700 47.32100 29.97900
C  9.30800 47.66700 31.51700
H  8.59900 46.85900 32.54100
N  10.89500 47.98500 24.15500
C  11.88700 48.31600 25.07100
C  13.20300 48.13100 24.51800
C  12.97600 47.82300 23.14000
C  11.53400 47.74400 22.91600
C  14.47500 48.48400 25.30500
C  13.97400 47.69900 22.03700
O  13.65900 47.48900 20.84600
C  15.41700 47.73100 22.33800
N  8.53700 47.60300 22.37700
C  9.54200 47.24200 21.52100
C  8.89800 46.41300 20.41500
C  7.37000 46.73300 20.47000
C  7.29000 47.34500 21.86800
C  9.45900 46.76200 18.99500
C  6.44700 45.54000 20.34600
C  5.23400 45.61500 19.40400
N  6.94500 47.82900 24.84600
C  5.92900 47.68900 23.97400
C  4.73700 47.57800 24.70000
C  5.05600 47.68000 26.07300
C  6.44100 47.77700 26.06500
C  3.38900 47.36100 24.19600
C  4.50200 47.79000 27.47400
O  3.38100 47.67800 27.85900
C  5.73500 47.92800 28.33000
C  5.67700 46.78900 29.19400
O  6.09900 45.69800 29.02200
O  4.97800 47.07900 30.32200
C  4.63400 45.92800 31.18400
H  12.43100 48.91400 27.11100
H  11.44100 46.70200 21.01400
H  5.19500 47.22400 22.03500
H  8.30100 49.26100 29.55400
H  11.14000 48.98200 29.13000
H  10.88600 51.26600 29.36700
H  9.18800 51.25700 29.06300
H  10.28300 51.37500 27.68000
H  10.24500 47.04000 29.61400
H  8.62400 46.46800 29.73500
H  8.98700 48.70100 31.64800
H  10.35700 47.77000 31.79600
H  14.34800 48.55400 26.38500
H  14.88200 49.42300 24.93000
H  15.18900 47.66100 25.28800
H  15.53200 46.87300 23.00000
H  15.44700 48.74400 22.73800
H  15.89900 47.57400 21.37300
H  9.08400 45.34700 20.54500
H  6.96000 47.58400 19.92500
H  10.24400 47.51800 18.98100
H  8.74500 47.29000 18.36200
H  9.91000 45.87400 18.55200
H  6.09300 45.14900 21.30000
H  7.07600 44.71200 20.01900
H  5.22700 44.74500 18.74800
H  5.33700 46.41000 18.66500
H  4.31300 45.71400 19.98000
H  3.33800 46.50000 23.52900
H  2.99400 48.23500 23.67800
H  2.67800 47.07200 24.97100
H  5.70500 48.89000 28.84200
H  4.22500 45.19500 30.48900
H  3.87300 46.34500 31.84300
H  5.54400 45.61900 31.69700

