158

Mg -1.95500 17.22400 25.33300
C  -2.59800 15.10400 28.15200
C  -3.04000 19.83200 27.19200
C  -2.30700 19.00200 22.46000
C  -1.37100 14.41200 23.35600
N  -2.77600 17.33400 27.41500
C  -2.84100 16.46300 28.42800
C  -3.19100 17.19000 29.74300
C  -3.66700 18.62300 29.28700
C  -3.11000 18.60500 27.86000
C  -5.19500 18.89100 29.34300
C  -2.10900 17.29900 30.92400
C  -2.77500 17.35000 32.30900
H  -2.42800 16.22200 33.31500
N  -2.29000 19.13200 24.86500
C  -2.66500 20.09500 25.80200
C  -2.51300 21.41400 25.18400
C  -2.36200 21.16200 23.84600
C  -2.34500 19.71700 23.66000
C  -2.59900 22.66300 26.00700
C  -2.18100 22.18900 22.68500
O  -2.17600 21.87000 21.50500
C  -2.06300 23.64400 23.03500
N  -1.93400 16.73800 23.21100
C  -2.22400 17.60600 22.23700
C  -2.04800 16.97200 20.85300
C  -1.33600 15.63400 21.18200
C  -1.46200 15.57200 22.70700
C  -3.39200 16.96500 20.06900
C  0.12100 15.32400 20.72800
C  1.26300 15.46600 21.75300
N  -2.03400 15.22200 25.63400
C  -1.62200 14.19200 24.75400
C  -1.57500 12.96000 25.52400
C  -1.97700 13.30400 26.75300
C  -2.21100 14.67900 26.86200
C  -1.37000 11.59100 25.05000
C  -2.21400 12.71400 28.02300
O  -2.18500 11.54300 28.38800
C  -2.74300 13.85600 28.94900
C  -1.82200 13.65600 30.13900
O  -0.61500 14.04800 30.24700
O  -2.47400 12.93400 31.08000
C  -1.77200 12.67400 32.37300
H  -3.46600 20.69200 27.71300
H  -2.24800 19.43000 21.45700
H  -1.16300 13.67600 22.57700
H  -4.07400 16.66700 30.10800
H  -3.24000 19.32800 30.00000
H  -5.32800 19.63900 30.12400
H  -5.62600 17.94800 29.68000
H  -5.57900 19.23400 28.38200
H  -1.57300 18.24600 30.98700
H  -1.41000 16.46300 30.89400
H  -3.85900 17.33800 32.19500
H  -2.47100 18.28500 32.77800
H  -2.64300 22.49200 27.08300
H  -3.40200 23.28600 25.61400
H  -1.64600 23.16200 25.82800
H  -1.13700 23.71900 23.60500
H  -2.86400 23.98500 23.69100
H  -1.85200 24.33700 22.22000
H  -1.35200 17.59100 20.28700
H  -1.93600 14.81200 20.79100
H  -4.01200 17.72400 20.54600
H  -3.85600 15.97900 20.04400
H  -3.13100 17.24800 19.04900
H  0.35200 16.07000 19.96700
H  0.20500 14.31300 20.33100
H  0.93300 16.12900 22.55300
H  2.11900 16.00000 21.34200
H  1.42900 14.52400 22.27600
H  -1.41400 11.66700 23.96400
H  -2.27000 11.15400 25.48400
H  -0.41900 11.14500 25.34100
H  -3.72800 13.45800 29.19200
H  -1.27500 11.71700 32.20900
H  -2.54600 12.63300 33.13900
H  -0.92200 13.29000 32.66600
Mg 25.98000 -0.21700 29.52800
C  27.73400 -0.64300 32.60300
C  23.14800 0.18000 31.28500
C  24.43400 -0.24100 26.55300
C  28.96100 -1.04900 27.91500
N  25.56700 -0.24200 31.71800
C  26.39100 -0.35000 32.82800
C  25.65400 -0.05000 34.14200
C  24.14400 0.09200 33.66100
C  24.24900 -0.00700 32.09900
C  23.14200 -0.86700 34.32700
C  26.22600 1.25900 34.90900
C  26.89100 1.05700 36.28500
H  26.38500 1.93800 37.41900
N  24.07400 -0.02700 29.00300
C  23.00700 0.02100 29.86400
C  21.81100 0.01500 29.10700
C  22.13700 0.14600 27.70800
C  23.60100 -0.09200 27.64500
C  20.46800 -0.11200 29.73400
C  21.25400 0.49500 26.47800
O  21.69600 0.77700 25.36400
C  19.72100 0.52500 26.63400
N  26.64300 -0.42400 27.48400
C  25.77700 -0.46600 26.46500
C  26.46000 -0.79300 25.14000
C  27.96500 -0.77000 25.54100
C  27.94400 -0.69100 27.02800
C  25.97300 -1.99200 24.41800
C  28.76500 0.46400 25.03400
C  28.92400 0.74000 23.47500
N  27.98000 -0.81600 30.07200
C  29.06400 -1.07600 29.29000
C  30.22500 -1.38500 30.11800
C  29.77300 -1.15400 31.37900
C  28.35200 -0.84900 31.36000
C  31.55800 -1.89400 29.58100
C  30.14600 -1.08200 32.80300
O  31.23600 -1.10400 33.41000
C  28.85800 -0.82100 33.61700
C  28.51900 -1.99400 34.47800
O  27.69800 -2.89000 34.26900
O  29.10700 -1.79500 35.66900
C  28.66600 -2.70400 36.76000
H  22.17900 0.41500 31.73000
H  23.90200 -0.34500 25.60500
H  29.92900 -0.93200 27.42300
H  25.71100 -0.94300 34.76400
H  23.79000 1.04500 34.05700
H  22.34300 -1.16900 33.64900
H  22.72900 -0.32900 35.18000
H  23.59400 -1.82500 34.58400
H  25.46900 2.03800 34.99400
H  26.89400 1.80600 34.24400
H  27.97500 1.16800 36.25100
H  26.83400 -0.00900 36.50200
H  19.93300 -0.87900 29.17400
H  19.95900 0.84400 29.85800
H  20.62100 -0.46900 30.75300
H  19.16100 1.11200 25.90600
H  19.63900 0.99600 27.61400
H  19.32200 -0.48800 26.59600
H  26.20500 0.13000 24.61900
H  28.43400 -1.72100 25.29000
H  26.75500 -2.71000 24.17000
H  25.43900 -1.68400 23.51900
H  25.18700 -2.40000 25.05300
H  29.75800 0.19200 25.39300
H  28.20700 1.30200 25.45300
H  28.68800 1.79500 23.33700
H  28.20800 0.06800 23.00100
H  29.93400 0.59200 23.09100
H  32.30300 -1.61400 30.32500
H  31.78200 -1.41200 28.62900
H  31.50300 -2.98000 29.50500
H  28.91900 0.10900 34.18400
H  29.38600 -3.50500 36.92500
H  27.71300 -3.19100 36.55100
H  28.52400 -2.02500 37.60100

