158

Mg 48.27800 34.36500 27.15100
C  46.11400 33.27600 29.72000
C  48.83300 37.11500 29.00800
C  49.51700 35.63700 24.48700
C  46.80900 31.67100 25.10000
N  47.50900 35.06900 29.12700
C  46.83800 34.42300 30.06400
C  46.97900 35.05600 31.45900
C  47.38300 36.50300 31.08700
C  47.98900 36.23200 29.65200
C  46.14700 37.54300 30.98400
C  48.07800 34.33800 32.32200
C  47.90900 34.32500 33.82200
H  46.77800 35.24100 34.45100
N  49.12900 36.13300 26.80500
C  49.26600 37.19900 27.70700
C  50.01700 38.18400 27.02700
C  50.22600 37.73400 25.70700
C  49.62200 36.40500 25.65600
C  50.31500 39.51500 27.70700
C  51.01800 38.46700 24.57400
O  51.26900 37.96000 23.46000
C  51.54200 39.71800 24.83000
N  48.23300 33.59000 25.02700
C  48.94100 34.36600 24.20600
C  48.93800 33.78100 22.81300
C  48.32900 32.29600 23.04700
C  47.78800 32.46400 24.46200
C  48.14700 34.67700 21.79500
C  49.42100 31.17100 22.80100
C  49.52000 30.56000 21.41300
N  46.90300 32.68000 27.32600
C  46.41100 31.73300 26.44300
C  45.56500 30.78100 27.15400
C  45.35700 31.37200 28.42000
C  46.18200 32.51200 28.48000
C  44.88400 29.59000 26.58200
C  44.63400 31.18800 29.63400
O  43.90100 30.27800 29.92000
C  44.99300 32.53000 30.52800
C  45.37300 31.90300 31.82100
O  46.40500 31.30500 31.99900
O  44.30300 31.97000 32.67000
C  44.61600 31.63500 34.01200
H  49.09400 37.98400 29.61600
H  50.02200 36.03800 23.60500
H  46.53900 30.90700 24.36800
H  46.02600 35.12100 31.98500
H  48.14900 36.94000 31.72700
H  45.39400 37.40600 31.75900
H  45.66800 37.33900 30.02700
H  46.43700 38.59400 30.97200
H  49.02900 34.85800 32.21300
H  48.33000 33.29600 32.12300
H  48.85800 34.65600 34.24400
H  47.77200 33.29500 34.15100
H  51.40300 39.57700 27.69800
H  49.92000 39.57600 28.72100
H  49.88900 40.42500 27.28500
H  52.47200 39.62900 25.39100
H  50.78300 40.46100 25.07700
H  51.85100 40.04100 23.83600
H  49.96700 33.82100 22.45500
H  47.50300 32.07500 22.37100
H  47.08800 34.42100 21.81400
H  48.52600 34.44300 20.80000
H  48.27000 35.72400 22.07300
H  49.20200 30.31200 23.43600
H  50.38000 31.50200 23.19900
H  49.21600 29.51700 21.50600
H  50.55700 30.65900 21.09200
H  48.84100 31.06400 20.72400
H  44.29500 29.03900 27.31500
H  45.65200 28.91800 26.19800
H  44.18400 29.84700 25.78700
H  44.04600 33.01500 30.76600
H  45.52800 31.04900 34.13000
H  43.83900 31.04100 34.49200
H  44.74600 32.50700 34.65300
Mg -9.03600 40.38200 39.20200
C  -9.01900 37.05100 38.23600
C  -5.76400 40.74100 38.11100
C  -9.49400 43.78300 39.23700
C  -12.47800 40.00200 39.89300
N  -7.63100 39.11400 38.21900
C  -7.81000 37.74800 38.07600
C  -6.44300 37.12000 37.58500
C  -5.38600 38.21100 38.01100
C  -6.28500 39.44300 38.14100
C  -4.50000 37.86300 39.27600
C  -6.36600 36.63400 36.11300
C  -6.87300 37.59500 35.01600
H  -7.85500 37.13900 33.97400
N  -7.85900 42.02800 38.74600
C  -6.53800 41.95100 38.40500
C  -6.07700 43.29500 38.25300
C  -7.09100 44.23600 38.40800
C  -8.18600 43.34400 38.83400
C  -4.70100 43.60900 37.96300
C  -7.04300 45.76500 38.31000
O  -6.06600 46.34400 37.88100
C  -8.21400 46.73000 38.58900
N  -10.76600 41.73700 39.44600
C  -10.63900 43.03500 39.52300
C  -11.92100 43.78000 39.96500
C  -12.84600 42.56800 40.25400
C  -12.04700 41.32400 39.73300
C  -11.77800 44.75400 41.19600
C  -14.35700 42.64300 39.82800
C  -15.46700 42.94300 40.95800
N  -10.44800 38.87900 39.12200
C  -11.85200 38.87500 39.48400
C  -12.34100 37.54300 39.35700
C  -11.26400 36.80100 38.85700
C  -10.17800 37.64800 38.71600
C  -13.66200 36.93500 39.73800
C  -10.80900 35.46200 38.53600
O  -11.38400 34.34600 38.51100
C  -9.27800 35.53100 38.22800
C  -8.42600 34.76600 39.24500
O  -8.42200 34.78300 40.47000
O  -7.60200 34.05800 38.48600
C  -6.49700 33.48000 39.23300
H  -4.70700 40.99100 38.00100
H  -9.62100 44.86800 39.26300
H  -13.47600 39.90200 40.32500
H  -6.47800 36.23600 38.22100
H  -4.71200 38.37800 37.17000
H  -4.70300 38.50500 40.13300
H  -3.43600 37.86300 39.03700
H  -4.74500 36.86200 39.63300
H  -6.96500 35.74300 35.92600
H  -5.32500 36.39000 35.89800
H  -5.98100 38.05000 34.58400
H  -7.40400 38.44000 35.45400
H  -4.49900 43.70900 36.89700
H  -3.98000 42.86100 38.29500
H  -4.34300 44.45200 38.55500
H  -8.66600 46.69900 39.58100
H  -8.86300 46.43900 37.76300
H  -7.94700 47.78100 38.47900
H  -12.29900 44.38300 39.14000
H  -12.86600 42.34100 41.32000
H  -12.33200 44.50100 42.10000
H  -12.11900 45.78000 41.05400
H  -10.74300 44.80600 41.53300
H  -14.59200 41.68900 39.35600
H  -14.47700 43.47200 39.13100
H  -16.22100 42.16100 41.05200
H  -15.92700 43.89800 40.70600
H  -14.88400 42.93000 41.87900
H  -14.18300 37.54300 40.47800
H  -13.50900 35.98200 40.24500
H  -14.22100 36.78200 38.81400
H  -9.03600 35.07800 37.26700
H  -5.91800 34.33000 39.59500
H  -5.86300 32.87900 38.58200
H  -6.88700 32.81600 40.00400

