158

Mg 8.63700 3.49400 27.78700
C  10.18500 2.06200 30.68800
C  6.83500 5.52000 29.75500
C  6.92200 4.52100 25.02000
C  10.02400 0.92600 25.82300
N  8.53300 3.65700 30.04000
C  9.22100 3.02100 31.00100
C  8.92300 3.64100 32.38700
C  7.84100 4.73600 32.02200
C  7.72700 4.62800 30.51800
C  6.46900 4.67400 32.78300
C  10.21900 4.22900 33.12000
C  9.98000 4.90600 34.51500
H  10.91400 4.48700 35.59800
N  7.14700 4.77500 27.44700
C  6.59400 5.60600 28.41500
C  5.64300 6.53300 27.81600
C  5.75900 6.33300 26.42500
C  6.59300 5.17400 26.19800
C  4.65800 7.38900 28.60500
C  5.02400 7.03700 25.25900
O  5.16000 6.74100 24.10100
C  4.08100 8.25200 25.41700
N  8.54200 2.86600 25.68600
C  7.84400 3.47700 24.73000
C  7.90500 2.68200 23.37100
C  9.11000 1.72100 23.56700
C  9.30600 1.87500 25.05600
C  6.61400 2.10400 22.99700
C  10.38500 2.16700 22.71200
C  11.34300 1.10800 22.17200
N  9.77200 1.76300 28.13000
C  10.27200 0.87900 27.25500
C  11.10800 -0.06700 27.93600
C  11.13800 0.41000 29.26000
C  10.33800 1.51000 29.35500
C  11.78600 -1.29400 27.30900
C  11.68600 0.18500 30.63300
O  12.42600 -0.69000 31.01900
C  11.05500 1.21700 31.57700
C  10.22500 0.41700 32.52600
O  9.38600 -0.47500 32.34300
O  10.63100 0.84000 33.83400
C  10.01000 0.03600 34.86700
H  6.28500 6.27800 30.31700
H  6.42500 4.83000 24.09800
H  10.47000 0.08800 25.28400
H  8.37500 2.85800 32.91200
H  8.12400 5.77700 32.18300
H  6.16800 5.67500 33.09200
H  6.67300 4.05600 33.65800
H  5.68000 4.26300 32.15400
H  10.71900 4.92000 32.44100
H  10.99800 3.46900 33.18700
H  8.93300 4.79600 34.80000
H  10.08900 5.97400 34.32500
H  3.71800 7.39800 28.05400
H  4.95200 8.43600 28.68600
H  4.40600 7.05500 29.61100
H  4.66200 8.99000 25.97000
H  3.24200 7.96400 26.05000
H  3.82500 8.78300 24.49900
H  8.20400 3.40300 22.61000
H  8.76900 0.73400 23.25500
H  5.79600 2.37900 23.66200
H  6.65400 1.01700 23.06800
H  6.28300 2.41900 22.00700
H  10.95200 2.90000 23.28500
H  9.96900 2.63000 21.81700
H  10.92700 0.16400 22.52400
H  12.29700 1.32200 22.65500
H  11.35600 0.99800 21.08800
H  11.00100 -2.00100 27.03900
H  12.56200 -1.78800 27.89300
H  12.14700 -0.88300 26.36700
H  11.84700 1.86500 31.95200
H  9.22400 0.75000 35.11300
H  10.72500 -0.21300 35.65100
H  9.54500 -0.90800 34.58100
Mg -6.01800 25.39100 25.37700
C  -4.11100 26.43800 28.29200
C  -7.66200 23.22900 27.56900
C  -7.12100 23.88900 22.77900
C  -3.79100 27.37200 23.49500
N  -5.86400 24.92700 27.70500
C  -5.15100 25.55800 28.63500
C  -5.75600 25.33000 30.05300
C  -6.72200 24.10200 29.82700
C  -6.76400 24.09400 28.28000
C  -6.27300 22.76900 30.60100
C  -6.42600 26.56900 30.66900
C  -6.07200 26.67300 32.19100
H  -7.22400 26.19500 33.06400
N  -7.35500 23.93400 25.18500
C  -8.04200 23.24700 26.14300
C  -9.05900 22.38400 25.50400
C  -8.87000 22.49700 24.14600
C  -7.76200 23.45300 24.00100
C  -10.09800 21.64500 26.30700
C  -9.49300 21.74500 22.88900
O  -9.09200 21.70700 21.75700
C  -10.63100 20.89200 23.14700
N  -5.66200 25.73400 23.37400
C  -6.14700 24.85900 22.47900
C  -5.52800 25.04500 21.04500
C  -4.62600 26.35400 21.25400
C  -4.71500 26.58500 22.77300
C  -5.07000 23.83700 20.25200
C  -5.09000 27.68800 20.56300
C  -4.44200 28.14800 19.20200
N  -4.31600 26.61400 25.77800
C  -3.58100 27.36000 24.89800
C  -2.46800 28.03300 25.55200
C  -2.70100 27.78200 26.92000
C  -3.76900 26.81900 26.99100
C  -1.46300 28.83100 24.87600
C  -2.23600 28.11800 28.28600
O  -1.37000 28.89500 28.75000
C  -3.17600 27.24500 29.16500
C  -2.36900 26.49200 30.13900
O  -2.04400 25.32200 29.92700
O  -2.00400 27.19200 31.30000
C  -1.42200 26.34200 32.35800
H  -8.22000 22.71200 28.35300
H  -7.46500 23.43000 21.85100
H  -3.06700 27.93900 22.90600
H  -4.96200 24.99800 30.72200
H  -7.72400 24.31300 30.20000
H  -7.12500 22.30700 31.10000
H  -5.35600 22.78300 31.19000
H  -6.14000 22.03900 29.80300
H  -7.48700 26.42400 30.46600
H  -5.99900 27.46000 30.20900
H  -6.02500 27.74100 32.40400
H  -5.17000 26.15400 32.51500
H  -10.36000 20.65600 25.93100
H  -10.98800 22.27400 26.33400
H  -9.83100 21.48500 27.35100
H  -11.15600 20.77700 22.19900
H  -11.35400 21.41100 23.77600
H  -10.21900 19.94500 23.49500
H  -6.36500 25.29900 20.39500
H  -3.58100 26.22500 20.97100
H  -5.94300 23.18500 20.21500
H  -4.31700 23.34200 20.86500
H  -4.68800 24.15100 19.28100
H  -4.94700 28.41100 21.36600
H  -6.15100 27.53600 20.36500
H  -3.84400 29.05100 19.32300
H  -5.15300 28.31700 18.39400
H  -3.76500 27.40900 18.77100
H  -1.14400 28.30900 23.97400
H  -0.63100 28.73200 25.57300
H  -1.77600 29.87100 24.78100
H  -3.84200 27.84100 29.78900
H  -2.18300 26.23200 33.13100
H  -0.55300 26.82400 32.80600
H  -1.11400 25.33500 32.07600

