158

Mg 49.23200 44.58200 42.47400
C  45.86200 44.78600 41.64500
C  49.02300 41.21400 41.81800
C  52.65100 44.33500 42.75600
C  49.38800 48.03000 42.99200
N  47.71100 43.28400 41.56500
C  46.47900 43.58400 41.27400
C  45.72600 42.38800 40.82700
C  46.52900 41.24800 41.45400
C  47.87800 41.92000 41.59700
C  45.98400 40.85300 42.89600
C  45.54200 42.34300 39.31400
C  44.10900 42.71700 38.76700
H  44.17600 43.79000 37.68100
N  50.64500 42.99700 42.44700
C  50.33200 41.69300 42.16300
C  51.49700 40.91300 42.10900
C  52.64500 41.72900 42.47600
C  52.04900 43.09600 42.58700
C  51.57900 39.43900 41.75900
C  54.04600 41.32600 42.70300
O  54.34700 40.14200 42.88500
C  55.11800 42.26000 42.83400
N  50.79500 46.02000 42.54400
C  52.10200 45.66100 42.75800
C  53.04600 46.91100 42.89200
C  51.93200 48.01700 42.89800
C  50.60200 47.30300 42.88500
C  53.91400 47.06700 44.15900
C  52.14500 49.11800 41.77800
C  51.67900 50.52700 42.05200
N  47.99300 46.16000 42.38500
C  48.10300 47.46700 42.69800
C  46.83700 48.08800 42.57800
C  45.92500 47.04800 42.14500
C  46.67100 45.88300 42.06400
C  46.47600 49.50400 42.75200
C  44.56000 46.77500 41.96300
O  43.62500 47.60200 42.01700
C  44.48600 45.34600 41.60500
C  43.62200 44.61500 42.51900
O  42.42000 44.57200 42.35100
O  44.26400 44.08200 43.63600
C  43.33200 43.61000 44.72600
H  48.83700 40.14500 41.70000
H  53.73800 44.43700 42.75900
H  49.39300 49.08100 43.28700
H  44.72200 42.48100 41.24100
H  46.60500 40.45700 40.70800
H  45.05600 41.37000 43.14100
H  46.70200 41.12200 43.67100
H  45.89000 39.77000 42.82400
H  45.70600 41.37400 38.84100
H  46.27900 43.03200 38.90200
H  43.43600 43.07500 39.54600
H  43.69500 41.86300 38.23000
H  52.23400 39.28200 40.90300
H  50.56400 39.06200 41.63600
H  52.03100 38.92600 42.60800
H  55.20900 42.85300 41.92400
H  56.02700 41.65900 42.85800
H  55.04700 42.80300 43.77700
H  53.54800 46.85300 41.92600
H  51.91900 48.62700 43.80100
H  53.76600 46.26600 44.88300
H  53.62400 48.01800 44.60500
H  54.96400 47.05100 43.86800
H  51.79200 48.70100 40.83500
H  53.23000 49.20800 41.73700
H  51.69700 50.93100 43.06500
H  50.63600 50.59800 41.74400
H  52.24300 51.24200 41.45400
H  47.11500 50.05900 42.06600
H  46.79700 49.86000 43.73100
H  45.42700 49.65600 42.49600
H  44.00700 45.28700 40.62800
H  43.94400 43.41200 45.60600
H  42.88400 42.70000 44.32700
H  42.56200 44.33800 44.97900
Mg -5.93900 25.49300 26.23300
C  -4.04100 26.95500 28.82000
C  -7.23200 23.33300 28.51000
C  -7.15700 23.80500 23.59900
C  -4.21000 27.71500 24.06700
N  -5.58700 25.18100 28.41000
C  -5.06000 26.10500 29.27800
C  -5.52600 25.87500 30.72100
C  -6.29900 24.54700 30.55500
C  -6.42300 24.29600 29.07600
C  -5.89800 23.27900 31.31900
C  -6.26800 27.08200 31.35600
C  -6.82300 26.83800 32.72300
H  -6.14800 25.82200 33.62700
N  -7.13500 23.84900 26.05100
C  -7.56900 23.09600 27.12100
C  -8.36900 22.00800 26.60200
C  -8.40900 22.17300 25.18700
C  -7.53700 23.27600 24.84200
C  -9.06500 21.11500 27.53700
C  -9.25500 21.44600 24.15400
O  -9.36900 21.82700 22.97900
C  -10.18500 20.36600 24.61500
N  -5.67500 25.62300 24.13500
C  -6.22900 24.79900 23.23800
C  -5.98800 25.25300 21.77600
C  -5.21700 26.56600 21.91700
C  -5.00800 26.70900 23.50100
C  -5.39100 24.14800 20.86300
C  -5.77300 27.84400 21.24200
C  -5.05600 28.47800 20.06200
N  -4.42100 27.00600 26.36800
C  -3.80100 27.79100 25.38600
C  -2.81700 28.66500 25.94700
C  -2.84000 28.28400 27.32800
C  -3.79600 27.28500 27.49000
C  -1.98200 29.70300 25.23700
C  -2.30900 28.56100 28.63500
O  -1.45300 29.42200 28.92400
C  -3.06900 27.69700 29.65600
C  -2.15000 27.09800 30.72100
O  -1.47100 26.10800 30.55500
O  -2.27400 27.82800 31.88900
C  -1.87600 27.21600 33.11500
H  -7.68000 22.67200 29.25600
H  -7.31700 23.21100 22.69600
H  -3.75000 28.43500 23.38700
H  -4.68700 25.69400 31.39400
H  -7.31200 24.79800 30.87000
H  -5.04300 23.38700 31.98600
H  -5.57200 22.44600 30.69600
H  -6.73900 23.02600 31.96500
H  -7.10700 27.19200 30.67000
H  -5.60500 27.94800 31.37900
H  -7.86900 26.57700 32.56400
H  -6.76500 27.74400 33.32700
H  -10.07900 21.51400 27.56500
H  -8.64300 21.21700 28.53600
H  -9.09600 20.05800 27.27400
H  -10.74300 20.00800 23.75000
H  -10.98800 20.72400 25.25800
H  -9.54800 19.61600 25.08300
H  -6.95600 25.52700 21.35700
H  -4.17600 26.49500 21.60200
H  -5.53200 23.13300 21.23600
H  -4.31200 24.29800 20.84200
H  -5.86700 24.17400 19.88300
H  -5.84900 28.58200 22.04000
H  -6.77000 27.64600 20.84900
H  -4.44600 29.31700 20.39800
H  -5.82400 28.92600 19.43100
H  -4.48900 27.75700 19.47300
H  -2.03800 29.73400 24.14900
H  -0.94000 29.70300 25.55900
H  -2.33100 30.64000 25.67100
H  -3.69100 28.50300 30.04500
H  -1.27100 28.00200 33.56700
H  -1.35500 26.26300 33.03000
H  -2.74600 27.17900 33.77100

