158

Mg 9.06200 48.70900 26.21600
C  6.89000 49.00400 28.91900
C  11.65500 49.70800 28.44200
C  11.29500 48.81000 23.65600
C  6.48400 48.40300 24.02600
N  9.18400 49.47200 28.35300
C  8.23800 49.25400 29.27900
C  8.68400 49.53700 30.74900
C  10.07900 50.20000 30.44400
C  10.37200 49.71200 28.98300
C  10.32300 51.68900 30.65600
C  8.64900 48.26000 31.70300
C  9.69000 47.97300 32.83000
H  9.13500 47.65500 34.23600
N  11.19300 49.07500 26.06300
C  12.05600 49.42800 27.13900
C  13.42100 49.50800 26.61800
C  13.31400 49.10800 25.23100
C  11.88400 49.05300 24.89600
C  14.64400 49.69900 27.41500
C  14.39900 48.72600 24.15900
O  14.16000 48.51000 22.96500
C  15.81000 48.68000 24.64900
N  8.99100 48.48600 24.23100
C  9.97200 48.57800 23.37800
C  9.56900 48.59900 21.84100
C  8.04800 48.28600 22.02500
C  7.76500 48.40700 23.53300
C  9.81300 49.96600 21.03400
C  7.62900 46.99700 21.43700
C  6.95000 46.98200 20.03600
N  7.07000 48.67100 26.40600
C  6.07600 48.51100 25.40400
C  4.74200 48.72600 26.03000
C  4.98700 48.78500 27.45000
C  6.42100 48.80900 27.59100
C  3.39800 48.70800 25.27600
C  4.37900 48.79500 28.72200
O  3.20900 48.68000 29.04500
C  5.64500 48.87000 29.73400
C  5.74200 47.44600 30.32100
O  6.08700 46.48800 29.66300
O  5.38900 47.43500 31.64300
C  5.76500 46.28100 32.46700
H  12.47200 50.01600 29.09700
H  11.98500 48.90200 22.81500
H  5.68300 48.26200 23.29700
H  8.07100 50.33500 31.16900
H  10.95300 49.86800 31.00400
H  9.56700 52.08600 31.33300
H  10.11500 52.15000 29.69100
H  11.34700 51.84100 30.99700
H  8.41100 47.37500 31.11400
H  7.71200 48.45700 32.22500
H  10.27300 48.88600 32.94600
H  10.42200 47.25500 32.46000
H  14.40900 50.02800 28.42700
H  15.38900 50.37600 26.99900
H  15.13200 48.72500 27.38500
H  16.55300 48.51500 23.86800
H  15.89100 47.86900 25.37200
H  16.13700 49.56800 25.18900
H  10.12700 47.74900 21.45000
H  7.37300 48.98500 21.53100
H  10.40400 50.67200 21.61800
H  8.89200 50.44000 20.69600
H  10.39500 49.76700 20.13400
H  6.92900 46.50800 22.11400
H  8.50100 46.34300 21.41800
H  6.11800 46.28100 20.10800
H  7.67000 46.46100 19.40500
H  6.49800 47.89900 19.65700
H  3.52100 49.30000 24.36900
H  2.60700 48.88100 26.00500
H  3.33700 47.71400 24.83300
H  5.36700 49.51500 30.56700
H  6.60300 45.77400 31.98900
H  4.93700 45.59700 32.65300
H  6.15800 46.60000 33.43300
Mg -11.52500 16.05000 41.04300
C  -8.59000 14.11700 41.34000
C  -9.59200 18.70100 39.94400
C  -14.33100 17.71300 40.31600
C  -13.34700 13.19000 41.97300
N  -9.35400 16.34900 40.81400
C  -8.38100 15.38100 40.87400
C  -7.06200 15.96800 40.45600
C  -7.37900 17.42300 40.02400
C  -8.86100 17.50700 40.33500
C  -6.53100 18.55900 40.67100
C  -6.37800 15.02100 39.41400
C  -4.90700 14.54100 39.80400
H  -3.81700 14.71600 38.72300
N  -11.91100 17.98000 40.25800
C  -10.97800 18.95100 39.98700
C  -11.65900 20.16100 39.54400
C  -13.06000 19.83000 39.48600
C  -13.20200 18.49900 40.05300
C  -10.86300 21.50300 39.04600
C  -14.16800 20.73100 38.82500
O  -13.81300 21.84700 38.47000
C  -15.64700 20.36900 38.71100
N  -13.47100 15.51000 41.00500
C  -14.50500 16.43500 40.75600
C  -15.89000 15.78000 40.83700
C  -15.48600 14.33500 41.36300
C  -14.00900 14.33200 41.45700
C  -17.01100 16.43900 41.74900
C  -16.22900 13.12600 40.56400
C  -17.04200 12.32600 41.58400
N  -11.13300 14.02400 41.54800
C  -11.94400 12.99400 41.99400
C  -11.13900 11.88500 42.55300
C  -9.82600 12.30500 42.28000
C  -9.91300 13.56700 41.67400
C  -11.65800 10.58800 43.08600
C  -8.48500 11.89600 42.41800
O  -8.00800 10.90800 42.86000
C  -7.59000 13.15800 41.99300
C  -6.84200 13.63100 43.18100
O  -7.29800 14.42100 44.02100
O  -5.55800 13.14800 43.12200
C  -4.62700 14.01000 43.82300
H  -8.99500 19.54400 39.58800
H  -15.27800 18.23200 40.15500
H  -14.00600 12.36300 42.24400
H  -6.51700 15.99600 41.39900
H  -7.12300 17.44900 38.96500
H  -7.11400 19.26400 41.26400
H  -5.94600 19.00000 39.86400
H  -5.79600 18.05000 41.29500
H  -6.23700 15.53600 38.46400
H  -6.99900 14.14700 39.21400
H  -5.01200 13.48900 40.06800
H  -4.67100 15.12800 40.69300
H  -10.80200 21.42600 37.96000
H  -9.91600 21.54300 39.58300
H  -11.38400 22.41000 39.35200
H  -16.18700 21.00700 38.01200
H  -16.04100 20.42200 39.72600
H  -15.71100 19.37200 38.27500
H  -16.26400 15.69900 39.81700
H  -15.80500 14.35500 42.40500
H  -16.49200 17.06100 42.47800
H  -17.51100 15.56500 42.16500
H  -17.78500 17.03900 41.27100
H  -15.50100 12.47300 40.08400
H  -17.03100 13.48000 39.91700
H  -18.07000 12.63900 41.76800
H  -16.42500 12.40700 42.48000
H  -17.10700 11.30300 41.21300
H  -10.72300 10.06500 43.28800
H  -12.30400 10.05000 42.39300
H  -12.31700 10.62900 43.95400
H  -6.75200 13.06700 41.30200
H  -4.70300 13.85900 44.90000
H  -4.75200 15.06600 43.57900
H  -3.63800 13.63100 43.56800

