158

Mg 47.37100 15.13700 27.74300
C  45.50600 15.38000 30.77000
C  49.58600 17.37600 29.07900
C  49.11200 14.95600 24.81700
C  44.73200 13.55400 26.40300
N  47.38800 16.37500 29.61300
C  46.67300 16.14200 30.72600
C  47.22200 16.86700 31.90400
C  48.31600 17.82400 31.27700
C  48.46700 17.12800 29.89800
C  47.99000 19.32300 31.08900
C  47.87000 15.88700 32.99300
C  47.44200 16.13500 34.50800
H  48.39100 15.84800 35.67900
N  49.21200 16.00900 27.09900
C  49.92200 16.86700 27.80100
C  51.02900 17.26000 26.99300
C  51.01900 16.45700 25.77600
C  49.78500 15.75100 25.84400
C  52.01900 18.34200 27.36900
C  51.81900 16.51300 24.53500
O  51.84800 15.66500 23.67300
C  52.83300 17.64600 24.31100
N  46.99300 14.30500 25.95500
C  47.86200 14.33800 24.86400
C  47.18600 13.83600 23.62500
C  45.82100 13.29000 24.07600
C  45.76700 13.81600 25.54400
C  46.83700 15.00500 22.58600
C  45.74100 11.69500 24.11200
C  46.85000 10.92700 24.74700
N  45.51500 14.49200 28.42800
C  44.57800 13.74200 27.74100
C  43.46900 13.49200 28.60000
C  43.86000 13.93100 29.89200
C  45.01700 14.66900 29.67500
C  42.24800 12.74600 28.17800
C  43.50400 14.12900 31.30900
O  42.52500 13.76100 31.91700
C  44.60000 15.08500 31.90900
C  44.01200 16.32600 32.58400
O  43.69600 17.36100 32.07400
O  43.85100 16.08300 33.83900
C  43.24200 17.10400 34.70200
H  50.43300 17.96300 29.44200
H  49.75100 14.81500 23.94400
H  43.82500 13.06300 26.04600
H  46.47800 17.49600 32.39100
H  49.25700 17.92500 31.81800
H  48.70600 19.87000 31.70200
H  46.95800 19.49200 31.39700
H  48.16600 19.61700 30.05500
H  48.94700 15.87100 32.82700
H  47.48900 14.91600 32.67700
H  46.60800 15.44100 34.61600
H  47.02200 17.13800 34.58500
H  52.43400 18.93900 26.55700
H  52.78700 17.87000 27.98200
H  51.57400 19.04500 28.07300
H  53.41800 17.68300 25.23000
H  52.23100 18.54900 24.21400
H  53.53400 17.59800 23.47800
H  47.73900 13.05400 23.10500
H  44.99600 13.65000 23.46100
H  46.51000 15.89400 23.12500
H  46.23000 14.76400 21.71300
H  47.82500 15.16700 22.15500
H  45.58600 11.50500 23.05000
H  44.79200 11.33800 24.51200
H  47.71600 10.84400 24.09000
H  46.64500 9.91100 25.08400
H  47.17200 11.43500 25.65600
H  41.98000 12.88600 27.13000
H  41.41100 12.87800 28.86400
H  42.48100 11.68500 28.26400
H  45.06100 14.50200 32.70700
H  43.82000 18.02800 34.70400
H  43.08500 16.71300 35.70800
H  42.24900 17.32700 34.31400
Mg 46.67400 35.16100 28.73500
C  45.08800 33.07000 31.19500
C  46.90300 37.54500 31.17200
C  47.65200 37.31200 26.39500
C  45.87200 32.74500 26.41900
N  46.26000 35.20000 30.98300
C  45.58600 34.22000 31.76000
C  45.45900 34.66400 33.19000
C  45.69200 36.21400 33.06700
C  46.34800 36.30600 31.67100
C  44.42800 37.00400 33.23000
C  46.48200 34.03900 34.16600
C  45.86900 33.89100 35.63600
H  46.14100 35.01200 36.63500
N  47.55800 37.11900 28.78900
C  47.59600 37.88900 29.94000
C  48.18700 39.16700 29.54400
C  48.29500 39.14300 28.11800
C  47.86600 37.79700 27.68300
C  48.38000 40.31100 30.53500
C  48.76800 40.20400 27.18000
O  48.83000 40.03700 25.97700
C  49.29800 41.54900 27.72600
N  46.61700 35.15200 26.66600
C  47.16900 36.11200 25.89500
C  46.87200 35.87500 24.37400
C  46.36400 34.34600 24.42000
C  46.29800 34.05000 25.98600
C  45.92600 36.96700 23.78200
C  47.32900 33.37400 23.60800
C  46.78500 32.45900 22.51800
N  45.84300 33.19700 28.74600
C  45.60200 32.36700 27.70500
C  45.01500 31.11100 28.16800
C  44.76400 31.37300 29.52500
C  45.25400 32.65500 29.82000
C  44.64300 29.89500 27.41900
C  44.18600 30.74400 30.69800
O  43.79000 29.62500 30.91200
C  44.20300 31.91900 31.77000
C  44.70500 31.39200 33.02500
O  45.63100 30.62000 33.23400
O  43.77600 31.74100 34.00200
C  43.85200 31.03200 35.27900
H  46.71700 38.31400 31.92400
H  47.91500 38.05200 25.63700
H  45.68400 32.03100 25.61500
H  44.48500 34.49500 33.64900
H  46.30800 36.63400 33.86100
H  43.58500 36.42100 33.59900
H  44.06800 37.35400 32.26300
H  44.63300 37.87700 33.85000
H  47.32100 34.73400 34.20500
H  46.83800 33.08300 33.78300
H  46.25100 33.01100 36.15500
H  44.79400 33.72000 35.58100
H  48.15100 41.32800 30.21500
H  49.43400 40.35800 30.80900
H  47.77100 40.20800 31.43300
H  49.93000 42.10400 27.03200
H  49.83000 41.39000 28.66400
H  48.41600 42.18500 27.80800
H  47.82100 35.92700 23.84000
H  45.35500 34.34800 24.00700
H  45.60600 37.71800 24.50400
H  45.05000 36.50500 23.32500
H  46.48300 37.50700 23.01700
H  47.86000 32.81800 24.38100
H  47.99700 34.02500 23.04400
H  45.78300 32.10000 22.75300
H  47.55300 31.68500 22.49500
H  46.84300 33.11300 21.64700
H  43.66800 30.05300 26.95900
H  44.54300 29.09300 28.15000
H  45.40000 29.57300 26.70400
H  43.22800 32.38500 31.91000
H  42.83000 31.21800 35.60700
H  44.55300 31.43700 36.00900
H  43.98200 29.94900 35.29600

