158

Mg 8.40000 3.79100 27.76500
C  9.72800 2.33600 30.76400
C  6.51800 5.84100 29.96400
C  6.77400 4.93000 25.15700
C  9.43400 1.01300 26.02100
N  8.21600 4.11700 30.08000
C  8.90800 3.41100 31.05700
C  8.75200 4.08000 32.46800
C  7.66500 5.11300 32.10300
C  7.40800 5.00700 30.65400
C  6.47100 5.20400 33.03900
C  10.06400 4.67800 32.90900
C  10.01000 5.26500 34.30500
H  10.96100 4.81400 35.44000
N  6.88800 5.24700 27.62600
C  6.21000 5.94000 28.55700
C  5.40200 6.92700 27.97800
C  5.45500 6.74400 26.58700
C  6.36200 5.55100 26.40700
C  4.57500 7.96700 28.75300
C  4.94700 7.56200 25.48000
O  5.08500 7.32500 24.30600
C  4.20000 8.85800 25.73200
N  8.27500 3.20100 25.86100
C  7.63500 3.87900 24.91400
C  7.57000 3.17000 23.54600
C  8.25100 1.83900 23.92600
C  8.75100 2.01900 25.36300
C  6.22900 3.16300 22.81000
C  9.37900 1.51700 22.90600
C  9.11300 0.23900 22.22300
N  9.43700 2.03600 28.20400
C  9.76200 0.97300 27.44700
C  10.51800 -0.03900 28.17700
C  10.57500 0.48900 29.51200
C  9.89200 1.73000 29.46500
C  10.90600 -1.42700 27.65600
C  10.97800 0.17300 30.81100
O  11.63200 -0.75300 31.27100
C  10.51700 1.45600 31.69100
C  9.72100 0.91600 32.81500
O  8.60100 0.45900 32.77100
O  10.46600 1.16600 33.97800
C  9.81600 0.87100 35.23400
H  5.94100 6.46200 30.65300
H  6.40100 5.22300 24.17300
H  9.67600 0.14800 25.40000
H  8.35600 3.40100 33.22400
H  8.14500 6.08600 32.20700
H  6.16800 4.22400 33.40800
H  5.55800 5.33900 32.46100
H  6.45800 6.00600 33.77700
H  10.40300 5.38400 32.15000
H  10.85700 3.94000 32.79300
H  8.98300 5.15300 34.65200
H  10.13600 6.34700 34.28200
H  5.18800 8.86800 28.72200
H  4.53100 7.60900 29.78200
H  3.59600 8.11200 28.29600
H  4.22700 9.45500 24.82100
H  4.69800 9.41900 26.52300
H  3.21900 8.70800 26.18300
H  8.16700 3.68700 22.79400
H  7.62700 0.94600 23.97400
H  5.40700 3.45600 23.46300
H  6.05600 2.11300 22.57500
H  6.28900 3.76100 21.90100
H  10.38900 1.54300 23.31300
H  9.52600 2.27100 22.13400
H  9.32600 0.40700 21.16700
H  8.15100 -0.24900 22.37600
H  9.82600 -0.50800 22.57400
H  10.04200 -1.86700 27.15900
H  11.17700 -2.04600 28.51100
H  11.83800 -1.37200 27.09200
H  11.41200 1.94900 32.06900
H  10.65800 0.67800 35.89800
H  9.14700 0.01500 35.13900
H  9.25700 1.79900 35.35400
Mg 24.34700 -5.89500 45.61500
C  26.34500 -3.43400 44.13000
C  21.79500 -4.95000 43.50200
C  22.55300 -8.59700 46.54700
C  27.19400 -7.11500 47.21500
N  24.20600 -4.47600 43.95400
C  25.07900 -3.48400 43.63300
C  24.53600 -2.59700 42.58300
C  22.99100 -2.80400 42.77800
C  22.98800 -4.20100 43.36500
C  22.36600 -1.76700 43.74900
C  25.04200 -3.08000 41.17100
C  25.37200 -2.01300 40.14400
H  26.03800 -2.52400 38.90100
N  22.41900 -6.70900 45.01200
C  21.53600 -6.08100 44.17800
C  20.36700 -6.89300 44.08200
C  20.55200 -8.03800 44.94700
C  21.88000 -7.82900 45.56200
C  19.16500 -6.62400 43.12000
C  19.53900 -9.13300 45.23500
O  18.50600 -9.17600 44.65400
C  19.74700 -10.10200 46.28000
N  24.79600 -7.64600 46.63700
C  23.86100 -8.56200 47.05800
C  24.51400 -9.58000 47.98200
C  25.95300 -9.15000 48.15300
C  25.98100 -7.87000 47.33700
C  23.81700 -10.02700 49.22600
C  27.05600 -10.25600 47.67500
C  28.19100 -10.47200 48.68000
N  26.42100 -5.27900 45.90700
C  27.40500 -5.91400 46.55300
C  28.64200 -5.10600 46.42100
C  28.26100 -4.12400 45.50900
C  26.87700 -4.26700 45.17800
C  29.92700 -5.38800 47.06000
C  28.74500 -3.07100 44.75400
O  29.85300 -2.63400 44.70900
C  27.53600 -2.61500 43.74600
C  27.41100 -1.16400 43.95900
O  27.44900 -0.65200 45.08200
O  27.22000 -0.46000 42.83100
C  27.06600 1.01600 42.97000
H  20.91900 -4.62900 42.93500
H  22.10300 -9.53300 46.88600
H  28.08200 -7.37100 47.79700
H  24.93800 -1.61700 42.83700
H  22.48900 -2.76700 41.81100
H  21.87600 -2.13300 44.65200
H  21.53800 -1.28600 43.22900
H  23.02300 -0.94200 44.02400
H  24.27300 -3.63900 40.63700
H  25.90700 -3.74300 41.18800
H  26.00100 -1.22000 40.54900
H  24.39900 -1.66000 39.80200
H  19.12200 -5.55100 42.93800
H  18.22800 -6.87000 43.62100
H  19.23100 -7.24400 42.22600
H  18.82100 -10.62200 46.52700
H  20.09800 -9.55400 47.15400
H  20.45800 -10.81500 45.86200
H  24.41100 -10.50400 47.41200
H  26.04500 -8.76200 49.16700
H  23.67600 -11.10600 49.15100
H  22.81500 -9.60000 49.18200
H  24.37000 -9.91800 50.15900
H  27.58200 -10.04100 46.74500
H  26.50600 -11.18900 47.54600
H  28.08600 -9.73700 49.47800
H  29.11200 -10.28300 48.12700
H  28.35200 -11.47100 49.08700
H  29.80500 -5.51600 48.13600
H  30.65000 -4.57400 47.00500
H  30.42700 -6.31200 46.77000
H  27.84500 -2.77400 42.71300
H  27.82400 1.30600 43.69800
H  26.15900 1.35200 43.47200
H  27.28600 1.56100 42.05200

