158

Mg -2.38000 17.15800 26.24700
C  -2.75400 15.12900 29.15900
C  -2.72500 19.88300 28.15100
C  -2.70500 19.16300 23.39500
C  -2.51600 14.28000 24.24600
N  -2.65700 17.41300 28.37900
C  -2.70400 16.52200 29.42000
C  -2.89400 17.18600 30.80800
C  -2.85800 18.68600 30.35600
C  -2.69100 18.67700 28.87100
C  -4.05600 19.46600 31.02200
C  -1.87700 16.77700 31.89600
C  -1.74800 17.85900 32.97100
H  -1.26200 17.27000 34.31100
N  -2.55900 19.29500 25.90100
C  -2.71700 20.21700 26.84100
C  -2.79900 21.55700 26.27000
C  -2.75800 21.37200 24.88800
C  -2.64700 19.89500 24.67400
C  -2.83300 22.77200 27.09200
C  -2.80500 22.39500 23.74600
O  -2.67800 21.96300 22.55300
C  -2.90100 23.88300 23.96600
N  -2.67700 16.75200 24.14400
C  -2.65300 17.77400 23.17400
C  -2.59200 17.12800 21.70100
C  -2.43700 15.61000 22.05000
C  -2.54000 15.51000 23.58800
C  -3.71800 17.48200 20.73500
C  -1.11200 14.92500 21.45100
C  -1.26000 14.01800 20.22100
N  -2.48100 15.06500 26.57200
C  -2.58600 14.03700 25.67000
C  -2.68200 12.81000 26.43300
C  -2.85600 13.18300 27.76500
C  -2.65800 14.58400 27.82900
C  -2.73400 11.38300 25.83500
C  -3.03700 12.74200 29.17700
O  -3.02800 11.62100 29.64000
C  -2.99300 13.99600 30.08400
C  -1.89800 13.75700 31.03600
O  -0.75700 14.12000 30.83100
O  -2.32000 13.16100 32.17300
C  -1.37500 13.01000 33.26000
H  -2.79600 20.75600 28.80200
H  -2.95600 19.72700 22.49400
H  -2.48200 13.37600 23.63500
H  -3.94900 16.99400 31.00700
H  -1.94800 19.17400 30.70600
H  -4.56800 20.18600 30.38300
H  -3.68200 20.04400 31.86700
H  -4.82600 18.84100 31.47400
H  -0.94900 16.49500 31.39800
H  -2.30200 15.92700 32.42900
H  -2.65100 18.45800 33.08900
H  -0.95400 18.46000 32.52700
H  -2.14900 22.58700 27.92100
H  -3.82400 22.85800 27.53900
H  -2.49400 23.63600 26.52100
H  -3.66700 23.98900 24.73400
H  -3.05600 24.42400 23.03300
H  -1.99900 24.33700 24.37700
H  -1.68600 17.46000 21.19300
H  -3.37400 15.09500 21.83800
H  -4.10200 16.61100 20.20500
H  -3.47300 18.24100 19.99200
H  -4.55900 17.90400 21.28600
H  -0.94100 14.15800 22.20700
H  -0.34100 15.66700 21.24400
H  -1.10000 14.64800 19.34600
H  -2.25600 13.57600 20.19800
H  -0.43700 13.30400 20.20900
H  -1.77300 10.91600 26.04900
H  -2.91900 11.36200 24.76100
H  -3.63100 11.01000 26.32900
H  -3.91800 14.13400 30.64400
H  -1.55300 12.00500 33.64400
H  -1.53100 13.71300 34.07900
H  -0.35800 13.01800 32.87000
Mg 6.74900 53.04300 41.60800
C  6.30900 49.47300 41.22200
C  9.92900 52.58700 40.19600
C  6.90700 56.19100 41.32700
C  3.35800 53.09900 42.43000
N  7.83300 51.23400 40.64800
C  7.51700 49.95200 40.71800
C  8.69800 49.05700 40.24800
C  9.93300 49.99200 40.14700
C  9.21800 51.34300 40.41200
C  11.16500 49.66900 41.08900
C  8.52400 48.40400 38.80800
C  8.42800 49.34400 37.56500
H  7.31400 49.07400 36.61900
N  8.23100 54.33900 40.82600
C  9.48200 53.91500 40.40000
C  10.23800 55.15700 40.18200
C  9.37900 56.29600 40.52300
C  8.16600 55.60800 40.98200
C  11.60900 55.31300 39.51200
C  9.59900 57.74900 40.22700
O  10.57900 58.05300 39.54300
C  8.67100 58.87300 40.68500
N  5.27700 54.44400 41.76400
C  5.62100 55.73200 41.66400
C  4.51400 56.64700 42.00900
C  3.32600 55.63700 42.13900
C  4.00100 54.29800 42.14500
C  4.70200 57.52400 43.27200
C  2.30200 55.65200 40.91000
C  0.79100 55.67200 41.34800
N  5.15900 51.63700 41.91800
C  3.90100 51.83700 42.29600
C  3.25000 50.55600 42.59800
C  4.16400 49.62600 42.16000
C  5.29500 50.33400 41.73700
C  1.84100 50.40000 43.03400
C  4.36100 48.26500 41.92700
O  3.62500 47.24700 42.11400
C  5.78100 48.04100 41.41500
C  5.55400 47.35600 40.11100
O  4.91600 47.76700 39.16000
O  6.32100 46.16900 40.14100
C  6.05900 45.17900 39.07700
H  10.98700 52.46500 39.95200
H  6.89200 57.28300 41.32300
H  2.30400 53.03800 42.70900
H  8.88200 48.15600 40.83300
H  10.39600 49.89600 39.16500
H  12.09400 49.65700 40.52000
H  11.07300 48.64400 41.44900
H  11.18500 50.38300 41.91200
H  7.57200 47.87200 38.80700
H  9.29500 47.64200 38.69300
H  9.33600 49.18100 36.98300
H  8.27300 50.40600 37.75900
H  11.58900 55.95000 38.62800
H  12.07200 54.33600 39.37000
H  12.16300 55.80700 40.31000
H  8.52100 58.87600 41.76500
H  7.71600 58.79900 40.16400
H  9.10200 59.85300 40.48000
H  4.18700 57.38100 41.27300
H  2.80100 55.83000 43.07500
H  4.10500 57.24000 44.13900
H  4.35000 58.53800 43.08000
H  5.76000 57.49100 43.53300
H  2.43200 54.85100 40.18200
H  2.27600 56.60400 40.37900
H  0.46500 56.71200 41.31000
H  0.69000 55.26700 42.35500
H  0.10100 55.09400 40.73400
H  1.69900 50.19300 44.09500
H  1.41100 49.53400 42.53000
H  1.19500 51.16300 42.60100
H  6.43200 47.56200 42.14600
H  5.10400 44.72300 39.34000
H  6.76400 44.35600 39.19000
H  6.08600 45.67700 38.10800

