158

Mg 34.96500 2.87600 29.31000
C  32.79200 4.30700 31.74700
C  37.28800 2.54400 31.70500
C  37.06400 1.72600 26.90200
C  32.54600 3.49400 26.84500
N  35.08300 3.76900 31.48000
C  34.01300 4.06500 32.31300
C  34.46700 3.93500 33.79900
C  36.00000 3.53600 33.63800
C  36.12700 3.25000 32.14700
C  36.98600 4.63300 33.99200
C  33.58900 2.94300 34.65500
C  33.24900 3.47100 36.08500
H  33.89500 4.69800 36.78100
N  37.02000 2.34200 29.27800
C  37.79000 2.27900 30.38700
C  39.12000 1.79800 30.02300
C  39.00800 1.57900 28.64000
C  37.66900 1.84500 28.20000
C  40.29900 1.66500 31.04200
C  40.16100 1.11900 27.70600
O  40.04300 0.99400 26.49800
C  41.49600 0.68200 28.25300
N  34.84600 2.78100 27.19800
C  35.86500 2.24300 26.43800
C  35.40800 2.05200 24.98500
C  33.89900 2.52400 24.97800
C  33.71100 2.86900 26.44100
C  36.31300 2.73100 23.95200
C  32.96200 1.47200 24.33400
C  31.86700 0.81000 25.16800
N  33.04500 3.71400 29.24000
C  32.19400 3.89700 28.17900
C  30.95300 4.50200 28.68200
C  31.14200 4.57800 30.06000
C  32.46700 4.18400 30.36400
C  29.69400 4.79200 27.95200
C  30.48000 4.86000 31.32600
O  29.35200 5.19800 31.63600
C  31.55000 4.67200 32.43500
C  31.68800 5.86900 33.27200
O  32.14200 6.89900 32.78100
O  31.05400 5.69000 34.49800
C  30.85600 7.01600 35.19200
H  37.97800 2.22400 32.48900
H  37.71200 1.20900 26.19100
H  31.71800 3.63000 26.14600
H  34.53800 4.92300 34.25500
H  36.20900 2.65400 34.24300
H  36.59600 5.03000 34.93000
H  37.06100 5.30500 33.13800
H  37.96700 4.16400 34.06500
H  34.03300 1.97400 34.88200
H  32.73000 2.70700 34.02700
H  33.48600 2.67400 36.78900
H  32.17800 3.63800 36.19400
H  40.02300 2.10900 31.99800
H  41.07100 2.34200 30.67800
H  40.56200 0.62200 31.21800
H  42.16100 1.52500 28.44500
H  41.91600 0.06500 27.45900
H  41.35800 -0.04600 29.05100
H  35.49000 0.97300 24.85600
H  33.78600 3.28900 24.21000
H  36.57400 3.75200 24.22900
H  35.93600 2.64400 22.93300
H  37.25400 2.19600 24.07300
H  33.62500 0.69100 23.96100
H  32.49200 2.07800 23.56000
H  32.10500 -0.25100 25.23700
H  30.88800 0.79700 24.69000
H  31.70600 1.19200 26.17600
H  29.02500 5.31900 28.63200
H  29.20400 3.89900 27.56300
H  29.93200 5.49500 27.15300
H  31.27200 3.86700 33.11600
H  31.66200 7.35500 35.84300
H  29.93600 6.98800 35.77500
H  30.67700 7.88300 34.55600
Mg 47.58300 16.38900 28.39600
C  45.90300 16.17800 31.55100
C  50.00800 18.15800 30.03800
C  48.93200 16.97300 25.40900
C  44.93400 14.68900 26.99100
N  47.73400 17.33200 30.52700
C  47.01200 17.02300 31.63000
C  47.58700 17.70300 32.90500
C  48.88500 18.44100 32.34600
C  48.89000 17.97500 30.86200
C  48.79100 20.03800 32.30500
C  47.92900 16.68300 33.98600
C  47.63900 17.00100 35.51100
H  47.53800 18.45900 35.89400
N  49.32900 17.33200 27.87800
C  50.24500 17.85200 28.70300
C  51.41600 18.19900 27.93500
C  51.19900 17.86900 26.56500
C  49.76100 17.40800 26.54600
C  52.63000 18.85100 28.63800
C  52.01600 18.05800 25.30600
O  51.57700 17.74900 24.20300
C  53.49800 18.53900 25.46900
N  46.94900 15.94200 26.47500
C  47.65000 16.34400 25.38900
C  46.97700 15.79900 24.12400
C  45.83100 14.83800 24.56100
C  45.90200 15.17700 26.13000
C  46.54600 16.98600 23.24000
C  46.11600 13.34800 24.19200
C  45.50900 12.78000 22.91400
N  45.69800 15.61200 29.09900
C  44.80600 14.93000 28.33100
C  43.83400 14.44700 29.21500
C  44.11900 14.97200 30.48600
C  45.35900 15.57200 30.38500
C  42.72300 13.66400 28.91500
C  43.63400 15.13900 31.80000
O  42.65600 14.77700 32.43600
C  44.87700 15.81900 32.58900
C  44.17000 17.01700 33.31200
O  43.88600 18.12200 32.79900
O  43.86900 16.65200 34.56200
C  43.02300 17.59600 35.21700
H  50.82300 18.68600 30.53900
H  49.40100 17.00500 24.42400
H  44.15200 14.14800 26.45400
H  46.88900 18.38900 33.38400
H  49.82400 18.08000 32.76600
H  49.59500 20.53300 32.85000
H  47.92100 20.40600 32.84900
H  48.70900 20.29600 31.24900
H  48.99500 16.45400 33.96100
H  47.54600 15.68000 33.79800
H  48.33000 16.46200 36.15900
H  46.67900 16.51400 35.68600
H  53.55000 18.46800 28.19500
H  52.74200 18.70300 29.71200
H  52.61900 19.89200 28.31500
H  53.52000 19.55500 25.86500
H  54.10000 18.56600 24.56100
H  54.00900 17.76900 26.04700
H  47.62700 15.18100 23.50400
H  44.85700 15.09400 24.14400
H  47.00400 16.87200 22.25700
H  46.77200 17.98700 23.60600
H  45.46200 17.01200 23.13300
H  45.79600 12.82100 25.09000
H  47.19300 13.28400 24.03300
H  46.27100 12.59500 22.15700
H  44.77700 13.45200 22.46500
H  45.03500 11.82000 23.11700
H  42.89800 12.75100 28.34600
H  41.96900 14.26700 28.41000
H  42.34900 13.29400 29.86900
H  45.35300 15.15700 33.31200
H  43.55400 18.45300 35.63200
H  42.57900 17.00800 36.02100
H  42.25100 17.85900 34.49400

