158

Mg 49.23300 34.48700 26.10100
C  47.21300 33.24400 28.68300
C  50.15700 36.98200 28.07800
C  50.67700 35.77300 23.31600
C  48.07700 31.81700 24.14400
N  48.64600 35.04200 28.16800
C  47.90000 34.40800 29.04200
C  48.03100 35.08800 30.42700
C  48.69400 36.41100 30.13200
C  49.27200 36.12400 28.71300
C  47.77900 37.61500 30.14300
C  48.80100 34.18600 31.46600
C  48.10600 34.19000 32.86200
H  47.43700 35.41300 33.34600
N  50.36600 36.08800 25.79600
C  50.67400 36.99800 26.74400
C  51.56300 37.92600 26.16500
C  51.74900 37.55400 24.73200
C  50.86500 36.43900 24.53600
C  52.19600 39.09200 26.86600
C  52.62800 38.25800 23.63300
O  52.81500 37.80200 22.49200
C  53.38200 39.55300 24.10900
N  49.22900 33.95300 23.96800
C  49.97100 34.62500 23.00300
C  50.06300 33.81900 21.64800
C  49.42400 32.46900 22.03100
C  48.96300 32.74800 23.50500
C  49.31600 34.50000 20.39800
C  50.37400 31.27200 21.85100
C  49.82100 30.03700 21.13800
N  47.78400 32.89100 26.22100
C  47.50400 31.83500 25.38900
C  46.57000 30.88200 26.05700
C  46.29900 31.50600 27.31000
C  47.20500 32.60900 27.40600
C  45.96900 29.61700 25.57800
C  45.62600 31.30500 28.49400
O  44.78800 30.49000 28.83100
C  46.14800 32.49600 29.43400
C  46.47100 31.83300 30.77700
O  47.53400 31.30200 31.07200
O  45.33900 31.96300 31.54700
C  45.49600 31.27000 32.86100
H  50.39400 37.91000 28.60300
H  51.11500 36.19500 22.40900
H  47.95700 30.88800 23.58300
H  46.99400 35.23800 30.72600
H  49.42800 36.68900 30.88800
H  46.94400 37.62000 30.84300
H  47.39500 37.63600 29.12300
H  48.30000 38.56900 30.21500
H  49.75600 34.69500 31.59700
H  48.88800 33.19500 31.02200
H  48.93300 34.15100 33.57100
H  47.46000 33.33100 33.04200
H  52.11700 38.93700 27.94200
H  51.70300 40.06000 26.78700
H  53.26400 39.10800 26.64700
H  52.60100 40.13900 24.59300
H  53.85200 40.00300 23.23400
H  54.23200 39.30700 24.74500
H  51.11800 33.66700 21.42200
H  48.54800 32.23500 21.42700
H  50.09100 34.64400 19.64500
H  48.83700 35.44500 20.65600
H  48.54300 33.78400 20.11900
H  50.56100 30.84200 22.83500
H  51.35800 31.58100 21.50100
H  48.82400 30.21200 20.73400
H  49.83900 29.20000 21.83700
H  50.52600 29.89300 20.31900
H  46.52200 29.20200 24.73500
H  44.89000 29.68800 25.44300
H  46.23300 28.92500 26.37800
H  45.17700 32.97600 29.55300
H  46.40600 30.69900 33.04400
H  44.70000 30.52600 32.86700
H  45.44000 31.90600 33.74400
Mg 35.39600 47.86500 24.88200
C  35.58900 46.15000 27.95600
C  33.74600 50.54000 26.52100
C  34.77000 49.38800 21.85400
C  36.64400 45.09800 23.36800
N  34.68900 48.22800 26.98800
C  35.00200 47.42300 28.10300
C  34.70100 48.24300 29.36400
C  33.94600 49.48300 28.86500
C  34.15200 49.47900 27.35500
C  32.48000 49.61700 29.38600
C  36.01400 48.50600 30.11900
C  36.10300 47.89200 31.50700
H  35.79700 48.80300 32.76400
N  34.52000 49.82400 24.28500
C  33.94700 50.75800 25.12600
C  33.50700 51.91600 24.33300
C  33.83700 51.62100 22.92300
C  34.40300 50.22700 22.93700
C  32.83600 53.15800 24.95500
C  33.56200 52.42200 21.61200
O  33.80100 52.06800 20.44200
C  33.00200 53.79900 21.72000
N  35.55700 47.24400 22.85800
C  35.31300 48.05900 21.83100
C  35.66800 47.37700 20.52500
C  36.36000 46.06000 21.02700
C  36.16600 46.08900 22.49600
C  34.41600 47.15800 19.66800
C  37.86800 45.95000 20.67600
C  38.80000 46.95400 21.28000
N  36.13000 46.01600 25.49600
C  36.61900 45.03200 24.74300
C  37.19100 43.94600 25.60600
C  36.75500 44.33300 26.87200
C  36.05800 45.56800 26.75500
C  37.80400 42.57600 25.08600
C  36.66600 43.88900 28.25300
O  37.15100 43.00000 28.93400
C  36.06000 45.20700 29.06000
C  34.95900 44.61300 29.79400
O  33.85100 44.31100 29.41300
O  35.37400 44.36200 31.05700
C  34.52200 43.48400 31.86200
H  33.16300 51.33500 26.99000
H  34.57800 49.90000 20.90800
H  37.28600 44.33800 22.91900
H  34.03400 47.59500 29.93100
H  34.38300 50.40100 29.25900
H  31.77200 49.26400 28.63600
H  32.26700 50.66400 29.60500
H  32.32300 49.10900 30.33800
H  36.02900 49.59500 30.12700
H  36.94500 48.16800 29.66500
H  37.00500 47.30300 31.67300
H  35.39100 47.06600 31.50500
H  31.82200 53.25000 24.56500
H  33.35600 54.11300 24.88700
H  32.81700 53.17400 26.04500
H  32.95000 54.31900 20.76400
H  33.69100 54.43000 22.28100
H  32.08900 53.78500 22.31500
H  36.30600 48.02200 19.92100
H  35.88400 45.14500 20.67500
H  34.49000 46.15200 19.25400
H  34.43400 47.80700 18.79300
H  33.49100 47.31800 20.22000
H  37.91300 46.11300 19.59900
H  38.27500 44.96000 20.87700
H  39.67800 47.15700 20.66700
H  39.15300 46.44100 22.17500
H  38.29400 47.89100 21.51000
H  38.70300 42.35400 25.66200
H  37.86900 42.56500 23.99800
H  36.94900 41.96000 25.36400
H  36.83600 45.59800 29.71700
H  33.80600 44.04400 32.46200
H  35.09400 43.02000 32.66500
H  34.05500 42.68800 31.28200

