158

Mg 3.01000 -0.18400 44.49500
C  6.39700 0.54500 43.99600
C  2.16000 2.80700 42.55500
C  -0.25500 -1.07300 44.35900
C  3.84100 -3.13500 45.94300
N  4.08100 1.36000 43.38600
C  5.51400 1.46000 43.28600
C  5.95100 2.47600 42.18500
C  4.65000 3.46000 42.13800
C  3.52800 2.54000 42.72600
C  4.84200 4.86400 42.93000
C  6.42900 1.73800 40.81200
C  7.72200 2.40000 40.09900
H  7.39900 3.45600 39.03900
N  1.18400 0.76300 43.56400
C  1.06500 1.96300 42.84000
C  -0.28300 2.07800 42.46700
C  -1.01400 0.94100 42.88600
C  -0.01400 0.10500 43.54200
C  -0.75500 3.34100 41.66300
C  -2.45000 0.78700 42.61700
O  -3.19700 1.66100 42.19900
C  -3.04600 -0.61400 42.81700
N  1.99800 -1.85400 45.04700
C  0.59500 -1.97500 44.96700
C  0.20800 -3.41000 45.41700
C  1.50000 -3.78600 46.29200
C  2.49300 -2.93600 45.63700
C  -1.17300 -3.49600 46.15600
C  1.88600 -5.33600 46.19700
C  2.02100 -6.06000 47.52600
N  4.75500 -1.19400 44.87100
C  4.92900 -2.40900 45.49000
C  6.35400 -2.66400 45.56500
C  6.92900 -1.54300 45.06700
C  5.94000 -0.62400 44.64400
C  7.05500 -3.92000 46.22600
C  8.19500 -0.93400 44.75100
O  9.37400 -1.39900 44.85400
C  7.90300 0.48400 44.04900
C  8.54000 1.62600 44.79300
O  8.08300 2.15300 45.80800
O  9.56700 2.17500 44.04200
C  9.91300 3.59900 44.38000
H  1.97600 3.77600 42.08500
H  -1.28100 -1.44800 44.35900
H  4.16000 -3.89600 46.65800
H  6.81200 3.03100 42.55700
H  4.56100 3.77000 41.09700
H  5.60400 4.66500 43.68400
H  3.98300 5.23200 43.49000
H  5.31600 5.61100 42.29300
H  5.52700 1.85000 40.21100
H  6.63900 0.67700 40.95100
H  8.38500 1.66000 39.65100
H  8.25200 3.01100 40.82900
H  0.07900 3.61100 41.01600
H  -1.13000 4.17400 42.25700
H  -1.43900 3.13000 40.84200
H  -3.95200 -0.72800 42.22200
H  -3.43000 -0.78600 43.82200
H  -2.35900 -1.38700 42.47200
H  0.19400 -3.95200 44.47100
H  1.44900 -3.56000 47.35700
H  -1.87200 -4.09600 45.57200
H  -1.55400 -2.50300 46.39200
H  -1.07100 -4.13400 47.03400
H  2.79900 -5.45900 45.61500
H  1.14500 -5.93300 45.66400
H  2.89400 -5.94500 48.16800
H  2.00500 -7.12900 47.31400
H  1.15700 -5.78800 48.13400
H  7.85000 -4.15400 45.51800
H  6.48200 -4.84700 46.24900
H  7.51800 -3.83400 47.21000
H  8.34500 0.39100 43.05700
H  10.26400 4.05600 43.45500
H  10.62300 3.67200 45.20400
H  8.99800 4.10600 44.68700
Mg 47.98200 15.91700 27.87500
C  45.97600 15.87200 30.71500
C  50.12200 18.13900 29.58500
C  49.76400 16.48600 24.96600
C  45.51300 14.35800 26.12400
N  47.99500 16.90000 29.89400
C  47.19300 16.57500 30.92500
C  47.58300 17.09900 32.27900
C  48.74400 17.99600 31.82500
C  49.00700 17.67800 30.37300
C  48.49500 19.55100 32.10400
C  48.10500 15.92400 33.26400
C  48.20400 16.30500 34.83100
H  47.44500 17.57800 35.27600
N  49.75300 17.02600 27.42300
C  50.48200 17.82500 28.23700
C  51.68800 18.19300 27.57600
C  51.71100 17.57200 26.24200
C  50.38500 16.95200 26.20500
C  52.79800 19.00500 28.24100
C  52.73200 17.54000 25.18500
O  52.59300 16.82700 24.20400
C  54.00400 18.16700 25.43800
N  47.71000 15.38400 25.88500
C  48.51300 15.88000 24.86400
C  47.91600 15.57100 23.50700
C  46.78300 14.55100 23.85000
C  46.63300 14.76000 25.40100
C  47.38400 16.89000 22.87200
C  47.03300 13.08200 23.59300
C  45.94700 12.37400 22.80600
N  46.13600 15.27500 28.26800
C  45.21600 14.64000 27.44800
C  44.04200 14.38000 28.23300
C  44.29900 14.80700 29.53700
C  45.58100 15.39400 29.46400
C  42.85100 13.76000 27.63600
C  43.78100 14.83200 30.79700
O  42.65700 14.42600 31.10400
C  44.86300 15.55600 31.67200
C  44.19200 16.71800 32.31200
O  44.04900 17.81500 31.82600
O  43.74900 16.33300 33.57400
C  42.93000 17.34100 34.24600
H  50.84900 18.71100 30.16500
H  50.28900 16.60100 24.01600
H  44.73000 13.95500 25.47900
H  46.79500 17.69700 32.73600
H  49.65500 17.76800 32.37800
H  47.58400 19.81500 32.64000
H  48.56200 20.07800 31.15200
H  49.23900 20.10600 32.67500
H  49.12400 15.65700 32.98300
H  47.44900 15.05500 33.22100
H  49.28800 16.25900 34.93300
H  47.73900 15.58900 35.50900
H  53.23100 19.68400 27.50600
H  53.63600 18.40700 28.60000
H  52.48000 19.50600 29.15600
H  54.46500 17.62400 26.26300
H  53.80100 19.23500 25.51200
H  54.62400 18.01600 24.55500
H  48.65500 15.14900 22.82500
H  45.89500 15.01000 23.41500
H  47.12600 16.59700 21.85500
H  48.07600 17.72800 22.94600
H  46.48000 17.16700 23.41600
H  47.24100 12.49700 24.48900
H  47.96300 12.97100 23.03400
H  45.97700 12.81800 21.81100
H  44.99700 12.51700 23.32100
H  46.16200 11.30800 22.73700
H  42.66600 13.96400 26.58200
H  41.95400 14.00500 28.20400
H  42.90500 12.68800 27.82600
H  45.21300 14.96600 32.51900
H  41.89900 17.35800 33.89200
H  43.38500 18.32400 34.12400
H  42.87700 17.18900 35.32500

