158

Mg -1.49600 33.91800 27.27000
C  -3.43300 32.47200 29.88100
C  0.05300 35.91400 29.63000
C  -0.51100 35.93100 24.78300
C  -3.66100 32.27100 24.98500
N  -1.85900 34.33500 29.48100
C  -2.51100 33.45800 30.40100
C  -2.20400 33.85900 31.83700
C  -1.14300 35.03500 31.73100
C  -0.95700 35.06700 30.24800
C  -1.65500 36.37500 32.38900
C  -1.68800 32.72200 32.76100
C  -0.90200 33.01400 34.05700
H  -1.28300 32.25600 35.30700
N  -0.22600 35.54400 27.19100
C  0.39900 36.13400 28.27900
C  1.27700 37.13000 27.79800
C  1.05600 37.26700 26.38900
C  0.06200 36.23100 26.04600
C  2.04500 37.97800 28.70900
C  1.64600 38.21800 25.36600
O  1.41900 38.19000 24.16200
C  2.72700 39.22600 25.86000
N  -2.03200 34.11500 25.24000
C  -1.38300 34.98400 24.37100
C  -1.84800 34.81300 22.91200
C  -2.58000 33.40800 22.98200
C  -2.81300 33.30000 24.50500
C  -2.73700 35.93100 22.38800
C  -1.80600 32.14600 22.52200
C  -0.30000 32.18900 22.76300
N  -3.17300 32.61800 27.32800
C  -3.82600 31.94900 26.32700
C  -4.70200 30.98600 27.00400
C  -4.52900 31.12000 28.36600
C  -3.67000 32.19600 28.53500
C  -5.56300 30.06100 26.27400
C  -4.98100 30.58600 29.62200
O  -5.77400 29.67600 29.89300
C  -4.20800 31.38700 30.66100
C  -5.21200 31.98900 31.62500
O  -6.09000 32.75700 31.34800
O  -5.04500 31.40000 32.85800
C  -6.03100 31.65200 33.90800
H  0.64500 36.41400 30.40000
H  -0.24700 36.51900 23.90100
H  -4.14100 31.65600 24.22000
H  -3.06600 34.26700 32.36400
H  -0.15500 34.73500 32.08100
H  -1.84200 36.94900 31.48200
H  -0.90400 36.92500 32.95600
H  -2.57700 36.22800 32.95200
H  -0.89700 32.18600 32.23700
H  -2.44800 32.03900 33.14000
H  -1.20100 34.03500 34.29400
H  0.18300 32.91400 34.02000
H  2.20900 37.65400 29.73700
H  1.66100 38.99400 28.79800
H  3.00100 38.09600 28.19900
H  3.02500 39.94900 25.10100
H  3.54300 38.51300 25.97800
H  2.46400 39.70000 26.80500
H  -1.09100 34.74500 22.13100
H  -3.51000 33.40800 22.41300
H  -3.69700 35.60900 21.98500
H  -2.23000 36.59900 21.69200
H  -2.90400 36.69200 23.15000
H  -1.98100 32.30300 21.45800
H  -2.31300 31.22500 22.81000
H  0.14900 32.50500 21.82200
H  0.14800 31.20300 22.88800
H  0.08800 32.77700 23.59500
H  -5.99100 30.68800 25.49200
H  -6.22500 29.53300 26.96000
H  -4.96600 29.31100 25.75500
H  -3.56600 30.78400 31.30200
H  -5.56100 32.24500 34.69200
H  -6.55900 30.80200 34.33900
H  -6.90000 32.16600 33.49600
Mg -5.26200 25.12400 26.24500
C  -3.64100 26.39300 29.01200
C  -7.04500 23.00500 28.15600
C  -6.33800 23.55700 23.42400
C  -3.19000 27.03600 24.32800
N  -5.13500 24.54300 28.31700
C  -4.52700 25.32900 29.35300
C  -5.10000 24.86300 30.69900
C  -5.98500 23.60700 30.34900
C  -6.18700 23.76300 28.83300
C  -5.30400 22.22500 30.66200
C  -5.88300 25.96600 31.50800
C  -5.82900 25.94100 33.05200
H  -5.30400 24.67300 33.80900
N  -6.67500 23.63700 25.82700
C  -7.34800 23.01100 26.80400
C  -8.27300 22.03500 26.17700
C  -8.07500 22.13900 24.72100
C  -6.98500 23.08400 24.57600
C  -9.22800 21.11300 26.86200
C  -8.74500 21.41800 23.53100
O  -8.37400 21.68800 22.40200
C  -9.90400 20.35100 23.73200
N  -4.99200 25.39800 24.20800
C  -5.43100 24.57900 23.23200
C  -4.73800 24.89100 21.86500
C  -3.95600 26.21200 22.15900
C  -4.08400 26.29500 23.65200
C  -3.80600 23.69800 21.50500
C  -4.27700 27.59400 21.30800
C  -3.10400 28.60300 20.91300
N  -3.74600 26.50800 26.54100
C  -3.06100 27.26800 25.70800
C  -2.18100 28.15800 26.41000
C  -2.39300 27.87100 27.77200
C  -3.37500 26.89600 27.78700
C  -1.16300 29.12800 25.79900
C  -2.00700 28.21100 29.10100
O  -1.38300 29.20100 29.48800
C  -2.86500 27.28800 30.06400
C  -1.92700 26.59100 30.99200
O  -0.78800 26.25000 30.74500
O  -2.50000 26.53800 32.28400
C  -1.64700 26.23500 33.40500
H  -7.58400 22.25200 28.73400
H  -6.56200 23.01400 22.50300
H  -2.53500 27.54700 23.61900
H  -4.18600 24.56000 31.20900
H  -7.00200 23.60600 30.74100
H  -4.86800 21.84700 29.73700
H  -6.03300 21.61500 31.19500
H  -4.53500 22.28900 31.43200
H  -6.91900 25.86600 31.18500
H  -5.62200 26.96300 31.15300
H  -6.84300 26.14900 33.39500
H  -5.17500 26.76800 33.32900
H  -10.24000 21.50800 26.94200
H  -8.85300 20.90700 27.86500
H  -9.24100 20.19500 26.27300
H  -9.59400 19.52800 24.37600
H  -10.08700 19.96800 22.72800
H  -10.77500 20.80400 24.20600
H  -5.50900 25.09000 21.12100
H  -2.89100 26.03600 22.01100
H  -2.76300 23.99000 21.38300
H  -4.11200 23.30700 20.53500
H  -3.90800 22.84000 22.16900
H  -4.84600 28.25200 21.96500
H  -4.95900 27.28300 20.51700
H  -3.43100 29.63100 21.06800
H  -2.76000 28.52600 19.88200
H  -2.17300 28.34100 21.41700
H  -1.42400 29.45000 24.79100
H  -0.16000 28.70300 25.80300
H  -1.22400 30.00500 26.44200
H  -3.64700 27.78700 30.63600
H  -0.86100 26.98700 33.46700
H  -1.21000 25.24800 33.25300
H  -2.20300 26.11700 34.33600

