158

Mg 47.59400 25.33200 29.51600
C  48.37400 27.74800 31.90200
C  46.07800 23.46700 32.05800
C  47.15500 22.90900 27.26900
C  49.34300 27.22500 27.05000
N  47.28100 25.54000 31.79200
C  47.73400 26.65400 32.48400
C  47.33000 26.45400 34.05500
C  46.87600 24.88500 34.04000
C  46.75000 24.59400 32.56600
C  47.88500 23.90000 34.69800
C  46.37800 27.52500 34.48000
C  46.35800 27.91800 35.93200
H  47.21500 27.18500 36.97100
N  46.71400 23.50800 29.63500
C  46.06800 22.91400 30.71300
C  45.49700 21.65600 30.30900
C  45.79500 21.52200 28.86600
C  46.64100 22.64000 28.54600
C  44.70600 20.74700 31.13300
C  45.28600 20.52900 27.82800
O  45.35200 20.66300 26.58900
C  44.59400 19.29900 28.42600
N  48.10800 25.15000 27.45900
C  47.78300 24.05800 26.74500
C  48.35200 24.09600 25.33200
C  48.81600 25.60700 25.23000
C  48.74900 26.05900 26.65500
C  49.51100 23.18200 25.11200
C  47.94000 26.49100 24.25400
C  48.65200 26.96400 22.95300
N  48.61500 27.05800 29.36800
C  49.24800 27.71300 28.34400
C  49.62900 29.05600 28.78500
C  49.28700 29.16400 30.16300
C  48.74500 27.87400 30.48200
C  50.22500 30.09000 27.81200
C  49.29300 30.04200 31.32500
O  49.65000 31.17400 31.50800
C  48.83300 29.09300 32.44200
C  49.96100 28.89800 33.40700
O  51.07300 28.63300 33.01900
O  49.48300 29.01500 34.69600
C  50.52300 28.68400 35.63000
H  45.57300 22.91100 32.85100
H  47.22100 22.06600 26.57900
H  49.87700 27.83600 26.32000
H  48.29000 26.67000 34.52400
H  45.86400 24.72900 34.41400
H  48.31100 23.27000 33.91700
H  47.33500 23.22000 35.34900
H  48.57100 24.54500 35.24700
H  45.45600 26.94500 34.43700
H  46.13700 28.34500 33.80400
H  45.30200 27.94400 36.19900
H  46.62000 28.97600 35.90200
H  45.01400 19.70200 31.15200
H  43.63100 20.74800 30.95500
H  44.76600 21.15500 32.14200
H  45.14500 18.76300 29.19800
H  44.33500 18.63000 27.60500
H  43.68600 19.74600 28.83200
H  47.54600 23.72500 24.69800
H  49.85000 25.71700 24.90400
H  50.24700 23.49700 24.37300
H  48.98700 22.36900 24.60900
H  49.94800 22.76200 26.01800
H  47.59200 27.39600 24.75100
H  47.08600 25.91200 23.90400
H  48.18600 26.39000 22.15200
H  49.72000 26.74900 22.95000
H  48.37000 28.00100 22.77000
H  51.31400 30.10400 27.77400
H  49.96100 31.07700 28.19300
H  49.83400 29.88600 26.81500
H  47.97900 29.50600 32.98000
H  50.82400 27.65500 35.43100
H  50.19300 28.69900 36.66900
H  51.37600 29.36300 35.63700
Mg -6.12100 24.85600 25.80500
C  -4.42800 26.12100 28.69100
C  -7.69500 22.66200 27.76100
C  -7.20300 23.36500 23.08400
C  -4.05200 27.05000 23.90400
N  -6.06700 24.56200 28.02800
C  -5.44900 25.19400 29.02700
C  -5.93300 24.73900 30.40200
C  -6.76200 23.50400 30.00600
C  -6.84300 23.56700 28.52300
C  -5.94100 22.18600 30.38500
C  -6.63300 25.87300 31.22300
C  -6.37900 25.98300 32.76400
H  -5.94800 24.72700 33.50900
N  -7.42500 23.28000 25.48600
C  -8.04000 22.59200 26.41000
C  -9.07900 21.74900 25.74600
C  -8.92600 21.94900 24.31700
C  -7.79100 22.87600 24.23200
C  -10.04900 20.84000 26.53700
C  -9.66300 21.40900 23.14100
O  -9.39700 21.62300 21.98100
C  -10.71100 20.44300 23.50100
N  -5.49700 24.99300 23.80700
C  -6.20600 24.30000 22.86100
C  -5.56300 24.65200 21.42400
C  -4.66100 25.87700 21.71200
C  -4.60900 25.93300 23.28400
C  -4.81500 23.53000 20.67500
C  -5.21600 27.23500 21.08000
C  -4.24600 28.24500 20.53400
N  -4.58700 26.32200 26.16700
C  -3.91400 27.18200 25.29200
C  -2.97800 28.02700 26.00400
C  -3.17000 27.63100 27.38400
C  -4.15800 26.61400 27.43300
C  -1.97800 28.88500 25.40800
C  -2.68900 27.90000 28.72500
O  -1.90100 28.71600 29.17100
C  -3.46100 26.88500 29.61600
C  -2.48400 26.03800 30.37500
O  -1.77700 25.17600 29.87500
O  -2.44900 26.41100 31.72200
C  -1.67100 25.52000 32.54100
H  -8.22600 21.89800 28.33300
H  -7.57500 22.89800 22.16900
H  -3.33300 27.60900 23.30200
H  -4.99600 24.54800 30.92500
H  -7.78200 23.55800 30.38400
H  -5.64700 22.30200 31.42900
H  -5.10200 22.18600 29.69000
H  -6.56400 21.29900 30.27400
H  -7.68100 25.80400 30.93100
H  -6.20100 26.80500 30.86000
H  -7.35700 26.22400 33.17900
H  -5.66200 26.76100 33.02700
H  -11.07000 20.95600 26.17500
H  -9.85600 20.99800 27.59800
H  -9.87400 19.77600 26.37600
H  -11.13400 20.12500 22.54800
H  -11.53600 21.03600 23.89400
H  -10.43300 19.52600 24.02100
H  -6.39400 24.98600 20.80200
H  -3.66900 25.70100 21.29500
H  -4.79700 22.75700 21.44300
H  -3.79700 23.88600 20.51500
H  -5.32800 23.26900 19.74900
H  -5.71400 27.72400 21.91700
H  -5.92500 27.04200 20.27400
H  -3.22000 27.87700 20.53000
H  -4.35000 29.15400 21.12700
H  -4.52300 28.47700 19.50500
H  -1.25900 29.25300 26.14100
H  -2.49700 29.73200 24.95900
H  -1.44000 28.37300 24.61100
H  -3.96100 27.56600 30.30500
H  -0.60300 25.71900 32.45300
H  -1.77000 24.43600 32.50300
H  -2.05600 25.79000 33.52400

