158

Mg 1.29900 8.31200 25.52700
C  2.18200 10.17300 28.28100
C  1.04800 5.45700 27.59600
C  0.53700 6.39500 22.85200
C  1.71000 11.09000 23.58500
N  1.74300 7.88400 27.68200
C  1.84600 8.89500 28.67600
C  1.75700 8.25000 30.07500
C  1.78800 6.71100 29.76500
C  1.46900 6.64000 28.25400
C  3.15900 6.05500 30.22200
C  0.49400 8.71300 30.72100
C  0.46900 8.65800 32.28900
H  1.53500 7.97400 33.04900
N  0.76800 6.22400 25.26800
C  0.73500 5.22800 26.28200
C  0.19200 4.00300 25.71300
C  0.05000 4.23200 24.30000
C  0.40800 5.68400 24.07600
C  0.12200 2.71900 26.63100
C  -0.25800 3.22100 23.16900
O  -0.35500 3.53800 21.98900
C  -0.67200 1.86900 23.54000
N  1.14900 8.65100 23.57600
C  0.83200 7.73500 22.65600
C  0.69400 8.32500 21.27800
C  0.70800 9.86000 21.55600
C  1.18400 9.90700 23.00100
C  1.79200 7.81900 20.20800
C  -0.65700 10.66800 21.48900
C  -0.64700 11.94300 20.62000
N  1.81000 10.30100 25.77100
C  2.00600 11.33300 24.89200
C  2.52800 12.49500 25.50200
C  2.47200 12.19200 26.90300
C  2.17800 10.75300 26.91900
C  2.94500 13.79000 24.90600
C  2.82300 12.62200 28.24400
O  3.24600 13.64500 28.70000
C  2.47500 11.40200 29.17800
C  3.61400 11.26000 30.13100
O  4.74100 10.82200 29.89100
O  3.26900 11.90100 31.35600
C  4.30700 11.93200 32.43500
H  0.89500 4.64400 28.30800
H  0.19500 5.97700 21.90300
H  1.70100 11.99900 22.98100
H  2.62500 8.66500 30.58700
H  1.02200 6.18800 30.33700
H  3.65200 6.56000 31.05300
H  3.77400 5.99200 29.32400
H  2.91200 5.06600 30.60600
H  -0.31400 8.11600 30.29900
H  0.23300 9.72200 30.40100
H  -0.42100 8.08400 32.54900
H  0.26300 9.70000 32.53700
H  0.99100 2.52700 27.26000
H  -0.05300 1.85400 25.99100
H  -0.74300 2.91700 27.26400
H  -0.93400 1.37200 22.60600
H  -1.54700 1.94200 24.18600
H  0.18300 1.40800 24.03500
H  -0.25300 8.01300 20.83900
H  1.43100 10.28100 20.85800
H  2.18500 6.81500 20.36600
H  2.63500 8.48600 20.02700
H  1.33000 7.69300 19.22900
H  -1.00100 11.00200 22.46800
H  -1.36000 9.88200 21.21500
H  -1.62200 12.05600 20.14500
H  0.18400 12.08300 19.92800
H  -0.67700 12.72400 21.37900
H  3.72700 14.23600 25.52000
H  2.18500 14.56800 24.83100
H  3.25300 13.55800 23.88700
H  1.60000 11.65600 29.77500
H  3.90100 11.45600 33.32800
H  4.49400 12.96000 32.74500
H  5.31400 11.53600 32.30400
Mg 25.65000 -5.39900 46.77000
C  27.25700 -2.74700 44.87000
C  22.99400 -5.05800 44.63700
C  24.60400 -8.43700 47.95400
C  28.64400 -5.69800 48.64200
N  25.25400 -4.17100 44.71300
C  26.03000 -3.12800 44.24400
C  25.25000 -2.42800 43.12800
C  23.88600 -3.10800 43.03500
C  23.93000 -4.11600 44.23700
C  22.60500 -2.21100 43.16900
C  26.04100 -2.34600 41.83700
C  26.03000 -0.94000 41.17500
H  25.12200 -0.92500 39.89800
N  24.01700 -6.57500 46.39100
C  23.02800 -6.16700 45.59500
C  21.93700 -7.08800 45.71300
C  22.31000 -8.05100 46.65500
C  23.71300 -7.73800 47.09100
C  20.62500 -6.98400 45.02800
C  21.46400 -9.18000 47.29500
O  20.31100 -9.43000 46.85200
C  21.92300 -10.10800 48.41100
N  26.48200 -6.81400 48.14800
C  25.82900 -7.98800 48.48200
C  26.74200 -8.97300 49.22600
C  27.95600 -8.08400 49.52600
C  27.72400 -6.78500 48.73400
C  26.14300 -9.71900 50.42700
C  29.27700 -8.69900 49.12300
C  30.45600 -8.30200 49.98400
N  27.44400 -4.30500 46.96100
C  28.53300 -4.51700 47.76900
C  29.47700 -3.48100 47.65300
C  29.00800 -2.76700 46.49800
C  27.74500 -3.30600 46.09500
C  30.76300 -3.20400 48.49600
C  29.35500 -1.70200 45.55000
O  30.27900 -0.88400 45.56000
C  28.19800 -1.66300 44.43100
C  27.54000 -0.29300 44.38500
O  27.94500 0.59200 43.66300
O  26.62800 -0.18400 45.43200
C  26.01200 1.15700 45.53200
H  22.09500 -4.79100 44.07700
H  24.36700 -9.46300 48.24300
H  29.57800 -5.68800 49.20700
H  25.04500 -1.46600 43.59800
H  23.83600 -3.58500 42.05600
H  22.20300 -2.12100 42.16000
H  22.91000 -1.19700 43.42800
H  21.93000 -2.62900 43.91600
H  25.75100 -3.09900 41.10500
H  27.07600 -2.51000 42.13800
H  27.07500 -0.79200 40.90100
H  25.86100 -0.26700 42.01500
H  20.57800 -6.90800 43.94200
H  20.28200 -5.99900 45.34300
H  19.80100 -7.65200 45.28200
H  22.44800 -9.67000 49.26100
H  22.56300 -10.80800 47.87400
H  21.08100 -10.70000 48.76900
H  26.95200 -9.74100 48.48100
H  27.99500 -7.90700 50.60100
H  26.18500 -10.76600 50.12600
H  25.14400 -9.33800 50.63600
H  26.74700 -9.64000 51.33100
H  29.56300 -8.38800 48.11800
H  29.17500 -9.76900 49.30000
H  31.26900 -7.98000 49.33300
H  30.95400 -9.07500 50.56900
H  30.12500 -7.47900 50.61700
H  31.34100 -4.12300 48.59200
H  30.35500 -2.93000 49.46900
H  31.36300 -2.34700 48.18900
H  28.70900 -1.85700 43.48800
H  25.14400 1.12800 44.87300
H  26.70900 1.94200 45.24000
H  25.59600 1.41100 46.50700

