158

Mg 47.05300 16.38700 28.26800
C  45.32600 15.85200 31.46300
C  49.25400 18.40500 30.00500
C  48.33400 17.39900 25.34800
C  44.35800 14.96800 26.66400
N  47.25300 16.98400 30.50800
C  46.48100 16.64000 31.62700
C  46.99600 17.31500 32.93300
C  48.14800 18.33800 32.37600
C  48.15400 17.97700 30.79100
C  47.90200 19.82000 32.62700
C  47.45100 16.18500 33.97600
C  47.58700 16.63900 35.48700
H  47.10500 18.04600 35.97000
N  48.67000 17.49000 27.81100
C  49.50800 18.16200 28.67300
C  50.68700 18.68100 27.90000
C  50.38700 18.53300 26.46400
C  49.05000 17.81900 26.47300
C  51.97900 19.23300 28.60500
C  51.27100 18.89800 25.16500
O  50.90500 18.73700 24.00400
C  52.46200 19.83300 25.40200
N  46.37400 16.28400 26.31900
C  47.13400 16.65100 25.24100
C  46.48000 16.32100 23.86500
C  45.38200 15.28800 24.31600
C  45.33600 15.51100 25.86400
C  46.00900 17.52200 23.04000
C  45.51400 13.75100 23.99100
C  46.83800 13.18100 24.42900
N  45.26300 15.52500 28.87100
C  44.27400 14.93500 28.06900
C  43.29900 14.26800 28.89200
C  43.69200 14.61800 30.19400
C  44.86700 15.38500 30.17300
C  42.04400 13.60100 28.36800
C  43.15300 14.61300 31.53600
O  42.07000 14.21600 32.01900
C  44.17600 15.45000 32.40500
C  43.42400 16.61000 33.02500
O  43.23900 17.72100 32.57100
O  43.04000 16.29900 34.33500
C  42.27300 17.33700 35.06300
H  49.95000 18.96800 30.63000
H  48.86600 17.69700 24.44200
H  43.55700 14.50300 26.08400
H  46.13300 17.84200 33.34200
H  49.09100 17.95200 32.76100
H  47.04600 19.96300 33.28800
H  47.69700 20.21600 31.63300
H  48.74300 20.45800 32.89800
H  48.34800 15.69100 33.60100
H  46.69600 15.40500 33.88600
H  48.62200 16.42600 35.75200
H  47.07100 15.86300 36.05300
H  52.83300 18.59200 28.38500
H  51.86400 19.10100 29.68000
H  52.18400 20.27900 28.37300
H  52.80000 20.47700 24.59100
H  53.32500 19.27400 25.76300
H  52.28900 20.54800 26.20600
H  47.23800 15.82800 23.25700
H  44.37900 15.56600 23.99200
H  45.21600 17.38500 22.30600
H  46.89300 17.73600 22.44000
H  45.72100 18.33500 23.70700
H  45.33200 13.72500 22.91700
H  44.63100 13.27600 24.41900
H  46.70100 12.22900 24.94200
H  47.30400 13.80600 25.19000
H  47.45300 12.85300 23.59000
H  42.38400 12.78200 27.73400
H  41.45300 14.18700 27.66400
H  41.52700 13.23100 29.25300
H  44.70600 14.90900 33.18900
H  42.92400 18.10400 35.48400
H  41.77400 16.81700 35.88000
H  41.51000 17.87700 34.50100
Mg 26.71400 50.36600 26.19500
C  24.81100 51.51800 28.88500
C  29.10100 49.38800 28.56700
C  28.62100 49.48200 23.76200
C  24.36300 51.76400 24.03800
N  27.01300 50.63600 28.54200
C  25.94400 50.95400 29.29200
C  26.40500 50.66800 30.76100
C  27.81300 50.09800 30.74000
C  28.05900 50.02200 29.21700
C  29.02600 50.95300 31.31700
C  25.36200 49.89400 31.61800
C  24.81000 50.69600 32.86900
H  24.62500 49.89500 34.14100
N  28.58700 49.54300 26.19700
C  29.35800 49.11200 27.20700
C  30.51100 48.35400 26.71100
C  30.44200 48.40700 25.31500
C  29.20300 49.24300 25.05100
C  31.55200 47.78200 27.49200
C  31.46900 47.92600 24.24900
O  31.35800 48.12200 23.09700
C  32.71900 47.13700 24.66500
N  26.64300 50.84800 24.17400
C  27.44000 50.15600 23.38100
C  27.07000 50.21600 21.87900
C  25.66600 50.93200 22.01500
C  25.49700 51.13000 23.51000
C  27.98200 50.82900 20.91700
C  24.42800 50.18900 21.39700
C  23.75600 51.01800 20.31800
N  24.92700 51.39800 26.40400
C  24.07100 51.92700 25.39700
C  23.05600 52.70100 26.04200
C  23.34300 52.46400 27.41000
C  24.42800 51.75300 27.56900
C  21.99300 53.54000 25.40700
C  22.79000 52.78300 28.75000
O  21.78000 53.44900 29.03600
C  23.73600 52.16300 29.75700
C  24.23400 53.29600 30.56100
O  25.15400 54.01700 30.18200
O  23.45000 53.57500 31.65900
C  24.11300 54.48700 32.63400
H  29.73500 48.81900 29.25100
H  29.21300 49.00200 22.98000
H  23.62000 52.03400 23.28400
H  26.61400 51.65700 31.16800
H  27.74300 49.13500 31.24500
H  28.65100 51.92900 31.62500
H  29.70600 51.36900 30.57400
H  29.60300 50.39600 32.05500
H  25.78400 48.95400 31.97300
H  24.45900 49.59200 31.08700
H  23.84500 51.11400 32.58400
H  25.57200 51.44400 33.08600
H  31.46000 47.93300 28.56700
H  32.52300 48.20700 27.23700
H  31.54200 46.71500 27.27000
H  33.62400 47.68300 24.93300
H  32.93600 46.55900 23.76600
H  32.63600 46.42300 25.48400
H  26.91100 49.16800 21.62700
H  25.81500 51.91200 21.56000
H  28.78600 51.36800 21.41800
H  27.49500 51.48500 20.19600
H  28.34000 49.98700 20.32500
H  23.75700 49.86000 22.19000
H  24.78100 49.30100 20.87200
H  23.69800 50.47800 19.37300
H  24.30200 51.89100 19.96100
H  22.73600 51.27300 20.60700
H  21.99400 53.59800 24.31900
H  21.97200 54.54800 25.82300
H  21.07700 53.00400 25.65900
H  23.21400 51.38100 30.30800
H  23.99800 55.55900 32.47400
H  25.17800 54.27100 32.71600
H  23.74500 54.35300 33.65200

