158

Mg 16.31600 51.53700 26.90000
C  18.28800 50.34200 29.52700
C  13.98400 52.48600 29.11900
C  14.43700 52.55700 24.25600
C  18.94500 50.66900 24.70900
N  16.18700 51.47300 29.05300
C  17.12600 50.98400 29.92000
C  16.66900 51.22400 31.39900
C  15.14800 51.57800 31.31300
C  15.09600 51.86100 29.76100
C  14.04900 50.45600 31.68100
C  17.60300 52.38200 32.01500
C  17.93500 52.33300 33.57000
H  17.02500 51.40500 34.46000
N  14.42100 52.40000 26.69100
C  13.65900 52.76300 27.74400
C  12.59100 53.52100 27.21700
C  12.60900 53.48000 25.83500
C  13.82200 52.74300 25.47700
C  11.64700 54.23600 28.08200
C  11.68200 54.12100 24.86700
O  11.81500 53.99900 23.67000
C  10.56900 55.04200 25.35500
N  16.66100 51.59800 24.83000
C  15.67300 52.02200 23.88500
C  16.34900 52.21000 22.53900
C  17.73100 51.60600 22.70700
C  17.81700 51.29400 24.19200
C  15.50800 51.80300 21.28100
C  18.88800 52.44900 22.11100
C  20.03100 51.73400 21.29800
N  18.22100 50.58300 27.00500
C  19.19900 50.32900 26.09400
C  20.38800 49.67100 26.70600
C  20.04900 49.77400 28.06600
C  18.75100 50.27800 28.21200
C  21.72600 49.23700 26.01400
C  20.58000 49.51500 29.32500
O  21.70800 49.10900 29.65000
C  19.46800 49.89400 30.37900
C  19.17500 48.54000 30.95300
O  19.14200 47.42800 30.40200
O  18.92600 48.66300 32.34400
C  18.11900 47.56600 32.86800
H  13.18200 52.82400 29.77900
H  13.81200 53.02600 23.49300
H  19.73000 50.38100 24.00800
H  16.59400 50.35200 32.04800
H  15.01500 52.43200 31.97600
H  13.41800 50.59700 32.55800
H  14.55900 49.49500 31.75900
H  13.40900 50.53400 30.80300
H  17.05500 53.32300 31.96600
H  18.56100 52.36400 31.49500
H  17.96200 53.35700 33.94200
H  18.93800 51.92600 33.69600
H  11.72700 54.11700 29.16200
H  10.70100 53.71800 27.92400
H  11.34100 55.24100 27.78800
H  9.96900 55.43100 24.53200
H  10.77700 55.98100 25.86800
H  9.93800 54.48800 26.05000
H  16.55200 53.28100 22.51200
H  17.80700 50.59300 22.31200
H  15.47500 52.65100 20.59700
H  14.46300 51.54400 21.45100
H  16.03100 51.00100 20.75900
H  19.40600 52.87100 22.97200
H  18.42200 53.24700 21.53300
H  20.43800 52.47000 20.60400
H  19.77700 50.78300 20.83000
H  20.84300 51.54600 22.00100
H  22.47500 48.90500 26.73300
H  22.13900 50.09300 25.47800
H  21.53000 48.39800 25.34600
H  19.86100 50.55700 31.15000
H  17.64200 47.91300 33.78500
H  18.63600 46.62800 33.06900
H  17.21600 47.43800 32.27100
Mg -11.77700 38.21300 41.93900
C  -9.58300 35.63500 40.89600
C  -9.50900 40.44100 40.53400
C  -14.13100 40.47100 41.92800
C  -13.94600 35.79200 43.13000
N  -9.68000 38.09200 41.03500
C  -9.01200 36.96600 40.72800
C  -7.79100 37.23400 39.91100
C  -7.59800 38.83400 40.12200
C  -9.00100 39.17200 40.63700
C  -6.51900 39.11700 41.19100
C  -7.95800 36.86200 38.38800
C  -6.91300 35.92500 37.75500
H  -5.99900 36.56000 36.70300
N  -11.82400 40.15700 41.40200
C  -10.78700 40.94600 40.83100
C  -11.19400 42.29700 40.67500
C  -12.58800 42.30700 40.97000
C  -12.88600 40.94400 41.49600
C  -10.34000 43.39200 40.06700
C  -13.44700 43.55800 40.80500
O  -12.99300 44.59400 40.27800
C  -14.93000 43.54400 41.10700
N  -13.79800 38.12000 42.29700
C  -14.45900 39.27500 42.53600
C  -15.87700 39.05000 43.17200
C  -15.97500 37.50400 43.26000
C  -14.48600 37.10100 42.98500
C  -16.08200 39.89600 44.54200
C  -16.86000 36.83400 42.16100
C  -17.33600 35.42200 42.47800
N  -11.90400 36.11000 41.95400
C  -12.74100 35.29100 42.60400
C  -12.28100 33.88900 42.46000
C  -11.06100 33.98400 41.72300
C  -10.84600 35.40000 41.54700
C  -13.08500 32.70300 42.76900
C  -10.04800 33.21000 40.99200
O  -9.94400 31.99000 40.77300
C  -9.19600 34.32400 40.31000
C  -7.69800 33.91900 40.37400
O  -6.89700 34.24700 41.25300
O  -7.36900 33.22400 39.23300
C  -6.06800 32.52500 39.33200
H  -8.81200 41.18900 40.14800
H  -14.97900 41.13900 41.76400
H  -14.62300 35.08100 43.60800
H  -6.97700 36.63900 40.32500
H  -7.34700 39.33600 39.18800
H  -5.74600 38.36100 41.32500
H  -7.00000 39.41200 42.12400
H  -5.99800 39.99000 40.79800
H  -7.92400 37.77500 37.79400
H  -8.95900 36.49400 38.16400
H  -7.31500 35.08800 37.18400
H  -6.28700 35.49600 38.53700
H  -10.80300 43.82500 39.18100
H  -9.38000 43.05000 39.68000
H  -10.14600 44.15500 40.82200
H  -15.47100 42.86400 40.44800
H  -15.28000 44.55400 40.89300
H  -15.09500 43.51100 42.18400
H  -16.71200 39.31000 42.52200
H  -16.32800 37.06100 44.19200
H  -16.68400 39.32400 45.24700
H  -16.65800 40.77700 44.25800
H  -15.11300 40.00700 45.03000
H  -16.24900 36.81500 41.25900
H  -17.73000 37.45300 41.94100
H  -17.73600 35.10800 43.44200
H  -16.66800 34.60300 42.21100
H  -18.18800 35.19200 41.83800
H  -14.14100 32.86400 42.55300
H  -13.04900 32.53400 43.84500
H  -12.88500 31.79200 42.20600
H  -9.51300 34.46100 39.27600
H  -5.52000 32.51200 40.27400
H  -5.37500 32.90300 38.58000
H  -6.28700 31.50500 39.01800

