158

Mg 0.45900 7.91900 24.81100
C  1.32800 9.60200 27.88800
C  0.73900 4.98200 26.53600
C  0.08300 6.38500 21.95200
C  0.79300 11.12400 23.13300
N  0.90200 7.41200 26.96900
C  1.13500 8.26100 28.07700
C  1.24600 7.42000 29.34500
C  1.15300 5.92900 28.87000
C  0.89400 6.08500 27.35600
C  2.38000 4.94700 29.09000
C  0.23200 7.92400 30.37700
C  0.71000 7.76900 31.78900
H  1.89700 6.77600 32.17500
N  0.40400 5.96000 24.33500
C  0.46500 4.89800 25.19400
C  0.33000 3.66600 24.48700
C  0.17200 4.05400 23.10400
C  0.11800 5.49800 23.13200
C  0.43800 2.28400 25.00800
C  0.12500 3.25700 21.80100
O  -0.14100 3.79700 20.73800
C  0.35500 1.79500 21.80200
N  0.65900 8.73800 22.83500
C  0.30600 7.77500 21.83100
C  0.16500 8.52200 20.47800
C  0.37900 10.02700 20.86600
C  0.62000 10.03300 22.37000
C  1.05900 8.00500 19.37700
C  -0.62200 11.01700 20.41200
C  -1.90500 11.19100 21.27300
N  0.92200 9.94800 25.38200
C  0.99300 11.08900 24.54600
C  1.21400 12.19900 25.42700
C  1.43800 11.68400 26.72700
C  1.21000 10.29700 26.63300
C  1.19500 13.67500 25.06500
C  1.69000 12.04400 28.05800
O  1.88100 13.15300 28.61000
C  1.56000 10.72400 28.92400
C  2.74100 10.65100 29.83000
O  3.87300 10.39100 29.46900
O  2.37800 11.09300 31.11300
C  3.32800 11.42200 32.14800
H  0.88800 4.06700 27.11400
H  -0.00300 5.94300 20.95800
H  0.91500 12.08700 22.63300
H  2.23800 7.64400 29.73700
H  0.34500 5.43400 29.40900
H  2.86700 4.60700 28.17600
H  1.97000 4.09400 29.63100
H  3.08800 5.49800 29.70900
H  -0.61200 7.24300 30.26900
H  0.02600 8.98900 30.27500
H  -0.15000 7.37100 32.32700
H  0.93300 8.72700 32.25600
H  -0.44600 1.65500 24.90400
H  0.68400 2.30600 26.07000
H  1.29900 1.78900 24.55800
H  0.01300 1.24000 22.67500
H  1.43000 1.62600 21.73400
H  -0.12500 1.32100 20.94600
H  -0.85500 8.44900 20.10200
H  1.31200 10.29700 20.37100
H  1.59200 8.84000 18.92200
H  0.40400 7.60000 18.60600
H  1.76000 7.26000 19.75300
H  -0.92600 10.85200 19.37800
H  -0.24600 12.03900 20.39000
H  -2.88100 11.30000 20.79900
H  -1.74800 12.10900 21.84000
H  -1.92400 10.47300 22.09300
H  2.04900 13.87300 24.41700
H  1.22100 14.44800 25.83300
H  0.43000 13.84000 24.30700
H  0.64200 10.89300 29.48800
H  3.31800 12.51000 32.21700
H  4.33300 11.13800 31.83600
H  3.07900 10.80200 33.00900
Mg 0.32000 43.38300 26.70000
C  2.90000 43.04600 29.18700
C  -1.81800 42.32500 29.06100
C  -1.90200 43.01100 24.28900
C  2.95400 43.74100 24.38700
N  0.54600 42.93200 28.83800
C  1.64900 42.87300 29.70900
C  1.22300 42.95500 31.15300
C  -0.20900 42.36900 31.08800
C  -0.58100 42.62600 29.59400
C  -0.38300 40.96700 31.75000
C  1.36300 44.38900 31.78800
C  1.19900 44.42400 33.30600
H  1.00600 43.13600 34.11300
N  -1.65400 42.96900 26.72200
C  -2.37000 42.49600 27.76800
C  -3.74800 42.21100 27.33600
C  -3.76100 42.50500 25.95100
C  -2.38400 42.78800 25.61800
C  -4.80000 41.80700 28.32500
C  -4.96700 42.39500 24.93700
O  -4.91000 42.64700 23.75600
C  -6.25600 41.84900 25.48100
N  0.54000 43.37400 24.60200
C  -0.57300 43.22800 23.86900
C  -0.20800 43.33300 22.34500
C  1.24100 43.88400 22.40200
C  1.60400 43.66100 23.89600
C  -0.33100 41.86200 21.70600
C  1.22900 45.41000 22.07900
C  1.87700 45.81300 20.70700
N  2.55000 43.39200 26.70200
C  3.42900 43.45000 25.67500
C  4.76200 43.53200 26.21200
C  4.61100 43.35900 27.59900
C  3.25300 43.23600 27.81700
C  5.99900 43.90300 25.43000
C  5.35100 43.33100 28.78200
O  6.56300 43.52300 28.94900
C  4.24700 43.15200 29.92700
C  4.55800 41.87300 30.69600
O  4.90000 40.87400 30.08600
O  4.35600 42.04700 32.03800
C  4.84600 41.10700 33.00200
H  -2.49600 41.98900 29.84900
H  -2.54200 42.93800 23.40700
H  3.62400 43.97200 23.55600
H  1.91700 42.26700 31.63500
H  -0.87400 43.09200 31.56200
H  -0.69000 40.28400 30.95800
H  -1.22800 40.98900 32.43800
H  0.45800 40.53900 32.29500
H  0.65400 45.07400 31.32300
H  2.28600 44.85100 31.44000
H  0.43000 45.10500 33.67000
H  2.19000 44.76400 33.60600
H  -5.61000 42.50100 28.10400
H  -4.57200 42.05500 29.36200
H  -4.98400 40.73900 28.21000
H  -6.17000 40.77800 25.66600
H  -6.90300 41.99300 24.61600
H  -6.72900 42.31700 26.34500
H  -0.80200 43.97200 21.69200
H  1.87500 43.27500 21.75800
H  0.63900 41.40800 21.91300
H  -0.47700 41.98500 20.63200
H  -1.17600 41.34400 22.16000
H  1.84600 45.86100 22.85600
H  0.22200 45.81100 22.19600
H  1.39400 46.68700 20.26900
H  1.98400 45.04600 19.94000
H  2.86500 46.21700 20.93000
H  6.18500 43.09700 24.72000
H  6.86000 43.90300 26.09900
H  5.80600 44.79400 24.83400
H  4.35600 43.89200 30.72000
H  5.02300 41.62400 33.94500
H  5.78100 40.62700 32.71500
H  4.17000 40.25600 33.08500

