158

Mg 47.06000 16.65900 28.21200
C  44.96500 16.22200 30.94200
C  49.09500 18.60500 30.32900
C  48.77200 17.66100 25.48500
C  44.61100 15.23000 26.22900
N  46.93200 17.44200 30.37100
C  46.09000 16.95800 31.27300
C  46.46600 17.41500 32.69400
C  47.66200 18.40700 32.43500
C  47.96600 18.18200 30.92800
C  47.64800 19.89300 32.81400
C  46.83800 16.21100 33.63900
C  46.22300 16.21700 34.92700
H  45.73800 17.60100 35.56800
N  48.79300 17.82400 27.99100
C  49.49000 18.51700 28.94600
C  50.58800 19.21000 28.30100
C  50.58200 18.83400 26.90100
C  49.35100 18.06400 26.76600
C  51.64200 19.88600 29.14500
C  51.59300 19.18200 25.82000
O  51.42900 18.89900 24.65600
C  52.90200 19.82700 26.14300
N  46.78200 16.43800 26.19000
C  47.60700 16.88500 25.23100
C  47.04600 16.70200 23.83500
C  45.85800 15.75700 24.12200
C  45.70800 15.76700 25.58400
C  46.52900 18.11100 23.26500
C  46.08100 14.31300 23.65200
C  44.86300 13.42700 23.35100
N  45.18100 15.76000 28.57600
C  44.30400 15.21600 27.63000
C  43.19600 14.59500 28.31300
C  43.43500 14.93000 29.69400
C  44.60900 15.76200 29.67800
C  42.07900 13.87300 27.75200
C  42.84600 14.92100 31.05300
O  41.81800 14.40600 31.45800
C  43.85800 15.81200 31.92800
C  43.06800 16.98600 32.43300
O  42.76800 17.94300 31.77300
O  42.67700 16.81100 33.74400
C  41.89200 17.89200 34.38700
H  49.70400 19.19600 31.01700
H  49.29200 17.92100 24.56000
H  43.79400 14.83500 25.62200
H  45.70900 18.07700 33.11500
H  48.57300 18.06000 32.92200
H  46.79300 20.31200 33.34500
H  47.82700 20.59400 31.99900
H  48.50200 19.95000 33.48900
H  47.90200 16.01600 33.78000
H  46.46800 15.32100 33.13000
H  46.91800 15.77000 35.63800
H  45.41100 15.49100 34.96700
H  52.67100 19.72800 28.82200
H  51.69600 19.60500 30.19700
H  51.47900 20.96400 29.15400
H  52.74100 20.76500 26.67400
H  53.37400 20.11000 25.20200
H  53.46800 19.08400 26.70600
H  47.80900 16.28300 23.17900
H  44.93800 16.10400 23.65100
H  46.33500 18.87400 24.01800
H  45.66500 17.84700 22.65400
H  47.29300 18.57800 22.64300
H  46.70900 13.77000 24.35900
H  46.69000 14.32200 22.74800
H  43.94800 13.74600 23.84800
H  45.15400 12.42400 23.66500
H  44.71400 13.39600 22.27100
H  41.50800 13.56000 28.62600
H  42.28700 13.08800 27.02400
H  41.39800 14.55500 27.24400
H  44.01900 15.20500 32.81900
H  42.24700 18.88500 34.11300
H  42.15200 17.75200 35.43700
H  40.80400 17.83800 34.35500
Mg -12.01300 16.76000 41.49700
C  -9.04200 14.91900 41.07400
C  -10.49300 19.42800 40.11600
C  -14.99000 18.05800 41.26000
C  -13.53100 13.52200 42.16100
N  -10.10600 17.01600 40.59800
C  -8.93800 16.19600 40.65100
C  -7.65400 16.82100 40.09100
C  -8.21000 18.29000 39.82000
C  -9.71400 18.25200 40.18300
C  -7.50800 19.49800 40.43700
C  -7.30500 16.17200 38.69000
C  -5.97000 15.32700 38.59600
H  -5.02500 15.70300 37.47800
N  -12.64300 18.59200 40.83600
C  -11.86200 19.55300 40.36100
C  -12.71900 20.73600 40.13200
C  -14.01700 20.33400 40.44400
C  -13.91000 18.91200 40.89500
C  -12.25200 22.07100 39.61300
C  -15.18800 21.27400 40.39100
O  -15.10100 22.44600 39.95000
C  -16.63400 20.86900 40.72400
N  -13.93800 15.90800 41.83000
C  -15.05000 16.70600 41.65100
C  -16.38900 15.93600 41.85600
C  -15.80700 14.58400 42.28800
C  -14.33100 14.69600 42.07800
C  -17.39100 16.55100 42.79800
C  -16.34300 13.32500 41.51800
C  -16.75300 12.21600 42.52200
N  -11.45300 14.64400 41.67300
C  -12.14500 13.50400 41.96200
C  -11.30000 12.39000 42.15700
C  -10.05700 12.96500 41.86900
C  -10.22000 14.31500 41.54200
C  -11.60300 10.98500 42.47200
C  -8.65300 12.57500 41.67100
O  -8.14600 11.48800 41.80000
C  -7.99300 13.82100 41.25700
C  -7.05400 14.09700 42.33400
O  -7.23700 14.61000 43.43700
O  -5.79200 13.62000 41.92600
C  -4.70000 14.24100 42.67300
H  -10.02400 20.37800 39.85200
H  -15.98100 18.51300 41.21300
H  -14.01800 12.61700 42.53100
H  -6.78400 16.82000 40.74800
H  -8.21700 18.52000 38.75400
H  -7.58900 20.33500 39.74300
H  -6.50000 19.33000 40.81800
H  -7.98600 19.77200 41.37800
H  -7.37100 16.88000 37.86400
H  -8.09100 15.53500 38.28500
H  -6.21000 14.29200 38.35200
H  -5.43000 15.47700 39.53100
H  -12.30800 22.07000 38.52400
H  -11.18300 22.28200 39.65500
H  -12.67900 22.99800 39.99500
H  -17.25900 21.76100 40.77200
H  -16.68400 20.35600 41.68400
H  -16.95200 20.17300 39.94800
H  -16.85200 15.83400 40.87500
H  -15.98000 14.52400 43.36300
H  -18.39700 16.67300 42.39700
H  -16.93300 17.47700 43.14600
H  -17.49600 15.93000 43.68700
H  -15.76800 12.92700 40.68100
H  -17.27800 13.63100 41.04800
H  -17.28800 11.40500 42.02800
H  -17.27800 12.58500 43.40400
H  -15.85700 11.68800 42.84900
H  -10.69300 10.38900 42.54000
H  -12.16200 10.43200 41.71700
H  -12.10700 10.96600 43.43900
H  -7.51000 13.71200 40.28600
H  -4.00100 14.23000 41.83700
H  -4.36300 13.60600 43.49200
H  -4.78700 15.27100 43.01800

