158

Mg -2.43800 35.42800 26.25200
C  -3.69600 33.51500 28.91400
C  -1.18100 37.72700 28.54900
C  -1.22100 37.21600 23.75000
C  -3.86100 33.16300 24.09100
N  -2.47500 35.58700 28.46400
C  -3.01900 34.67700 29.32600
C  -2.83200 35.08600 30.82000
C  -1.92500 36.42100 30.62400
C  -1.85800 36.61400 29.12100
C  -2.31600 37.67200 31.39300
C  -2.28100 34.02500 31.79500
C  -1.25500 34.43300 32.82700
H  -1.21500 33.59700 34.10900
N  -1.28400 37.21400 26.13000
C  -0.83300 37.92900 27.20200
C  -0.02900 39.04300 26.72600
C  -0.01000 38.95000 25.26300
C  -0.79300 37.69400 25.00300
C  0.69700 40.01800 27.68200
C  0.69800 39.80900 24.15000
O  0.58800 39.58000 22.97400
C  1.49600 40.93800 24.61700
N  -2.83300 35.44700 24.23700
C  -2.13000 36.28400 23.44800
C  -2.45000 35.99000 22.02800
C  -3.01700 34.57200 22.05100
C  -3.25000 34.27800 23.53400
C  -3.36200 37.11500 21.55100
C  -2.09800 33.47800 21.32300
C  -0.64700 33.32700 21.81800
N  -3.60600 33.71800 26.41600
C  -4.10300 32.86000 25.42100
C  -4.79100 31.75400 25.99300
C  -4.64700 31.97500 27.37600
C  -3.88700 33.16100 27.58300
C  -5.31400 30.55700 25.25100
C  -4.95900 31.44700 28.62000
O  -5.68000 30.49100 28.89300
C  -4.30900 32.42200 29.66800
C  -5.43800 32.87900 30.59600
O  -6.39700 33.56500 30.25300
O  -5.24400 32.28700 31.84000
C  -6.31800 32.57600 32.82600
H  -0.76600 38.31700 29.36900
H  -0.83600 37.70800 22.85400
H  -4.23600 32.44000 23.36400
H  -3.76000 35.45600 31.25400
H  -0.96200 36.11100 31.03100
H  -3.10200 37.53000 32.13500
H  -2.50100 38.52600 30.74100
H  -1.54700 37.93300 32.11900
H  -1.75400 33.20300 31.31100
H  -3.17000 33.60300 32.26400
H  -1.46900 35.46900 33.08800
H  -0.30800 34.16600 32.35600
H  -0.08200 40.78000 27.67100
H  1.70800 40.28700 27.37500
H  0.81300 39.49500 28.63200
H  0.84900 41.57300 25.22200
H  1.87700 41.54800 23.79800
H  2.38200 40.55300 25.12300
H  -1.54900 36.07600 21.42200
H  -3.99600 34.46400 21.58400
H  -4.42500 36.89100 21.46000
H  -3.07500 37.44100 20.55100
H  -3.22500 38.03300 22.12300
H  -1.93600 33.72400 20.27300
H  -2.54000 32.49100 21.45200
H  -0.39200 34.15400 22.48000
H  0.09300 33.36800 21.01900
H  -0.47600 32.38300 22.33400
H  -5.41200 29.70000 25.91700
H  -4.57500 30.22800 24.52100
H  -6.17900 30.77300 24.62300
H  -3.61600 31.75800 30.18400
H  -5.87500 33.25500 33.55400
H  -6.61100 31.56700 33.11800
H  -7.18700 33.17200 32.54700
Mg -4.94000 25.57100 25.81300
C  -3.21900 27.11700 28.46100
C  -5.93000 23.10600 28.24900
C  -6.40800 23.90000 23.31800
C  -3.36300 27.58400 23.56400
N  -4.61600 25.22400 28.02300
C  -4.00600 26.07700 28.86400
C  -4.41900 25.68700 30.32700
C  -4.74100 24.15100 30.14900
C  -5.07500 24.15700 28.74300
C  -3.57100 23.15600 30.63200
C  -5.55500 26.66700 30.84000
C  -5.37600 26.97500 32.34200
H  -4.85200 25.88000 33.29300
N  -6.17600 23.92000 25.86100
C  -6.45500 23.03500 26.90700
C  -7.40900 22.06000 26.36900
C  -7.68900 22.38000 24.95400
C  -6.70800 23.41900 24.61400
C  -8.12400 21.07500 27.23100
C  -8.69700 21.63700 23.99000
O  -8.76500 21.89700 22.80000
C  -9.50600 20.49300 24.48900
N  -4.64700 25.54500 23.72400
C  -5.45400 24.82600 22.93800
C  -5.21400 25.09900 21.44700
C  -4.36300 26.38100 21.58700
C  -4.01800 26.47800 23.01600
C  -4.70000 23.88800 20.43900
C  -5.00700 27.64500 20.87400
C  -4.00900 28.44900 20.02500
N  -3.60500 27.07200 25.93500
C  -3.16500 27.87800 24.91000
C  -2.37400 28.98700 25.54500
C  -2.33400 28.72300 26.91700
C  -3.06500 27.50500 27.07600
C  -1.62900 30.01900 24.78500
C  -1.89700 29.14500 28.23600
O  -1.23800 30.07500 28.60100
C  -2.56600 28.15800 29.26400
C  -1.44500 27.76400 30.15300
O  -0.28200 27.62100 29.82000
O  -1.94700 27.82000 31.42200
C  -1.07000 27.68900 32.59000
H  -6.29000 22.37400 28.97400
H  -7.11400 23.39100 22.65900
H  -2.90700 28.10500 22.72000
H  -3.49400 25.80800 30.89200
H  -5.62900 23.97400 30.75600
H  -2.60300 23.65700 30.64800
H  -3.56900 22.36600 29.88100
H  -3.83100 22.74400 31.60700
H  -6.50600 26.15200 30.70400
H  -5.55200 27.62900 30.32700
H  -6.40300 27.19200 32.63700
H  -4.78500 27.88800 32.40500
H  -9.19800 21.11300 27.05100
H  -8.08200 21.37500 28.27800
H  -7.76100 20.06700 27.03100
H  -10.33000 20.62300 25.19100
H  -8.71500 19.83800 24.85500
H  -9.83900 19.86300 23.66400
H  -6.19700 25.38300 21.07200
H  -3.40300 26.27700 21.08000
H  -5.45400 23.68900 19.67700
H  -4.39400 23.04300 21.05600
H  -3.81300 24.21700 19.89700
H  -5.37700 28.30800 21.65600
H  -5.87800 27.38900 20.27000
H  -3.91000 29.43200 20.48300
H  -4.22600 28.55600 18.96200
H  -2.97700 28.09900 19.98000
H  -2.19800 30.28000 23.89200
H  -0.61800 29.65300 24.60600
H  -1.51000 30.92800 25.37400
H  -3.21400 28.81200 29.84800
H  0.01900 27.65700 32.57300
H  -1.38500 26.87700 33.24400
H  -1.21700 28.65700 33.06900

