158

Mg -12.13200 37.66800 41.76500
C  -9.52300 35.25400 41.24300
C  -10.07600 40.04300 40.51600
C  -14.82200 39.78200 41.15400
C  -14.24000 35.10400 42.60200
N  -10.11600 37.55700 40.80000
C  -9.18100 36.57700 40.76200
C  -7.84200 37.08400 40.16900
C  -7.97400 38.61500 40.18300
C  -9.43000 38.76000 40.61000
C  -6.85300 39.38100 40.99300
C  -7.62700 36.31300 38.81400
C  -6.34800 35.42800 38.65800
H  -5.24500 35.83800 37.70000
N  -12.38200 39.75700 41.11600
C  -11.37300 40.50300 40.64500
C  -11.90100 41.75800 40.20300
C  -13.32900 41.72300 40.25300
C  -13.61600 40.42700 40.88600
C  -11.02600 42.82600 39.67900
C  -14.33900 42.82400 39.75100
O  -13.94500 43.91000 39.21700
C  -15.85700 42.60900 39.87500
N  -14.28100 37.49600 41.82200
C  -15.15100 38.50800 41.58700
C  -16.66300 37.85500 41.61600
C  -16.32800 36.42600 42.10300
C  -14.83900 36.28400 42.12400
C  -17.58500 38.81700 42.45600
C  -16.93200 35.26500 41.15300
C  -18.15900 34.57300 41.83200
N  -11.97800 35.61700 41.87800
C  -12.89100 34.71200 42.35600
C  -12.20900 33.46100 42.68400
C  -10.83300 33.72400 42.28800
C  -10.78600 34.97900 41.74100
C  -12.79800 32.27800 43.33000
C  -9.50400 33.05400 42.27000
O  -9.21700 31.88600 42.64100
C  -8.59400 34.04100 41.50200
C  -7.40800 34.39100 42.37300
O  -6.24200 34.03600 42.15600
O  -7.79600 34.98300 43.56200
C  -6.80600 34.81800 44.67400
H  -9.38300 40.74200 40.04400
H  -15.70400 40.39200 40.95100
H  -14.80000 34.22300 42.92200
H  -7.08200 36.73500 40.86900
H  -7.79500 39.12300 39.23500
H  -6.37600 40.07400 40.30100
H  -6.11300 38.69900 41.41100
H  -7.32100 39.96100 41.78900
H  -7.47500 37.15200 38.13400
H  -8.50000 35.73600 38.51000
H  -6.73300 34.46800 38.31400
H  -5.92200 35.16200 39.62500
H  -11.53800 43.08000 38.75100
H  -10.02900 42.50800 39.37300
H  -11.13700 43.71100 40.30600
H  -16.34000 43.55300 39.62100
H  -16.02800 42.36600 40.92300
H  -16.31700 41.87100 39.21800
H  -17.05800 37.86800 40.60000
H  -16.74900 36.31900 43.10300
H  -17.12500 39.73700 42.81600
H  -18.02000 38.19000 43.23500
H  -18.30000 39.10100 41.68400
H  -16.27600 34.41100 40.97800
H  -17.17600 35.69000 40.17900
H  -18.75400 35.27000 42.42200
H  -17.77100 33.75000 42.43100
H  -18.76400 34.13400 41.03900
H  -12.10700 31.76600 43.99900
H  -13.11100 31.51900 42.61300
H  -13.77600 32.49300 43.75900
H  -8.20800 33.67200 40.55200
H  -6.67500 33.76400 44.91800
H  -7.09800 35.23600 45.63800
H  -5.85400 35.26400 44.38600
Mg -1.69900 34.40500 26.83900
C  -3.35600 32.46300 29.25500
C  -0.30300 36.16100 29.34500
C  -0.37700 36.25100 24.47600
C  -3.07500 32.24400 24.28800
N  -2.03300 34.33900 29.09300
C  -2.69000 33.50400 29.88200
C  -2.52000 33.81100 31.37500
C  -1.69900 35.18000 31.27900
C  -1.30100 35.22700 29.83200
C  -2.40600 36.49200 31.71500
C  -1.77100 32.74600 32.27700
C  -2.44500 32.50900 33.65900
H  -1.63800 32.27200 35.01800
N  -0.57900 36.05800 26.95100
C  -0.00600 36.62200 28.05400
C  1.02900 37.64900 27.67900
C  0.93200 37.70800 26.22500
C  -0.05700 36.61500 25.80400
C  1.82100 38.40400 28.65200
C  1.65200 38.76000 25.31700
O  1.50900 38.77500 24.09800
C  2.58200 39.83000 25.99000
N  -1.70600 34.25500 24.70800
C  -1.24700 35.30100 23.98100
C  -1.58800 35.14800 22.48600
C  -2.16000 33.67500 22.39400
C  -2.34600 33.33400 23.89300
C  -2.58100 36.23100 21.90500
C  -1.35000 32.60400 21.63300
C  -0.55500 31.60800 22.44500
N  -3.00300 32.75700 26.71900
C  -3.35400 31.90700 25.64800
C  -4.09200 30.79200 26.14400
C  -4.16300 31.04900 27.53000
C  -3.42200 32.17700 27.80800
C  -4.80200 29.78400 25.38100
C  -4.68200 30.41100 28.76500
O  -5.28400 29.35400 28.86400
C  -4.10900 31.27500 29.95200
C  -5.17400 31.66200 30.91200
O  -5.55800 32.82500 31.03500
O  -5.60300 30.65200 31.78400
C  -6.39800 31.26800 32.90100
H  0.19400 36.59800 30.21300
H  0.08100 36.98500 23.80900
H  -3.36400 31.54700 23.49900
H  -3.51400 34.09600 31.71900
H  -0.76100 35.08900 31.82600
H  -3.41600 36.25800 32.05200
H  -2.42100 37.21000 30.89500
H  -1.86900 36.90000 32.57100
H  -0.75400 33.11900 32.39400
H  -1.63400 31.77600 31.79800
H  -3.05300 31.61000 33.55600
H  -3.19500 33.26500 33.89300
H  2.11900 37.82000 29.52200
H  1.25500 39.27800 28.97400
H  2.76700 38.80500 28.28900
H  2.09900 40.40300 26.78200
H  3.02200 40.42100 25.18700
H  3.33100 39.13700 26.37300
H  -0.67900 35.10200 21.88600
H  -3.18100 33.57500 22.02700
H  -3.56600 35.80300 21.71800
H  -2.18900 36.53000 20.93300
H  -2.56100 37.05800 22.61600
H  -0.62800 33.11400 20.99600
H  -1.99700 32.01600 20.98300
H  0.13300 31.08100 21.78400
H  -1.31900 30.92900 22.82400
H  0.03200 32.08200 23.23100
H  -4.31300 29.61800 24.42100
H  -5.81500 30.14600 25.20800
H  -4.85200 28.84900 25.93800
H  -3.45000 30.67100 30.57600
H  -5.79200 32.03900 33.37700
H  -6.77900 30.52100 33.59800
H  -7.33900 31.60800 32.47000

