158

Mg 24.97200 -5.30200 46.33600
C  27.27400 -3.06000 44.82400
C  22.66500 -4.43100 44.06900
C  23.10700 -7.91300 47.53900
C  27.70900 -6.50900 48.31800
N  25.12100 -4.07400 44.48000
C  26.09100 -3.19600 44.10500
C  25.65900 -2.34300 42.90300
C  24.07100 -2.49800 42.98300
C  23.90000 -3.75800 43.89400
C  23.23000 -1.32600 43.45800
C  26.26600 -2.84700 41.50200
C  26.80700 -1.84600 40.46600
H  26.35400 -1.97900 38.99500
N  23.04100 -6.05700 45.81400
C  22.21700 -5.56700 44.83000
C  20.96500 -6.22100 44.89300
C  21.02400 -7.17800 45.97200
C  22.45300 -7.08500 46.52300
C  19.82800 -5.78100 44.01000
C  19.93400 -8.06700 46.38200
O  18.82900 -8.14200 45.86800
C  20.07000 -8.81400 47.62400
N  25.39400 -6.93900 47.61800
C  24.46500 -7.89500 47.97100
C  25.08400 -9.03200 48.78200
C  26.59500 -8.73300 48.68600
C  26.56200 -7.28000 48.18600
C  24.43600 -9.15600 50.22700
C  27.48800 -9.63200 47.76500
C  28.71900 -10.41900 48.39000
N  26.98300 -4.74100 46.67700
C  27.95500 -5.35500 47.50400
C  29.18700 -4.53100 47.41900
C  28.91200 -3.62200 46.38900
C  27.64300 -3.84400 45.95000
C  30.41100 -4.70900 48.05500
C  29.51100 -2.57800 45.56400
O  30.62100 -2.12800 45.61800
C  28.51700 -2.18300 44.52300
C  28.31100 -0.74800 44.60000
O  27.32000 -0.22600 45.04200
O  29.40400 -0.11100 44.08800
C  29.19600 1.31500 43.81100
H  21.88200 -4.06500 43.40200
H  22.55000 -8.77600 47.91000
H  28.52300 -6.96600 48.88400
H  26.00700 -1.33200 43.11400
H  23.69300 -2.83600 42.01800
H  22.45300 -1.05000 42.74500
H  23.70000 -0.35300 43.59900
H  22.81100 -1.54100 44.44200
H  25.49800 -3.43100 40.99600
H  27.09300 -3.53300 41.68600
H  27.89100 -1.82500 40.57500
H  26.41700 -0.88500 40.80200
H  19.16600 -6.64300 43.93300
H  20.37100 -5.68400 43.07000
H  19.38800 -4.84400 44.35000
H  19.11700 -9.13400 48.04700
H  20.46300 -8.01200 48.24900
H  20.74600 -9.62900 47.36700
H  25.03000 -9.98700 48.25800
H  27.10000 -8.63800 49.64700
H  23.42500 -8.74900 50.20600
H  24.98400 -8.64300 51.01700
H  24.37400 -10.21600 50.47700
H  27.84300 -9.06000 46.90800
H  26.78400 -10.41200 47.47700
H  28.88400 -11.35800 47.86100
H  28.67200 -10.62400 49.46000
H  29.63900 -9.87800 48.16900
H  30.15500 -4.74900 49.11300
H  31.10700 -3.88400 47.89900
H  30.89900 -5.65200 47.81200
H  28.99400 -2.30100 43.54900
H  30.17200 1.78700 43.69700
H  28.56800 1.84500 44.52800
H  28.77900 1.33100 42.80400
Mg 16.64900 -2.45300 27.93100
C  15.55700 -0.13200 30.42700
C  18.72800 -3.75400 30.12700
C  18.06800 -4.09900 25.30800
C  14.67800 -0.71400 25.56700
N  16.83800 -2.10800 30.10000
C  16.35400 -1.14300 30.91200
C  16.96300 -1.31200 32.27300
C  18.09300 -2.40000 32.15500
C  17.90500 -2.81200 30.67600
C  19.55900 -1.82400 32.39600
C  15.91100 -1.60200 33.41600
C  16.21700 -1.33700 34.88500
H  17.44500 -0.49900 35.26700
N  18.07700 -3.90600 27.72900
C  18.75800 -4.34000 28.83100
C  19.60600 -5.44600 28.33900
C  19.57900 -5.48200 26.93100
C  18.48300 -4.49500 26.59900
C  20.45800 -6.26200 29.36100
C  20.33600 -6.34100 25.98200
O  20.05000 -6.31200 24.76700
C  21.31200 -7.32300 26.44400
N  16.51700 -2.22700 25.64500
C  17.15600 -3.14800 24.83900
C  16.83900 -2.94700 23.30400
C  15.45200 -2.16200 23.50600
C  15.52500 -1.69900 25.02400
C  17.94900 -2.31500 22.40700
C  14.20600 -3.04900 23.18400
C  13.05800 -2.58200 22.23600
N  15.36000 -0.85900 27.90200
C  14.63400 -0.26200 26.87600
C  13.82200 0.81700 27.49500
C  14.21500 0.94000 28.85500
C  15.17400 -0.06300 29.03300
C  12.82300 1.73300 26.72500
C  14.02100 1.74700 30.00600
O  13.22700 2.61400 30.30300
C  14.81500 0.99800 31.13500
C  15.70900 2.11600 31.72400
O  16.73200 2.47100 31.21000
O  15.17500 2.60100 32.86200
C  16.10800 3.30700 33.76800
H  19.56700 -4.06700 30.75200
H  18.55000 -4.63600 24.48900
H  14.02300 -0.19300 24.86500
H  17.46700 -0.36600 32.46900
H  17.80400 -3.25800 32.76200
H  19.55600 -0.99600 33.10500
H  19.95800 -1.57000 31.41400
H  20.11800 -2.63900 32.85500
H  15.82900 -2.68900 33.42900
H  15.03000 -1.03800 33.11000
H  16.18000 -2.31900 35.35700
H  15.34500 -0.77200 35.21500
H  20.58100 -7.31100 29.09200
H  19.99700 -6.17700 30.34500
H  21.44100 -5.80000 29.45600
H  21.99300 -6.84900 27.15100
H  21.89100 -7.73500 25.61800
H  20.72300 -8.12800 26.88500
H  16.68400 -3.92400 22.84600
H  15.39300 -1.27100 22.88000
H  18.84800 -2.01700 22.94700
H  17.52700 -1.41100 21.96600
H  18.22000 -3.05000 21.65000
H  13.79100 -3.25100 24.17100
H  14.58000 -4.02200 22.86600
H  12.19500 -2.54500 22.90100
H  12.81000 -3.11200 21.31700
H  13.42300 -1.61600 21.88700
H  12.04200 1.96400 27.45000
H  12.37100 1.13900 25.93000
H  13.29500 2.62800 26.32100
H  14.12700 0.69300 31.92300
H  16.21500 4.36000 33.50700
H  17.11600 2.92100 33.92500
H  15.56100 3.28000 34.71000

