158

Mg 42.63500 42.27500 25.84300
C  41.58100 44.34900 28.43300
C  44.01000 40.17400 28.11300
C  43.63300 40.20100 23.34700
C  41.76300 44.77700 23.63100
N  42.80000 42.26800 27.97300
C  42.13300 43.19300 28.82700
C  42.24200 42.74500 30.30300
C  43.02200 41.44200 30.15600
C  43.33300 41.24900 28.66300
C  44.40200 41.51100 30.93000
C  40.80500 42.46600 30.84400
C  40.76200 41.52700 32.08600
H  40.31200 42.10500 33.41900
N  43.62100 40.40900 25.75100
C  44.13000 39.71900 26.81000
C  44.79900 38.54000 26.35500
C  44.64000 38.49500 24.99000
C  43.88100 39.71500 24.62300
C  45.58300 37.65100 27.19100
C  45.20000 37.50100 23.89100
O  45.00800 37.60700 22.69200
C  45.95300 36.25100 24.29500
N  42.75400 42.42400 23.79100
C  43.18400 41.44600 22.97200
C  43.04500 41.94300 21.55300
C  42.32900 43.37800 21.60800
C  42.38900 43.56100 23.09600
C  44.38300 41.95100 20.73400
C  40.97200 43.44300 20.95400
C  41.03100 44.09200 19.55300
N  41.91300 44.23900 25.94800
C  41.66000 45.09300 24.98800
C  41.01100 46.28800 25.48500
C  41.00600 46.10100 26.86700
C  41.54600 44.84100 27.13100
C  40.47400 47.47600 24.62600
C  40.61200 46.57900 28.22900
O  40.02000 47.61000 28.61000
C  40.95500 45.45600 29.29200
C  41.85100 46.08500 30.30200
O  43.07300 46.25700 30.15500
O  41.17600 46.34300 31.45700
C  41.99600 47.04100 32.50200
H  44.55600 39.63900 28.89300
H  43.96300 39.60000 22.49700
H  41.56800 45.55300 22.88800
H  42.86000 43.38600 30.93200
H  42.54100 40.50700 30.44300
H  44.44500 40.50900 31.35800
H  44.59800 42.31800 31.63600
H  45.15300 41.51100 30.14000
H  40.12800 42.17900 30.03900
H  40.57200 43.45400 31.24200
H  41.66300 40.93300 32.23700
H  39.93100 40.87800 31.80900
H  45.18000 37.75600 28.19900
H  46.65700 37.71400 27.02100
H  45.29500 36.61000 27.04700
H  46.33400 35.73600 23.41300
H  45.41200 35.52600 24.90300
H  46.78800 36.60800 24.89800
H  42.37100 41.23600 21.07100
H  43.01700 44.14300 21.24700
H  45.18400 41.84400 21.46600
H  44.51000 42.83800 20.11400
H  44.44400 41.07000 20.09500
H  40.32700 44.02700 21.61100
H  40.63400 42.41400 20.83900
H  40.14300 44.70400 19.39100
H  41.06900 43.29400 18.81100
H  41.86600 44.78000 19.42700
H  41.08400 47.48900 23.72300
H  40.58400 48.42400 25.15200
H  39.45900 47.14900 24.39800
H  40.04300 45.15100 29.80400
H  42.54800 47.90600 32.13300
H  42.61700 46.26300 32.94500
H  41.27500 47.50300 33.17700
Mg 36.24200 49.19700 24.80900
C  36.33200 47.45600 27.77300
C  34.86000 51.96600 26.42900
C  35.58900 50.59800 21.82400
C  37.00600 46.16400 23.17700
N  35.45500 49.61300 26.86600
C  35.73600 48.78200 27.94300
C  35.30500 49.49800 29.25200
C  34.66800 50.87300 28.74200
C  35.12100 50.84500 27.26500
C  33.19200 51.05400 29.11800
C  36.53400 49.73000 30.23100
C  36.34900 49.34600 31.71000
H  34.92300 49.28500 32.35700
N  35.51500 51.09300 24.20900
C  34.98100 52.10200 24.97300
C  34.71500 53.32000 24.21700
C  34.91600 52.92800 22.84100
C  35.41000 51.51500 22.89900
C  34.35400 54.62100 24.87500
C  34.82400 53.72400 21.55100
O  35.21400 53.30900 20.44800
C  34.24300 55.03300 21.56700
N  36.11900 48.42900 22.84500
C  35.93700 49.24100 21.81200
C  35.85400 48.30500 20.55800
C  36.63700 47.07700 20.91000
C  36.46400 47.15600 22.36800
C  34.42600 48.05700 20.05300
C  38.10700 46.85000 20.43800
C  39.15500 47.97600 20.71500
N  36.61100 47.19200 25.29000
C  36.99800 46.10400 24.56200
C  37.39100 45.03400 25.48400
C  37.11300 45.50000 26.75300
C  36.67200 46.80700 26.53700
C  37.86800 43.68800 25.04300
C  37.25400 45.21400 28.21300
O  37.59100 44.23000 28.86900
C  36.68600 46.40400 28.89100
C  35.53800 45.85600 29.69300
O  34.40800 45.60400 29.29800
O  36.01800 45.74200 31.01900
C  35.06500 45.08200 31.90400
H  34.47500 52.79400 27.02800
H  35.23800 50.90400 20.83600
H  37.41700 45.25100 22.74200
H  34.49000 48.89100 29.64700
H  35.24200 51.71000 29.13900
H  32.65700 50.10800 29.20100
H  32.64800 51.58200 28.33500
H  33.18200 51.50800 30.10900
H  36.90800 50.75300 30.18900
H  37.39500 49.14700 29.90500
H  36.93100 50.10800 32.22900
H  36.90000 48.41900 31.86800
H  33.29600 54.88100 24.89400
H  34.76100 55.41500 24.24900
H  34.55000 54.66400 25.94600
H  34.05200 55.45500 20.58100
H  35.06400 55.62800 21.96700
H  33.35400 54.92100 22.18700
H  36.38200 48.75400 19.71700
H  36.13700 46.17200 20.56300
H  33.64800 48.74200 20.39000
H  34.11200 47.03400 20.25700
H  34.48300 48.15800 18.96900
H  37.96600 46.78900 19.35900
H  38.53700 45.88000 20.68700
H  38.77500 48.91300 21.12300
H  39.60300 48.07300 19.72600
H  39.92800 47.66600 21.41800
H  37.34400 43.29800 24.17000
H  37.75800 42.93600 25.82400
H  38.90100 43.80800 24.71500
H  37.51600 46.78600 29.48500
H  34.81400 44.09800 31.50700
H  34.17000 45.67200 32.09900
H  35.53600 45.05300 32.88700

