158

Mg 35.88500 1.10700 29.78400
C  33.61100 2.00500 32.37000
C  38.39300 0.90500 32.07600
C  37.99500 0.45300 27.20200
C  33.21700 1.57300 27.53000
N  35.99300 1.48000 31.92600
C  34.91400 1.75600 32.87700
C  35.36000 1.72100 34.31600
C  36.90400 1.66300 34.09800
C  37.09400 1.39200 32.60200
C  37.60400 2.96400 34.47900
C  34.84100 0.46900 35.03300
C  34.04400 0.74200 36.28200
H  34.47900 1.84400 37.18900
N  37.83300 0.58700 29.66400
C  38.72600 0.52500 30.73800
C  40.00300 0.09100 30.27500
C  39.94400 0.01400 28.87400
C  38.57500 0.35200 28.46600
C  41.14700 -0.17200 31.23900
C  41.03700 -0.24100 27.86500
O  40.87200 -0.12000 26.65600
C  42.39000 -0.74700 28.36900
N  35.69600 1.21100 27.73600
C  36.72800 0.85300 26.85800
C  36.29700 0.75900 25.38700
C  34.74700 0.92000 25.49000
C  34.53200 1.29800 26.95900
C  36.96000 1.78600 24.40200
C  33.91100 -0.28900 24.93800
C  33.67400 -1.43600 25.97400
N  33.82100 1.74600 29.83300
C  32.87600 1.84300 28.87300
C  31.62400 2.27700 29.46000
C  31.86900 2.38100 30.80200
C  33.20200 2.03500 31.02800
C  30.32900 2.49300 28.82500
C  31.23600 2.66500 32.10100
O  30.05900 2.94400 32.33200
C  32.37800 2.39400 33.12900
C  32.51300 3.68000 33.79200
O  32.89300 4.67900 33.23200
O  31.90200 3.64400 35.02400
C  31.79600 4.94400 35.70600
H  39.19500 0.75000 32.80100
H  38.64600 0.12100 26.39000
H  32.38600 1.55300 26.82200
H  35.01100 2.64900 34.76900
H  37.44900 0.93400 34.69800
H  38.67900 2.90300 34.30700
H  37.29200 3.32700 35.45800
H  37.29300 3.58400 33.63800
H  35.64500 -0.14200 35.44300
H  34.35200 -0.23100 34.35500
H  33.94800 -0.14000 36.91500
H  33.02100 0.90900 35.94500
H  40.81100 -0.62800 32.17000
H  41.54100 0.79700 31.54600
H  41.93200 -0.78200 30.79200
H  42.25600 -1.64800 28.96800
H  42.89100 0.00500 28.97800
H  43.05000 -0.82900 27.50600
H  36.55800 -0.27900 25.18100
H  34.31700 1.80100 25.01300
H  36.22300 2.44700 23.94400
H  37.47300 1.15700 23.67600
H  37.69300 2.38800 24.93900
H  34.58500 -0.54400 24.12100
H  33.00300 0.11700 24.49100
H  34.06500 -1.27100 26.97700
H  34.19600 -2.30700 25.57800
H  32.62200 -1.71500 26.03800
H  30.09700 3.55600 28.76300
H  29.59200 1.99600 29.45500
H  30.43800 2.06400 27.82900
H  32.13300 1.58800 33.82100
H  32.83200 5.25100 35.84900
H  31.28400 4.85100 36.66400
H  31.25200 5.71800 35.16400
Mg -0.43000 43.35900 25.25800
C  1.69700 42.61300 27.88200
C  -2.99600 42.80400 27.39300
C  -2.52100 43.37800 22.62500
C  2.44500 43.20100 23.12000
N  -0.60200 42.60000 27.41000
C  0.40900 42.64500 28.32500
C  -0.14200 42.64200 29.75300
C  -1.65000 42.31000 29.49900
C  -1.78100 42.59000 28.00400
C  -2.28300 40.94400 29.90000
C  0.07400 44.08900 30.37900
C  0.05100 44.13800 31.94300
H  -0.20900 42.84300 32.76700
N  -2.49000 43.32000 25.04000
C  -3.37100 43.06400 26.06800
C  -4.72400 43.15300 25.53900
C  -4.59800 43.24400 24.14400
C  -3.16000 43.33400 23.84700
C  -5.94800 43.04000 26.44000
C  -5.66800 43.39500 23.04500
O  -5.46000 43.71700 21.90100
C  -7.19600 43.24300 23.49300
N  -0.07800 43.36800 23.20300
C  -1.07500 43.31500 22.28900
C  -0.55000 43.40300 20.82300
C  0.95100 43.75800 21.10800
C  1.16200 43.39600 22.54200
C  -0.77900 41.97800 20.14000
C  1.51100 45.22400 20.78100
C  1.20300 46.42300 21.64800
N  1.64100 43.13700 25.38000
C  2.64100 43.00000 24.50900
C  3.92200 42.73400 25.15000
C  3.61700 42.59800 26.49500
C  2.19500 42.78000 26.55100
C  5.24400 42.57500 24.40400
C  4.18600 42.21300 27.75300
O  5.36700 41.97900 28.03900
C  3.02100 42.49900 28.74400
C  3.14600 41.40300 29.75700
O  2.78200 40.19900 29.72500
O  3.65700 41.92800 30.91100
C  4.13800 41.02300 31.98900
H  -3.82800 42.69400 28.09200
H  -3.12600 43.44100 21.71800
H  3.34000 43.22600 22.49500
H  0.42100 41.94900 30.37800
H  -2.28400 43.03800 30.00500
H  -3.07400 40.75600 29.17400
H  -2.71300 41.08900 30.89100
H  -1.45700 40.23500 29.96000
H  -0.63100 44.80700 29.96000
H  1.01600 44.50200 30.02000
H  -0.63700 44.94700 32.19100
H  0.98200 44.49400 32.38400
H  -6.56000 43.93900 26.37900
H  -5.83100 42.87500 27.51100
H  -6.47400 42.23800 25.92100
H  -7.44500 42.33900 24.04800
H  -7.60500 43.30100 22.48400
H  -7.62800 44.08800 24.02900
H  -0.94300 44.10700 20.08900
H  1.47800 43.07100 20.44700
H  -1.39500 41.30800 20.73900
H  0.18500 41.48700 20.00500
H  -1.32800 42.16700 19.21800
H  1.12000 45.23300 19.76400
H  2.59200 45.09400 20.73500
H  1.07300 47.29900 21.01400
H  2.08500 46.61300 22.26000
H  0.28600 46.30600 22.22600
H  5.96200 42.26200 25.16100
H  5.60600 43.44300 23.85100
H  5.11100 41.72800 23.73100
H  3.19200 43.49600 29.15100
H  5.19900 40.94800 31.75000
H  3.67000 40.03900 32.00800
H  4.05000 41.49000 32.97000

