158

Mg 39.80400 9.83400 29.20300
C  41.76100 11.30200 31.65100
C  37.85000 8.31100 31.75200
C  38.03200 8.44200 26.89400
C  42.25200 10.58900 26.92000
N  39.91900 9.74000 31.49000
C  40.70500 10.57400 32.25400
C  40.35700 10.51600 33.69900
C  39.20400 9.42700 33.72500
C  38.95400 9.09800 32.18500
C  39.42800 8.12400 34.62400
C  39.99400 11.88700 34.37600
C  40.72500 12.23400 35.73500
H  39.78000 12.65700 36.92500
N  38.14100 8.54100 29.30200
C  37.51400 8.03800 30.41600
C  36.28800 7.33600 29.87700
C  36.26600 7.32400 28.43800
C  37.55500 8.12000 28.18400
C  35.24800 6.75900 30.82600
C  35.23400 6.80000 27.44700
O  35.19900 7.15100 26.29000
C  34.22000 5.80000 27.88700
N  40.03000 9.67400 27.15600
C  39.13500 9.05700 26.40300
C  39.30000 9.42500 24.94200
C  40.69100 10.12800 24.93600
C  41.05400 10.05700 26.44400
C  39.11800 8.13900 24.05100
C  40.67900 11.59700 24.47000
C  39.75800 12.60600 25.19100
N  41.60100 10.72200 29.19500
C  42.46600 10.98100 28.19500
C  43.58700 11.66700 28.73300
C  43.32300 11.82000 30.06800
C  42.15200 11.21900 30.35300
C  44.81000 12.16100 28.12500
C  43.82600 12.45900 31.26200
O  44.86700 13.02800 31.41500
C  42.80100 12.11700 32.37100
C  43.40600 11.22400 33.38400
O  43.76700 10.05200 33.15400
O  43.66000 11.84800 34.58600
C  44.41400 11.09000 35.67900
H  37.17300 7.77200 32.41800
H  37.41600 7.87200 26.19500
H  43.01700 10.62900 26.14100
H  41.06600 10.06100 34.39100
H  38.27700 9.88700 34.07000
H  39.36200 7.21400 34.02700
H  38.66800 8.03800 35.40100
H  40.33600 7.98200 35.21100
H  38.93100 11.92600 34.61600
H  40.28500 12.59300 33.59800
H  41.31800 13.11200 35.48100
H  41.42500 11.49000 36.11600
H  35.42700 5.71400 31.08000
H  34.23600 6.91000 30.45000
H  35.27500 7.39900 31.70700
H  34.59600 5.10300 28.63500
H  33.87600 5.19900 27.04500
H  33.38700 6.39700 28.25900
H  38.50000 10.13300 24.72300
H  41.33200 9.49300 24.32400
H  38.09700 8.08600 23.67200
H  39.44900 7.25700 24.59900
H  39.78400 8.37200 23.22100
H  40.30500 11.65100 23.44700
H  41.71200 11.94400 24.50500
H  39.32500 12.26800 26.13300
H  38.93900 12.94800 24.55900
H  40.30500 13.51500 25.44100
H  44.61600 12.50000 27.10800
H  45.57600 11.39400 28.01200
H  45.20000 12.86400 28.86000
H  42.30300 13.03100 32.69500
H  44.68000 11.79600 36.46600
H  45.32800 10.87400 35.12600
H  43.86100 10.28500 36.16200
Mg 53.77000 24.15200 44.64100
C  51.14800 26.39300 44.01700
C  51.98700 21.67200 43.00500
C  56.41800 22.30500 44.92200
C  55.72500 26.95700 45.69200
N  51.85800 24.10700 43.53900
C  51.04200 25.16600 43.30500
C  49.89500 24.77400 42.32100
C  50.13100 23.25100 42.22800
C  51.33700 22.97400 42.98000
C  48.94700 22.35500 42.48500
C  49.88400 25.55800 40.89200
C  51.26000 26.18200 40.53400
H  52.09400 25.48000 39.49600
N  54.16000 22.21900 43.99400
C  53.23800 21.30900 43.50100
C  53.90400 20.08700 43.38100
C  55.11300 20.16900 44.08600
C  55.32600 21.58900 44.27800
C  53.31700 18.88000 42.71000
C  56.09100 18.97100 44.50000
O  55.75300 17.82400 44.27200
C  57.43800 19.17400 45.17100
N  55.85200 24.62900 45.03300
C  56.71900 23.63800 45.18500
C  58.10200 24.02900 45.78300
C  57.88800 25.54900 45.98500
C  56.38400 25.74200 45.56400
C  58.68100 23.13300 46.97900
C  58.83700 26.45600 45.15600
C  60.25400 26.38400 45.52800
N  53.56000 26.19700 44.82100
C  54.37800 27.17500 45.48600
C  53.61100 28.36100 45.68500
C  52.34000 28.08700 45.30300
C  52.40100 26.75000 44.71500
C  54.02700 29.66200 46.49400
C  50.96000 28.55500 45.24000
O  50.44700 29.59700 45.57700
C  50.18600 27.51600 44.30300
C  49.72700 28.21600 43.05200
O  50.40700 28.83300 42.22600
O  48.33800 28.20500 43.01500
C  47.77300 28.88500 41.86200
H  51.33100 20.93100 42.54500
H  57.20300 21.63000 45.26900
H  56.25800 27.75400 46.21500
H  48.97600 24.96700 42.87500
H  50.27600 22.98000 41.18300
H  49.20400 21.65600 43.28000
H  48.80000 21.69500 41.63000
H  48.12700 22.92700 42.92000
H  49.22700 26.41800 41.02000
H  49.56300 24.94200 40.05200
H  51.96500 26.39900 41.33700
H  50.98000 27.15200 40.12300
H  52.53300 19.15900 42.00600
H  52.76600 18.21000 43.36900
H  53.99200 18.13000 42.29800
H  57.87400 18.18900 45.33300
H  57.11600 19.66400 46.09000
H  58.01500 19.83300 44.52200
H  58.84000 23.93500 44.98700
H  57.90600 25.80900 47.04300
H  59.21400 22.24200 46.64500
H  57.80200 22.91300 47.58400
H  59.34800 23.79100 47.53600
H  58.46100 27.47300 45.04700
H  58.81500 25.99000 44.17000
H  60.17600 25.94500 46.52300
H  60.80600 27.32200 45.47600
H  60.87200 25.65400 45.00500
H  53.68700 30.50200 45.88700
H  55.11500 29.72800 46.48200
H  53.66600 29.56300 47.51800
H  49.28400 27.19400 44.82500
H  48.31300 28.67900 40.93700
H  47.77200 29.96700 42.00000
H  46.72200 28.62600 41.73700

