158

Mg 3.24700 -1.89300 44.31100
C  6.65200 -1.12300 43.75500
C  2.33300 0.72400 42.27400
C  0.11600 -3.21200 44.16900
C  4.38300 -5.01700 45.71200
N  4.36700 -0.41500 43.12800
C  5.75700 -0.22200 43.17100
C  6.12100 1.02900 42.39100
C  4.75800 1.62200 41.92000
C  3.69400 0.53100 42.33300
C  4.48500 3.04600 42.57200
C  7.00800 0.67900 41.15100
C  8.28200 1.56600 40.99600
H  8.80200 1.97400 39.60100
N  1.46700 -1.24000 43.53200
C  1.30100 -0.08700 42.78900
C  -0.13400 0.12300 42.59700
C  -0.83600 -1.01200 43.14300
C  0.23800 -1.88800 43.68500
C  -0.70500 1.39100 41.88400
C  -2.32600 -1.27100 43.11000
O  -3.10900 -0.45100 42.51000
C  -2.97700 -2.47300 43.81600
N  2.38100 -3.93700 44.78900
C  1.05300 -4.15700 44.63300
C  0.63600 -5.55200 45.15100
C  2.08300 -6.19700 45.61100
C  3.00800 -4.94200 45.43700
C  -0.39300 -5.66800 46.31700
C  2.67400 -7.37300 44.74900
C  2.42800 -8.82100 45.29600
N  5.10300 -2.91700 44.69800
C  5.39300 -4.10700 45.33800
C  6.84200 -4.17000 45.57900
C  7.31200 -3.06000 44.93800
C  6.25700 -2.32000 44.44700
C  7.58400 -5.27900 46.31100
C  8.54800 -2.35900 44.71700
O  9.69100 -2.69700 45.05700
C  8.12400 -0.96100 43.94800
C  8.54800 0.22700 44.70700
O  8.29900 0.36500 45.84100
O  9.09100 1.14800 43.91400
C  9.41700 2.43600 44.60500
H  2.11600 1.64600 41.72900
H  -0.87200 -3.66500 44.06900
H  4.80700 -5.92800 46.14100
H  6.68100 1.77800 42.95100
H  4.64800 1.75600 40.84400
H  3.88800 2.90800 43.47400
H  3.90200 3.76000 41.99100
H  5.41200 3.61200 42.66200
H  6.50200 0.86600 40.20300
H  7.38200 -0.34100 41.06600
H  9.17500 1.09900 41.41200
H  8.19400 2.54000 41.47700
H  0.06400 1.78400 41.21900
H  -0.92100 2.13600 42.65000
H  -1.63700 1.16000 41.36800
H  -2.66800 -2.77000 44.81700
H  -2.63700 -3.23800 43.11800
H  -4.05700 -2.33200 43.76200
H  0.32000 -6.12200 44.27700
H  2.07600 -6.47100 46.66600
H  -1.02500 -4.78700 46.42700
H  0.11600 -6.00100 47.22200
H  -1.16200 -6.35000 45.95600
H  3.74000 -7.16400 44.65400
H  2.18800 -7.25900 43.78000
H  1.63100 -8.90400 46.03500
H  3.35900 -9.25300 45.66100
H  2.10800 -9.35400 44.40100
H  6.84200 -5.79700 46.91800
H  8.30000 -4.82500 46.99600
H  8.09900 -6.05800 45.74800
H  8.74900 -0.89200 43.05800
H  10.38800 2.32300 45.08600
H  8.64100 2.76300 45.29600
H  9.50100 3.27200 43.91100
Mg 48.28100 44.83100 43.49000
C  44.82600 45.30200 42.36000
C  48.10600 41.69900 41.90300
C  51.64800 44.66800 43.60000
C  48.28700 48.24800 44.36400
N  46.54900 43.63000 42.19600
C  45.25700 44.02400 41.94300
C  44.60200 42.89400 41.13600
C  45.53300 41.65300 41.45200
C  46.80200 42.32500 41.94700
C  45.00500 40.46400 42.37900
C  44.31900 43.31300 39.63500
C  43.58400 42.34300 38.74400
H  44.28700 41.66300 37.57600
N  49.76800 43.35700 42.89600
C  49.44600 42.17700 42.22600
C  50.67200 41.46800 42.08200
C  51.70800 42.27000 42.56700
C  51.07700 43.47000 43.04500
C  50.70100 39.96400 41.44400
C  53.19300 41.97400 42.63100
O  53.57500 40.98200 42.14000
C  54.13500 42.89900 43.17800
N  49.80400 46.32600 43.81300
C  51.10800 45.97000 43.91400
C  51.93400 47.16000 44.41600
C  50.84900 48.24100 44.90300
C  49.53300 47.61900 44.25200
C  52.91300 46.79400 45.53800
C  51.19600 49.65100 44.50700
C  51.48200 50.71900 45.54500
N  46.85000 46.41000 43.49400
C  46.99400 47.67300 43.97800
C  45.73000 48.45900 43.82500
C  44.85300 47.57400 43.22600
C  45.59500 46.33200 43.02200
C  45.47700 49.91500 44.32400
C  43.49900 47.34700 42.74400
O  42.47900 48.07800 42.69700
C  43.44300 45.90300 42.06500
C  42.17900 45.13300 42.43200
O  41.20200 44.91100 41.70100
O  42.24900 44.93400 43.78600
C  41.06300 44.48200 44.51100
H  48.06900 40.63600 41.65400
H  52.72300 44.62600 43.78500
H  48.28400 49.27000 44.74800
H  43.66000 42.62600 41.61500
H  45.87000 41.28200 40.48400
H  43.95400 40.52000 42.66400
H  45.66600 40.38700 43.24200
H  45.25700 39.49700 41.94300
H  45.29500 43.58500 39.23600
H  43.76600 44.25100 39.68100
H  42.70600 42.80900 38.29500
H  43.12000 41.60300 39.39500
H  49.86400 39.65400 40.81900
H  50.91600 39.19200 42.18300
H  51.51900 39.75900 40.75300
H  55.13600 42.48100 43.06400
H  53.89300 42.95900 44.23900
H  54.19200 43.83000 42.61400
H  52.42800 47.59700 43.54800
H  50.68100 48.09600 45.97000
H  53.90500 46.48400 45.20900
H  52.51100 45.95600 46.10700
H  53.10300 47.56500 46.28500
H  50.35300 50.01000 43.91500
H  52.12300 49.64200 43.93400
H  51.45400 50.27500 46.54000
H  50.67900 51.45200 45.46900
H  52.44500 51.14600 45.26200
H  46.21500 50.27400 45.04200
H  44.47300 49.84600 44.74300
H  45.30800 50.57900 43.47600
H  43.30300 46.21200 41.03000
H  40.37100 45.28400 44.76800
H  41.36300 43.91600 45.39300
H  40.48700 43.77700 43.91200

