158

Mg 7.93200 3.06000 27.95800
C  9.25900 1.65800 30.89600
C  6.35400 5.32100 29.81000
C  6.29800 4.15300 25.17100
C  9.44500 0.55300 26.12400
N  7.71700 3.22900 30.14500
C  8.47400 2.77300 31.17500
C  8.39500 3.55700 32.43000
C  7.24000 4.51200 32.06600
C  7.12000 4.39200 30.54000
C  5.83600 4.25200 32.82000
C  9.76500 4.26700 32.62300
C  10.53100 3.96500 33.94100
H  10.13500 4.88800 35.10300
N  6.50800 4.51000 27.55400
C  5.99700 5.34900 28.48800
C  5.16800 6.36200 27.79800
C  5.11700 5.97700 26.44400
C  6.03200 4.83600 26.35900
C  4.64600 7.60200 28.47500
C  4.43300 6.67800 25.33300
O  4.38500 6.21400 24.22500
C  3.77100 8.07400 25.61400
N  7.87600 2.41900 25.97300
C  7.20000 3.06600 24.96100
C  7.40100 2.48500 23.59500
C  8.42700 1.29500 23.94100
C  8.59800 1.44200 25.48900
C  6.13900 2.13400 22.81800
C  9.76200 1.38500 23.24700
C  10.18400 0.09400 22.58700
N  9.23900 1.48000 28.39600
C  9.74200 0.51700 27.51600
C  10.56600 -0.41700 28.30100
C  10.42900 0.04600 29.61200
C  9.55500 1.11700 29.65400
C  11.31500 -1.58900 27.94200
C  10.88500 -0.16200 30.98900
O  11.68100 -0.92200 31.45500
C  10.03900 0.82600 31.85500
C  9.20300 0.04000 32.87200
O  8.35400 -0.78400 32.55300
O  9.54700 0.28100 34.24200
C  9.04600 -0.52500 35.35900
H  5.99400 6.19900 30.35000
H  5.77600 4.47300 24.26700
H  9.95800 -0.25500 25.59800
H  8.07900 2.83400 33.18200
H  7.52800 5.51300 32.38500
H  5.05900 4.02200 32.09100
H  5.54700 5.14300 33.37700
H  5.93600 3.32900 33.39200
H  9.63900 5.34100 32.76000
H  10.48100 4.14700 31.80900
H  11.60300 4.06100 33.76900
H  10.31400 2.92400 34.18000
H  5.00600 8.51600 28.00300
H  4.93700 7.64800 29.52400
H  3.56100 7.71300 28.45600
H  3.01500 7.89700 26.37900
H  3.22000 8.39900 24.73200
H  4.62400 8.70000 25.87800
H  7.87600 3.23800 22.96700
H  7.90900 0.38100 23.65000
H  5.23100 2.32700 23.39000
H  6.10600 1.10300 22.46600
H  6.15600 2.68500 21.87800
H  10.49700 1.81900 23.92700
H  9.64100 2.11600 22.44800
H  9.38900 -0.58200 22.27000
H  10.85300 -0.49100 23.21700
H  10.67800 0.27200 21.63200
H  11.11200 -1.77500 26.88700
H  10.90800 -2.30500 28.65600
H  12.36800 -1.42700 28.17300
H  10.85900 1.33400 32.36300
H  9.82600 -0.86900 36.03900
H  8.45700 -1.38100 35.02900
H  8.32900 0.01700 35.97500
Mg 23.60300 -5.23300 45.80900
C  25.75100 -2.85900 44.36400
C  21.20000 -4.21600 43.48800
C  21.79700 -8.18400 46.21800
C  26.33300 -6.60000 47.30700
N  23.50100 -3.63700 44.23100
C  24.46400 -2.84700 43.75900
C  24.08200 -1.94000 42.56900
C  22.58900 -2.32600 42.51000
C  22.37500 -3.41700 43.49400
C  21.65600 -1.07200 42.79800
C  24.75800 -2.35700 41.26200
C  24.95200 -1.23000 40.20900
H  25.47600 -1.60100 38.72400
N  21.66800 -5.99000 45.15700
C  20.82500 -5.38700 44.25500
C  19.60900 -6.08800 44.18100
C  19.77100 -7.25700 44.95300
C  21.11400 -7.19800 45.51100
C  18.50600 -5.53300 43.29400
C  18.67800 -8.31000 45.13800
O  17.59600 -8.28700 44.52600
C  18.84500 -9.57600 45.89200
N  23.96800 -7.11300 46.52800
C  23.15300 -8.16200 46.66100
C  23.78700 -9.24800 47.47200
C  25.24400 -8.85700 47.61500
C  25.19600 -7.38900 47.16400
C  23.06600 -9.69500 48.74400
C  26.17300 -9.67400 46.66800
C  26.79100 -10.91100 47.28300
N  25.60400 -4.70300 46.12100
C  26.56300 -5.30400 46.80700
C  27.80700 -4.63700 46.71900
C  27.55500 -3.55800 45.78000
C  26.15500 -3.70800 45.45700
C  29.06100 -5.07900 47.34300
C  28.14300 -2.48200 45.02800
O  29.20900 -1.92200 45.05300
C  26.96500 -2.02100 44.05500
C  26.83700 -0.54700 44.29600
O  26.15400 -0.01700 45.18900
O  27.78000 0.18900 43.50700
C  27.85300 1.65300 43.62300
H  20.47200 -3.91400 42.73100
H  21.29300 -9.09200 46.55300
H  27.15300 -7.15600 47.76600
H  24.15600 -0.87800 42.80600
H  22.32100 -2.69500 41.52100
H  20.73500 -1.39600 43.28300
H  21.38400 -0.63900 41.83500
H  22.05800 -0.27700 43.42700
H  24.26100 -3.20500 40.79100
H  25.78600 -2.65100 41.47100
H  25.70600 -0.58500 40.66200
H  24.00900 -0.68700 40.13600
H  18.82800 -5.02300 42.38600
H  17.74000 -4.95500 43.80900
H  17.86300 -6.30600 42.87400
H  17.96900 -10.22400 45.93800
H  19.01100 -9.32500 46.93900
H  19.60100 -10.17700 45.38600
H  23.68300 -10.17000 46.90000
H  25.50100 -8.93800 48.67100
H  23.61400 -9.38900 49.63600
H  22.93000 -10.77500 48.79800
H  22.12400 -9.14700 48.73100
H  26.92800 -9.02800 46.22000
H  25.56400 -9.96300 45.81200
H  27.85300 -11.04100 47.07700
H  26.26900 -11.79600 46.91800
H  26.65200 -11.05100 48.35500
H  29.12000 -4.96900 48.42600
H  29.85600 -4.55300 46.81500
H  29.20600 -6.13600 47.11900
H  27.30800 -2.09500 43.02300
H  27.07900 2.13500 43.02600
H  28.82400 1.99800 43.26800
H  27.65700 2.02200 44.62900

