158

Mg 16.40900 51.53200 25.70600
C  18.17900 50.49900 28.54800
C  13.75000 52.26900 27.83900
C  14.74900 52.41500 22.91100
C  18.97800 50.05800 23.78400
N  16.05400 51.43400 28.03900
C  16.97600 51.08900 28.97500
C  16.45900 51.41300 30.34700
C  14.92400 51.84200 30.11500
C  14.84700 51.79900 28.55700
C  13.88400 50.91700 30.89000
C  17.46500 52.49100 30.99400
C  17.82400 52.11300 32.45400
H  17.00900 51.04600 33.23800
N  14.55500 52.37700 25.42300
C  13.59400 52.54900 26.39300
C  12.39700 53.05400 25.72200
C  12.60500 53.02400 24.32400
C  13.97500 52.54700 24.13900
C  11.14300 53.57600 26.49800
C  11.73200 53.53700 23.22500
O  12.02400 53.49800 22.01200
C  10.30200 54.10800 23.46600
N  16.67600 51.14800 23.66900
C  16.00900 51.80300 22.71700
C  16.60000 51.71300 21.28100
C  17.95800 50.96600 21.63000
C  17.88800 50.71900 23.09800
C  15.65200 50.69000 20.45900
C  19.25400 51.75900 21.39400
C  20.33900 50.94700 20.69100
N  18.03800 50.40800 25.98800
C  19.05500 49.93400 25.12300
C  20.12400 49.36000 25.87700
C  19.77600 49.50900 27.19000
C  18.56900 50.23100 27.23900
C  21.40900 48.77100 25.32800
C  20.33600 49.34100 28.52200
O  21.44400 48.82300 28.87600
C  19.26900 49.94300 29.51700
C  18.76500 48.85600 30.36700
O  17.81100 48.13300 30.12400
O  19.68600 48.56200 31.38800
C  19.48800 47.26600 32.12400
H  12.90900 52.43100 28.51600
H  14.36800 52.66100 21.91800
H  19.72800 49.58700 23.14600
H  16.44700 50.51100 30.95900
H  14.75400 52.88200 30.39200
H  14.20600 50.73800 31.91600
H  13.78400 49.94100 30.41400
H  12.82400 51.16900 30.88800
H  16.85000 53.38900 31.05800
H  18.33000 52.75600 30.38600
H  17.68100 53.00300 33.06700
H  18.88100 51.86800 32.55900
H  11.15100 54.61700 26.17400
H  11.26900 53.71800 27.57200
H  10.21000 53.06900 26.25400
H  9.70200 53.46400 24.11000
H  9.82800 54.16500 22.48600
H  10.56700 55.04800 23.94900
H  16.62700 52.72700 20.88000
H  17.93000 49.98300 21.15900
H  14.89100 51.26800 19.93400
H  15.20800 49.98800 21.16500
H  16.27300 50.06200 19.82000
H  19.62700 52.25600 22.29000
H  19.07700 52.65600 20.79900
H  20.08400 50.02600 20.16600
H  21.07500 50.63800 21.43400
H  20.89900 51.59000 20.01200
H  22.32300 49.32100 25.55300
H  21.46300 48.61300 24.25100
H  21.50600 47.79500 25.80200
H  19.62700 50.76500 30.13700
H  19.12400 47.46600 33.13200
H  20.43000 46.74600 32.29900
H  18.86600 46.53900 31.60200
Mg -5.45000 25.32200 25.59500
C  -3.82500 26.69200 28.44500
C  -6.77900 22.88500 27.59700
C  -6.82900 23.95800 22.77300
C  -3.36200 27.44800 23.59200
N  -5.40900 24.91300 27.75600
C  -4.80800 25.70400 28.71900
C  -5.36700 25.28300 30.10500
C  -5.89300 23.83000 29.81900
C  -5.94700 23.79800 28.29200
C  -4.84000 22.79600 30.33600
C  -6.42400 26.21700 30.78100
C  -6.17500 26.39200 32.24200
H  -5.64500 25.19200 33.08700
N  -6.64600 23.71100 25.26300
C  -7.09000 22.83900 26.24100
C  -8.18200 22.08500 25.64900
C  -8.17200 22.32400 24.24700
C  -7.16600 23.36400 24.01400
C  -9.02000 21.08700 26.44500
C  -8.94100 21.74900 23.12500
O  -8.79600 22.03100 21.92900
C  -10.13000 20.75500 23.39100
N  -5.20100 25.68800 23.45400
C  -5.87400 25.00000 22.47900
C  -5.48500 25.47000 21.03600
C  -4.43500 26.60200 21.33800
C  -4.26400 26.55700 22.90700
C  -4.94600 24.28700 20.22600
C  -4.91600 27.99500 20.77200
C  -3.76300 28.97100 20.24100
N  -3.98000 26.82800 25.88000
C  -3.23600 27.58300 25.01000
C  -2.36200 28.48600 25.75900
C  -2.61000 28.11100 27.08500
C  -3.60000 27.15300 27.10300
C  -1.40300 29.39100 25.32000
C  -2.26600 28.50700 28.45500
O  -1.53800 29.41600 28.82900
C  -3.09900 27.62800 29.40100
C  -2.07800 26.96400 30.26800
O  -1.07000 26.37900 29.85100
O  -2.39300 27.15500 31.54900
C  -1.56800 26.37100 32.50300
H  -7.27900 22.20300 28.28800
H  -7.35300 23.64600 21.86800
H  -2.75300 28.12900 22.99300
H  -4.55100 25.32200 30.82800
H  -6.83400 23.71200 30.35700
H  -4.11800 23.34200 30.94400
H  -4.52600 22.07300 29.58300
H  -5.33900 22.15000 31.05800
H  -7.39600 25.75200 30.61600
H  -6.32300 27.24000 30.41900
H  -7.17100 26.57200 32.64900
H  -5.62000 27.31900 32.38200
H  -8.93700 21.15000 27.53000
H  -8.74800 20.11200 26.04000
H  -10.07200 21.25600 26.21700
H  -10.59900 20.26400 22.53900
H  -10.80800 21.41700 23.93000
H  -9.79000 20.02900 24.13000
H  -6.38200 25.74800 20.48300
H  -3.43400 26.30200 21.02700
H  -5.84400 23.88300 19.75800
H  -4.47200 23.55900 20.88400
H  -4.18000 24.52000 19.48700
H  -5.36300 28.49700 21.63000
H  -5.65600 27.79500 19.99700
H  -3.64200 29.59600 21.12600
H  -3.95700 29.43300 19.27400
H  -2.87200 28.35000 20.14100
H  -0.74400 28.94500 24.57600
H  -0.80800 29.75700 26.15700
H  -2.00300 30.22500 24.95500
H  -3.84000 28.22200 29.93700
H  -2.18000 25.91600 33.28200
H  -0.70900 26.89700 32.92000
H  -1.11900 25.47300 32.07900

