158

Mg 9.18700 4.64400 27.58000
C  10.59000 3.11200 30.22300
C  7.40900 6.63700 29.79800
C  7.48200 5.95600 24.94700
C  10.90400 2.52500 25.33400
N  9.05300 4.91900 29.84200
C  9.73600 4.16500 30.70500
C  9.38800 4.51100 32.18700
C  8.34100 5.68000 32.03200
C  8.29700 5.78900 30.47900
C  6.93800 5.42300 32.67400
C  10.74000 4.92800 32.95000
C  10.50600 5.58700 34.24500
H  11.19700 5.11200 35.53900
N  7.73200 6.12200 27.40100
C  7.10800 6.81800 28.36400
C  6.23900 7.89800 27.80400
C  6.24600 7.61100 26.42100
C  7.17100 6.53800 26.20400
C  5.43900 8.90400 28.62300
C  5.52600 8.34100 25.32100
O  5.66000 8.01800 24.14700
C  4.58100 9.38500 25.55200
N  9.20600 4.35400 25.47800
C  8.33000 4.89500 24.62700
C  8.59900 4.39400 23.19100
C  9.85300 3.46500 23.23300
C  10.03500 3.45100 24.81100
C  7.36700 3.84200 22.45400
C  11.05400 4.03700 22.39100
C  11.75100 3.04900 21.55600
N  10.53200 3.08100 27.64100
C  11.08100 2.31200 26.74500
C  11.94800 1.36300 27.39800
C  11.76900 1.56600 28.77300
C  10.89700 2.67100 28.84200
C  12.74700 0.36300 26.70200
C  12.13300 1.14400 30.16400
O  12.83400 0.26000 30.59400
C  11.37000 2.12900 31.10600
C  10.51300 1.35100 32.06800
O  9.37000 0.89200 31.82600
O  11.15500 1.26200 33.29600
C  10.29600 1.06100 34.44200
H  6.84700 7.31400 30.44400
H  7.14700 6.42300 24.01800
H  11.56000 1.86700 24.75900
H  8.79900 3.67100 32.55500
H  8.91800 6.52500 32.41000
H  6.76900 4.49600 33.22200
H  6.15100 5.47200 31.92100
H  6.69300 6.29100 33.28600
H  11.43000 5.53300 32.36200
H  11.23300 3.99500 33.22100
H  9.43100 5.51500 34.40800
H  10.76700 6.64000 34.13900
H  4.38900 8.64900 28.76700
H  5.57200 9.83600 28.07400
H  5.91100 9.04200 29.59500
H  3.64700 9.19600 26.08100
H  4.35200 9.71400 24.53800
H  5.11700 10.20300 26.03400
H  8.87400 5.26900 22.60300
H  9.68900 2.42800 22.93900
H  7.16900 4.40200 21.54000
H  6.54500 3.87600 23.16900
H  7.58700 2.81600 22.16100
H  11.66600 4.32600 23.24600
H  10.92400 5.03300 21.96800
H  12.55700 2.56900 22.11200
H  12.15900 3.62700 20.72700
H  11.11200 2.24400 21.19300
H  13.40800 0.71300 25.90900
H  12.07000 -0.18900 26.05000
H  13.27700 -0.32200 27.36300
H  12.07400 2.76300 31.64600
H  9.25100 1.21500 34.17100
H  10.61200 1.76400 35.21300
H  10.35300 0.03600 34.80800
Mg 35.50900 48.36200 25.36200
C  35.84000 46.32600 28.18200
C  34.44700 51.05000 27.47700
C  34.53900 49.97900 22.78500
C  36.02000 45.44400 23.51100
N  35.25700 48.64300 27.59100
C  35.37300 47.66700 28.48700
C  35.02100 48.14000 29.93200
C  34.52400 49.60000 29.68200
C  34.80200 49.78100 28.16300
C  33.01800 49.81600 29.92700
C  36.16400 48.12400 30.98200
C  35.78400 47.78300 32.39300
H  35.52100 48.84700 33.44700
N  34.61500 50.31100 25.17800
C  34.28900 51.29100 26.07000
C  33.92500 52.51600 25.41600
C  33.94100 52.26400 24.03900
C  34.39900 50.85200 23.89100
C  33.47400 53.76500 26.15200
C  33.69800 53.21500 22.77700
O  33.94500 52.85500 21.61600
C  33.21200 54.60200 22.97700
N  35.26600 47.73700 23.43500
C  34.98100 48.63100 22.54500
C  34.80600 47.95000 21.10600
C  35.49200 46.62700 21.33400
C  35.63500 46.59000 22.85900
C  33.28900 47.91200 20.76700
C  36.86100 46.48500 20.51800
C  38.16700 47.21300 21.01600
N  36.09000 46.33100 25.70600
C  36.28100 45.25300 24.86100
C  36.63000 44.11100 25.55700
C  36.42300 44.44900 26.85600
C  36.13300 45.85000 26.88700
C  36.82800 42.73500 24.89000
C  36.48800 43.95500 28.26600
O  36.77600 42.86700 28.73700
C  36.13300 45.16100 29.13000
C  34.96700 44.80000 29.95200
O  33.84000 44.70800 29.57400
O  35.36900 44.57900 31.26400
C  34.27400 44.27900 32.13400
H  34.20900 51.85600 28.17400
H  34.34600 50.49500 21.84200
H  36.10200 44.59800 22.82700
H  34.29300 47.38200 30.22100
H  35.11400 50.34400 30.21700
H  32.77100 50.70600 30.50500
H  32.65700 48.89200 30.37900
H  32.55800 49.95300 28.94900
H  36.55500 49.14200 30.97800
H  36.99500 47.48500 30.68400
H  36.56800 47.15200 32.81100
H  34.82400 47.26700 32.41500
H  34.08900 54.61900 25.86900
H  33.59900 53.55400 27.21400
H  32.41300 54.00600 26.21500
H  33.04900 54.96400 21.96200
H  33.98500 55.15200 23.51400
H  32.27600 54.47300 23.52100
H  35.33700 48.57800 20.39000
H  34.92000 45.75700 21.01100
H  32.96900 46.96100 20.34100
H  33.02500 48.67600 20.03600
H  32.71800 48.07000 21.68100
H  36.56400 46.77100 19.50900
H  37.12000 45.42600 20.54000
H  38.86000 46.40900 21.26500
H  37.89900 47.89100 21.82600
H  38.57200 47.82300 20.20800
H  35.97800 42.08100 25.08300
H  37.65400 42.19900 25.35700
H  36.92100 42.89700 23.81600
H  37.00200 45.29500 29.77500
H  33.78900 43.31600 31.97600
H  33.58700 45.12500 32.09400
H  34.83100 44.37400 33.06600

