158

Mg 44.50800 5.34100 47.37300
C  42.77200 8.20100 47.05800
C  41.76400 3.43300 46.86900
C  46.55200 2.72900 47.11100
C  47.51100 7.46300 47.85700
N  42.58300 5.72800 46.94900
C  42.02400 6.99900 46.90000
C  40.55800 6.81400 46.41300
C  40.18900 5.39000 46.85700
C  41.60400 4.80500 46.90700
C  39.47300 5.34900 48.28400
C  40.38200 7.13100 44.82900
C  39.39400 8.19700 44.42600
H  39.23500 8.69000 42.95700
N  44.23100 3.35100 46.96900
C  42.99300 2.77700 46.80200
C  43.17500 1.38000 46.45700
C  44.61800 1.11400 46.53300
C  45.21400 2.40400 46.94500
C  42.06500 0.48900 46.06700
C  45.31800 -0.20700 46.33400
O  44.64400 -1.28300 46.24400
C  46.77600 -0.35600 46.42900
N  46.70800 5.12800 47.39800
C  47.23900 3.88900 47.39700
C  48.78100 3.98300 47.54600
C  49.02000 5.47000 47.97200
C  47.67000 6.04600 47.75500
C  49.36400 2.93600 48.50000
C  50.09800 6.17600 47.08900
C  51.27900 6.66800 47.93400
N  45.08300 7.46000 47.44000
C  46.22700 8.11300 47.74900
C  45.99400 9.60800 47.65200
C  44.59000 9.67600 47.36900
C  44.10900 8.34000 47.31100
C  47.05800 10.74000 47.70800
C  43.50400 10.57300 47.04700
O  43.50500 11.81100 46.97700
C  42.16600 9.63700 46.91500
C  41.32800 9.94700 48.00000
O  41.52800 9.60800 49.13500
O  40.07900 10.31600 47.50400
C  38.95200 10.27400 48.39600
H  40.82300 2.89200 46.75000
H  47.37900 2.01700 47.07100
H  48.44500 7.98900 48.06500
H  39.95600 7.56700 46.92200
H  39.55400 4.90100 46.11900
H  40.17000 5.19100 49.10700
H  38.70700 4.57600 48.33800
H  38.92900 6.26000 48.53400
H  39.92500 6.29700 44.29500
H  41.28800 7.33500 44.25900
H  39.55900 9.10800 45.00200
H  38.38600 7.88200 44.69700
H  41.24100 0.95200 45.52300
H  41.64900 -0.00600 46.94500
H  42.37500 -0.34900 45.44300
H  47.20100 0.30200 45.67100
H  47.14400 -1.38000 46.35900
H  47.09200 -0.12400 47.44600
H  49.31600 3.76700 46.62100
H  49.17400 5.57700 49.04600
H  50.25200 2.65000 47.93600
H  48.65100 2.14100 48.71600
H  49.79900 3.43200 49.36800
H  49.79900 7.08000 46.55800
H  50.50900 5.40600 46.43700
H  51.28500 6.13300 48.88400
H  51.14300 7.70800 48.23100
H  52.24600 6.54600 47.44600
H  47.11300 11.34100 48.61500
H  46.84600 11.42700 46.88800
H  48.00000 10.25300 47.45600
H  41.55100 9.81300 46.03300
H  39.28800 10.74600 49.32000
H  38.77100 9.20600 48.51400
H  38.11500 10.79200 47.92900
Mg 36.00300 1.97200 31.12700
C  33.61600 3.14900 33.44500
C  38.25300 1.89200 33.61600
C  38.17700 1.24900 28.78500
C  33.57000 2.68000 28.66300
N  35.94400 2.62300 33.28300
C  34.86800 2.87500 34.05600
C  35.13800 2.89900 35.56400
C  36.70400 2.67900 35.50900
C  37.01900 2.34600 34.04000
C  37.50300 3.72500 36.35400
C  34.21700 1.88200 36.40800
C  33.84000 2.28600 37.88100
H  34.68500 3.38300 38.52900
N  37.97800 1.56800 31.13300
C  38.77700 1.54300 32.28300
C  40.14000 1.07200 31.83800
C  40.07100 0.83600 30.42700
C  38.67600 1.23500 30.06800
C  41.31300 1.00500 32.82900
C  41.15300 0.25300 29.55800
O  40.88100 0.01700 28.40200
C  42.63200 -0.03700 30.12200
N  35.88500 1.88000 29.00400
C  36.94500 1.51300 28.22100
C  36.55300 1.26200 26.73600
C  35.00300 1.68300 26.75600
C  34.73100 2.08300 28.24000
C  37.48300 2.04100 25.79000
C  33.93300 0.74100 26.08600
C  33.39000 -0.31200 27.03700
N  33.98100 2.79000 31.06300
C  33.17500 2.97400 29.96300
C  31.89500 3.57200 30.37900
C  31.96800 3.61100 31.80100
C  33.27800 3.16500 32.08700
C  30.70700 3.73600 29.58700
C  31.31900 3.86600 33.06000
O  30.20700 4.28400 33.19000
C  32.38900 3.65000 34.19600
C  32.51500 4.95200 34.94300
O  33.21700 5.90500 34.60600
O  31.78400 5.01200 36.07000
C  31.59300 6.31400 36.74600
H  38.92800 1.73300 34.45900
H  38.83000 0.88800 27.98800
H  32.81200 2.89200 27.90600
H  34.92600 3.91100 35.90800
H  36.84600 1.70400 35.97700
H  38.09600 3.07200 36.99500
H  36.80800 4.27500 36.98900
H  38.10400 4.37600 35.72000
H  34.74300 0.93000 36.33700
H  33.24200 1.70700 35.95500
H  34.05900 1.41200 38.49500
H  32.79000 2.57100 37.81900
H  42.25100 1.44700 32.49400
H  41.47300 -0.03200 33.12200
H  41.03700 1.51700 33.75100
H  43.21400 -0.43200 29.29000
H  42.62600 -0.73800 30.95700
H  43.04700 0.94100 30.36800
H  36.74600 0.21900 26.48500
H  34.92400 2.60200 26.17600
H  36.85000 2.37900 24.97000
H  38.22000 1.28100 25.53000
H  37.89300 2.90400 26.31400
H  34.45500 0.24900 25.26500
H  33.14000 1.40700 25.74800
H  33.89700 -0.30500 28.00300
H  33.43100 -1.28200 26.54000
H  32.35800 0.02900 27.12000
H  30.40200 2.78400 29.15300
H  30.76400 4.57800 28.89700
H  29.88000 4.01500 30.24000
H  31.96200 2.97200 34.93600
H  31.62000 7.22700 36.15100
H  32.33400 6.51900 37.51900
H  30.62600 6.34700 37.24700

