158

Mg 48.61800 35.17200 27.44500
C  46.65600 33.87200 30.06900
C  49.30100 37.92100 29.34600
C  50.37800 36.28500 24.84700
C  47.55200 32.34600 25.49600
N  48.14900 35.70700 29.48900
C  47.40100 35.01100 30.42400
C  47.74500 35.58800 31.80600
C  47.94400 37.09400 31.46800
C  48.49500 36.95000 29.99100
C  46.80400 38.19100 31.64900
C  48.94500 34.78600 32.54900
C  48.98500 34.64900 34.09700
H  48.11800 35.56700 34.87300
N  49.56200 36.92100 27.10000
C  49.77600 37.88800 28.03000
C  50.64300 38.88600 27.40600
C  51.08600 38.39000 26.12300
C  50.36600 37.13300 25.97900
C  50.98100 40.25800 28.02600
C  52.16500 38.92300 25.22000
O  52.43900 38.40300 24.17700
C  52.97800 40.15500 25.63800
N  48.80100 34.45100 25.47600
C  49.63400 35.10700 24.62400
C  49.84200 34.37300 23.32500
C  48.92000 33.01900 23.51200
C  48.38400 33.29200 24.93700
C  49.34000 35.33100 22.24100
C  49.84200 31.65600 23.31900
C  49.50800 30.80600 22.06400
N  47.38300 33.50400 27.64700
C  47.05700 32.41900 26.84000
C  46.21100 31.52700 27.48900
C  46.04800 32.11100 28.75000
C  46.77700 33.27200 28.78100
C  45.60800 30.24600 26.98700
C  45.33000 31.89300 29.99500
O  44.49100 31.07500 30.27200
C  45.79400 33.01200 30.96700
C  46.56100 32.33200 32.06200
O  47.57000 31.66100 31.99900
O  45.72300 32.40600 33.16000
C  46.07400 31.48300 34.19500
H  49.57600 38.80700 29.92300
H  50.98000 36.60600 23.99400
H  47.23900 31.41500 25.01800
H  46.88100 35.53700 32.47000
H  48.75400 37.47600 32.08900
H  46.30000 38.42600 30.71100
H  47.07800 39.10200 32.18100
H  45.98500 37.75900 32.22400
H  49.89600 35.22200 32.24500
H  48.89000 33.77900 32.13500
H  49.99600 34.65100 34.50500
H  48.65800 33.63900 34.34300
H  50.18000 40.51900 28.71800
H  50.87900 40.92700 27.17100
H  51.89500 40.43500 28.59300
H  53.83100 40.21900 24.96200
H  53.20100 40.06500 26.70100
H  52.27800 40.96800 25.44800
H  50.90300 34.12900 23.29600
H  48.07100 33.17300 22.84600
H  48.64600 36.08600 22.61100
H  48.87000 34.84900 21.38400
H  50.15200 35.92300 21.82000
H  49.87700 30.93400 24.13400
H  50.84900 31.99900 23.08400
H  49.26400 29.82500 22.47200
H  50.37900 30.70100 21.41800
H  48.65100 31.22800 21.53900
H  45.39900 30.23700 25.91800
H  44.72000 30.02100 27.57700
H  46.37100 29.51100 27.24600
H  45.09900 33.71100 31.43100
H  45.51400 31.61800 35.12000
H  47.08500 31.55800 34.59500
H  46.01200 30.44200 33.87700
Mg -10.33000 16.82500 40.98700
C  -6.77900 16.64100 41.09300
C  -9.95300 20.36100 40.58800
C  -13.50800 17.11000 40.11200
C  -10.33200 13.23300 40.79900
N  -8.61300 18.27500 40.98000
C  -7.29300 17.91700 40.88700
C  -6.41300 19.15200 40.55900
C  -7.39300 20.32300 40.96300
C  -8.74700 19.59200 40.77800
C  -7.10100 20.94700 42.33900
C  -6.02100 19.11100 39.02400
C  -4.63900 18.69300 38.57200
H  -4.40700 17.47000 37.74700
N  -11.61800 18.56200 40.43900
C  -11.25500 19.89200 40.40700
C  -12.42100 20.65100 40.07400
C  -13.53100 19.78600 39.95300
C  -12.92600 18.42700 40.17300
C  -12.36400 22.12300 39.93500
C  -14.98100 20.13000 39.59200
O  -15.36100 21.31400 39.57900
C  -15.97200 19.06500 39.21400
N  -11.75700 15.38200 40.48700
C  -13.02600 15.77600 40.28700
C  -13.99300 14.53700 40.27700
C  -12.91900 13.32200 40.26200
C  -11.58400 13.94600 40.53000
C  -15.03500 14.53000 41.36500
C  -12.79900 12.70500 38.80800
C  -13.90200 11.74000 38.41900
N  -8.93300 15.26300 41.16200
C  -9.06000 13.90100 41.12000
C  -7.74700 13.25100 41.24300
C  -6.87200 14.30300 41.21600
C  -7.58800 15.50800 41.17200
C  -7.43400 11.77400 41.28300
C  -5.46900 14.61400 41.11600
O  -4.51400 13.88400 40.98300
C  -5.34000 16.15400 41.17500
C  -4.82000 16.54100 42.53000
O  -5.33900 16.33200 43.62400
O  -3.54400 17.06600 42.29600
C  -2.62500 17.29100 43.41600
H  -9.87800 21.42600 40.35800
H  -14.57000 17.19000 39.87100
H  -10.43600 12.15300 40.92900
H  -5.46300 19.13500 41.09400
H  -7.29600 21.14000 40.24800
H  -7.73200 20.39800 43.03700
H  -7.36400 21.99600 42.47200
H  -6.03600 20.80900 42.52700
H  -6.18000 20.11300 38.62500
H  -6.69000 18.41200 38.52200
H  -3.95700 18.65400 39.42100
H  -4.24400 19.49500 37.94900
H  -13.31900 22.64700 39.93700
H  -11.96300 22.40300 38.96100
H  -11.76000 22.60300 40.70500
H  -15.41000 18.35600 38.60700
H  -16.93300 19.39100 38.81700
H  -16.22900 18.66300 40.19400
H  -14.46500 14.63100 39.29900
H  -13.28700 12.54800 40.93500
H  -15.06100 15.42400 41.98700
H  -14.89200 13.72900 42.09000
H  -16.07400 14.31100 41.11800
H  -11.86600 12.19000 38.57600
H  -12.95700 13.45300 38.03100
H  -13.41700 10.92500 37.88200
H  -14.65200 12.17700 37.75900
H  -14.35700 11.33500 39.32200
H  -6.65600 11.64200 42.03500
H  -6.97200 11.58400 40.31400
H  -8.45500 11.41800 41.41700
H  -4.72000 16.59200 40.39300
H  -1.97100 16.45300 43.65700
H  -3.10700 17.75300 44.27800
H  -2.07100 18.17900 43.11300

