158

Mg 2.76000 -1.09800 44.19200
C  6.07600 -0.63700 43.45600
C  1.98100 1.39800 41.88400
C  -0.52500 -2.01400 44.54000
C  3.64600 -4.23100 45.71000
N  3.89300 0.10200 42.75200
C  5.24000 0.26600 42.79600
C  5.70600 1.54800 42.05600
C  4.38300 2.07200 41.41100
C  3.32200 1.15100 42.09000
C  4.16600 3.52800 41.75800
C  6.77900 1.30600 40.84500
C  7.67200 2.56600 40.52200
H  7.37800 3.39200 39.23900
N  0.99500 -0.17500 43.49000
C  0.88800 0.69600 42.53000
C  -0.59300 0.89500 42.26400
C  -1.28600 0.11200 43.10000
C  -0.31400 -0.75600 43.76500
C  -1.05900 1.87200 41.19800
C  -2.80600 -0.05100 43.19600
O  -3.60400 0.58800 42.50600
C  -3.50200 -1.06400 43.96600
N  1.70800 -2.84000 45.03700
C  0.34400 -2.93200 45.11000
C  -0.14200 -4.24300 45.66300
C  1.20300 -5.11800 45.84400
C  2.30000 -4.04200 45.49200
C  -0.95100 -4.01800 46.93100
C  1.35600 -6.37500 44.90700
C  2.33400 -7.50600 45.27800
N  4.44400 -2.20700 44.58900
C  4.65800 -3.37200 45.22800
C  6.08500 -3.60800 45.40300
C  6.69600 -2.53800 44.81000
C  5.64900 -1.74500 44.22900
C  6.81700 -4.75800 46.08500
C  7.94600 -1.83100 44.54800
O  9.06100 -2.13100 44.87700
C  7.59200 -0.58900 43.67000
C  7.97100 0.57600 44.41000
O  7.56100 0.69800 45.54300
O  8.68700 1.47500 43.67800
C  9.08700 2.75100 44.40900
H  1.71800 2.16700 41.15500
H  -1.55500 -2.37400 44.51100
H  3.82400 -5.19000 46.20000
H  6.19300 2.31400 42.66000
H  4.45600 1.95000 40.33000
H  4.99000 4.12200 41.36200
H  4.10400 3.63300 42.84100
H  3.23100 3.82600 41.28300
H  6.26100 0.92500 39.96500
H  7.48100 0.52500 41.13600
H  8.66200 2.11200 40.48200
H  7.75300 3.25300 41.36500
H  -0.50600 1.58500 40.30400
H  -0.88000 2.88100 41.57000
H  -2.11100 1.85000 40.91400
H  -4.52000 -0.76300 44.21300
H  -3.16400 -1.10600 45.00100
H  -3.43000 -2.07700 43.57100
H  -0.74000 -4.67700 44.86100
H  1.34500 -5.44200 46.87600
H  -2.01800 -4.15300 46.75800
H  -0.82900 -2.95700 47.14900
H  -0.70900 -4.73900 47.71200
H  1.79400 -5.98800 43.98700
H  0.34100 -6.71300 44.69900
H  1.77000 -8.42300 45.11100
H  2.42800 -7.53100 46.36400
H  3.33800 -7.46800 44.85500
H  6.21500 -5.29600 46.81800
H  7.50200 -4.16300 46.68900
H  7.31200 -5.47600 45.43200
H  7.99100 -0.67700 42.65900
H  9.03000 3.57700 43.70000
H  10.13500 2.68200 44.70000
H  8.32200 2.99800 45.14500
Mg 0.14300 43.11400 26.58600
C  2.56400 42.85000 29.20900
C  -2.12500 41.79700 28.74600
C  -1.91600 43.01000 23.98200
C  2.93200 43.66800 24.37800
N  0.20800 42.40800 28.78800
C  1.24400 42.44700 29.64800
C  0.68000 42.49400 31.03400
C  -0.78800 41.77700 30.92600
C  -0.90000 41.95100 29.39000
C  -0.79900 40.26400 31.23400
C  0.70100 43.95300 31.63200
C  1.20600 44.03100 33.11100
H  0.88700 42.81500 34.04300
N  -1.75400 42.62400 26.44700
C  -2.57400 42.05600 27.42000
C  -3.84900 41.83100 26.88900
C  -3.86800 42.32200 25.54900
C  -2.41000 42.67600 25.27200
C  -4.93600 41.32600 27.80100
C  -5.10900 42.37600 24.55900
O  -4.96400 42.89400 23.47100
C  -6.49300 41.84600 24.95200
N  0.52400 43.04500 24.40700
C  -0.57000 43.23500 23.64800
C  -0.14900 43.86400 22.33200
C  1.30100 44.25800 22.49800
C  1.60300 43.63700 23.86200
C  -0.47000 42.90100 21.13400
C  1.55600 45.78600 22.41800
C  1.80800 46.39400 21.03800
N  2.25900 43.13100 26.68800
C  3.22400 43.33800 25.73700
C  4.58200 43.30000 26.37500
C  4.32600 43.12000 27.72500
C  2.94600 43.08100 27.84100
C  5.93200 43.30300 25.69300
C  4.98000 43.03700 29.05200
O  6.17800 43.10500 29.25400
C  3.84300 42.97800 30.05800
C  4.00400 41.83300 31.03400
O  3.97700 40.61200 30.72100
O  4.34800 42.26800 32.27100
C  4.36900 41.27700 33.32400
H  -2.92300 41.46800 29.41400
H  -2.68300 43.20000 23.22900
H  3.71900 43.91800 23.66300
H  1.38600 41.94000 31.65300
H  -1.54600 42.32000 31.49100
H  -1.06400 39.64100 30.38000
H  -1.49600 39.84800 31.96100
H  0.17800 39.95700 31.60700
H  -0.34600 44.24400 31.72700
H  1.28700 44.68400 31.07600
H  0.64200 44.81500 33.61600
H  2.26600 44.28100 33.08600
H  -5.29800 40.45900 27.24900
H  -5.77500 42.02000 27.85700
H  -4.69300 41.00500 28.81400
H  -7.22100 42.05200 24.16800
H  -6.73600 42.43200 25.83800
H  -6.36300 40.77800 25.12700
H  -0.76000 44.75000 22.16000
H  1.88600 43.74000 21.73800
H  0.39200 42.59900 20.54000
H  -1.25100 43.38800 20.55000
H  -0.90400 41.96000 21.47400
H  2.40700 46.07300 23.03700
H  0.77300 46.31000 22.96700
H  0.90000 46.83800 20.62800
H  2.25500 45.71700 20.31100
H  2.56100 47.13000 21.32100
H  6.12700 44.29200 25.27900
H  5.90300 42.47400 24.98600
H  6.70900 43.05500 26.41600
H  3.89100 43.76600 30.80900
H  5.31500 40.73700 33.34500
H  3.46000 40.67600 33.29800
H  4.26200 41.81900 34.26400

