158

Mg -2.11500 17.33400 27.40800
C  -2.41900 14.94600 30.05000
C  -2.53600 19.84900 29.49400
C  -2.14500 19.41500 24.69100
C  -1.70300 14.52800 25.19800
N  -2.44700 17.32600 29.52900
C  -2.39500 16.30600 30.51500
C  -2.69800 16.94500 31.88500
C  -2.82900 18.47200 31.61600
C  -2.47800 18.60500 30.10400
C  -4.08300 19.26600 32.20100
C  -1.62500 16.47000 32.99100
C  -1.37600 17.35300 34.26300
H  -1.37800 16.62200 35.61100
N  -2.25700 19.40600 27.13700
C  -2.45500 20.29500 28.11800
C  -2.58800 21.60700 27.58200
C  -2.42300 21.51500 26.18600
C  -2.33500 20.05500 25.91600
C  -2.83500 22.80800 28.46600
C  -2.42700 22.53100 25.11300
O  -2.43000 22.21800 23.88500
C  -2.49900 24.05500 25.43700
N  -1.98200 16.98400 25.29000
C  -1.99300 17.99800 24.37300
C  -1.64100 17.52300 22.92800
C  -1.32300 15.97500 23.20500
C  -1.63400 15.78600 24.70000
C  -2.83300 17.77000 21.97200
C  0.07300 15.59400 22.79500
C  1.21200 16.10300 23.70900
N  -2.10200 15.25200 27.54000
C  -1.93700 14.26400 26.58300
C  -2.07600 12.94600 27.12300
C  -2.28200 13.25300 28.47300
C  -2.23200 14.62000 28.67400
C  -2.04500 11.69000 26.38700
C  -2.47500 12.54100 29.70800
O  -2.35100 11.35700 29.88900
C  -2.60200 13.65900 30.82200
C  -1.48500 13.35200 31.72500
O  -0.32100 13.73000 31.60500
O  -2.02200 12.67900 32.77800
C  -1.07600 12.46500 33.82600
H  -2.66000 20.72300 30.13700
H  -2.09600 20.00800 23.77500
H  -1.61500 13.69500 24.49700
H  -3.63900 16.45500 32.13700
H  -1.94300 18.97900 32.00000
H  -3.78200 20.06500 32.87900
H  -4.72200 18.50400 32.64600
H  -4.60500 19.58200 31.29900
H  -0.68300 16.44500 32.44300
H  -1.95600 15.47300 33.28400
H  -2.26400 17.98500 34.25100
H  -0.47500 17.93400 34.06900
H  -2.00800 23.49300 28.27900
H  -2.98700 22.50800 29.50300
H  -3.77700 23.17800 28.06200
H  -3.49000 24.34400 25.78800
H  -2.20900 24.66800 24.58300
H  -1.76100 24.18700 26.22800
H  -0.72700 18.03700 22.63100
H  -1.88700 15.29600 22.56600
H  -3.63100 18.28500 22.50800
H  -3.26600 16.89100 21.49500
H  -2.40400 18.40300 21.19500
H  0.20300 15.88900 21.75300
H  0.10700 14.51300 22.92800
H  1.21600 15.40800 24.54800
H  0.87900 17.01500 24.20400
H  2.17000 16.23200 23.20500
H  -1.91300 10.80900 27.01600
H  -1.30100 11.73000 25.59200
H  -3.00800 11.47100 25.92500
H  -3.58100 13.77900 31.28500
H  -0.28800 11.76200 33.55300
H  -1.70800 11.91000 34.51900
H  -0.79600 13.41600 34.27900
Mg 36.03100 2.46900 30.13200
C  33.54400 3.46900 32.34500
C  38.40200 2.75400 32.65200
C  38.29100 1.97400 27.75200
C  33.45900 2.62200 27.47500
N  36.03300 3.14700 32.27000
C  34.83400 3.38000 32.98900
C  35.09700 3.56300 34.43700
C  36.71400 3.53900 34.46700
C  37.10600 3.12300 33.05200
C  37.27400 4.91000 34.78500
C  34.41300 2.45500 35.28300
C  33.75300 2.83100 36.60600
H  34.54300 3.87000 37.53700
N  38.08600 2.49900 30.22900
C  38.89100 2.51100 31.35200
C  40.23400 1.97900 30.94300
C  40.20300 1.95200 29.49400
C  38.84700 2.18600 29.06700
C  41.29300 1.49500 31.85900
C  41.31200 1.77100 28.57000
O  41.13200 1.87200 27.39300
C  42.64200 1.35300 29.15500
N  35.86900 2.38900 27.87600
C  36.99600 1.97000 27.22300
C  36.72300 1.88900 25.71900
C  35.13200 1.84700 25.62900
C  34.78200 2.36900 27.09500
C  37.24100 3.02600 24.85300
C  34.56700 0.46300 25.41900
C  33.32900 0.33900 24.47100
N  33.93000 2.86400 29.92900
C  33.02600 2.92400 28.83400
C  31.69200 3.35500 29.28600
C  31.87300 3.62100 30.64700
C  33.24000 3.26100 30.96800
C  30.57300 3.68700 28.44000
C  31.23100 4.09700 31.88900
O  30.12100 4.58800 32.08300
C  32.24900 4.01900 32.97300
C  32.41600 5.41300 33.54700
O  32.99800 6.34100 32.97700
O  31.72200 5.55700 34.73100
C  31.57700 6.99200 35.03400
H  39.19400 2.75100 33.40400
H  38.85200 1.60700 26.89000
H  32.65900 2.69800 26.73600
H  34.69300 4.54700 34.67600
H  37.11300 2.77100 35.12900
H  36.52900 5.69400 34.92500
H  37.98400 5.33100 34.07400
H  37.93900 4.84800 35.64700
H  35.11300 1.62900 35.41000
H  33.60400 2.01100 34.70300
H  33.63500 1.87200 37.11100
H  32.76600 3.19300 36.31500
H  40.97000 1.43500 32.89900
H  42.15200 2.16500 31.83000
H  41.76900 0.56100 31.56100
H  42.99200 2.14500 29.81800
H  43.35200 1.20400 28.34200
H  42.71700 0.35800 29.59500
H  37.17200 0.96100 25.36500
H  34.69900 2.56300 24.93100
H  36.45600 3.65600 24.43600
H  37.92400 2.68700 24.07400
H  37.81800 3.60900 25.57100
H  34.27700 0.02000 26.37200
H  35.37400 -0.12700 24.98400
H  33.19000 1.25200 23.89100
H  32.42600 0.01800 24.99000
H  33.38900 -0.50300 23.78200
H  29.68900 3.72100 29.07800
H  30.61600 2.83100 27.76700
H  30.67400 4.66800 27.97600
H  31.90200 3.45500 33.83900
H  30.94300 7.24900 35.88300
H  31.13500 7.42300 34.13600
H  32.57500 7.37000 35.25400

