158

Mg 9.23800 4.28000 27.70000
C  10.51600 2.68000 30.56700
C  7.46600 6.34000 29.81800
C  7.54100 5.38100 25.09400
C  11.03300 2.08400 25.70200
N  9.22700 4.63100 29.98200
C  9.73400 3.76200 30.88200
C  9.31300 4.19100 32.31000
C  8.28300 5.35200 32.04900
C  8.30500 5.47500 30.53800
C  6.86500 5.23600 32.61800
C  10.57500 4.34400 33.24300
C  10.59500 5.53600 34.17100
H  11.54100 5.51000 35.32400
N  7.77200 5.74300 27.47600
C  7.17500 6.49300 28.43300
C  6.27500 7.47000 27.81500
C  6.28800 7.24700 26.39900
C  7.21100 6.04100 26.28900
C  5.51200 8.54200 28.67600
C  5.65200 8.12900 25.26200
O  5.82000 7.87800 24.08100
C  4.77500 9.24200 25.67600
N  9.18600 3.75300 25.69500
C  8.34800 4.35500 24.83600
C  8.63700 3.83000 23.44200
C  9.93500 2.98000 23.61500
C  10.13200 2.96900 25.11900
C  7.44100 3.09800 22.81000
C  11.21600 3.39000 22.85100
C  11.88400 2.20300 22.07600
N  10.45800 2.64600 27.98900
C  11.20000 1.84900 27.09900
C  11.93800 0.89600 27.77600
C  11.68600 1.14900 29.12800
C  10.81200 2.25300 29.21900
C  12.62800 -0.33300 27.16800
C  11.91700 0.62300 30.46500
O  12.53800 -0.31900 30.88600
C  11.23100 1.63400 31.46800
C  10.41500 0.89900 32.52700
O  9.25300 0.55000 32.33300
O  11.13700 0.93500 33.73100
C  10.47600 0.47800 34.95100
H  6.95700 7.03700 30.48700
H  7.18000 5.88300 24.19400
H  11.58600 1.36400 25.09600
H  8.88700 3.28600 32.74300
H  8.70800 6.27700 32.43800
H  6.54800 6.13800 33.14100
H  6.79400 4.36200 33.26700
H  6.07500 5.22800 31.86700
H  11.49000 4.44500 32.66000
H  10.61000 3.54300 33.98100
H  9.61300 5.52400 34.64300
H  10.77200 6.48900 33.67300
H  5.49400 9.51600 28.18800
H  5.92500 8.67300 29.67700
H  4.49400 8.20600 28.87300
H  4.18000 9.60300 24.83700
H  5.33300 10.09100 26.07000
H  4.15900 8.90600 26.51000
H  8.90000 4.72500 22.87800
H  9.72500 1.95000 23.32700
H  6.61200 3.07900 23.51700
H  7.80000 2.09800 22.56800
H  7.18800 3.66500 21.91400
H  12.03800 3.88300 23.36900
H  10.90000 4.09800 22.08600
H  11.54800 2.32900 21.04600
H  11.47300 1.24500 22.39400
H  12.97000 2.13400 22.13900
H  13.66800 -0.07900 26.96500
H  12.15100 -0.83200 26.32400
H  12.65800 -1.03600 28.00000
H  11.96100 2.12800 32.10900
H  10.68200 1.29200 35.64600
H  10.88800 -0.48000 35.26700
H  9.39400 0.43400 34.83100
Mg 47.39500 15.65700 27.94900
C  45.17500 15.77600 30.75400
C  49.72300 17.38600 29.88000
C  49.02300 16.14200 25.22300
C  44.58000 14.47900 26.06600
N  47.39300 16.61500 30.08400
C  46.48800 16.41900 31.05300
C  46.99800 16.76100 32.42800
C  48.36700 17.42200 32.06500
C  48.51200 17.12500 30.58800
C  48.31400 18.98700 32.28700
C  47.15700 15.62700 33.51900
C  46.61200 15.85300 34.98500
H  46.37500 17.32200 35.45100
N  49.17600 16.57800 27.58500
C  50.00700 17.18600 28.53400
C  51.17500 17.57300 27.81600
C  51.03300 17.25400 26.42600
C  49.77000 16.55600 26.39300
C  52.38600 18.22500 28.49500
C  51.95100 17.62400 25.26500
O  51.71700 17.24700 24.15400
C  53.12000 18.54500 25.55100
N  46.81400 15.30100 25.91400
C  47.79400 15.58700 24.99700
C  47.23800 15.23400 23.56400
C  45.94100 14.46000 23.83100
C  45.73000 14.72700 25.35000
C  47.14600 16.45100 22.59300
C  46.07900 12.99600 23.47700
C  46.69600 12.16100 24.60200
N  45.33300 15.27000 28.23100
C  44.37700 14.67100 27.41600
C  43.21600 14.34900 28.19600
C  43.52600 14.69100 29.49100
C  44.75700 15.39000 29.50300
C  41.86000 13.79700 27.66500
C  43.03300 14.65100 30.83500
O  42.00300 14.20500 31.36300
C  44.07500 15.34200 31.75300
C  43.57200 16.49000 32.46400
O  43.56500 17.63300 32.02900
O  43.06800 16.06400 33.61600
C  42.28800 17.04600 34.49600
H  50.47300 17.89100 30.49300
H  49.40200 16.28800 24.20900
H  43.76400 14.01300 25.51000
H  46.27900 17.45400 32.86500
H  49.28800 17.06800 32.52900
H  47.55200 19.29800 33.00100
H  48.22500 19.48900 31.32300
H  49.23800 19.35600 32.73200
H  48.20200 15.56700 33.82300
H  46.69600 14.70200 33.17000
H  47.33800 15.54000 35.73500
H  45.67400 15.31600 35.12800
H  53.33600 17.72800 28.29800
H  52.22900 18.26400 29.57300
H  52.43300 19.28800 28.25800
H  52.85700 19.50000 26.00700
H  53.47600 18.71000 24.53400
H  53.94200 17.95800 25.96000
H  47.97600 14.57500 23.10700
H  44.97300 14.81500 23.47600
H  46.24300 16.42300 21.98300
H  48.06800 16.34400 22.02100
H  47.16800 17.34600 23.21400
H  46.55700 12.85700 22.50700
H  45.10600 12.57800 23.22100
H  47.51800 12.54300 25.20800
H  47.21600 11.37200 24.06000
H  45.85100 11.76000 25.16300
H  41.55900 13.01200 28.35900
H  41.89100 13.34400 26.67500
H  41.13300 14.60900 27.66600
H  44.55600 14.62700 32.42100
H  41.25300 17.01500 34.15400
H  42.65800 18.07100 34.47100
H  42.19200 16.74500 35.53900

