158

Mg 35.86600 1.56300 30.44600
C  33.45300 2.25300 32.80500
C  38.24000 1.87000 32.92900
C  38.25800 1.15300 28.06400
C  33.45600 1.97300 27.85800
N  35.79300 2.06800 32.59300
C  34.70300 2.15500 33.38300
C  35.03500 2.24700 34.82400
C  36.58400 2.59600 34.83500
C  36.88300 2.10100 33.37000
C  36.82300 4.09900 35.15400
C  34.63900 1.00400 35.56500
C  33.95200 1.09500 36.91000
H  34.53700 2.24200 37.77700
N  37.93700 1.31800 30.54800
C  38.79400 1.41800 31.62700
C  40.19500 1.06200 31.21200
C  40.18400 0.92000 29.82400
C  38.73700 1.18500 29.39100
C  41.31100 1.09600 32.25500
C  41.35000 0.58600 28.88500
O  41.20600 0.42700 27.70600
C  42.77100 0.12100 29.49000
N  35.87400 1.81100 28.22400
C  36.95800 1.33600 27.56800
C  36.63000 1.22800 26.07900
C  35.10400 1.46400 25.98200
C  34.74900 1.70800 27.40200
C  37.57500 2.07100 25.10000
C  34.34200 0.34900 25.09700
C  33.70000 -0.76500 25.96400
N  33.87300 2.13100 30.28000
C  33.01500 2.13400 29.18200
C  31.67800 2.35100 29.67600
C  31.78900 2.39400 31.07000
C  33.12400 2.31700 31.38900
C  30.46500 2.59000 28.73100
C  31.05400 2.53500 32.26700
O  29.84500 2.71600 32.51500
C  32.15300 2.52600 33.48000
C  32.05900 3.87300 34.05700
O  32.69700 4.85400 33.73500
O  31.25400 3.80300 35.19600
C  31.27500 5.01200 36.15600
H  38.95300 2.07000 33.73200
H  39.01900 0.87900 27.32900
H  32.68200 1.77700 27.11200
H  34.44700 3.08100 35.20600
H  37.13800 1.95300 35.51800
H  37.09900 4.15000 36.20800
H  35.88900 4.64900 35.03900
H  37.62400 4.45800 34.50900
H  35.50900 0.40700 35.83900
H  34.23300 0.33200 34.80900
H  34.03700 0.12700 37.40500
H  32.92800 1.24900 36.57000
H  41.76800 0.11700 32.39900
H  40.84300 1.37500 33.19900
H  42.08500 1.81400 31.98300
H  43.28100 1.02000 29.83700
H  43.41600 -0.30500 28.72200
H  42.65200 -0.68200 30.21700
H  36.79100 0.16900 25.87300
H  34.93600 2.41900 25.48300
H  38.50500 2.38800 25.57100
H  37.04400 2.98300 24.82800
H  37.82700 1.53100 24.18700
H  34.97200 -0.04900 24.30200
H  33.43200 0.76900 24.66800
H  32.63800 -0.84100 25.73000
H  33.83500 -0.64500 27.03900
H  34.15500 -1.74000 25.79300
H  30.06700 1.64600 28.35700
H  30.73300 3.15900 27.84100
H  29.64300 3.10500 29.22700
H  31.94600 1.77800 34.24600
H  30.25500 5.34500 36.35200
H  31.82700 5.85700 35.74400
H  31.78200 4.73000 37.07900
Mg -2.15700 34.57200 26.15000
C  -3.32300 32.93200 29.00700
C  -0.75000 36.99400 28.17200
C  -1.46600 36.40400 23.36400
C  -3.95900 32.26200 24.20400
N  -1.96700 34.88900 28.38500
C  -2.48900 34.02700 29.33600
C  -2.14200 34.50900 30.75300
C  -1.43000 35.91800 30.48700
C  -1.43100 35.99400 28.90400
C  -2.15400 37.07300 31.16700
C  -1.30200 33.38900 31.64200
C  -1.83100 33.06000 33.03600
H  -0.84100 33.00200 34.24700
N  -1.19600 36.40700 25.79600
C  -0.63300 37.20200 26.75500
C  0.05000 38.33800 26.06600
C  -0.27200 38.26400 24.69300
C  -1.02100 36.99300 24.55300
C  0.79200 39.53700 26.83000
C  -0.00100 39.26300 23.57700
O  -0.25100 39.13400 22.39300
C  0.70500 40.54900 23.79200
N  -2.67000 34.33600 24.08900
C  -2.17900 35.22000 23.20400
C  -2.50400 34.68400 21.74500
C  -3.32500 33.39300 21.96900
C  -3.27300 33.28500 23.50200
C  -3.37600 35.66200 20.91000
C  -2.76100 32.13100 21.21900
C  -1.34900 31.67800 21.60100
N  -3.32700 32.97800 26.48600
C  -4.03900 32.18700 25.62500
C  -4.78800 31.18800 26.33700
C  -4.55000 31.47200 27.71200
C  -3.67300 32.55600 27.74900
C  -5.79700 30.28400 25.78800
C  -4.82700 31.05800 29.09000
O  -5.60400 30.20400 29.51100
C  -4.01700 31.91200 29.99400
C  -4.94300 32.54600 31.04300
O  -5.53600 33.60400 30.93700
O  -4.91400 31.76500 32.21700
C  -5.81500 32.35500 33.24300
H  -0.15500 37.65800 28.80300
H  -1.23400 36.88900 22.41400
H  -4.36400 31.54700 23.48500
H  -3.14700 34.58300 31.17000
H  -0.38300 35.86600 30.78400
H  -1.47400 37.85500 31.50600
H  -2.71200 36.69700 32.02500
H  -2.85000 37.46200 30.42400
H  -0.27200 33.72800 31.75800
H  -1.09100 32.43400 31.16000
H  -2.33700 32.09600 32.98500
H  -2.58500 33.83100 33.19000
H  0.80500 39.37000 27.90700
H  0.34300 40.52800 26.76900
H  1.80800 39.40200 26.45800
H  0.09600 41.16100 24.45700
H  0.74200 41.20100 22.91900
H  1.72900 40.43100 24.14800
H  -1.57800 34.29800 21.31900
H  -4.34500 33.54400 21.61700
H  -3.25400 36.68700 21.25800
H  -4.45500 35.51400 20.96900
H  -3.18000 35.56000 19.84300
H  -2.71900 32.60900 20.24000
H  -3.47700 31.30900 21.23000
H  -1.31200 30.59000 21.65900
H  -0.95200 32.05800 22.54200
H  -0.66300 31.88700 20.77900
H  -6.46800 30.01500 26.60400
H  -5.33100 29.39400 25.36700
H  -6.36000 30.84400 25.04100
H  -3.29500 31.22600 30.43700
H  -6.83400 32.51900 32.89100
H  -5.42900 33.27800 33.67700
H  -5.92100 31.63200 34.05200

