158

Mg 7.59900 3.27800 27.60500
C  9.12600 2.00800 30.52200
C  5.65700 5.37500 29.65600
C  6.19600 4.36900 24.87400
C  9.07800 0.60200 25.82900
N  7.44100 3.66000 29.82200
C  8.18700 3.04500 30.80000
C  7.89300 3.62500 32.18900
C  6.78500 4.65000 31.94000
C  6.57600 4.54700 30.36700
C  5.46200 4.33500 32.69800
C  9.12700 4.17500 32.95600
C  8.79700 4.85200 34.25700
H  9.90300 4.87100 35.38200
N  6.18100 4.74300 27.34200
C  5.45900 5.46100 28.27600
C  4.54300 6.28600 27.58000
C  4.82800 6.10100 26.20800
C  5.80600 4.99700 26.06900
C  3.51100 7.13600 28.24700
C  4.27000 6.90400 25.07800
O  4.63500 6.69900 23.93000
C  3.31100 7.97900 25.37700
N  7.49700 2.46200 25.66400
C  6.89800 3.20300 24.71900
C  6.94700 2.48700 23.37200
C  7.88500 1.26700 23.64900
C  8.20500 1.41300 25.08400
C  5.64800 2.12100 22.66200
C  9.15500 1.11700 22.73500
C  9.30300 -0.15900 21.95900
N  8.87300 1.72800 28.00100
C  9.38700 0.69900 27.20900
C  10.22400 -0.15800 27.90900
C  10.09400 0.28700 29.25500
C  9.33200 1.47300 29.23400
C  11.02900 -1.28300 27.33100
C  10.60100 0.04700 30.61600
O  11.34400 -0.81000 31.05500
C  9.92000 1.17700 31.50000
C  9.06300 0.57200 32.55600
O  7.96000 0.10100 32.27900
O  9.61900 0.59000 33.84500
C  8.80700 0.22800 35.06500
H  5.13600 6.11100 30.27200
H  5.66300 4.75700 24.00300
H  9.42400 -0.21800 25.19600
H  7.48800 2.85600 32.84700
H  7.01600 5.64200 32.32800
H  5.67600 3.76300 33.60100
H  4.79400 3.72700 32.08800
H  5.02300 5.30200 32.94500
H  9.55600 5.01200 32.40400
H  9.92600 3.47500 33.20100
H  7.84800 4.56500 34.71000
H  8.69400 5.89700 33.96500
H  3.50600 8.19100 27.97000
H  3.63200 7.14900 29.33000
H  2.53600 6.78300 27.91100
H  3.79900 8.78000 25.93200
H  2.36900 7.58000 25.75300
H  3.06100 8.38200 24.39500
H  7.41700 3.25800 22.76200
H  7.40500 0.29300 23.55500
H  5.46000 2.76600 21.80400
H  4.74700 2.40100 23.20600
H  5.61400 1.09400 22.29700
H  10.06800 1.42500 23.24400
H  9.02300 1.91500 22.00500
H  9.15900 -0.18000 20.87900
H  8.76500 -0.97400 22.44400
H  10.33400 -0.51300 21.95700
H  11.40500 -0.94800 26.36400
H  10.39500 -2.16800 27.30100
H  11.92300 -1.35600 27.95000
H  10.75500 1.79400 31.83400
H  8.60900 -0.84400 35.07200
H  7.88700 0.81200 35.04400
H  9.48400 0.42900 35.89500
Mg 47.25900 24.99700 28.29400
C  48.37700 27.19400 30.85100
C  46.21600 22.88600 30.84100
C  46.42600 22.70900 25.95300
C  48.75700 27.02200 25.88800
N  47.31000 25.07700 30.55900
C  47.73900 26.03400 31.36700
C  47.60900 25.74100 32.87000
C  46.78800 24.36300 32.85500
C  46.72500 24.06800 31.31500
C  47.33600 23.19100 33.74300
C  46.68000 26.87500 33.41700
C  46.99300 27.63300 34.75600
H  45.96900 27.74400 35.82600
N  46.29400 23.11200 28.33200
C  46.02700 22.44400 29.49100
C  45.37500 21.17500 29.08500
C  45.31500 21.11400 27.68000
C  46.02800 22.34800 27.22800
C  44.93500 20.13100 30.08100
C  44.64200 20.12900 26.80000
O  44.69700 20.27100 25.58800
C  43.72600 19.02100 27.35500
N  47.61500 24.86700 26.17300
C  47.20800 23.74200 25.46600
C  47.70000 23.89200 24.01800
C  48.11200 25.43400 23.98800
C  48.23800 25.80700 25.42300
C  48.86100 22.96800 23.68700
C  47.03900 26.36500 23.25900
C  47.32100 26.75000 21.78400
N  48.41100 26.61000 28.30900
C  48.81300 27.39600 27.28200
C  49.56500 28.53000 27.73800
C  49.28300 28.51700 29.12900
C  48.59800 27.34400 29.45100
C  50.47900 29.53000 26.99500
C  49.61300 29.21700 30.34000
O  50.23600 30.24900 30.59800
C  48.94700 28.33200 31.54100
C  50.07200 27.87000 32.34800
O  50.75300 26.92500 32.01200
O  50.26900 28.74600 33.34900
C  51.30100 28.58400 34.47100
H  45.92400 22.23600 31.66800
H  46.27400 21.94700 25.18500
H  49.26100 27.67700 25.17400
H  48.56800 25.77200 33.38800
H  45.72100 24.40800 33.07600
H  48.14200 22.79900 33.12200
H  46.53500 22.46200 33.86300
H  47.52600 23.57200 34.74700
H  45.70000 26.41300 33.53900
H  46.40400 27.59000 32.64200
H  47.43100 28.61600 34.58500
H  47.81200 27.00900 35.11400
H  45.44000 19.18300 29.89800
H  43.88500 19.85000 30.00300
H  45.08900 20.48700 31.10000
H  42.83300 19.46200 27.79700
H  44.21800 18.45400 28.14500
H  43.44200 18.42500 26.48800
H  46.81900 23.75600 23.39100
H  49.09300 25.62200 23.55300
H  48.50800 22.32100 22.88400
H  49.07200 22.43300 24.61300
H  49.82700 23.36000 23.36700
H  46.98400 27.22900 23.92100
H  46.04700 25.91300 23.25600
H  47.13100 27.81400 21.64400
H  46.60700 26.23000 21.14500
H  48.33400 26.47100 21.49300
H  49.88500 30.13300 26.30800
H  51.16800 28.99700 26.33900
H  51.08400 30.16500 27.64300
H  48.18000 28.88800 32.08000
H  52.30700 28.89400 34.18800
H  51.32600 27.56900 34.86600
H  51.06600 29.26900 35.28500

