158

Mg 26.69000 -0.99300 29.33800
C  28.45400 -0.96500 32.59100
C  23.73100 -1.13900 31.38600
C  24.86000 -1.24700 26.49500
C  29.52800 -1.14700 27.82400
N  26.19700 -0.97400 31.73800
C  27.08900 -0.75900 32.74400
C  26.39700 -0.69300 34.13800
C  24.92300 -0.62700 33.72300
C  24.88700 -0.90200 32.15900
C  24.04800 -1.76100 34.47900
C  26.87100 0.49800 35.09500
C  27.15800 0.15500 36.61200
H  26.61400 1.16200 37.61800
N  24.56300 -1.20500 29.00600
C  23.56700 -1.23300 29.96300
C  22.32800 -1.39100 29.22100
C  22.53600 -1.34300 27.75800
C  24.03300 -1.23000 27.71300
C  20.95300 -1.58700 29.83500
C  21.57100 -1.39500 26.64000
O  22.01200 -1.44000 25.49600
C  20.07500 -1.41100 26.82100
N  27.06300 -1.26100 27.35800
C  26.21600 -1.17400 26.33100
C  26.95500 -0.99600 24.96900
C  28.43400 -0.79200 25.50300
C  28.37400 -1.01500 27.03400
C  26.78700 -2.23800 24.07900
C  29.08200 0.62300 25.21400
C  30.49700 0.44700 24.73500
N  28.59900 -1.19100 30.05900
C  29.70100 -1.30500 29.23200
C  30.86500 -1.42200 29.99600
C  30.40100 -1.23700 31.33800
C  29.05300 -1.07500 31.28200
C  32.30100 -1.57900 29.48200
C  30.82000 -1.08000 32.71400
O  31.91600 -1.21100 33.21800
C  29.58100 -0.91400 33.57400
C  29.56700 -2.03600 34.61000
O  29.08400 -3.17400 34.47900
O  30.05400 -1.52200 35.79000
C  29.83200 -2.41700 36.95000
H  22.81800 -1.19900 31.98300
H  24.30900 -1.41200 25.56700
H  30.42600 -0.95400 27.23300
H  26.59000 -1.61800 34.68200
H  24.54600 0.37500 33.93000
H  23.57900 -2.53000 33.86500
H  23.27600 -1.23200 35.03600
H  24.59600 -2.26200 35.27700
H  25.95700 1.07800 35.22100
H  27.71800 1.11200 34.79000
H  28.21300 0.00900 36.84300
H  26.74100 -0.84500 36.73600
H  20.47300 -2.39000 29.27500
H  20.36000 -0.69700 29.62400
H  21.05600 -1.77700 30.90300
H  19.72100 -2.41300 27.06200
H  19.74000 -1.20500 25.80500
H  19.85400 -0.62400 27.54200
H  26.60700 -0.11200 24.43500
H  29.07700 -1.58400 25.12000
H  26.54300 -1.96900 23.05100
H  25.93500 -2.78500 24.48100
H  27.69100 -2.84700 24.06100
H  29.01900 1.16000 26.16000
H  28.43700 1.22000 24.56900
H  30.78200 -0.59300 24.57600
H  31.19200 1.00700 25.36000
H  30.54800 0.97500 23.78300
H  32.85300 -1.89600 30.36700
H  32.64600 -0.63500 29.06000
H  32.47200 -2.39200 28.77700
H  29.56800 0.05300 34.07700
H  28.81600 -2.38700 37.34500
H  30.47400 -2.22600 37.81000
H  29.97300 -3.47300 36.71700
Mg 46.58000 24.63200 28.08200
C  47.02900 27.20200 30.40800
C  46.00500 22.44000 30.58100
C  46.28600 22.20900 25.71700
C  47.81400 26.81100 25.53500
N  46.45700 24.85100 30.16200
C  46.65300 25.99600 30.92300
C  46.45900 25.70100 32.37600
C  46.28200 24.14000 32.43100
C  46.32000 23.72900 30.97400
C  47.20500 23.30200 33.31800
C  45.37000 26.50300 33.20700
C  45.12200 25.89300 34.59700
H  45.21300 26.79200 35.87700
N  45.98700 22.67000 28.15600
C  45.86800 21.89200 29.26100
C  45.63400 20.52200 28.92500
C  45.68500 20.45900 27.52100
C  45.92500 21.81800 27.02800
C  45.41700 19.37500 29.93700
C  45.66400 19.23300 26.59600
O  45.77700 19.26800 25.36000
C  45.63500 17.91500 27.22100
N  46.73000 24.59800 25.93400
C  46.60800 23.44800 25.19000
C  47.07600 23.64900 23.71100
C  47.01700 25.25300 23.62300
C  47.27300 25.58900 25.09600
C  48.53200 23.09700 23.61100
C  45.81500 26.01300 22.94400
C  44.61700 26.50800 23.76600
N  47.30500 26.55700 27.93300
C  47.72100 27.33400 26.86800
C  48.18400 28.62200 27.32900
C  47.90500 28.58300 28.71400
C  47.32700 27.38800 29.01600
C  48.90500 29.72800 26.67400
C  48.13800 29.28900 29.92700
O  48.78300 30.36800 30.06700
C  47.46800 28.52700 31.12300
C  48.63300 28.36300 32.11800
O  49.67400 27.72300 31.99400
O  48.35100 29.00400 33.28000
C  49.34600 28.80300 34.33100
H  45.83000 21.70300 31.36800
H  46.24500 21.38800 24.99800
H  48.04200 27.60500 24.82000
H  47.43100 26.03500 32.73700
H  45.34300 23.81400 32.87800
H  47.87300 22.54500 32.90600
H  46.70300 22.65600 34.03800
H  47.77600 24.02200 33.90400
H  44.42000 26.50900 32.67200
H  45.67200 27.54000 33.35000
H  45.80000 25.05300 34.74900
H  44.11800 25.47000 34.59700
H  46.32200 18.76900 29.89100
H  44.65300 18.69100 29.56900
H  45.05400 19.71900 30.90500
H  46.36800 17.79500 28.01800
H  45.92900 17.06300 26.60800
H  44.60000 17.74100 27.51700
H  46.32700 23.20400 23.05500
H  47.92800 25.56600 23.11400
H  48.49100 22.12700 23.11500
H  49.11000 23.00600 24.53000
H  49.16200 23.77400 23.03400
H  45.35500 25.28300 22.27700
H  46.14000 26.86100 22.34200
H  44.00900 25.61000 23.87200
H  44.07400 27.32600 23.29400
H  44.80400 26.83800 24.78800
H  49.62800 30.20100 27.33900
H  48.21100 30.54600 26.48200
H  49.42400 29.42700 25.76400
H  46.67300 29.13600 31.55400
H  49.14500 27.90000 34.90700
H  49.19000 29.62700 35.02800
H  50.41300 28.91700 34.13800

