158

Mg 45.01900 4.59800 47.83600
C  42.58000 6.96000 47.21800
C  42.80800 2.13600 47.25900
C  47.54900 2.34200 47.66100
C  47.39100 7.18500 48.05000
N  42.93700 4.61400 47.26800
C  42.13200 5.63100 47.01200
C  40.84100 5.17300 46.31300
C  40.84200 3.65000 46.59100
C  42.29400 3.43900 47.08700
C  39.83400 3.04300 47.54000
C  40.62600 5.50500 44.81900
C  39.43900 6.43400 44.53300
H  39.79500 7.49400 43.50000
N  45.14100 2.45700 47.74700
C  44.09700 1.68200 47.53600
C  44.60300 0.30800 47.44000
C  46.03700 0.34100 47.47600
C  46.30200 1.76500 47.67900
C  43.78700 -0.94800 47.26300
C  46.99900 -0.79300 47.52700
O  46.66600 -1.94200 47.31200
C  48.51900 -0.58600 47.90100
N  47.17300 4.70000 47.82300
C  47.99100 3.70400 47.65700
C  49.51000 4.18200 47.57100
C  49.39500 5.67500 47.86100
C  47.91100 5.88800 47.84300
C  50.36500 3.41800 48.66800
C  50.16900 6.67700 46.88300
C  50.90700 7.79100 47.64000
N  44.99900 6.70300 47.78400
C  46.02300 7.57300 47.95800
C  45.47400 8.89600 47.72000
C  44.09500 8.70400 47.47200
C  43.89200 7.40400 47.52900
C  46.23000 10.18800 47.51800
C  42.87000 9.36600 47.11200
O  42.61100 10.54100 46.93500
C  41.71900 8.28200 47.02300
C  40.90100 8.52000 48.29000
O  41.04200 7.97700 49.40100
O  40.02700 9.51600 48.02000
C  39.08700 9.81400 49.03800
H  42.17200 1.30000 46.96300
H  48.50700 1.83500 47.52600
H  48.16700 7.94400 48.17300
H  39.98100 5.64300 46.79000
H  40.85500 3.03400 45.69200
H  39.62200 2.06700 47.10200
H  39.00000 3.70900 47.76100
H  40.33400 2.97100 48.50600
H  40.51300 4.58700 44.24200
H  41.52300 6.03200 44.49500
H  39.16700 7.10600 45.34700
H  38.58100 5.84700 44.20700
H  43.91800 -1.39000 46.27600
H  42.73000 -0.75200 47.44200
H  44.21300 -1.59000 48.03400
H  49.00600 -1.56100 47.91700
H  48.48500 -0.05900 48.85500
H  48.98600 0.00400 47.11300
H  49.95200 4.04900 46.58400
H  49.64900 5.79800 48.91300
H  51.42300 3.52600 48.43200
H  50.06700 2.37100 48.73100
H  50.10200 3.73500 49.67700
H  49.39800 7.22800 46.34400
H  50.87900 6.24100 46.18000
H  50.77500 8.82300 47.31600
H  51.94300 7.58700 47.36800
H  50.87600 7.62500 48.71700
H  46.56500 10.66900 48.43600
H  45.48700 10.88300 47.12600
H  47.13300 10.18000 46.90800
H  41.13500 8.50900 46.13100
H  38.37500 10.41200 48.46900
H  39.55900 10.33600 49.87100
H  38.68200 8.85100 49.34800
Mg 49.23400 46.06400 43.94100
C  45.59900 46.34100 43.29000
C  49.18600 43.04700 42.46300
C  52.58500 46.16300 44.10300
C  49.10100 49.54600 44.59400
N  47.57500 44.89200 42.68900
C  46.20800 45.11900 42.75600
C  45.41500 43.96100 42.14000
C  46.54300 42.86400 42.14100
C  47.87500 43.61300 42.43900
C  46.27000 41.52600 42.96200
C  44.83600 44.44100 40.75600
C  43.59300 43.61500 40.33500
H  43.44800 42.69600 39.08800
N  50.67600 44.75900 43.38400
C  50.41100 43.58800 42.83300
C  51.65400 42.84300 42.72500
C  52.70000 43.62600 43.32900
C  52.00100 44.90500 43.68900
C  51.77100 41.43600 42.25600
C  54.15700 43.21400 43.48800
O  54.48800 42.23300 42.83500
C  55.17900 44.02100 44.24200
N  50.67400 47.64800 44.19000
C  51.97900 47.36600 44.33900
C  52.68100 48.55900 45.07200
C  51.64700 49.65700 44.94500
C  50.37900 48.88400 44.57200
C  53.17100 48.30300 46.50400
C  52.01900 50.79700 43.85700
C  52.01700 52.17100 44.38900
N  47.69400 47.62400 44.00400
C  47.80500 48.97600 44.37300
C  46.45400 49.58700 44.33000
C  45.57400 48.57100 44.00700
C  46.40900 47.40300 43.76100
C  46.11300 51.01600 44.53600
C  44.14200 48.21500 43.75400
O  43.08300 48.85900 43.75000
C  44.20300 46.77200 43.21200
C  43.27700 45.85600 43.97700
O  43.43300 45.38300 45.08500
O  42.21500 45.68000 43.18800
C  41.19900 44.78300 43.77500
H  49.26600 41.97400 42.27300
H  53.65600 46.30300 44.26400
H  48.98400 50.56500 44.97000
H  44.61700 43.67200 42.82400
H  46.80800 42.51000 41.14500
H  47.15600 41.53100 43.59700
H  46.32200 40.72000 42.23000
H  45.32300 41.49100 43.50000
H  45.70400 44.30600 40.11000
H  44.53400 45.47600 40.92100
H  42.75000 44.29000 40.19200
H  43.22900 43.04500 41.19000
H  52.65000 41.10900 41.70000
H  50.98800 41.34000 41.50500
H  51.61800 40.59700 42.93400
H  54.85500 44.39000 45.21500
H  55.42400 44.85900 43.59000
H  56.04100 43.37200 44.39800
H  53.54100 48.82500 44.45800
H  51.60100 50.10100 45.93900
H  53.13900 47.24600 46.76700
H  52.52000 48.77700 47.23900
H  54.23200 48.54900 46.53800
H  51.26300 50.77800 43.07200
H  53.00800 50.58000 43.45600
H  51.52300 52.80200 43.64900
H  53.02800 52.55400 44.52200
H  51.59100 52.30400 45.38300
H  46.36700 51.30300 45.55700
H  45.08800 51.34300 44.35600
H  46.75600 51.57500 43.85700
H  43.71700 46.90100 42.24500
H  40.40400 44.67100 43.03800
H  40.81400 45.27000 44.67100
H  41.62300 43.83400 44.10600

