158

Mg 55.29700 24.28600 44.51700
C  52.90600 26.55200 43.39700
C  53.43400 21.75000 43.11100
C  58.09100 22.24700 44.64700
C  57.35400 26.90400 45.25100
N  53.47200 24.18200 43.25400
C  52.62700 25.26100 42.98600
C  51.29200 24.72300 42.44900
C  51.36600 23.12500 42.61500
C  52.84000 22.99000 43.07000
C  50.29300 22.37300 43.49600
C  50.94300 25.05900 41.00100
C  49.49500 25.10700 40.49300
H  49.14800 24.96800 39.01500
N  55.68000 22.19800 44.03300
C  54.74300 21.37400 43.42000
C  55.37600 20.01400 43.26300
C  56.74100 20.11200 43.75500
C  56.92900 21.53200 44.17000
C  54.64200 18.85500 42.59400
C  57.81300 18.94800 43.81900
O  57.53000 17.82200 43.42100
C  59.15900 19.17600 44.41800
N  57.33400 24.50500 44.95000
C  58.26200 23.53700 45.05700
C  59.67100 24.08300 45.30500
C  59.41800 25.61000 45.37100
C  57.94100 25.70300 45.18100
C  60.54800 23.38500 46.32800
C  60.11800 26.37900 44.21900
C  61.07100 27.50200 44.67600
N  55.10900 26.29100 44.62500
C  56.00700 27.24800 44.99000
C  55.38700 28.54600 45.09800
C  54.16200 28.30500 44.38900
C  54.02400 26.93000 44.15600
C  56.09400 29.78900 45.59700
C  52.97600 28.97000 43.94800
O  52.63000 30.15000 44.09500
C  52.13800 27.90600 43.12500
C  52.35000 28.30100 41.72700
O  53.34700 28.18100 41.08400
O  51.16600 28.70500 41.15900
C  51.23000 28.73700 39.66900
H  52.81600 20.96400 42.67200
H  59.00700 21.68200 44.83300
H  58.00600 27.69600 45.62500
H  50.57100 25.08100 43.18300
H  51.21800 22.82200 41.57800
H  50.71000 21.86000 44.36200
H  49.62000 21.73800 42.92000
H  49.65200 23.06500 44.04300
H  51.50800 24.39600 40.34600
H  51.37900 26.04200 40.82100
H  49.04600 26.08200 40.68300
H  48.82700 24.46000 41.06200
H  54.78200 17.87100 43.04100
H  55.19300 18.54500 41.70600
H  53.57600 19.06400 42.50000
H  59.66300 19.82600 43.70300
H  59.71400 18.24100 44.50800
H  58.98300 19.62300 45.39600
H  60.19600 23.84700 44.37900
H  59.68200 25.88900 46.39100
H  60.29300 22.35900 46.59500
H  60.53100 24.04700 47.19400
H  61.59100 23.30200 46.02300
H  59.34700 26.91600 43.66700
H  60.68600 25.76100 43.52300
H  61.41200 27.37600 45.70400
H  60.73700 28.50800 44.42400
H  61.92900 27.36000 44.01900
H  55.40800 30.63100 45.50700
H  57.03900 29.99700 45.09500
H  56.33800 29.64100 46.64900
H  51.10300 27.94300 43.46500
H  51.79000 29.58200 39.26900
H  50.20800 28.77000 39.29200
H  51.59100 27.81900 39.20400
Mg 6.03500 54.34400 41.23900
C  3.54700 51.80100 41.01500
C  8.15300 52.26000 39.79300
C  8.15000 56.87900 41.26700
C  3.54900 56.55500 42.40500
N  5.76300 52.37800 40.18500
C  4.70100 51.45700 40.36500
C  5.04600 50.12400 39.74700
C  6.64700 50.17700 39.83700
C  6.86100 51.70700 39.85700
C  7.37300 49.44200 40.98700
C  4.51900 49.84000 38.29700
C  3.89000 48.43700 38.10000
H  4.30300 47.76900 36.77900
N  7.92300 54.47100 40.65900
C  8.66000 53.54500 40.10500
C  10.04700 54.03100 39.84800
C  10.06600 55.46900 40.13200
C  8.71800 55.70300 40.71700
C  11.13700 53.19900 39.16600
C  11.28700 56.45100 40.07900
O  12.34700 56.06800 39.73400
C  11.07900 57.96200 40.36000
N  5.79000 56.52400 41.54800
C  6.81400 57.36100 41.54200
C  6.54200 58.67500 42.15100
C  5.09600 58.66200 42.41600
C  4.75000 57.16800 42.11500
C  7.35400 59.05600 43.39800
C  4.24400 59.77900 41.79000
C  3.69900 59.57800 40.37600
N  4.04200 54.23200 41.67300
C  3.16400 55.18900 42.15000
C  1.85900 54.61500 42.32300
C  2.01100 53.29700 41.96400
C  3.35000 53.08200 41.57200
C  0.63500 55.28900 42.79400
C  1.24200 52.04900 41.87600
O  0.03900 51.76900 42.03800
C  2.45400 51.02300 41.52300
C  1.85400 50.09100 40.60500
O  1.33500 50.30000 39.52400
O  1.87200 48.76600 41.22100
C  1.07400 47.73800 40.62000
H  8.93100 51.53500 39.54400
H  8.90900 57.65700 41.36700
H  2.81900 57.20900 42.88700
H  4.70000 49.32000 40.39700
H  7.09000 49.88500 38.88500
H  8.42500 49.20700 40.82700
H  6.81700 48.52900 41.20100
H  7.43500 50.08100 41.86800
H  5.25600 49.96900 37.50400
H  3.73500 50.55700 38.05400
H  2.80500 48.54200 38.10900
H  4.07900 47.78100 38.94900
H  11.10000 53.44300 38.10500
H  10.98100 52.12900 39.29700
H  12.01700 53.60500 39.66500
H  11.91300 58.49900 39.90900
H  11.00700 58.29600 41.39500
H  10.15700 58.19700 39.82700
H  6.81200 59.37500 41.36000
H  4.83900 58.88800 43.45100
H  7.89600 59.95500 43.10400
H  7.92000 58.33300 43.98600
H  6.71500 59.45100 44.18800
H  4.83900 60.68500 41.67300
H  3.38900 60.06600 42.40200
H  4.04900 60.41500 39.77200
H  2.61200 59.57100 40.29800
H  4.14200 58.66000 39.98900
H  0.81500 56.09600 43.50500
H  0.08000 54.51000 43.31800
H  0.06200 55.74500 41.98700
H  2.71200 50.43900 42.40600
H  0.05100 48.08300 40.46600
H  1.05600 46.96200 41.38500
H  1.52300 47.30000 39.72900

