158

Mg 2.78400 -2.56700 44.80200
C  6.23800 -1.71000 44.51100
C  1.96300 -0.00200 42.72800
C  -0.28600 -3.93300 44.50400
C  3.86600 -5.41400 46.65800
N  4.02900 -1.09500 43.59000
C  5.36300 -0.88200 43.71400
C  5.74700 0.27500 42.83200
C  4.41000 0.91600 42.43000
C  3.36800 -0.03800 43.02300
C  4.11200 2.27700 43.03100
C  6.75700 -0.12500 41.67500
C  7.79500 0.93000 41.39900
H  7.41500 1.77700 40.20700
N  1.03500 -1.98500 43.83200
C  0.90200 -0.86400 43.04000
C  -0.44600 -0.77000 42.52300
C  -1.15300 -1.85700 43.07900
C  -0.16800 -2.66500 43.85000
C  -0.99400 0.31700 41.56900
C  -2.61200 -2.04100 42.96000
O  -3.27400 -1.25200 42.33500
C  -3.38200 -3.09800 43.71000
N  1.80500 -4.45200 45.67200
C  0.56900 -4.79100 45.25800
C  0.25000 -6.22700 45.75000
C  1.64300 -6.71300 46.37400
C  2.50500 -5.52100 46.17300
C  -0.94900 -6.17200 46.74100
C  2.23000 -7.95100 45.59800
C  2.38300 -9.26900 46.38900
N  4.54500 -3.37100 45.47700
C  4.82200 -4.42900 46.29500
C  6.26600 -4.58800 46.54100
C  6.77500 -3.47300 45.95000
C  5.78000 -2.82800 45.25400
C  6.86100 -5.75500 47.24700
C  8.04400 -2.68700 45.78000
O  9.12800 -2.90300 46.22600
C  7.71000 -1.48700 44.86500
C  7.76200 -0.19600 45.64400
O  6.87900 0.07800 46.46100
O  8.74400 0.62100 45.19500
C  8.70000 1.97600 45.73800
H  1.68100 0.92400 42.22200
H  -1.31100 -4.31000 44.47200
H  4.06200 -6.31600 47.24200
H  6.25600 0.95600 43.51400
H  4.29800 0.99700 41.34800
H  3.49500 2.75800 42.27100
H  5.02600 2.74700 43.39300
H  3.56000 2.22100 43.96900
H  6.20800 -0.22100 40.73800
H  7.20900 -1.08300 41.93400
H  8.75100 0.41200 41.32600
H  7.91000 1.60200 42.25000
H  -0.45100 1.26100 41.62200
H  -2.00300 0.62300 41.84300
H  -0.87400 0.00300 40.53200
H  -3.13500 -2.87700 44.74800
H  -3.14900 -4.07900 43.29700
H  -4.44600 -2.87800 43.61400
H  -0.19900 -6.85900 44.98400
H  1.50700 -6.90600 47.43800
H  -1.75600 -6.82400 46.40600
H  -1.35400 -5.16100 46.79200
H  -0.63800 -6.42300 47.75500
H  3.23500 -7.70500 45.25300
H  1.62100 -8.14100 44.71400
H  1.91000 -9.15400 47.36400
H  3.42000 -9.57900 46.51100
H  1.93100 -10.10300 45.85100
H  7.73300 -5.42300 47.81100
H  7.20100 -6.47300 46.50000
H  6.23500 -6.33700 47.92400
H  8.42900 -1.49300 44.04600
H  9.67900 2.16100 46.17800
H  7.93600 2.30500 46.44300
H  8.45200 2.66300 44.92900
Mg 48.51700 45.52200 42.64300
C  45.10100 45.80700 41.94100
C  48.48800 42.22600 41.51800
C  51.86700 45.57700 42.41700
C  48.56400 48.93800 43.28800
N  47.04900 44.26700 41.85800
C  45.70700 44.58800 41.58200
C  45.03100 43.42400 40.89600
C  45.94700 42.23400 41.23600
C  47.26500 42.95200 41.47000
C  45.75000 41.17200 42.29500
C  44.65100 43.57800 39.44200
C  43.35800 42.79300 38.98200
H  43.49100 41.78600 37.90900
N  50.00200 44.01500 42.21100
C  49.79500 42.70400 41.78200
C  51.07000 42.14800 41.59300
C  52.05800 43.04600 42.01200
C  51.32000 44.26600 42.32300
C  51.26800 40.72500 41.12400
C  53.54300 42.74300 42.07000
O  53.98000 41.66100 41.64700
C  54.51800 43.70700 42.69100
N  49.95600 47.06100 42.66500
C  51.28600 46.82600 42.63000
C  52.09900 48.08800 42.93600
C  51.10200 49.17300 43.27100
C  49.81800 48.39100 43.04200
C  53.33900 47.87600 43.86000
C  51.20500 50.47400 42.43800
C  51.46700 51.70000 43.25200
N  47.15400 47.01800 42.75600
C  47.28800 48.35000 43.06600
C  46.01300 49.03500 43.04000
C  45.14500 48.07400 42.64900
C  45.88300 46.87200 42.46900
C  45.65100 50.45400 43.44100
C  43.78700 47.74900 42.35800
O  42.78200 48.44200 42.41900
C  43.72800 46.38100 41.72000
C  42.60100 45.50200 42.14300
O  41.99100 44.89300 41.32300
O  42.37500 45.48200 43.43900
C  41.40900 44.36700 43.78600
H  48.37600 41.16300 41.29400
H  52.94500 45.60200 42.24900
H  48.57700 49.98000 43.61600
H  44.08800 43.30500 41.43100
H  46.11600 41.68200 40.31100
H  46.46000 41.32200 43.10800
H  45.84000 40.14600 41.93800
H  44.79600 41.35300 42.79100
H  45.46500 43.33100 38.75900
H  44.41900 44.63300 39.30300
H  42.56400 43.49500 38.72600
H  42.99300 42.11800 39.75700
H  51.90700 40.74600 40.24100
H  50.29700 40.31000 40.85600
H  51.62300 40.13000 41.96500
H  55.30500 43.11300 43.15600
H  53.87700 44.00500 43.52100
H  54.90500 44.38400 41.92900
H  52.40100 48.28000 41.90600
H  51.06500 49.50000 44.31000
H  54.12100 47.62900 43.14300
H  53.10800 47.16700 44.65500
H  53.64500 48.84400 44.25700
H  50.30100 50.64100 41.85200
H  52.07700 50.39900 41.78900
H  50.62700 51.55600 43.93100
H  51.29800 52.68000 42.80500
H  52.43400 51.73700 43.75300
H  45.53200 51.11000 42.57900
H  46.34000 50.91400 44.14800
H  44.66800 50.53700 43.90600
H  43.60400 46.58200 40.65600
H  41.81700 43.38300 43.55500
H  40.45100 44.55000 43.29700
H  41.37200 44.45300 44.87200

