158

Mg 9.09200 3.66300 28.13700
C  10.41200 2.16100 30.92300
C  7.35000 5.85200 30.32600
C  8.43300 5.75700 25.57500
C  10.67800 1.48700 25.98500
N  8.81100 3.86500 30.40300
C  9.54800 3.20700 31.35100
C  9.19700 3.68300 32.84300
C  8.13600 4.80400 32.61100
C  8.02100 4.83100 30.99500
C  6.67500 4.56100 33.23000
C  10.42700 4.20100 33.69900
C  10.88100 3.23100 34.82700
H  11.48600 3.90000 36.01400
N  7.92500 5.52500 27.94600
C  7.27100 6.17900 28.94700
C  6.65900 7.40900 28.43700
C  7.00900 7.44200 27.06000
C  7.82000 6.22500 26.78500
C  5.81800 8.34200 29.18500
C  6.83200 8.57000 25.94300
O  7.27300 8.44500 24.78400
C  6.23900 9.89500 26.34000
N  9.22000 3.43700 26.03700
C  9.01300 4.53200 25.20000
C  9.24600 4.14100 23.77300
C  10.05900 2.81800 23.89900
C  9.96100 2.55100 25.36700
C  7.89000 3.96800 22.99200
C  11.52100 3.04000 23.39600
C  12.22000 1.85100 22.82900
N  10.14400 2.08600 28.37800
C  10.75700 1.26900 27.38600
C  11.52300 0.29500 28.10500
C  11.37900 0.59300 29.46900
C  10.59400 1.69000 29.56900
C  12.44900 -0.75100 27.57900
C  11.81500 0.11900 30.82300
O  12.61300 -0.76900 31.20500
C  11.15700 1.22200 31.79600
C  10.32700 0.65000 32.85600
O  9.14100 0.30800 32.68600
O  11.04200 0.34800 33.97400
C  10.38500 -0.43800 34.96500
H  6.91300 6.49800 31.09000
H  8.38900 6.49000 24.76600
H  11.33000 0.83700 25.39900
H  8.66500 2.84200 33.28800
H  8.49700 5.76100 32.98700
H  6.06200 4.12900 32.43900
H  6.39800 5.56500 33.55100
H  6.75300 3.76800 33.97300
H  10.11300 5.13500 34.16600
H  11.25300 4.37400 33.00900
H  11.76400 2.78100 34.37400
H  10.12300 2.49900 35.10700
H  4.81800 8.45500 28.76900
H  6.28700 9.30700 28.99400
H  5.82500 8.17000 30.26200
H  6.90300 10.29400 27.10700
H  5.23900 9.71500 26.73300
H  6.18300 10.68000 25.58500
H  9.81000 5.00300 23.41700
H  9.60900 2.02500 23.30200
H  7.76600 4.82000 22.32400
H  7.03500 3.96300 23.66700
H  7.67500 3.06300 22.42500
H  12.07800 3.39500 24.26300
H  11.64700 3.83100 22.65600
H  12.15200 1.80400 21.74200
H  11.78600 0.86400 22.98900
H  13.26600 1.88200 23.13500
H  12.02500 -1.71500 27.85800
H  13.39200 -0.55700 28.09100
H  12.64800 -0.68000 26.50900
H  11.99000 1.67000 32.33700
H  10.04200 0.27000 35.71800
H  11.12500 -1.10900 35.40300
H  9.53500 -1.05200 34.66800
Mg 45.40900 2.88500 47.99500
C  43.20000 5.67700 47.10800
C  42.58900 0.87600 48.09600
C  47.39500 0.37500 48.04800
C  48.01000 5.22200 47.37500
N  43.15400 3.22800 47.44600
C  42.50300 4.40700 47.22500
C  40.95300 4.24700 47.21300
C  40.86000 2.68400 47.59800
C  42.28900 2.23000 47.79100
C  40.04700 2.49000 48.91600
C  40.29300 4.47400 45.80800
C  39.33100 5.60400 45.55900
H  39.62300 6.56300 44.34300
N  45.03100 0.85800 48.09800
C  43.82400 0.14600 48.19400
C  44.01400 -1.18600 48.36900
C  45.41700 -1.37400 48.24000
C  46.05100 -0.07000 48.10300
C  42.91600 -2.24400 48.30200
C  46.09200 -2.78900 48.31900
O  45.41500 -3.83900 48.57300
C  47.50400 -2.88700 48.12100
N  47.38700 2.72300 47.40500
C  48.00100 1.60400 47.75000
C  49.57700 1.86300 47.55600
C  49.65900 3.35500 47.35600
C  48.25600 3.84100 47.36800
C  50.47800 1.24100 48.70300
C  50.47600 3.85100 46.13600
C  51.85500 4.54900 46.52100
N  45.65200 5.05400 47.40800
C  46.75200 5.80400 47.34400
C  46.35800 7.19700 47.26200
C  44.99200 7.22300 47.14300
C  44.57100 5.86600 47.19500
C  47.24000 8.38900 47.31000
C  43.80500 8.05800 46.89300
O  43.67100 9.24100 46.70100
C  42.59000 7.07400 47.07300
C  41.80300 7.44500 48.34000
O  41.89100 6.96200 49.47200
O  40.99400 8.53500 47.98600
C  40.05200 8.94600 49.00500
H  41.67800 0.27500 48.08200
H  48.17300 -0.39100 48.05900
H  48.84100 5.93000 47.37700
H  40.41500 4.89100 47.90800
H  40.39600 2.07400 46.82200
H  39.48900 3.40900 49.09600
H  40.66100 2.30700 49.79800
H  39.30400 1.70400 48.78300
H  39.81300 3.54800 45.49000
H  41.07000 4.60900 45.05600
H  39.21500 6.31700 46.37500
H  38.40000 5.05300 45.42700
H  43.23500 -3.01100 49.00800
H  43.06500 -2.69300 47.32000
H  41.89300 -1.95600 48.54000
H  47.78200 -3.94100 48.13400
H  48.04900 -2.38600 48.92100
H  47.94300 -2.52900 47.19000
H  49.89700 1.35800 46.64400
H  50.20000 3.77000 48.20600
H  51.00800 0.37300 48.31100
H  49.89100 1.01500 49.59200
H  51.21900 1.98800 48.98900
H  49.81400 4.42200 45.48500
H  50.82500 2.98100 45.57900
H  51.78400 5.56700 46.13700
H  52.67800 3.92100 46.18100
H  51.99000 4.60000 47.60200
H  48.25700 8.07000 47.08000
H  47.17200 8.84000 48.30000
H  46.89900 9.15200 46.61000
H  41.94000 7.25700 46.21700
H  40.29400 10.00900 49.02700
H  40.22300 8.45900 49.96500
H  39.00700 8.87100 48.70200

