158

Mg 17.52500 -2.98500 28.75600
C  16.38400 -0.59100 30.94600
C  19.24900 -4.52700 31.28900
C  18.98500 -5.14100 26.50800
C  16.15900 -1.17800 26.05700
N  17.78300 -2.48300 30.84800
C  17.23400 -1.48300 31.62800
C  17.49000 -1.62100 33.13300
C  18.61800 -2.74300 33.07800
C  18.53600 -3.34600 31.63000
C  20.00300 -2.07800 33.44900
C  16.25400 -1.99200 34.02400
C  16.33900 -1.30700 35.39200
H  17.71300 -0.60600 35.74600
N  18.86200 -4.71600 28.88600
C  19.46400 -5.10600 30.03600
C  20.26600 -6.34800 29.77700
C  20.19100 -6.50400 28.32900
C  19.32800 -5.41700 27.84700
C  20.81600 -7.22900 30.84300
C  20.75700 -7.57600 27.45200
O  20.48400 -7.77200 26.23400
C  21.74400 -8.57300 28.06700
N  17.66600 -3.07100 26.64400
C  18.31900 -4.04500 25.91100
C  18.02500 -3.92100 24.46800
C  17.25500 -2.58500 24.29200
C  16.89200 -2.33600 25.71500
C  19.29600 -4.05300 23.40800
C  16.05700 -2.58900 23.28700
C  16.26900 -1.60000 22.02100
N  16.41200 -1.29600 28.46600
C  15.91800 -0.67100 27.37200
C  15.08700 0.45400 27.77800
C  15.21400 0.54800 29.14700
C  16.04900 -0.53300 29.52400
C  14.17800 1.31500 26.92600
C  14.83400 1.28500 30.35100
O  14.09000 2.25900 30.50600
C  15.66300 0.60600 31.59600
C  16.64000 1.56200 32.05100
O  17.75100 1.71800 31.59600
O  15.95400 2.35100 32.92900
C  16.74800 3.58100 33.29700
H  19.83200 -4.98000 32.09300
H  19.28500 -5.81000 25.69800
H  15.79200 -0.57000 25.22700
H  17.92700 -0.65900 33.40100
H  18.43400 -3.57500 33.75700
H  19.99100 -1.20100 34.09700
H  20.34700 -1.61800 32.52200
H  20.68700 -2.80100 33.89400
H  16.11900 -3.06500 34.15700
H  15.44900 -1.57400 33.42000
H  15.97800 -1.86300 36.25700
H  15.60600 -0.51800 35.22100
H  20.60500 -8.25100 30.52700
H  20.44500 -7.03200 31.84900
H  21.87500 -7.05100 31.03000
H  21.23800 -9.40200 28.56200
H  22.37500 -7.94800 28.69800
H  22.27600 -8.91300 27.17800
H  17.30700 -4.72300 24.29500
H  18.07900 -1.91100 24.05400
H  19.56000 -3.11600 22.91800
H  19.22100 -4.80300 22.62000
H  20.20200 -4.42000 23.89000
H  15.09900 -2.42300 23.78100
H  15.94700 -3.57800 22.84300
H  15.86300 -2.07100 21.12600
H  17.32000 -1.32400 21.94200
H  15.64900 -0.70400 22.05900
H  14.42600 2.37600 26.94500
H  13.11700 1.22700 27.16100
H  14.25400 0.99700 25.88600
H  14.95800 0.18200 32.31100
H  17.00600 4.16300 32.41300
H  17.59600 3.32800 33.93500
H  16.26300 4.26400 33.99400
Mg 36.00200 49.89300 25.84600
C  36.46200 48.05500 28.80800
C  35.11200 52.50400 27.64500
C  35.24000 51.22800 22.86700
C  37.15400 46.89800 24.03600
N  35.66700 50.09500 27.96500
C  35.92200 49.33000 29.02800
C  35.58300 49.93000 30.40100
C  35.03400 51.33700 29.90400
C  35.28000 51.32200 28.40200
C  33.60600 51.68800 30.33000
C  36.80400 50.03700 31.36500
C  36.65800 49.73100 32.86900
H  35.31600 49.50900 33.54100
N  35.32600 51.62600 25.34400
C  35.09800 52.67300 26.22200
C  34.80100 53.81500 25.44400
C  34.74200 53.45800 24.07700
C  35.04500 52.01500 24.06500
C  34.67300 55.14900 26.12900
C  34.51400 54.31500 22.85900
O  34.47000 53.84900 21.71500
C  34.32700 55.77900 22.86200
N  36.08800 49.12600 23.73400
C  35.78000 49.97300 22.74100
C  36.11500 49.33300 21.38600
C  37.08500 48.15700 21.76900
C  36.71900 47.97800 23.25300
C  34.81700 48.90400 20.64300
C  38.63500 48.54200 21.63900
C  39.63600 47.34700 21.76500
N  36.73500 47.90600 26.24500
C  37.14600 46.82500 25.44500
C  37.60000 45.76100 26.29000
C  37.30900 46.21200 27.59500
C  36.80700 47.50300 27.52000
C  38.30300 44.48400 25.88400
C  37.34900 45.77200 29.00600
O  37.60100 44.67100 29.54500
C  36.82000 47.00200 29.85700
C  35.70600 46.57500 30.69400
O  34.57600 46.33200 30.32100
O  36.15600 46.18600 31.95900
C  35.15300 45.52900 32.84700
H  34.92900 53.37600 28.27500
H  35.11000 51.71700 21.89900
H  37.61700 46.10000 23.45100
H  34.81400 49.29700 30.84400
H  35.67600 52.13700 30.27300
H  33.16800 50.84300 30.86100
H  32.99600 51.65900 29.42800
H  33.55300 52.67500 30.79100
H  37.27100 51.01300 31.23900
H  37.57300 49.36800 30.97800
H  37.14100 50.53800 33.42000
H  37.27500 48.87100 33.12900
H  35.53400 55.78800 25.93000
H  34.53300 55.14200 27.21000
H  33.73800 55.62800 25.84000
H  34.83600 56.22500 23.71700
H  33.26500 55.96200 23.02300
H  34.74100 56.18100 21.93700
H  36.52600 50.13800 20.77600
H  36.82900 47.21100 21.29300
H  34.78100 49.51300 19.74000
H  33.92800 49.31100 21.12500
H  34.71700 47.88400 20.27300
H  38.80800 49.25200 22.44800
H  38.81400 49.06900 20.70100
H  39.03000 46.47100 21.53300
H  40.20300 47.43300 22.69200
H  40.26600 47.60900 20.91500
H  38.99600 44.66100 25.06100
H  37.58500 43.73400 25.55200
H  38.88800 44.09700 26.71900
H  37.53100 47.38400 30.58900
H  34.82300 44.56500 32.46100
H  34.23400 46.07600 33.05700
H  35.51100 45.37100 33.86400

