158

Mg 41.25500 7.24500 28.79700
C  42.97100 8.33800 31.67500
C  38.95800 5.88900 31.11500
C  39.91000 5.55300 26.27800
C  43.87700 8.25800 26.79000
N  41.07700 7.15600 31.23400
C  41.82400 7.81100 32.16000
C  41.09100 7.89900 33.48800
C  39.89700 6.86300 33.26700
C  39.92200 6.60300 31.80900
C  39.94700 5.55000 34.17600
C  40.68700 9.30100 33.80100
C  39.90800 9.53700 35.06300
H  40.52000 10.48000 36.12300
N  39.56000 6.08100 28.68000
C  38.81700 5.59800 29.74900
C  37.69300 4.81900 29.18800
C  37.82700 4.88200 27.76400
C  39.20800 5.45300 27.46200
C  36.58400 4.22800 30.04900
C  36.94600 4.47200 26.58600
O  37.18800 4.42900 25.40600
C  35.55200 4.03300 26.94700
N  42.00000 6.66100 26.97700
C  41.21300 6.02600 26.07500
C  41.74800 6.11800 24.61300
C  42.99200 7.04700 24.76300
C  42.91100 7.37700 26.27700
C  41.87900 4.69500 23.99200
C  42.97800 8.26200 23.84300
C  41.87200 9.28700 24.13400
N  43.00000 8.07700 29.10700
C  43.92800 8.60000 28.16900
C  44.85700 9.37900 28.83300
C  44.47100 9.40500 30.18000
C  43.43000 8.50200 30.32400
C  46.05900 9.85000 28.09400
C  44.90700 9.88000 31.50300
O  45.88500 10.56600 31.86200
C  43.84700 9.23900 32.45800
C  44.43100 8.57200 33.61000
O  45.20400 7.59300 33.60100
O  44.05800 9.24600 34.73300
C  44.61500 8.83900 35.97500
H  38.16900 5.53500 31.78200
H  39.52200 5.11800 25.35500
H  44.64400 8.68700 26.14100
H  41.87900 7.48900 34.12000
H  38.97200 7.40300 33.46800
H  40.78800 5.67500 34.85800
H  39.96900 4.64700 33.56600
H  39.03600 5.48000 34.77100
H  40.19600 9.73800 32.93200
H  41.50800 9.99400 33.98300
H  39.56800 8.59400 35.49200
H  39.02300 10.10700 34.78100
H  36.28200 3.25900 29.65200
H  35.76700 4.93600 30.19200
H  36.98800 4.02700 31.04100
H  35.47500 3.07900 27.47000
H  35.03100 3.92200 25.99600
H  34.95300 4.78500 27.46100
H  41.13700 6.76800 23.98600
H  43.90800 6.45900 24.71700
H  41.45100 4.59500 22.99500
H  41.33700 4.05500 24.68900
H  42.85500 4.26900 24.22500
H  42.94300 7.81700 22.84800
H  43.90800 8.82500 23.76300
H  41.32100 9.11800 25.06000
H  41.14900 9.27200 23.31800
H  42.35900 10.26100 24.09600
H  46.64100 10.40300 28.83200
H  45.86700 10.44500 27.20100
H  46.60500 8.93700 27.85900
H  43.19000 10.02300 32.83500
H  43.88100 8.64800 36.75800
H  45.30300 9.65400 36.19800
H  45.09700 7.86200 35.93800
Mg -4.17000 24.71700 26.84600
C  -2.83000 26.66300 29.28100
C  -5.72400 22.75300 29.23600
C  -5.43600 22.76100 24.37800
C  -2.40200 26.61200 24.37500
N  -4.27600 24.72200 28.99500
C  -3.74300 25.70300 29.74900
C  -4.39000 25.68900 31.11300
C  -5.05300 24.22500 31.15700
C  -5.00800 23.82000 29.72400
C  -4.30100 23.21000 32.13300
C  -5.31900 26.85500 31.50800
C  -5.15300 27.40000 32.85600
H  -4.96900 26.30000 33.93300
N  -5.42600 23.07300 26.81800
C  -6.00300 22.42600 27.92500
C  -6.72100 21.23200 27.45500
C  -6.67900 21.28100 26.02000
C  -5.83600 22.41000 25.68700
C  -7.26100 20.18200 28.44100
C  -7.31700 20.33000 24.98200
O  -7.18000 20.41600 23.75000
C  -8.20200 19.12000 25.41200
N  -4.07100 24.70600 24.60900
C  -4.65300 23.81500 23.78800
C  -4.49000 24.17100 22.31600
C  -3.63200 25.53900 22.44500
C  -3.33400 25.67100 23.94100
C  -3.86100 23.02000 21.53200
C  -4.42100 26.77700 21.87900
C  -3.54400 27.53600 20.77800
N  -2.90400 26.23500 26.74900
C  -2.27300 27.00700 25.72400
C  -1.43600 28.08200 26.26600
C  -1.71500 28.02600 27.61800
C  -2.50500 26.86100 27.87900
C  -0.56900 29.00300 25.50500
C  -1.48800 28.72500 28.87900
O  -0.85700 29.74900 29.14400
C  -2.20400 27.82300 29.99100
C  -1.33100 27.35800 31.14000
O  -0.27500 26.85700 30.99500
O  -1.78500 27.65900 32.41200
C  -0.99100 27.27600 33.53200
H  -6.17500 22.11500 29.99800
H  -5.61200 22.00700 23.60900
H  -1.97000 27.31600 23.66200
H  -3.63300 25.64000 31.89600
H  -6.10000 24.21400 31.46100
H  -3.61400 23.68200 32.83500
H  -3.83300 22.37400 31.61300
H  -5.13900 22.79500 32.69300
H  -6.37000 26.64400 31.31000
H  -5.16900 27.63900 30.76600
H  -6.04700 27.97800 33.09200
H  -4.25600 28.01600 32.78600
H  -7.16800 19.15800 28.07900
H  -8.32700 20.28100 28.64700
H  -6.65000 20.08400 29.33800
H  -9.11100 19.60100 25.77200
H  -7.77400 18.49600 26.19700
H  -8.46300 18.45700 24.58700
H  -5.49100 24.39000 21.94500
H  -2.61900 25.47200 22.04800
H  -3.86400 22.07100 22.06800
H  -2.86100 23.23000 21.15200
H  -4.52000 22.98200 20.66500
H  -4.54700 27.52000 22.66700
H  -5.38800 26.56900 21.42100
H  -2.73600 26.92000 20.38500
H  -3.26400 28.53000 21.12700
H  -4.08000 27.78100 19.86100
H  0.15500 29.36300 26.23700
H  -1.23500 29.77500 25.11800
H  -0.12500 28.37900 24.73000
H  -2.95900 28.39500 30.52900
H  -1.39500 27.97700 34.26300
H  0.09000 27.26600 33.39500
H  -1.33600 26.29000 33.84000

