158

Mg 41.04400 40.85400 26.99300
C  40.54600 43.20100 29.60700
C  42.16700 38.69400 29.27500
C  41.78700 38.71000 24.42900
C  40.40400 43.31200 24.68000
N  41.25700 40.94300 29.22100
C  40.95600 41.95900 30.04900
C  40.98600 41.51400 31.56900
C  41.56200 40.04200 31.39200
C  41.71500 39.85900 29.87700
C  42.89000 39.84800 32.17900
C  39.57600 41.56900 32.23800
C  39.41000 42.43800 33.51200
H  39.05800 41.88100 34.96900
N  41.82300 38.95500 26.88100
C  42.17600 38.25400 27.94900
C  42.62500 36.94400 27.49600
C  42.45500 36.84000 26.08800
C  41.98000 38.19000 25.79100
C  43.26300 35.97900 28.41900
C  42.60400 35.68500 25.20500
O  42.52100 35.87000 23.96900
C  42.88900 34.30000 25.66200
N  41.00600 40.88000 24.88700
C  41.35100 39.89100 23.98200
C  41.09200 40.20800 22.52100
C  40.81700 41.77700 22.62700
C  40.65400 41.99800 24.18500
C  42.17000 39.88500 21.39600
C  39.53900 42.29700 21.92500
C  39.88000 43.45600 21.00000
N  40.34000 42.79200 27.03000
C  40.12400 43.70900 26.02800
C  39.95200 44.97700 26.53800
C  39.95900 44.82300 27.87900
C  40.30600 43.48200 28.20000
C  39.74400 46.26700 25.78200
C  39.80900 45.51800 29.17600
O  39.40100 46.63500 29.42000
C  40.17300 44.49100 30.31200
C  41.31100 45.00400 31.17600
O  42.46600 45.08900 30.84800
O  40.84600 45.28300 32.45300
C  41.73900 45.98700 33.40500
H  42.49800 37.96000 30.01300
H  41.96300 38.02900 23.59400
H  40.20700 44.09900 23.94900
H  41.71300 42.10700 32.12500
H  40.76300 39.40200 31.76900
H  43.12800 40.78200 32.68800
H  43.69000 39.73200 31.44800
H  43.02000 39.02700 32.88500
H  39.12200 40.61600 32.50900
H  38.90500 42.03900 31.51900
H  38.56300 43.08800 33.29400
H  40.30200 43.03100 33.71500
H  42.58800 35.21800 28.81000
H  43.71000 36.44400 29.29800
H  44.03600 35.44000 27.87200
H  42.21400 34.10900 26.49600
H  43.92200 34.30100 26.00800
H  42.76100 33.58100 24.85200
H  40.16600 39.68400 22.28300
H  41.66900 42.41300 22.38500
H  42.62400 40.78000 20.97000
H  41.73400 39.25100 20.62400
H  42.97800 39.40500 21.94800
H  38.76300 42.64700 22.60600
H  39.16700 41.53800 21.23700
H  39.10100 44.20100 21.15900
H  39.93300 43.13700 19.95900
H  40.83500 43.95900 21.15000
H  39.15100 46.99800 26.33200
H  39.28000 46.11400 24.80800
H  40.72600 46.73300 25.70000
H  39.32700 44.23500 30.95000
H  42.72600 46.07900 32.95100
H  41.82500 45.31100 34.25600
H  41.19700 46.91600 33.58200
Mg 0.13900 43.73100 25.51100
C  2.39300 43.79300 28.16900
C  -2.27300 42.75100 27.77500
C  -1.88200 42.99800 22.95900
C  2.85300 44.12700 23.32400
N  0.09300 43.29000 27.78700
C  1.13900 43.52500 28.62600
C  0.64600 43.57500 30.11300
C  -0.79800 42.97500 29.99200
C  -1.06200 43.03000 28.44800
C  -0.95500 41.60100 30.55400
C  0.74000 45.07900 30.58900
C  0.62000 45.18000 32.16600
H  0.47800 43.97500 33.14800
N  -1.85800 43.16200 25.42500
C  -2.64700 42.80500 26.44900
C  -4.04200 42.62500 25.99500
C  -3.92700 42.65500 24.62700
C  -2.48900 42.95800 24.24200
C  -5.25000 42.47200 26.86200
C  -5.06900 42.54000 23.56000
O  -4.84000 42.62400 22.31600
C  -6.54200 42.41600 23.94700
N  0.49000 43.40600 23.41500
C  -0.50500 43.17800 22.56600
C  -0.10600 43.34500 21.07600
C  1.38200 43.84600 21.21200
C  1.60800 43.87700 22.73000
C  -0.35800 41.98000 20.23900
C  1.68200 45.20100 20.38600
C  2.21800 45.05500 18.90300
N  2.21500 44.03400 25.64900
C  3.22700 44.18100 24.69900
C  4.56700 44.18700 25.34700
C  4.29300 44.10600 26.73800
C  2.84400 43.94000 26.83500
C  5.92400 44.29300 24.71000
C  4.88000 43.99400 28.05200
O  6.02300 43.77100 28.41600
C  3.65200 44.01600 29.03600
C  3.85400 42.85600 30.02000
O  3.77100 41.62600 29.77400
O  4.18200 43.41400 31.23600
C  4.42700 42.44600 32.30300
H  -3.01400 42.40700 28.50000
H  -2.54800 42.97700 22.09400
H  3.69300 44.15600 22.62700
H  1.27800 42.92900 30.72200
H  -1.47700 43.61200 30.55900
H  -1.33300 40.94900 29.76700
H  -1.60400 41.71400 31.42200
H  -0.01100 41.18300 30.90500
H  -0.13500 45.56900 30.16000
H  1.65700 45.57300 30.27000
H  -0.14200 45.95900 32.17200
H  1.53200 45.51100 32.66400
H  -5.85500 41.68700 26.41000
H  -5.89500 43.34900 26.81400
H  -5.06700 42.20100 27.90200
H  -6.86000 43.27100 24.54400
H  -6.46600 41.45700 24.45900
H  -7.02600 42.29100 22.97900
H  -0.64800 44.18300 20.63600
H  1.97200 43.06200 20.73600
H  -1.09200 42.14700 19.45000
H  -0.85700 41.23600 20.85900
H  0.62100 41.57400 19.98400
H  2.28900 45.92600 20.92800
H  0.68500 45.63800 20.33200
H  1.28800 45.23200 18.36300
H  2.55900 44.04400 18.68100
H  3.05600 45.70600 18.65300
H  6.59300 44.76900 25.42600
H  5.89400 44.89400 23.80100
H  6.26700 43.29000 24.45700
H  3.79700 44.98100 29.52200
H  5.43100 42.02500 32.24400
H  3.67900 41.66800 32.15400
H  4.28000 42.93100 33.26900

