158

Mg 45.15200 4.80200 46.62300
C  43.04400 7.73900 46.43100
C  42.24800 2.96400 46.69800
C  47.19800 2.34500 46.76500
C  47.92400 7.05600 46.63600
N  42.93800 5.36600 46.37300
C  42.26200 6.55800 46.38500
C  40.75100 6.46500 46.36400
C  40.56800 4.93000 46.53900
C  42.00100 4.36300 46.63500
C  39.58400 4.50400 47.63200
C  40.09100 7.07000 45.13000
C  40.94700 7.18900 43.85400
H  40.30900 7.18400 42.43500
N  44.75200 2.95600 46.79100
C  43.45700 2.31500 46.69100
C  43.73300 0.88700 46.64200
C  45.15400 0.69200 46.79000
C  45.77700 2.05100 46.76700
C  42.60200 -0.14300 46.66000
C  45.89200 -0.64100 46.85800
O  45.17500 -1.66300 46.77900
C  47.41200 -0.77100 46.97100
N  47.22500 4.72500 46.50700
C  47.84000 3.51800 46.68800
C  49.38300 3.61800 46.72200
C  49.59500 5.14800 46.69400
C  48.16600 5.65400 46.51400
C  49.98800 2.86900 47.98900
C  50.66900 5.69200 45.67300
C  51.77600 6.64300 46.20400
N  45.45000 6.90700 46.50900
C  46.63800 7.64500 46.61400
C  46.30200 9.09000 46.69800
C  44.96800 9.13700 46.54400
C  44.44700 7.82500 46.43900
C  47.27600 10.21900 46.80500
C  43.80600 9.96400 46.56400
O  43.66800 11.15400 46.61200
C  42.53100 9.07100 46.45200
C  41.60800 9.29200 47.72300
O  41.67600 8.66500 48.79800
O  40.79400 10.40800 47.54700
C  39.84200 10.76900 48.62400
H  41.31400 2.39800 46.69600
H  47.93000 1.53600 46.72800
H  48.75200 7.76300 46.71500
H  40.48500 7.02000 47.26300
H  40.23400 4.50100 45.59400
H  40.07600 3.80200 48.30500
H  38.70000 4.01600 47.22200
H  39.15800 5.35400 48.16700
H  39.68700 8.03300 45.44200
H  39.27000 6.47700 44.72600
H  41.74300 6.44800 43.92300
H  41.35700 8.19900 43.87400
H  42.55600 -0.72100 45.73700
H  41.58600 0.24200 46.75100
H  42.83300 -0.79100 47.50500
H  47.59600 -1.84500 46.95100
H  47.70000 -0.32300 47.92100
H  47.86900 -0.35200 46.07400
H  49.76300 3.22100 45.78100
H  49.88700 5.57300 47.65500
H  49.07100 2.69700 48.55300
H  50.61200 3.58600 48.52100
H  50.49200 1.91900 47.81000
H  50.11800 6.13000 44.84100
H  51.20800 4.83900 45.26100
H  52.72800 6.17400 45.95400
H  51.85200 6.87300 47.26700
H  51.76500 7.55700 45.61100
H  46.75900 11.14100 46.53800
H  48.03100 10.10100 46.02700
H  47.82900 10.15800 47.74200
H  41.96400 9.38800 45.57800
H  40.36500 11.37000 49.36700
H  39.45700 9.91100 49.17500
H  38.92600 11.26800 48.30600
Mg 56.42000 24.89700 44.74900
C  53.70000 26.92700 43.57100
C  54.81000 22.23800 43.42500
C  59.16000 23.25700 45.05100
C  58.12500 27.97900 45.47900
N  54.56800 24.64000 43.53300
C  53.58200 25.58000 43.17800
C  52.28000 24.87400 42.93600
C  52.57500 23.43400 43.29500
C  54.10100 23.43500 43.42000
C  51.88700 22.79100 44.57200
C  51.92500 25.00100 41.46000
C  50.58400 24.47500 41.03600
H  50.68000 23.24900 40.10800
N  56.90400 22.98400 44.28600
C  56.14400 21.99300 43.69400
C  56.87200 20.70500 43.69300
C  58.08600 20.92000 44.41400
C  58.15300 22.43700 44.61100
C  56.36000 19.44600 43.03000
C  59.23500 19.98800 44.62100
O  59.08800 18.76300 44.34000
C  60.47700 20.39600 45.20700
N  58.41300 25.57600 45.12000
C  59.34300 24.64100 45.17500
C  60.72000 25.29900 45.50700
C  60.40200 26.85300 45.57900
C  58.88900 26.82900 45.34500
C  61.32400 24.84700 46.81900
C  61.20000 27.71100 44.51100
C  62.42400 28.56100 45.01700
N  55.98100 26.96200 44.69000
C  56.75200 28.05900 45.18100
C  55.87000 29.21300 45.16800
C  54.67800 28.83200 44.54800
C  54.81200 27.47500 44.25600
C  56.27300 30.55400 45.60200
C  53.37900 29.25900 44.07100
O  52.93000 30.38300 44.08700
C  52.62800 28.09300 43.45500
C  52.19500 28.54800 42.09700
O  52.86600 29.16900 41.29900
O  50.90900 28.18500 41.86100
C  50.18500 28.70100 40.64500
H  54.13300 21.45400 43.08000
H  60.16800 22.83600 45.06000
H  58.79200 28.79400 45.76900
H  51.43900 25.31100 43.47400
H  52.31300 22.78500 42.46000
H  51.16700 23.56200 44.84700
H  52.60500 22.62200 45.37500
H  51.47300 21.84200 44.23100
H  52.70500 24.53800 40.85600
H  51.96200 26.03700 41.12300
H  50.01300 25.21200 40.47200
H  49.91400 24.14900 41.83200
H  57.19100 18.78700 42.78100
H  55.86500 19.85900 42.15000
H  55.58700 19.05300 43.69000
H  61.15700 20.82200 44.46800
H  61.01500 19.53300 45.59800
H  60.34100 21.02800 46.08400
H  61.31300 24.98500 44.64800
H  60.52000 27.29700 46.56700
H  62.09200 24.11500 46.57000
H  60.55300 24.41300 47.45500
H  61.94800 25.64700 47.21900
H  60.54500 28.49100 44.12300
H  61.51300 27.06000 43.69500
H  62.36700 29.55600 44.57700
H  63.35000 28.03000 44.79300
H  62.34400 28.57800 46.10400
H  56.11300 30.58400 46.68000
H  55.53300 31.18100 45.10600
H  57.25400 30.89700 45.27200
H  51.68500 27.97500 43.98900
H  50.82400 28.63900 39.76400
H  49.83800 29.73000 40.74000
H  49.34800 28.01200 40.53300

