158

Mg 2.30500 -2.44200 43.38800
C  5.46000 -1.05400 42.68200
C  0.85900 0.18200 41.69600
C  -0.62800 -4.06500 43.74500
C  3.96500 -5.18200 44.73600
N  3.13600 -0.73500 42.15800
C  4.41900 -0.31200 42.13800
C  4.63800 0.99700 41.40400
C  3.17600 1.42400 41.25300
C  2.26200 0.26200 41.79600
C  2.71500 2.81100 41.86200
C  5.42700 0.97900 40.06700
C  5.94000 2.38900 39.58700
H  5.87600 2.82800 38.14100
N  0.43200 -2.05100 42.69700
C  -0.00500 -0.85200 42.13800
C  -1.40100 -0.87000 41.86100
C  -1.86000 -2.14300 42.41400
C  -0.70300 -2.81700 43.01500
C  -2.13800 0.27200 41.15400
C  -3.33800 -2.57000 42.52200
O  -4.29400 -1.93400 42.05400
C  -3.69200 -3.83300 43.19400
N  1.77000 -4.52000 43.94000
C  0.46100 -4.85600 44.13700
C  0.33100 -6.17600 44.89300
C  1.81400 -6.53400 45.22000
C  2.56900 -5.32700 44.59000
C  -0.69900 -6.09600 46.09100
C  2.36500 -7.87800 44.78200
C  2.70400 -7.98100 43.32100
N  4.26300 -3.03600 43.67900
C  4.75600 -4.09400 44.35600
C  6.16000 -3.95900 44.52700
C  6.45800 -2.75700 43.92200
C  5.25700 -2.25000 43.38300
C  7.04900 -4.95800 45.26300
C  7.57400 -1.90800 43.63300
O  8.75900 -2.01600 43.92700
C  6.92700 -0.77300 42.89600
C  7.16700 0.38400 43.74900
O  6.57800 0.74400 44.74300
O  8.19300 1.11500 43.19000
C  8.47600 2.45000 43.81600
H  0.42800 1.06900 41.22600
H  -1.47700 -4.73800 43.88600
H  4.52600 -5.93500 45.29300
H  5.15100 1.65200 42.10800
H  3.06400 1.42100 40.16800
H  2.00700 3.32400 41.21200
H  3.57700 3.46100 42.01200
H  2.21200 2.64900 42.81500
H  4.81900 0.60100 39.24600
H  6.39700 0.51300 40.24400
H  7.00900 2.47200 39.78000
H  5.37400 3.08000 40.21100
H  -1.86400 0.28300 40.09900
H  -1.86700 1.26700 41.50800
H  -3.21800 0.24300 41.30200
H  -3.40900 -4.76500 42.70700
H  -4.77600 -3.88000 43.29800
H  -3.37600 -3.80800 44.23700
H  -0.10200 -6.79600 44.10800
H  1.92400 -6.57500 46.30400
H  -0.23500 -6.15600 47.07500
H  -1.17200 -7.07100 45.97700
H  -1.41200 -5.27100 46.06500
H  1.61800 -8.64700 44.97900
H  3.25300 -8.11200 45.36900
H  2.39600 -7.18400 42.64400
H  2.25200 -8.90400 42.95900
H  3.77300 -8.11300 43.15200
H  6.49100 -5.63100 45.91500
H  7.90800 -4.40300 45.64000
H  7.50900 -5.69200 44.60100
H  7.44900 -0.55300 41.96500
H  7.54300 2.99600 43.96000
H  9.03000 2.94900 43.02100
H  9.05400 2.29200 44.72700
Mg 36.40000 48.97700 24.25400
C  36.42000 47.32000 27.45700
C  35.14000 51.70300 25.93600
C  35.62500 50.29400 21.21100
C  37.25000 45.96800 22.71500
N  35.77900 49.40700 26.47100
C  35.92500 48.63200 27.59200
C  35.72900 49.44100 28.88700
C  35.36500 50.82600 28.32700
C  35.38500 50.64300 26.82900
C  34.06400 51.47700 28.93600
C  36.99300 49.40600 29.86900
C  36.84200 48.96700 31.31600
H  35.48400 49.07100 31.96500
N  35.48300 50.75300 23.65400
C  35.11200 51.75500 24.51500
C  34.61800 52.90600 23.71400
C  34.80000 52.57100 22.36600
C  35.30400 51.17000 22.33200
C  34.08800 54.15800 24.32500
C  34.47100 53.41200 21.13200
O  34.73200 53.05200 20.03400
C  33.96900 54.82300 21.28700
N  36.40300 48.24400 22.27000
C  36.10200 48.98000 21.14200
C  36.34900 48.17900 19.81600
C  36.91100 46.83100 20.35300
C  36.92800 47.01500 21.89000
C  35.05100 47.99300 18.94600
C  38.21900 46.35800 19.53900
C  39.55700 46.95200 20.00100
N  36.88500 47.05000 24.88000
C  37.22800 45.90100 24.16700
C  37.42000 44.76800 25.05500
C  37.21400 45.31500 26.35300
C  36.76800 46.66400 26.20400
C  37.88600 43.36900 24.59000
C  37.20500 44.91900 27.82100
O  37.45100 43.82700 28.46900
C  36.64200 46.24900 28.53600
C  35.38300 45.94900 29.29700
O  34.26200 46.04800 28.92100
O  35.70300 45.37400 30.48800
C  34.59600 44.89200 31.31800
H  34.94300 52.58700 26.54500
H  35.35400 50.76900 20.26600
H  37.50900 45.02600 22.22900
H  34.85100 49.01000 29.36800
H  36.07700 51.62500 28.53700
H  33.55800 52.07200 28.17600
H  34.31600 52.14300 29.76100
H  33.37900 50.70500 29.28700
H  37.43600 50.39600 29.98000
H  37.83200 48.79700 29.53300
H  37.56700 49.54200 31.89100
H  37.04900 47.89800 31.27800
H  34.75300 55.02100 24.30200
H  33.76900 53.96600 25.34900
H  33.16100 54.38600 23.79800
H  34.57200 55.34100 22.03300
H  32.90600 54.94500 21.49900
H  34.18500 55.43100 20.40900
H  36.98600 48.73400 19.12700
H  36.17900 46.10300 20.00300
H  34.94600 48.74200 18.16000
H  34.23400 48.03300 19.66700
H  34.95100 47.01000 18.48600
H  38.05700 46.47100 18.46700
H  38.31800 45.29500 19.75500
H  40.05800 46.23100 20.64700
H  39.35800 47.93200 20.43600
H  40.09100 47.07800 19.05900
H  37.81600 42.75000 25.48500
H  38.86200 43.46700 24.11500
H  37.16900 43.05300 23.83200
H  37.36800 46.45900 29.32200
H  34.01000 44.12600 30.81000
H  33.94500 45.70300 31.64400
H  34.97000 44.56300 32.28800

