158

Mg 46.76200 24.81500 28.53000
C  47.60600 27.04400 31.11300
C  46.07300 22.52200 30.95800
C  46.41100 22.63400 26.00900
C  47.86600 27.25800 26.24700
N  46.80800 24.87200 30.77300
C  47.06500 25.85200 31.58900
C  46.92500 25.47100 33.10500
C  46.72200 23.96500 32.98600
C  46.40400 23.76500 31.47600
C  47.76000 22.89000 33.47600
C  45.64000 26.21700 33.74000
C  45.86100 26.48000 35.24100
H  44.71400 26.27500 36.22300
N  46.18100 22.82600 28.48600
C  45.97800 22.11200 29.63200
C  45.68900 20.80800 29.18500
C  45.66800 20.80300 27.69400
C  46.07800 22.15100 27.31500
C  45.39300 19.66600 30.23400
C  45.36500 19.63800 26.69600
O  45.49400 19.72700 25.45700
C  44.91600 18.36600 27.25900
N  47.24400 24.91100 26.47100
C  47.03100 23.89000 25.63400
C  47.43600 24.27100 24.18200
C  47.40800 25.81300 24.22300
C  47.42000 26.05800 25.72200
C  48.85100 23.73900 23.56500
C  46.22700 26.43100 23.49300
C  44.85200 26.17000 24.23500
N  47.61300 26.76800 28.59300
C  47.94000 27.64700 27.58800
C  48.40500 28.88400 28.21400
C  48.31700 28.65600 29.57100
C  47.91600 27.36300 29.75800
C  49.11500 30.01700 27.42100
C  48.51500 29.28700 30.82500
O  48.88500 30.40500 31.11200
C  48.06100 28.28000 31.89800
C  49.04800 28.05900 32.96900
O  50.21200 27.67600 32.77200
O  48.40200 28.39800 34.18300
C  49.32800 28.48100 35.33800
H  45.84500 21.78500 31.73100
H  46.43200 21.99100 25.12700
H  48.19500 27.96500 25.48300
H  47.86700 25.73800 33.58500
H  45.78500 23.63200 33.43200
H  48.24100 22.28300 32.70800
H  47.33700 22.16800 34.17400
H  48.53200 23.46300 33.98900
H  44.78200 25.57900 33.52500
H  45.48100 27.17900 33.25300
H  46.13700 27.51200 35.45800
H  46.70300 25.87800 35.58500
H  45.47200 19.89400 31.29700
H  46.05400 18.79900 30.22200
H  44.39600 19.24600 30.10200
H  44.81300 17.58200 26.50900
H  44.04400 18.42200 27.91200
H  45.71700 18.01300 27.90900
H  46.61400 24.07700 23.49200
H  48.33300 26.19300 23.79000
H  49.55300 24.54700 23.35900
H  48.64600 23.25800 22.60800
H  49.12700 22.90500 24.21000
H  46.12300 26.10600 22.45800
H  46.30800 27.51700 23.45200
H  43.95900 26.09300 23.61400
H  44.66900 27.01100 24.90300
H  44.85600 25.16600 24.65900
H  49.41500 29.76900 26.40300
H  49.99600 30.29800 27.99900
H  48.49300 30.91300 27.41100
H  47.11800 28.73900 32.19600
H  48.83400 27.99400 36.17900
H  49.45100 29.55100 35.50600
H  50.24600 27.92200 35.15600
Mg 6.52500 54.38300 40.59100
C  6.19300 50.90300 40.56300
C  9.94500 53.87400 39.99300
C  6.80900 57.52900 40.01400
C  3.10300 54.62200 41.11000
N  7.87400 52.60600 40.21500
C  7.52100 51.26000 40.21000
C  8.75800 50.37700 40.05100
C  9.94500 51.34700 40.38000
C  9.23400 52.71100 40.18500
C  10.74600 51.01700 41.68600
C  8.92000 49.81200 38.57100
C  9.07000 50.75500 37.34500
H  7.81500 51.10000 36.58500
N  8.05300 55.52400 39.95000
C  9.41900 55.16300 39.82000
C  10.19500 56.29000 39.61100
C  9.31900 57.41400 39.63900
C  7.95800 56.88000 39.79100
C  11.71600 56.29300 39.34600
C  9.81900 58.87500 39.45000
O  11.02000 59.05200 39.29900
C  8.90300 60.17300 39.51500
N  5.06700 55.81700 40.34800
C  5.49800 57.10100 40.30200
C  4.32700 58.09400 40.48600
C  3.14200 57.16900 40.81900
C  3.81200 55.80700 40.77600
C  4.71700 59.26700 41.50600
C  1.87100 57.33000 39.94700
C  0.70000 58.03800 40.69100
N  4.94800 53.12300 40.77900
C  3.61400 53.35000 41.08400
C  2.93100 52.14900 41.37400
C  3.98400 51.10200 41.15700
C  5.14800 51.79200 40.82100
C  1.43800 51.97900 41.75000
C  4.21900 49.73900 41.09500
O  3.48200 48.81600 41.26800
C  5.64500 49.45000 40.72300
C  5.64400 48.69400 39.43200
O  5.21300 49.07600 38.38200
O  6.32400 47.53700 39.65300
C  6.14600 46.60000 38.61600
H  11.03500 53.91900 39.95200
H  6.90400 58.61100 40.13300
H  2.07100 54.87500 41.36400
H  8.73400 49.55800 40.76900
H  10.68200 51.25800 39.58200
H  10.70800 51.86300 42.37200
H  11.73000 50.58600 41.49500
H  10.22900 50.21900 42.21800
H  7.97000 49.31900 38.36700
H  9.71000 49.06100 38.56200
H  9.80700 50.32900 36.66400
H  9.48800 51.70400 37.68100
H  11.95400 57.00800 38.55800
H  11.98000 55.31300 38.94800
H  12.22100 56.35600 40.31000
H  8.12200 60.06800 38.76200
H  9.59700 61.01100 39.44600
H  8.51800 60.20300 40.53400
H  4.26100 58.60100 39.52300
H  2.91700 57.38400 41.86400
H  5.65800 58.86800 41.88500
H  3.97400 59.35700 42.29800
H  4.87000 60.26100 41.08500
H  1.59600 56.42000 39.41300
H  2.11500 57.82900 39.00900
H  0.70100 59.11600 40.52600
H  0.72900 57.79500 41.75300
H  -0.29500 57.64500 40.48200
H  1.28900 50.97300 42.14200
H  0.76900 52.07900 40.89600
H  1.10300 52.66200 42.53000
H  6.11900 48.82900 41.48300
H  5.07700 46.39100 38.56000
H  6.80200 45.79100 38.93600
H  6.41700 47.00200 37.64000

