158

Mg -1.73900 17.78500 27.53200
C  -2.40100 15.50500 30.15000
C  -2.00100 20.23800 29.67300
C  -1.56100 19.74400 24.82100
C  -2.39000 14.94900 25.33200
N  -2.02400 17.78100 29.64400
C  -2.22600 16.78900 30.57600
C  -2.20700 17.32900 32.02700
C  -2.27800 18.90500 31.84100
C  -2.14400 19.00400 30.29600
C  -3.47300 19.70700 32.46300
C  -1.04500 16.82400 32.90400
C  -0.71000 17.70700 34.08100
H  -0.37800 16.91000 35.32100
N  -1.47800 19.69800 27.26000
C  -1.66600 20.62500 28.29800
C  -1.37100 21.93800 27.73300
C  -1.24700 21.79000 26.27000
C  -1.39900 20.37300 26.02900
C  -1.44000 23.21000 28.58500
C  -0.96000 22.97400 25.24300
O  -0.94600 22.75800 24.05400
C  -0.61000 24.33500 25.75200
N  -2.07400 17.43400 25.35800
C  -1.83000 18.41700 24.46400
C  -2.13100 17.89900 22.96700
C  -2.23400 16.32900 23.18600
C  -2.17600 16.16400 24.69300
C  -3.42700 18.54100 22.27900
C  -1.02000 15.53600 22.55100
C  0.25400 15.36600 23.34500
N  -2.22400 15.65900 27.64000
C  -2.41700 14.66700 26.67400
C  -2.83400 13.48700 27.34200
C  -2.77400 13.72000 28.67100
C  -2.42000 15.06600 28.84300
C  -3.09200 12.12400 26.80100
C  -2.96000 13.08200 30.00400
O  -3.28900 11.97200 30.31900
C  -2.67900 14.27200 31.01600
C  -1.37800 13.93200 31.60500
O  -0.32700 14.13300 31.04000
O  -1.53200 13.43500 32.88700
C  -0.37600 13.07000 33.71500
H  -1.98900 21.10000 30.34300
H  -1.56500 20.45400 23.99200
H  -2.46800 14.01700 24.76900
H  -3.13800 16.97500 32.46900
H  -1.33500 19.37400 32.11800
H  -3.06700 20.63900 32.85400
H  -3.96700 19.19300 33.28800
H  -4.11000 19.97800 31.62100
H  -0.19500 16.47100 32.31900
H  -1.44900 15.93600 33.38900
H  -1.38600 18.55000 34.22800
H  0.21800 18.14700 33.71600
H  -0.52300 23.78400 28.44900
H  -1.55400 23.02300 29.65300
H  -2.30900 23.73000 28.18100
H  -1.41100 24.78100 26.34200
H  -0.41500 24.92300 24.85500
H  0.28500 24.33300 26.37500
H  -1.23200 18.13500 22.39900
H  -3.18600 15.97500 22.78900
H  -3.85700 19.32200 22.90600
H  -4.19500 17.79500 22.07200
H  -3.13800 19.00200 21.33400
H  -0.50100 16.10500 21.77900
H  -1.45200 14.55100 22.37500
H  0.12700 15.59700 24.40300
H  1.18300 15.72100 22.90100
H  0.52000 14.31000 23.39800
H  -2.13700 11.75500 26.42700
H  -3.73400 12.11700 25.92000
H  -3.48300 11.47400 27.58400
H  -3.46700 14.45000 31.74800
H  -0.40200 11.98000 33.71200
H  -0.59200 13.38500 34.73600
H  0.60400 13.43100 33.40200
Mg 0.02700 7.99000 26.73800
C  0.84600 9.79600 29.64900
C  -0.22900 5.18900 28.70000
C  -0.11900 6.12900 23.80100
C  0.59200 10.80600 24.93500
N  0.40300 7.52400 28.95400
C  0.44800 8.43300 29.93900
C  0.15400 7.87500 31.32000
C  0.19900 6.33500 31.04300
C  0.18400 6.29800 29.46800
C  1.42600 5.65300 31.72500
C  -1.22500 8.44800 31.79100
C  -1.29200 9.06700 33.15100
H  -0.23200 8.84500 34.23000
N  -0.25700 5.93500 26.31300
C  -0.27300 4.94100 27.23900
C  -0.59800 3.62600 26.62400
C  -0.50800 3.85300 25.18400
C  -0.28500 5.37600 25.02900
C  -0.93100 2.37900 27.36600
C  -0.47600 2.89600 23.94900
O  -0.28200 3.22800 22.81000
C  -0.77700 1.35600 24.12100
N  0.49200 8.38300 24.62300
C  0.13300 7.48800 23.59200
C  0.10800 8.18200 22.23000
C  0.23400 9.74600 22.70000
C  0.41900 9.67000 24.20500
C  1.23200 7.68200 21.28200
C  -1.03200 10.61000 22.25800
C  -0.66800 11.75100 21.31600
N  0.59900 9.94700 27.12700
C  0.83000 10.99700 26.28300
C  1.23600 12.16000 27.02900
C  1.26500 11.75800 28.38000
C  0.93000 10.40100 28.36700
C  1.45200 13.52800 26.53500
C  1.61400 12.12900 29.71400
O  2.20200 13.10800 30.06300
C  1.24600 10.88200 30.61700
C  2.35700 10.45100 31.50600
O  3.11600 9.51200 31.40700
O  2.43100 11.35000 32.48700
C  3.69200 11.31300 33.19200
H  -0.24900 4.26900 29.28800
H  -0.19900 5.62800 22.83400
H  0.60900 11.74000 24.36900
H  0.92800 8.16400 32.03100
H  -0.74200 5.93700 31.42200
H  2.37800 5.86700 31.23900
H  1.20300 4.58900 31.65000
H  1.50000 5.94900 32.77200
H  -1.99100 7.67300 31.82700
H  -1.54100 9.17700 31.04500
H  -2.27800 8.76700 33.50700
H  -1.35600 10.13500 32.94200
H  -0.03700 1.81200 27.62600
H  -1.57000 1.84700 26.66100
H  -1.52200 2.55800 28.26400
H  -0.88200 0.90000 23.13700
H  -1.62000 1.08600 24.75700
H  0.12700 1.05500 24.65200
H  -0.82000 7.90100 21.73200
H  1.14600 10.21400 22.32800
H  1.93900 7.07800 21.85000
H  1.88100 8.42800 20.82500
H  0.82600 7.15600 20.41800
H  -1.43200 10.99700 23.19500
H  -1.79100 10.05400 21.70800
H  -1.50300 11.91800 20.63500
H  0.30900 11.73700 20.83300
H  -0.71800 12.67100 21.89700
H  2.53000 13.67100 26.46100
H  1.06100 14.27200 27.22800
H  0.92100 13.65800 25.59200
H  0.39700 11.14800 31.24600
H  4.46400 11.15400 32.43900
H  3.88500 10.48400 33.87300
H  3.90600 12.30400 33.59200

