158

Mg 1.82500 -1.68300 43.74900
C  5.14900 -0.71400 43.12700
C  0.88700 1.27000 42.29700
C  -1.26600 -2.81200 43.79900
C  3.03900 -4.78600 44.96000
N  2.90500 0.01600 42.84600
C  4.22400 0.13100 42.53300
C  4.58000 1.45500 41.72300
C  3.22700 2.26700 41.85200
C  2.31400 1.14300 42.39700
C  3.24600 3.47800 42.82400
C  5.16100 1.24200 40.31800
C  6.57900 1.79500 40.11100
H  6.72700 2.80400 38.87800
N  0.01900 -0.90200 42.98000
C  -0.11900 0.36000 42.46200
C  -1.53100 0.51800 42.17200
C  -2.17800 -0.66400 42.63100
C  -1.16900 -1.56500 43.14000
C  -2.03800 1.82300 41.60800
C  -3.64100 -1.01100 42.60000
O  -4.36700 -0.03800 42.35000
C  -4.20900 -2.33700 42.80800
N  0.99100 -3.61600 44.26500
C  -0.30400 -3.74900 44.22800
C  -0.85400 -5.10000 44.81300
C  0.60500 -5.72700 45.12700
C  1.63800 -4.66600 44.75700
C  -1.83200 -4.98500 46.05000
C  0.94900 -7.12300 44.55000
C  0.85400 -8.34500 45.48900
N  3.66200 -2.63800 44.00200
C  3.95100 -3.81800 44.61200
C  5.42200 -3.92200 44.64900
C  5.91300 -2.68000 44.17500
C  4.82000 -2.00000 43.69800
C  6.13100 -5.07300 45.19000
C  7.11600 -1.84600 43.89400
O  8.26200 -1.90800 44.22100
C  6.63200 -0.59800 43.18300
C  7.02000 0.56400 43.95500
O  6.44600 1.00500 44.93300
O  8.16800 1.22800 43.42500
C  8.47900 2.51800 44.18100
H  0.53800 2.27000 42.03000
H  -2.28600 -3.10300 44.06000
H  3.33400 -5.66700 45.53300
H  5.34000 1.92200 42.35000
H  2.89100 2.64900 40.88800
H  4.27400 3.77500 43.03200
H  2.74100 3.29400 43.77200
H  2.74200 4.36800 42.44700
H  4.50100 1.71500 39.59100
H  5.30100 0.18100 40.11100
H  7.31500 1.00600 39.95800
H  6.87200 2.26600 41.05000
H  -1.57000 2.00200 40.64000
H  -1.79000 2.65900 42.26300
H  -3.11400 1.66300 41.54100
H  -5.23100 -2.35800 42.42900
H  -4.24400 -2.44400 43.89300
H  -3.68900 -3.20100 42.39600
H  -1.25200 -5.76000 44.04300
H  0.73100 -5.76900 46.20900
H  -2.54000 -5.81000 45.98100
H  -2.37800 -4.04100 46.06900
H  -1.33200 -5.17000 47.00100
H  1.98800 -7.08200 44.22600
H  0.25900 -7.20700 43.71000
H  1.44800 -9.17800 45.11400
H  -0.18800 -8.66200 45.44200
H  1.17400 -8.21800 46.52400
H  5.54100 -5.62400 45.92200
H  7.03300 -4.69800 45.67200
H  6.47800 -5.76800 44.42500
H  7.06100 -0.56900 42.18200
H  7.86300 3.36000 43.86700
H  9.52100 2.74600 43.95600
H  8.48500 2.40300 45.26500
Mg 0.34100 43.72500 26.15700
C  2.47600 43.98000 28.91800
C  -2.26400 43.22700 28.24700
C  -1.56900 43.40200 23.48200
C  3.07700 44.33800 24.09900
N  0.16600 43.75200 28.37100
C  1.16700 43.87300 29.31800
C  0.64400 43.66200 30.76800
C  -0.84700 43.18000 30.46100
C  -1.00000 43.34300 28.92200
C  -1.16500 41.69600 30.91800
C  0.91800 44.86400 31.72000
C  0.95400 44.50500 33.26000
H  0.52600 43.07000 33.69000
N  -1.64100 43.34800 25.92000
C  -2.57900 43.22800 26.83300
C  -3.84600 42.92700 26.21100
C  -3.64200 42.95500 24.81900
C  -2.22500 43.20800 24.70500
C  -5.15000 42.76200 26.95700
C  -4.66600 42.64500 23.71800
O  -4.33500 42.57000 22.53800
C  -6.07300 42.45000 23.97800
N  0.71100 43.90000 24.07400
C  -0.24400 43.68900 23.15100
C  0.24000 43.94300 21.77200
C  1.59200 44.47300 21.99500
C  1.80300 44.26100 23.46300
C  0.07200 42.68900 20.83300
C  1.88600 45.93900 21.71600
C  2.10000 46.38300 20.25200
N  2.34600 43.99800 26.38200
C  3.35700 44.22100 25.44400
C  4.58000 44.35300 26.16500
C  4.30700 44.15700 27.50200
C  2.95800 44.00300 27.60400
C  5.83300 44.58500 25.38400
C  4.84300 44.03400 28.85000
O  6.00800 43.98800 29.21400
C  3.72500 44.01900 29.83000
C  3.84500 42.90400 30.80700
O  3.71800 41.74000 30.47500
O  4.17000 43.36900 32.08700
C  4.19000 42.32400 33.09500
H  -3.06000 42.89600 28.91800
H  -2.32900 43.36400 22.69900
H  3.99500 44.41800 23.51400
H  1.12500 42.74800 31.11500
H  -1.63800 43.77800 30.91300
H  -1.37200 40.93100 30.16900
H  -1.93000 41.72300 31.69400
H  -0.26500 41.32500 31.40700
H  0.15700 45.60700 31.48200
H  1.92200 45.22700 31.50200
H  0.29500 45.28900 33.63200
H  1.89900 44.73500 33.75200
H  -5.78500 43.64300 26.86000
H  -5.05800 42.42600 27.99000
H  -5.79200 41.97800 26.55600
H  -6.21600 41.54300 24.56400
H  -6.58300 42.34800 23.02000
H  -6.50200 43.34900 24.42000
H  -0.34500 44.76100 21.35300
H  2.23700 43.76700 21.47300
H  -0.94700 42.30300 20.87700
H  0.82600 41.94600 21.09300
H  0.21700 42.87100 19.76800
H  2.81200 46.23600 22.20600
H  1.08600 46.53600 22.15400
H  3.03000 46.93700 20.12300
H  1.35100 47.15100 20.06100
H  2.11000 45.52200 19.58400
H  6.54600 44.74000 26.19400
H  5.77200 45.33600 24.59700
H  6.12700 43.68000 24.85300
H  3.81600 44.93700 30.41100
H  5.19600 41.96700 33.31400
H  3.47300 41.52200 32.91700
H  3.87000 42.73600 34.05200

