158

Mg 46.95500 24.84500 28.00800
C  47.75900 26.93300 30.71000
C  46.17800 22.27400 30.34600
C  47.09000 22.52300 25.58800
C  48.19900 27.20700 25.86600
N  46.89100 24.63800 30.21500
C  47.23500 25.62300 31.11600
C  46.96200 25.15100 32.62400
C  46.70300 23.60300 32.39100
C  46.60200 23.48400 30.85600
C  47.86400 22.66100 32.92200
C  45.78800 25.95800 33.39100
C  46.27100 26.68000 34.67800
H  45.28100 27.00400 35.76600
N  46.51700 22.75800 27.93600
C  46.15000 21.91700 28.97800
C  45.91200 20.52500 28.44300
C  46.27500 20.54800 27.08600
C  46.61800 21.98500 26.78000
C  45.40900 19.35300 29.31800
C  46.45000 19.42800 26.03500
O  46.93700 19.57700 24.92300
C  46.12000 18.00900 26.52500
N  47.39500 24.84900 26.00200
C  47.44700 23.80700 25.19200
C  47.97100 24.24100 23.79700
C  47.84300 25.83100 23.91400
C  47.81200 25.99300 25.35400
C  49.43000 23.66600 23.60500
C  46.50800 26.34600 23.32600
C  46.72600 27.35600 22.09700
N  47.73300 26.76300 28.18000
C  48.28100 27.60500 27.24900
C  48.64500 28.88500 27.80600
C  48.40900 28.64900 29.21700
C  47.97900 27.34400 29.37900
C  49.17000 29.95600 27.05000
C  48.46400 29.24000 30.48300
O  48.79900 30.34700 30.84700
C  48.13100 28.10300 31.53000
C  49.28300 27.76800 32.37700
O  50.33800 27.21800 31.97900
O  49.07500 28.27500 33.59300
C  50.03700 27.88800 34.67300
H  45.87600 21.42900 30.96700
H  47.24800 21.89900 24.70600
H  48.61600 27.94600 25.18000
H  47.89200 25.18500 33.19100
H  45.73200 23.28400 32.76900
H  47.44000 21.83700 33.49600
H  48.62600 23.15500 33.52600
H  48.26900 22.15700 32.04400
H  45.05800 25.22400 33.73200
H  45.35000 26.65600 32.67800
H  46.85300 27.49800 34.25300
H  47.11200 26.07500 35.01700
H  44.67500 18.82700 28.70800
H  45.10200 19.72400 30.29600
H  46.24800 18.69300 29.53700
H  46.63200 17.77700 27.45900
H  46.60000 17.36900 25.78500
H  45.05300 17.83300 26.66600
H  47.32500 23.76400 23.06000
H  48.69000 26.28200 23.39600
H  49.92700 23.52200 24.56400
H  50.12300 24.30700 23.06000
H  49.39700 22.67200 23.16000
H  45.89200 26.90500 24.03100
H  45.84200 25.52200 23.07000
H  47.77000 27.65500 22.00300
H  46.15400 28.21700 22.44200
H  46.28500 26.90800 21.20700
H  48.71300 29.98500 26.06100
H  50.25500 29.90300 26.96200
H  48.98500 30.85300 27.64100
H  47.30100 28.61100 32.02100
H  50.40700 28.75000 35.22900
H  50.84500 27.34800 34.17800
H  49.57100 27.16600 35.34400
Mg 6.50700 53.66200 41.82100
C  5.53800 50.19400 41.50400
C  9.17600 52.94100 39.91100
C  6.67200 56.96300 41.03700
C  3.32600 54.27900 43.05700
N  7.27900 51.72800 40.94100
C  6.72600 50.51800 40.83900
C  7.68400 49.49000 40.27900
C  8.95500 50.35500 40.01300
C  8.46000 51.78800 40.31400
C  10.27500 49.93900 40.71400
C  7.16700 48.79700 38.98400
C  6.22200 49.59900 38.05500
H  5.41800 48.82200 36.97400
N  7.88100 54.83000 40.89700
C  8.96100 54.33600 40.14000
C  9.76000 55.38700 39.63600
C  9.12800 56.60500 40.08500
C  7.77200 56.14800 40.66200
C  11.06500 55.33300 38.84700
C  9.68900 58.02100 40.06900
O  10.85400 58.15000 39.62000
C  9.04400 59.27300 40.70000
N  5.09300 55.33300 41.76900
C  5.42100 56.66100 41.57900
C  4.35700 57.70300 41.97000
C  3.37300 56.80400 42.67200
C  3.98900 55.38100 42.58700
C  4.86800 58.87700 42.81300
C  1.90400 56.84500 42.12500
C  0.71000 56.85700 43.15100
N  4.84100 52.51300 42.40800
C  3.65200 52.93100 42.90800
C  2.87500 51.75200 43.23100
C  3.61400 50.66300 42.73700
C  4.75900 51.14300 42.19100
C  1.53500 51.81100 43.92700
C  3.57500 49.19600 42.55700
O  2.70700 48.41100 42.85700
C  4.94800 48.83300 41.82800
C  4.59400 47.89800 40.70400
O  3.84400 48.15600 39.74800
O  5.29300 46.75300 40.91900
C  4.81600 45.62200 40.15600
H  9.96200 52.68700 39.19700
H  6.86100 57.99900 40.75000
H  2.33800 54.44100 43.49300
H  7.85800 48.66900 40.97400
H  9.25000 50.38600 38.96400
H  9.95700 49.42600 41.62100
H  10.85400 50.82300 40.98100
H  10.87600 49.29100 40.07700
H  6.75300 47.81700 39.22300
H  8.05100 48.61700 38.37200
H  6.86600 50.17800 37.39300
H  5.52000 50.18700 38.64700
H  11.20500 54.41800 38.27100
H  11.97600 55.37900 39.44300
H  11.00500 56.01600 37.99900
H  8.51400 58.89300 41.57400
H  8.39600 59.78800 39.99100
H  9.77000 60.02900 40.99700
H  3.94400 58.15200 41.06600
H  3.29300 57.02300 43.73700
H  4.42400 58.82600 43.80700
H  4.78700 59.80700 42.24900
H  5.94500 58.72000 42.88200
H  1.86700 56.02300 41.41000
H  1.84200 57.66600 41.41100
H  1.12000 56.43100 44.06700
H  -0.00700 56.11100 42.80700
H  0.24800 57.83800 43.25700
H  0.93200 52.65100 43.58200
H  1.69800 51.96900 44.99300
H  1.23100 50.80200 43.65100
H  5.58200 48.39200 42.59800
H  5.45100 44.76000 40.35700
H  4.82500 45.89000 39.09900
H  3.77900 45.48500 40.46300

