158

Mg 2.20700 -1.66000 44.68400
C  5.47400 -0.85200 44.25300
C  1.46800 0.80800 42.37600
C  -0.88500 -2.75200 44.60100
C  3.19900 -4.52300 46.63900
N  3.40000 -0.27200 43.25600
C  4.71500 -0.08900 43.42100
C  5.24500 0.98700 42.41000
C  3.91400 1.61800 41.83500
C  2.87300 0.74100 42.60600
C  3.76100 3.12400 41.98000
C  6.23000 0.48700 41.29500
C  7.42500 1.44900 41.09600
H  7.63200 1.91300 39.65300
N  0.56700 -1.06000 43.70400
C  0.43400 0.02400 42.86100
C  -1.02800 0.28000 42.56900
C  -1.65500 -0.86200 43.02700
C  -0.69100 -1.59200 43.86100
C  -1.47500 1.41700 41.67500
C  -3.15200 -1.18200 42.70800
O  -3.81400 -0.62000 41.86400
C  -3.84800 -2.26500 43.42700
N  1.29000 -3.53600 45.42900
C  -0.05100 -3.62500 45.34300
C  -0.61600 -4.90500 46.05700
C  0.77500 -5.53700 46.63100
C  1.81800 -4.48300 46.21500
C  -1.58900 -4.51800 47.23300
C  1.09900 -6.90400 45.94900
C  1.23400 -8.18600 46.85500
N  3.93300 -2.54400 45.35300
C  4.19200 -3.68000 46.17000
C  5.62900 -3.84300 46.32500
C  6.19800 -2.67600 45.66300
C  5.10700 -1.91200 45.11300
C  6.37000 -4.90000 47.17500
C  7.40100 -1.87700 45.32800
O  8.57100 -2.15300 45.51200
C  6.97400 -0.66300 44.51300
C  7.19300 0.67400 45.21800
O  6.68600 1.12900 46.23500
O  7.87700 1.45600 44.41100
C  8.14600 2.84300 44.80900
H  1.19200 1.55800 41.63100
H  -1.92300 -3.06900 44.72100
H  3.52000 -5.45000 47.11900
H  5.69500 1.76000 43.03300
H  3.83300 1.46000 40.76000
H  3.57600 3.46400 40.96100
H  4.68600 3.59100 42.31600
H  2.90800 3.38500 42.60600
H  5.64800 0.43700 40.37400
H  6.44900 -0.53900 41.59000
H  8.27500 0.77900 41.23000
H  7.39400 2.27700 41.80400
H  -2.54800 1.54200 41.52800
H  -0.98200 1.19300 40.73000
H  -0.90900 2.27600 42.03600
H  -3.79100 -2.18000 44.51200
H  -3.50200 -3.25200 43.12100
H  -4.91300 -2.12100 43.24400
H  -1.06900 -5.58000 45.33100
H  0.82400 -5.57000 47.71900
H  -1.05200 -4.23900 48.14000
H  -2.14400 -5.43100 47.44700
H  -2.27800 -3.68900 47.07400
H  2.07800 -6.75900 45.49200
H  0.37100 -7.13000 45.16900
H  2.27800 -8.48600 46.93900
H  0.86900 -9.08700 46.36100
H  0.78800 -8.05200 47.84000
H  5.75300 -5.02300 48.06500
H  7.43500 -4.81600 47.39200
H  6.35000 -5.77600 46.52700
H  7.50800 -0.57500 43.56700
H  7.24800 3.38200 45.10900
H  8.61200 3.48600 44.06300
H  8.85400 2.85300 45.63800
Mg 9.65200 47.20800 26.74700
C  7.83100 47.03000 29.67400
C  12.34300 48.45200 28.60100
C  11.40600 47.59400 23.91300
C  6.73700 46.80700 24.85300
N  10.05000 47.55700 28.86300
C  9.21500 47.32600 29.90300
C  9.75300 47.72900 31.24400
C  11.09100 48.55200 30.89500
C  11.15800 48.29100 29.33900
C  11.02900 50.10600 31.05100
C  10.00800 46.60200 32.23400
C  9.75500 46.96300 33.74600
H  10.03900 45.77900 34.70900
N  11.59000 47.65900 26.38200
C  12.55700 48.18700 27.20500
C  13.79000 48.28700 26.49500
C  13.56100 47.94200 25.18700
C  12.14500 47.68800 25.10500
C  15.08300 48.70500 27.17600
C  14.49600 47.83000 24.08800
O  14.02100 47.47100 23.03100
C  15.98700 48.11500 24.22400
N  9.14200 47.24500 24.61400
C  10.04700 47.45200 23.66400
C  9.47300 47.33500 22.27700
C  7.89500 47.16500 22.59600
C  7.89500 47.06500 24.13500
C  9.87300 48.57600 21.43900
C  7.11700 45.97800 21.83900
C  7.14900 44.62200 22.59400
N  7.62100 46.82500 27.16800
C  6.53200 46.73700 26.27400
C  5.34100 46.59700 27.08700
C  5.78000 46.79000 28.39500
C  7.23600 46.84300 28.43300
C  3.92800 46.39200 26.57400
C  5.33400 46.76400 29.82600
O  4.20700 46.50200 30.26500
C  6.68900 46.87200 30.65800
C  6.86400 45.62900 31.53400
O  6.90100 44.45700 31.13500
O  6.66400 45.86800 32.85300
C  6.34900 44.68700 33.71500
H  13.13900 49.11400 28.94800
H  11.86800 47.89400 22.97000
H  5.83400 46.68900 24.25000
H  9.12200 48.47500 31.72800
H  11.94400 48.08600 31.38900
H  11.16600 50.48400 30.03800
H  11.86000 50.39300 31.69600
H  10.06600 50.52200 31.34600
H  11.02400 46.21100 32.27500
H  9.26200 45.83500 32.02400
H  8.71200 47.27800 33.77900
H  10.27200 47.84500 34.12200
H  15.09900 48.54300 28.25400
H  15.39300 49.73900 27.02800
H  15.93300 48.08300 26.89600
H  16.44000 48.36900 23.26500
H  16.56700 47.30500 24.66500
H  16.03000 49.00300 24.85400
H  9.94200 46.51000 21.74100
H  7.36700 48.05600 22.25600
H  10.61800 49.23600 21.88300
H  9.04200 49.25100 21.23300
H  10.29800 48.24100 20.49300
H  7.65300 45.82000 20.90300
H  6.09500 46.27600 21.60200
H  6.20600 44.49800 23.12700
H  7.93500 44.54400 23.34400
H  7.31300 43.79400 21.90300
H  3.93600 46.62000 25.50900
H  3.23500 47.10800 27.01700
H  3.59400 45.38800 26.83700
H  6.63900 47.65700 31.41300
H  7.28100 44.12400 33.73900
H  5.57800 44.10900 33.20500
H  6.10400 44.99700 34.73100

