158

Mg 25.68800 1.74000 29.69300
C  27.69100 1.65700 32.36500
C  22.96900 2.16900 31.83500
C  23.60900 1.40800 27.00500
C  28.31800 0.56100 27.52800
N  25.35000 1.89800 31.86700
C  26.40500 2.09300 32.71200
C  25.96200 2.43000 34.08200
C  24.40700 2.45800 33.95200
C  24.22400 2.23600 32.43400
C  23.54100 1.48500 34.86300
C  26.49600 3.78800 34.65000
C  27.31800 3.66900 35.99300
H  27.14300 4.58700 37.23400
N  23.59700 1.64500 29.51400
C  22.67900 1.86400 30.48500
C  21.36800 1.75800 29.95300
C  21.53900 1.47000 28.57900
C  22.96000 1.52200 28.31300
C  20.08800 1.83600 30.68500
C  20.56900 1.05300 27.49400
O  20.95500 0.60600 26.45700
C  19.15800 1.20400 27.79800
N  25.83100 0.84900 27.56600
C  24.86500 1.03400 26.68700
C  25.37200 0.95900 25.19700
C  26.94500 0.81100 25.40800
C  27.04000 0.69300 26.91200
C  24.71400 -0.17000 24.40300
C  27.71800 1.99500 24.78300
C  28.09900 3.20100 25.56600
N  27.56900 1.31300 29.83800
C  28.48000 0.85700 28.93300
C  29.78100 0.69800 29.67400
C  29.47300 1.06400 30.91500
C  28.13900 1.32800 31.02400
C  31.01700 0.19900 29.16700
C  30.07000 1.21400 32.26000
O  31.19600 1.07100 32.66700
C  28.89200 1.60400 33.21300
C  28.74400 0.63700 34.32600
O  27.99000 -0.33900 34.36600
O  29.43800 1.09400 35.39300
C  29.11500 0.39400 36.61900
H  22.18600 2.48400 32.52700
H  23.00600 1.49800 26.09800
H  29.17200 0.22500 26.93600
H  26.22100 1.59200 34.73000
H  24.08100 3.49600 34.01800
H  22.69800 2.06200 35.24200
H  23.99400 0.97800 35.71500
H  23.05600 0.72300 34.25300
H  25.82800 4.61500 34.88800
H  27.05900 4.22300 33.82400
H  28.38400 3.75200 35.78200
H  27.14200 2.68400 36.42700
H  20.27800 1.92700 31.75400
H  19.60100 0.86600 30.57800
H  19.50400 2.64400 30.24500
H  18.93600 0.33100 28.41200
H  18.55000 1.13500 26.89600
H  18.89900 2.08400 28.38700
H  25.02200 1.90800 24.79100
H  27.32500 -0.12900 25.00700
H  25.39700 -0.88000 23.93700
H  24.29800 0.38200 23.56000
H  23.97400 -0.75300 24.95100
H  27.08100 2.34900 23.97200
H  28.55300 1.51400 24.27300
H  27.60600 3.43600 26.51000
H  27.95900 4.07400 24.92800
H  29.13800 3.00800 25.82900
H  31.81100 0.93400 29.29300
H  30.99100 -0.09700 28.11800
H  31.26200 -0.61300 29.85100
H  29.15400 2.60400 33.55700
H  28.06200 0.56100 36.84400
H  29.66300 0.80700 37.46600
H  29.30100 -0.67600 36.52800
Mg 43.06000 41.38300 26.01600
C  41.87600 43.53800 28.43500
C  43.97200 39.21600 28.47800
C  44.34100 39.40000 23.71400
C  42.40900 43.83200 23.52000
N  42.96300 41.41200 28.24300
C  42.33500 42.37000 29.01600
C  42.52700 42.14200 30.58900
C  43.33400 40.77500 30.51600
C  43.47100 40.47600 29.03100
C  44.67200 40.80500 31.26500
C  41.15100 42.11700 31.32100
C  41.02900 42.83600 32.67800
H  40.55900 42.09700 33.94200
N  43.95800 39.49600 26.08600
C  44.19700 38.78500 27.20000
C  44.74200 37.51700 26.75600
C  44.83200 37.45400 25.36300
C  44.35900 38.81200 24.99000
C  45.06500 36.41000 27.75100
C  45.29200 36.34600 24.43900
O  45.31300 36.44200 23.20100
C  45.85600 35.09400 24.98600
N  43.62500 41.76100 23.96000
C  44.00700 40.65500 23.25900
C  43.82600 40.84300 21.79100
C  43.16000 42.28900 21.67100
C  43.04200 42.64000 23.07300
C  44.95900 40.57200 20.83100
C  41.84500 42.34100 20.86600
C  41.60300 43.69800 20.13300
N  42.32900 43.32500 25.94900
C  42.12400 44.18700 24.87500
C  41.62700 45.36500 25.33900
C  41.53300 45.23800 26.72100
C  41.90200 43.95400 27.05100
C  41.04700 46.48800 24.49700
C  41.21600 45.85900 27.98200
O  40.77800 46.99300 28.21000
C  41.48600 44.81800 29.17200
C  42.59400 45.34200 30.02300
O  43.80800 45.32100 29.64200
O  42.13000 45.85300 31.26000
C  43.21600 46.24300 32.21300
H  44.14600 38.48800 29.27300
H  44.75700 38.61100 23.08400
H  42.15800 44.54500 22.73200
H  43.03000 43.02700 30.98000
H  42.71700 39.97300 30.92200
H  45.48500 40.71500 30.54500
H  44.66900 39.98200 31.97900
H  44.65800 41.78300 31.74500
H  40.90000 41.10500 31.64000
H  40.41300 42.44400 30.58900
H  40.20800 43.55200 32.66000
H  41.89300 43.39900 33.03000
H  44.80900 36.57600 28.79800
H  46.13900 36.24500 27.66600
H  44.48600 35.53600 27.45100
H  46.62200 35.35100 25.71800
H  46.16200 34.29500 24.31200
H  44.94500 34.74200 25.47000
H  43.04000 40.13600 21.52400
H  43.89100 42.99300 21.27100
H  44.54500 39.77900 20.20800
H  45.97900 40.46300 21.19900
H  45.12600 41.46900 20.23500
H  40.99300 42.14000 21.51600
H  41.93600 41.54500 20.12600
H  41.17600 44.47800 20.76300
H  40.90700 43.39800 19.34900
H  42.51100 44.05200 19.64600
H  40.14000 46.91000 24.92800
H  40.78300 45.97400 23.57300
H  41.76600 47.27400 24.26400
H  40.59900 44.69200 29.79300
H  44.24400 46.31200 31.85800
H  43.15700 45.61600 33.10200
H  43.01300 47.26600 32.53100

