158

Mg 48.05600 44.60500 43.60800
C  44.61700 43.75000 43.37700
C  48.82200 41.28800 42.49900
C  51.07600 45.54200 42.76200
C  46.96900 48.02100 43.66700
N  46.88200 42.75500 42.99300
C  45.45800 42.70600 42.96600
C  45.02600 41.30300 42.72500
C  46.33800 40.41700 42.60400
C  47.38300 41.54300 42.71200
C  46.46200 39.28200 43.68900
C  43.94100 41.00300 41.64100
C  44.04500 41.86200 40.44300
H  43.70500 41.29000 39.04800
N  49.78900 43.54000 42.98800
C  49.90600 42.25200 42.61000
C  51.26200 41.96600 42.35500
C  52.01500 43.12600 42.35200
C  51.01200 44.14800 42.77200
C  51.74700 40.59400 42.08400
C  53.47500 43.39100 41.93700
O  54.10600 42.38600 41.63800
C  54.17500 44.70200 41.84200
N  48.89300 46.53800 43.39200
C  50.20500 46.61300 42.91200
C  50.65600 48.06700 42.71100
C  49.29800 48.86000 43.00100
C  48.29800 47.74100 43.32200
C  51.90400 48.60400 43.47700
C  48.92700 49.78000 41.77400
C  48.43700 51.11600 42.13800
N  46.22100 45.70000 43.67200
C  45.96000 47.01000 43.85900
C  44.51000 47.21500 44.01800
C  44.00600 45.91700 43.96600
C  45.04700 45.06500 43.67200
C  43.77800 48.53900 44.22600
C  42.73500 45.10200 44.02600
O  41.58300 45.43200 44.32400
C  43.11800 43.68400 43.58500
C  42.64600 42.83300 44.65000
O  41.81700 41.90200 44.49600
O  43.27900 43.12900 45.78500
C  43.03900 42.29400 46.95300
H  49.03200 40.27000 42.16400
H  52.05700 45.92400 42.47000
H  46.67100 49.07100 43.69400
H  44.46800 40.97700 43.60200
H  46.46100 39.95000 41.62700
H  47.10300 39.57000 44.52200
H  46.94500 38.40000 43.26600
H  45.55200 38.93400 44.17600
H  42.90900 41.03600 41.99200
H  44.17900 39.98800 41.32400
H  45.00700 42.37100 40.39500
H  43.35000 42.69500 40.54800
H  52.38600 40.47000 41.20900
H  50.96000 39.84000 42.09800
H  52.41000 40.30900 42.90100
H  53.50700 45.29800 41.21900
H  55.06300 44.46300 41.25800
H  54.35200 45.19900 42.79600
H  50.83500 48.32400 41.66700
H  49.45700 49.52100 43.85300
H  52.32900 47.75800 44.01700
H  51.66300 49.35100 44.23300
H  52.64100 48.98900 42.77300
H  48.04800 49.29700 41.34900
H  49.66700 49.91000 40.98400
H  49.05800 51.88700 41.68200
H  48.60000 51.44900 43.16300
H  47.39900 51.24700 41.83100
H  43.78300 48.89400 45.25700
H  42.75600 48.40200 43.87500
H  44.31800 49.31000 43.67600
H  42.51300 43.56200 42.68600
H  44.02000 42.07400 47.37500
H  42.62200 41.32700 46.67300
H  42.38400 42.80900 47.65500
Mg 48.59400 34.53500 26.93800
C  46.49000 33.15200 29.42400
C  48.88700 37.38300 28.83800
C  50.11400 36.06100 24.29000
C  47.90700 31.80800 24.91600
N  47.78900 35.25400 28.86400
C  47.08900 34.42300 29.77100
C  47.22800 34.90700 31.19100
C  47.50000 36.40100 30.99700
C  48.14600 36.37500 29.46700
C  46.22500 37.33400 31.16600
C  48.41200 34.19400 31.97800
C  48.40200 34.33800 33.51600
H  47.33700 35.26100 34.19300
N  49.42000 36.47900 26.60400
C  49.51600 37.48300 27.58100
C  50.13000 38.63000 26.99700
C  50.39400 38.31300 25.60100
C  49.91000 36.93100 25.40500
C  50.53600 39.81800 27.75200
C  51.10800 39.13900 24.49200
O  51.38500 38.59100 23.36200
C  51.54400 40.56000 24.70000
N  48.95400 33.99600 24.97100
C  49.66900 34.77100 24.12000
C  49.67700 34.07500 22.70700
C  49.41300 32.58100 23.01300
C  48.76600 32.76400 24.42000
C  48.82100 34.85900 21.74500
C  50.53100 31.54100 23.11900
C  51.67400 31.86300 24.14100
N  47.52400 32.78700 27.11900
C  47.33600 31.78400 26.17900
C  46.54100 30.74400 26.77600
C  46.11700 31.27400 27.95000
C  46.78600 32.45300 28.15800
C  46.26600 29.40800 26.20300
C  45.37900 30.98400 29.19800
O  44.76000 30.05700 29.59500
C  45.47700 32.25300 30.11100
C  45.72900 31.86000 31.49000
O  46.68900 31.26100 31.97000
O  44.70200 32.29400 32.25900
C  44.78800 31.84700 33.66300
H  48.86200 38.32400 29.39100
H  50.60500 36.44300 23.39300
H  47.74600 30.95100 24.25800
H  46.28700 34.69300 31.69800
H  48.29800 36.87400 31.56800
H  45.40200 36.83500 31.67700
H  45.85000 37.57500 30.17100
H  46.54800 38.20400 31.73800
H  49.34000 34.68800 31.69200
H  48.49700 33.14200 31.70300
H  49.37400 34.71800 33.82900
H  48.38400 33.38900 34.05100
H  51.32800 39.40300 28.37400
H  49.70200 39.94300 28.44300
H  50.66400 40.76400 27.22500
H  52.47300 40.57700 25.26900
H  50.77000 41.16000 25.17800
H  51.57300 41.02100 23.71200
H  50.68700 34.24100 22.33200
H  48.58900 32.14100 22.45200
H  48.13200 35.43000 22.36800
H  48.32800 34.16300 21.06600
H  49.44500 35.55300 21.18200
H  50.89200 31.42000 22.09800
H  50.10900 30.60300 23.48200
H  51.41500 31.43500 25.11000
H  51.69500 32.95100 24.20600
H  52.66300 31.55400 23.80600
H  45.42800 28.96400 26.74200
H  47.06600 28.69700 26.41000
H  45.96900 29.46700 25.15600
H  44.58200 32.86700 30.01000
H  45.78300 32.01000 34.07900
H  44.69700 30.76100 33.67500
H  43.95100 32.36300 34.13300

