158

Mg 1.41700 8.07500 26.31500
C  1.95200 10.20500 29.00700
C  1.72100 5.45700 28.55300
C  0.83800 6.02600 23.82000
C  1.56300 10.80600 24.09000
N  1.83300 7.89000 28.59100
C  1.78700 8.95000 29.50300
C  1.84900 8.45900 30.98300
C  2.02900 6.86100 30.76900
C  1.80400 6.72300 29.23500
C  3.29900 6.14900 31.38000
C  0.64500 8.95900 31.79900
C  1.15200 9.64500 33.09500
H  2.10100 8.87300 34.02300
N  1.39600 6.05600 26.15800
C  1.55400 5.14900 27.18300
C  1.42600 3.78200 26.66500
C  1.13600 3.96700 25.27000
C  1.10700 5.41800 25.01700
C  1.36400 2.54500 27.61600
C  0.70000 2.84400 24.29700
O  0.28200 3.06300 23.13900
C  0.72300 1.31100 24.67900
N  1.33100 8.38400 24.18600
C  0.95100 7.38200 23.41700
C  0.74200 7.84000 21.98300
C  0.79800 9.38400 22.14800
C  1.33000 9.54200 23.51000
C  1.72600 7.17600 20.97300
C  -0.61500 10.02800 21.91000
C  -1.28300 9.98400 20.53500
N  1.64200 10.08500 26.45700
C  1.73000 11.06600 25.46200
C  2.05100 12.30500 26.14900
C  2.08000 12.00900 27.52200
C  1.88000 10.61500 27.64500
C  2.05600 13.71600 25.51500
C  2.35000 12.59200 28.83800
O  2.59500 13.74900 29.17300
C  2.17600 11.43300 29.78800
C  3.36000 11.43100 30.66500
O  4.43800 10.92800 30.31200
O  3.15000 12.06400 31.82000
C  4.24700 12.05500 32.80100
H  1.78300 4.62700 29.26000
H  0.72600 5.36900 22.95500
H  1.59600 11.62300 23.36600
H  2.73100 8.95800 31.38300
H  1.23000 6.37200 31.32700
H  3.96700 6.92400 31.75600
H  3.82600 5.49500 30.68600
H  2.94700 5.46300 32.15000
H  0.00000 8.17300 32.19300
H  0.05200 9.74400 31.33100
H  0.25500 9.85900 33.67700
H  1.51400 10.65600 32.91100
H  1.76400 1.67200 27.10000
H  0.31800 2.31900 27.82500
H  1.85400 2.71400 28.57500
H  0.08700 1.12700 25.54500
H  1.79300 1.11900 24.75900
H  0.26100 0.88500 23.78900
H  -0.21600 7.43300 21.65900
H  1.46700 9.86700 21.43700
H  1.16700 6.58300 20.25000
H  2.36000 6.49600 21.54200
H  2.32500 7.99400 20.57400
H  -0.57100 11.07500 22.21000
H  -1.26700 9.52600 22.62500
H  -0.64400 9.44200 19.83900
H  -1.44400 10.95800 20.07200
H  -2.20100 9.40700 20.64500
H  2.12000 14.48900 26.28100
H  1.11300 13.66900 24.97100
H  2.92100 13.91800 24.88200
H  1.24400 11.56300 30.33800
H  5.11800 12.59600 32.43200
H  4.52500 11.05500 33.13300
H  3.88000 12.67300 33.62100
Mg 47.38600 34.19000 26.48500
C  45.90200 32.69600 29.32800
C  47.99600 36.98900 28.33400
C  48.37500 35.73300 23.63100
C  46.61200 31.24100 24.72400
N  46.84800 34.79200 28.56700
C  46.40000 33.97100 29.51700
C  46.47600 34.67600 30.89800
C  46.72900 36.13200 30.48400
C  47.23900 36.01300 29.06200
C  45.50800 37.15900 30.54800
C  47.68700 34.16500 31.73000
C  47.48300 34.20300 33.29400
H  46.75400 35.40000 33.91600
N  48.30600 35.99900 26.07000
C  48.42700 37.01700 26.97200
C  49.28300 38.06600 26.37800
C  49.34900 37.75400 24.95000
C  48.55600 36.53400 24.82400
C  49.76500 39.28300 27.14900
C  50.04900 38.60900 23.89900
O  50.17200 38.07000 22.81500
C  50.79200 39.92600 24.14500
N  47.26900 33.63300 24.40000
C  47.89500 34.40700 23.46600
C  48.10900 33.56800 22.20900
C  47.86900 32.14500 22.67400
C  47.19900 32.30900 24.01000
C  47.41300 34.21100 20.99900
C  49.04000 31.18500 22.54200
C  49.95100 30.94000 23.72400
N  46.41700 32.32900 26.87100
C  46.23300 31.25900 26.08700
C  45.62500 30.24000 26.83100
C  45.40900 30.78200 28.08300
C  45.95800 32.07900 28.12400
C  45.25500 28.92500 26.28800
C  44.79900 30.44600 29.37100
O  44.38300 29.34600 29.78400
C  45.08100 31.67300 30.22100
C  45.47100 31.32200 31.60200
O  46.58700 31.12700 32.06000
O  44.30600 31.25800 32.42400
C  44.36300 30.83900 33.84800
H  48.27400 37.80300 29.00600
H  48.82500 36.18700 22.74600
H  46.61000 30.31400 24.14700
H  45.51700 34.50200 31.38500
H  47.45600 36.62600 31.12800
H  44.61400 36.59600 30.81600
H  45.26700 37.58000 29.57200
H  45.58700 38.05900 31.15700
H  48.60500 34.73300 31.57600
H  48.00500 33.16200 31.44700
H  48.46000 34.12400 33.77100
H  46.97300 33.32000 33.67800
H  50.80400 39.51900 26.91400
H  49.98000 39.15400 28.21000
H  49.05000 40.07000 26.90900
H  50.19800 40.71500 24.60600
H  51.17500 40.31900 23.20300
H  51.70700 39.70300 24.69300
H  49.17600 33.78300 22.16600
H  47.06000 31.73400 22.07000
H  46.74200 35.02900 21.26000
H  46.88400 33.42300 20.46200
H  48.15200 34.56500 20.28100
H  49.67800 31.67200 21.80400
H  48.66900 30.24900 22.12400
H  49.72100 31.34600 24.70900
H  50.99000 31.17600 23.49300
H  49.91900 29.85300 23.80500
H  44.67500 28.29900 26.96600
H  46.12300 28.30500 26.06200
H  44.68600 29.03900 25.36500
H  44.09300 32.11600 30.34200
H  44.57700 31.53900 34.65600
H  44.98300 29.94800 33.95100
H  43.37900 30.48300 34.15100

