158

Mg -11.83900 37.84800 42.03400
C  -9.57800 35.51900 41.05100
C  -9.94800 40.27600 40.55100
C  -14.36300 39.96000 42.60500
C  -14.09900 35.22700 42.79000
N  -10.10400 37.83300 40.75500
C  -9.26800 36.79200 40.55400
C  -7.88800 37.19000 39.94900
C  -7.98200 38.74500 40.05600
C  -9.47500 38.97900 40.50700
C  -6.90600 39.35900 40.95700
C  -7.79000 36.57900 38.50700
C  -6.53800 35.80500 38.04800
H  -5.62000 36.44100 36.94600
N  -12.09400 39.87200 41.74400
C  -11.21200 40.66400 41.09100
C  -11.72800 42.03000 41.21300
C  -12.94700 42.02200 41.82800
C  -13.21400 40.61100 42.07100
C  -10.87100 43.15000 40.88800
C  -13.84800 43.21800 42.27100
O  -13.50000 44.34900 41.99000
C  -15.12700 43.01800 43.05100
N  -13.93600 37.58300 42.47100
C  -14.72400 38.63700 42.74000
C  -16.17900 38.26000 43.14000
C  -16.12800 36.69300 43.15000
C  -14.67900 36.50500 42.68100
C  -16.59300 38.86400 44.52500
C  -17.06400 36.12500 42.09200
C  -16.78200 36.52200 40.52800
N  -11.83000 35.78500 42.00000
C  -12.76100 34.84600 42.49900
C  -12.08100 33.57900 42.64800
C  -10.86100 33.71900 41.99600
C  -10.76800 35.10600 41.69500
C  -12.71000 32.30200 43.13300
C  -9.72600 33.09000 41.37400
O  -9.53800 31.90600 41.23700
C  -8.77300 34.29400 40.90700
C  -7.57300 34.24200 41.81600
O  -7.45900 35.00300 42.74400
O  -6.74200 33.27400 41.38600
C  -5.46800 33.05900 42.21900
H  -9.16000 40.98300 40.28300
H  -15.16400 40.63900 42.90200
H  -14.87100 34.58000 43.21100
H  -7.09400 36.77900 40.57300
H  -7.83000 39.13900 39.05100
H  -6.40900 38.63400 41.60200
H  -7.40700 40.02900 41.65500
H  -6.25300 39.96100 40.32600
H  -8.02800 37.40100 37.83300
H  -8.60800 35.86100 38.45300
H  -6.77000 34.77100 37.79200
H  -5.88400 35.73400 38.91700
H  -10.87600 43.15000 39.79800
H  -9.89200 42.98600 41.33800
H  -11.16400 44.10500 41.32500
H  -15.85700 42.51900 42.41500
H  -15.63100 43.90800 43.42800
H  -14.84700 42.47900 43.95700
H  -16.88200 38.72000 42.44600
H  -16.36400 36.29700 44.13800
H  -15.85700 39.43000 45.09500
H  -16.79200 38.04000 45.21000
H  -17.46700 39.50600 44.41100
H  -18.09600 36.35100 42.36200
H  -16.91800 35.04700 42.17100
H  -16.11000 37.37600 40.44900
H  -17.73900 36.66300 40.02600
H  -16.31900 35.72800 39.94200
H  -12.56200 31.59500 42.31800
H  -13.77700 32.37400 43.34400
H  -12.03200 32.00200 43.93200
H  -8.48100 34.20700 39.86000
H  -5.55300 32.09500 42.72000
H  -5.22400 33.82200 42.95800
H  -4.63100 32.91600 41.53600
Mg -5.88400 25.80000 26.05400
C  -4.20000 27.08600 28.93200
C  -7.62200 23.76800 28.19100
C  -6.82500 23.89600 23.43500
C  -3.98700 27.73200 24.09800
N  -5.73400 25.26500 28.42900
C  -5.10900 26.07800 29.41500
C  -5.54400 25.63900 30.77500
C  -6.89300 24.84800 30.42100
C  -6.68700 24.47900 28.92900
C  -7.16900 23.58300 31.26000
C  -5.64100 26.70600 31.81300
C  -6.75400 26.51000 32.79900
H  -6.56400 25.55000 34.02000
N  -7.16600 24.12700 25.80600
C  -7.80900 23.44900 26.79400
C  -8.66700 22.43900 26.24200
C  -8.44700 22.46000 24.80200
C  -7.44800 23.51600 24.65200
C  -9.46700 21.45500 27.06300
C  -9.07600 21.63100 23.70300
O  -8.82700 21.71200 22.54300
C  -10.09500 20.61700 24.05900
N  -5.43500 25.76100 24.05300
C  -5.85700 24.88700 23.15300
C  -5.32900 25.20700 21.72500
C  -4.66500 26.58100 21.85500
C  -4.65000 26.67200 23.44400
C  -4.53800 24.00600 21.09300
C  -5.42800 27.75500 21.20000
C  -4.58200 28.84100 20.60000
N  -4.30300 26.96100 26.38400
C  -3.66900 27.76800 25.48400
C  -2.74200 28.68500 26.13900
C  -2.84700 28.35200 27.50400
C  -3.84300 27.35700 27.58600
C  -1.77100 29.69500 25.50300
C  -2.36600 28.68300 28.74200
O  -1.42200 29.42500 29.10500
C  -3.23500 27.90200 29.78400
C  -2.26500 27.00400 30.48600
O  -1.90800 25.97600 30.03200
O  -1.83200 27.63100 31.59100
C  -0.74700 26.98400 32.23700
H  -8.30700 23.22700 28.84800
H  -7.11500 23.29200 22.57300
H  -3.46200 28.51300 23.54500
H  -4.76400 24.90600 30.98300
H  -7.77000 25.49400 30.44900
H  -7.05500 22.77400 30.53900
H  -8.15400 23.62200 31.72500
H  -6.33900 23.47200 31.95800
H  -5.75600 27.72300 31.43700
H  -4.76700 26.65300 32.46200
H  -7.73200 26.27700 32.37800
H  -6.70900 27.53200 33.17200
H  -9.39400 20.42400 26.71800
H  -10.52000 21.70400 27.20000
H  -9.23000 21.36200 28.12200
H  -9.45000 19.81900 24.42600
H  -10.53200 20.25000 23.13000
H  -10.89500 20.88900 24.74700
H  -6.21900 25.29800 21.10200
H  -3.69100 26.43600 21.38700
H  -4.43700 23.07800 21.65600
H  -3.52800 24.29200 20.79900
H  -5.04900 23.62000 20.21200
H  -6.00200 28.25900 21.97700
H  -6.01500 27.42700 20.34200
H  -3.55800 28.47600 20.51600
H  -4.44900 29.71600 21.23500
H  -4.93000 29.20300 19.63300
H  -1.06200 30.07600 26.23900
H  -2.43900 30.50500 25.21100
H  -1.21600 29.30700 24.64800
H  -3.73900 28.65100 30.39500
H  -0.98100 25.92000 32.26500
H  -0.63400 27.32100 33.26700
H  0.22400 27.19900 31.79000

