158

Mg 17.41300 -1.81300 27.89000
C  16.32200 0.38200 30.50800
C  19.22700 -3.54800 30.15900
C  18.77400 -3.24000 25.37600
C  15.44000 0.29400 25.69000
N  17.82700 -1.47200 30.11800
C  17.12600 -0.68300 30.94100
C  17.49500 -1.07300 32.38700
C  18.64800 -2.21600 32.24400
C  18.60500 -2.45700 30.78400
C  20.02100 -1.79700 32.74500
C  16.26800 -1.50900 33.27400
C  16.17000 -1.02300 34.77700
H  17.29000 -0.37600 35.41700
N  18.77000 -3.24800 27.80900
C  19.39000 -3.91700 28.82100
C  20.07900 -5.06800 28.27000
C  19.99500 -4.94300 26.83500
C  19.15600 -3.75400 26.59600
C  20.72500 -6.08000 29.13500
C  20.57200 -5.84600 25.77400
O  20.37000 -5.65400 24.55100
C  21.40800 -7.11700 26.16500
N  17.12600 -1.50500 25.82400
C  17.85500 -2.20600 24.98500
C  17.64200 -1.77500 23.50300
C  16.48600 -0.75400 23.62700
C  16.28800 -0.64800 25.14900
C  18.88400 -1.18700 22.76000
C  15.19000 -1.11900 22.85400
C  14.07600 -1.81700 23.60300
N  16.19500 0.04600 28.01200
C  15.48500 0.69600 27.03200
C  14.78900 1.77500 27.66900
C  15.16800 1.71600 29.05700
C  16.03500 0.65600 29.19600
C  13.67900 2.66600 27.02500
C  15.00600 2.39500 30.31400
O  14.40100 3.45600 30.62600
C  15.74300 1.55800 31.33200
C  16.73300 2.46100 31.97600
O  17.70300 3.05700 31.50800
O  16.17200 2.75100 33.21900
C  16.92000 3.61800 34.08900
H  19.66300 -4.23400 30.88800
H  19.25500 -3.64800 24.48400
H  14.79800 0.83100 24.98800
H  17.90500 -0.17200 32.84500
H  18.36300 -3.15400 32.72000
H  20.10500 -0.71500 32.84400
H  20.69600 -2.16200 31.97100
H  20.37600 -2.29100 33.64900
H  16.06300 -2.57800 33.21000
H  15.36700 -1.12800 32.79300
H  15.80100 -1.95400 35.20700
H  15.32100 -0.34500 34.86400
H  20.30900 -6.98200 28.68600
H  20.36800 -6.12800 30.16300
H  21.80600 -6.09600 28.99700
H  22.34300 -7.00700 26.71500
H  21.69000 -7.47400 25.17500
H  20.72100 -7.70300 26.77600
H  17.24200 -2.70400 23.09800
H  16.93000 0.22700 23.45800
H  19.63500 -0.86800 23.48200
H  18.71300 -0.27900 22.18200
H  19.34600 -1.97600 22.16700
H  15.43400 -1.67800 21.95000
H  14.82400 -0.19400 22.40700
H  13.29600 -1.09300 23.83800
H  14.52000 -2.26700 24.49100
H  13.59000 -2.64900 23.09300
H  12.64300 2.43000 27.26800
H  13.74700 2.81600 25.94700
H  13.77200 3.69200 27.37900
H  15.03700 1.28300 32.11500
H  17.98400 3.46500 33.91000
H  16.69900 3.44700 35.14200
H  16.76600 4.66900 33.84800
Mg -1.58000 34.43500 26.59400
C  -3.53000 32.76600 29.11000
C  -0.27600 36.33900 29.12300
C  -0.58400 36.76300 24.37400
C  -3.46900 32.90200 24.17500
N  -1.98500 34.54800 28.85600
C  -2.61300 33.64300 29.66600
C  -2.40000 33.90800 31.10300
C  -1.55100 35.22400 31.15900
C  -1.22000 35.40300 29.58400
C  -2.24500 36.49600 31.68100
C  -1.66600 32.66000 31.71400
C  -2.13300 32.27800 33.15400
H  -1.04600 32.38300 34.29300
N  -0.39300 36.24400 26.73800
C  0.04100 36.81200 27.86500
C  0.78600 37.99600 27.46700
C  0.60200 38.24800 26.09100
C  -0.20700 37.08500 25.68200
C  1.70400 38.74900 28.47900
C  1.13800 39.29800 25.19600
O  0.75000 39.43900 24.06000
C  2.13800 40.38500 25.65400
N  -2.01100 34.76400 24.56100
C  -1.41600 35.74900 23.87200
C  -1.67200 35.61600 22.27900
C  -2.51700 34.30100 22.17600
C  -2.67700 33.89000 23.68200
C  -2.34200 36.78000 21.46100
C  -1.84000 33.30200 21.29600
C  -0.87800 32.13000 21.75500
N  -3.15000 33.09300 26.63000
C  -3.73000 32.53900 25.48600
C  -4.67500 31.54500 25.91100
C  -4.60800 31.55200 27.36100
C  -3.66300 32.55400 27.68100
C  -5.71400 30.86800 25.13600
C  -5.12200 30.96300 28.57500
O  -5.91900 30.08900 28.73800
C  -4.40800 31.70500 29.77700
C  -5.44200 32.35500 30.53300
O  -6.08900 33.34300 30.22100
O  -5.50400 31.73600 31.77600
C  -6.61300 32.07100 32.70300
H  0.11100 36.94600 29.94400
H  -0.38600 37.49700 23.59100
H  -4.01900 32.33000 23.42600
H  -3.38500 33.99800 31.56000
H  -0.71100 34.95600 31.80000
H  -1.70300 36.87800 32.54600
H  -3.26800 36.24400 31.96100
H  -2.21800 37.31400 30.96100
H  -0.59700 32.83500 31.83200
H  -1.68400 31.77000 31.08400
H  -2.40400 31.22600 33.07200
H  -2.95300 32.96200 33.37300
H  1.75600 38.32700 29.48200
H  1.36500 39.76800 28.66000
H  2.69500 38.83200 28.03200
H  3.07600 39.98600 26.03900
H  1.70400 41.04100 26.40900
H  2.31100 41.05800 24.81400
H  -0.63100 35.50700 21.97400
H  -3.53500 34.45700 21.82200
H  -1.76800 36.97500 20.55500
H  -2.24800 37.72100 22.00400
H  -3.37500 36.61000 21.15700
H  -1.28300 33.95500 20.62400
H  -2.56600 32.84400 20.62500
H  -0.98700 31.26500 21.10100
H  -1.13300 31.87300 22.78400
H  0.18200 32.36700 21.67500
H  -5.22800 30.19900 24.42600
H  -6.36000 31.54700 24.57800
H  -6.42000 30.36500 25.79700
H  -3.89500 30.94500 30.36500
H  -7.51300 32.32700 32.14300
H  -6.21600 32.72800 33.47600
H  -6.77800 31.16300 33.28300

