158

Mg 45.04000 5.38600 47.58300
C  43.00400 8.01100 47.33900
C  42.22200 3.27000 47.46300
C  47.08700 2.64200 47.47500
C  47.86800 7.45500 47.55800
N  42.82500 5.59400 47.45500
C  42.25700 6.83400 47.38100
C  40.72800 6.62700 47.02300
C  40.44900 5.17600 47.30100
C  41.94300 4.64000 47.47700
C  39.49400 4.96200 48.47500
C  40.47600 7.00600 45.51200
C  39.30900 8.05500 45.52900
H  38.45400 8.06600 44.21300
N  44.67400 3.23800 47.53700
C  43.45700 2.62100 47.54600
C  43.72500 1.19300 47.42300
C  45.10500 0.97800 47.30900
C  45.66000 2.31500 47.44700
C  42.67200 0.12200 47.40300
C  45.75500 -0.34900 47.06500
O  45.11100 -1.39100 46.97600
C  47.30200 -0.50700 46.84100
N  47.21000 5.09700 47.42900
C  47.82400 3.85500 47.47800
C  49.26300 3.94800 47.39700
C  49.51800 5.51600 47.54800
C  48.11500 6.09300 47.54700
C  50.13300 2.96600 48.33000
C  50.45000 6.02900 46.35200
C  51.88600 6.56200 46.71200
N  45.41800 7.33300 47.38200
C  46.57600 8.09100 47.48900
C  46.28100 9.50400 47.32300
C  44.89400 9.49200 47.38400
C  44.41000 8.14800 47.42000
C  47.16500 10.74200 47.04800
C  43.64700 10.39200 47.24100
O  43.63100 11.61400 47.13600
C  42.37700 9.41600 47.33100
C  41.47300 9.73700 48.50400
O  41.53900 9.11100 49.56300
O  40.48800 10.46900 48.05500
C  39.28700 10.55800 48.87800
H  41.35800 2.61200 47.34700
H  47.79300 1.81000 47.52800
H  48.71900 8.13400 47.47400
H  40.14500 7.28000 47.67300
H  40.20700 4.55500 46.43800
H  39.21700 5.92700 48.89900
H  40.02000 4.42400 49.26300
H  38.63200 4.40100 48.11500
H  40.26000 6.27700 44.73100
H  41.40200 7.50800 45.23100
H  39.81600 9.00400 45.70100
H  38.59600 7.88400 46.33600
H  42.81300 -0.54800 46.55500
H  41.69100 0.54700 47.19000
H  42.77100 -0.34600 48.38200
H  47.60300 0.06400 45.96200
H  47.48400 -1.57300 46.70500
H  47.89800 -0.20100 47.70100
H  49.44100 3.64300 46.36600
H  49.83900 5.77500 48.55700
H  49.46700 2.34400 48.92900
H  50.70900 3.58800 49.01500
H  50.90100 2.38600 47.81900
H  49.88700 6.82500 45.86500
H  50.70300 5.15200 45.75600
H  51.88800 7.56300 47.14400
H  52.53400 6.58200 45.83600
H  52.32200 5.88600 47.44700
H  48.09700 10.69600 47.61100
H  46.58100 11.63300 47.27800
H  47.33000 10.92600 45.98700
H  41.85200 9.67800 46.41200
H  39.05300 11.62200 48.83900
H  39.32600 10.14100 49.88400
H  38.56600 10.15800 48.16500
Mg -11.81100 38.57900 40.76900
C  -9.55500 35.91200 40.27100
C  -9.37100 40.66900 39.18100
C  -13.99300 41.03900 40.43900
C  -14.15800 36.26200 41.85700
N  -9.63400 38.32400 39.87200
C  -8.97200 37.14100 39.75800
C  -7.73300 37.28100 38.88000
C  -7.46000 38.83000 39.03800
C  -8.91500 39.32800 39.37300
C  -6.28700 39.07100 39.99400
C  -7.96800 36.81000 37.45200
C  -6.95100 35.81600 36.90000
H  -6.02900 36.31200 35.74000
N  -11.68700 40.64500 39.95400
C  -10.65100 41.25000 39.38200
C  -10.98000 42.68600 39.19300
C  -12.29400 42.84400 39.56500
C  -12.74600 41.48700 40.02400
C  -10.15600 43.71200 38.49900
C  -13.19800 44.11200 39.40200
O  -12.76500 45.15200 38.87200
C  -14.60900 44.20700 39.86900
N  -13.78400 38.59800 40.88800
C  -14.49800 39.76700 40.83900
C  -15.89400 39.67500 41.50200
C  -15.90400 38.14000 41.93300
C  -14.54700 37.58900 41.57300
C  -15.99700 40.58700 42.65600
C  -17.06800 37.26800 41.29700
C  -18.21600 37.02200 42.24900
N  -11.87700 36.53400 41.15800
C  -12.90200 35.74500 41.61600
C  -12.35300 34.36700 41.89000
C  -11.07600 34.39000 41.29100
C  -10.81600 35.74100 40.90800
C  -12.97800 33.11000 42.62100
C  -9.84200 33.59200 40.91500
O  -9.61300 32.41200 41.11100
C  -8.88000 34.52900 40.18900
C  -7.62500 34.47100 40.85700
O  -6.63600 33.92800 40.34700
O  -7.70600 35.19100 42.02400
C  -6.64500 35.19800 43.03800
H  -8.58700 41.37700 38.90200
H  -14.83800 41.73100 40.41800
H  -14.96900 35.64400 42.24900
H  -6.93800 36.68000 39.32400
H  -7.23500 39.30300 38.08200
H  -5.52300 38.29700 39.92600
H  -6.71500 38.90400 40.98300
H  -5.84500 40.06700 39.99200
H  -8.04300 37.69800 36.82400
H  -8.97500 36.39300 37.42000
H  -7.36900 34.83000 36.69700
H  -6.24200 35.58900 37.69700
H  -10.43100 43.98700 37.48000
H  -9.12400 43.36200 38.52900
H  -10.07100 44.58200 39.15000
H  -14.64600 43.88500 40.91000
H  -15.24700 43.58300 39.24300
H  -15.08500 45.17800 39.72900
H  -16.60600 39.88300 40.70300
H  -15.93100 38.05400 43.02000
H  -16.53100 41.53100 42.55200
H  -14.99800 40.93600 42.91700
H  -16.45600 40.16400 43.54900
H  -16.69800 36.33500 40.87300
H  -17.52100 37.73700 40.42300
H  -18.19900 37.48800 43.23400
H  -18.26800 35.94500 42.40900
H  -19.14900 37.25400 41.73600
H  -12.58400 32.14100 42.31500
H  -14.06500 33.14100 42.55900
H  -12.74000 33.46100 43.62600
H  -8.84500 34.22600 39.14200
H  -5.93900 34.39800 42.81100
H  -7.17500 35.04000 43.97700
H  -6.11300 36.14600 43.10400

