158

Mg 25.79400 0.59200 29.29700
C  27.79400 0.20600 32.11700
C  23.13500 1.31800 31.42700
C  23.90600 0.48000 26.68300
C  28.57100 -0.39400 27.32500
N  25.57600 0.93800 31.51100
C  26.54900 0.75400 32.47000
C  26.00400 1.14500 33.86800
C  24.46500 1.32700 33.61200
C  24.39800 1.16100 32.10300
C  23.39100 0.36100 34.29300
C  26.57000 2.38600 34.51800
C  27.06000 2.11900 35.94500
H  26.70400 3.12600 36.98700
N  23.76800 0.85200 29.07700
C  22.83700 1.16700 30.03400
C  21.53600 1.34800 29.41300
C  21.70300 1.17700 28.03600
C  23.17700 0.79500 27.86800
C  20.32800 1.56100 30.31200
C  20.72400 1.31800 26.86400
O  21.04300 1.13800 25.65900
C  19.39700 1.78700 27.23700
N  26.19800 -0.04400 27.27700
C  25.22200 0.20100 26.36800
C  25.78300 -0.03300 24.90800
C  27.31900 0.18700 25.16900
C  27.36900 -0.16500 26.69700
C  25.51400 -1.43000 24.28200
C  27.92200 1.57900 24.78900
C  28.77500 1.45200 23.51900
N  27.84000 0.02400 29.62000
C  28.82100 -0.44400 28.74400
C  30.00500 -0.70600 29.45900
C  29.67000 -0.38900 30.80400
C  28.35200 -0.03300 30.81100
C  31.30200 -1.26700 28.80600
C  30.18100 -0.27700 32.14100
O  31.30700 -0.47100 32.61700
C  29.03300 0.19100 33.01300
C  28.94500 -0.83300 34.10900
O  28.76500 -2.01200 33.87700
O  29.28200 -0.33300 35.29000
C  29.37900 -1.21800 36.40200
H  22.34000 1.58400 32.12700
H  23.34000 0.46800 25.74900
H  29.41700 -0.49600 26.64300
H  26.17100 0.31800 34.55800
H  23.99500 2.28300 33.84300
H  22.63800 0.99600 34.75900
H  23.77000 -0.20100 35.14600
H  22.86400 -0.29700 33.60200
H  25.73500 3.08700 34.50800
H  27.38400 2.85100 33.96100
H  28.14900 2.11900 35.99500
H  26.73400 1.12500 36.25300
H  19.47800 0.90400 30.12300
H  19.93700 2.56600 30.15200
H  20.54400 1.61900 31.37900
H  19.00900 1.09200 27.98200
H  18.72900 1.63000 26.39000
H  19.40900 2.84800 27.48700
H  25.43300 0.83800 24.35400
H  27.78300 -0.65600 24.65700
H  25.12400 -2.05200 25.08700
H  26.32600 -1.98200 23.80900
H  24.86900 -1.29300 23.41500
H  28.59200 1.82600 25.61300
H  27.28400 2.45300 24.65600
H  29.76500 1.77800 23.83700
H  28.38000 2.15200 22.78300
H  28.75200 0.45800 23.07100
H  30.96100 -1.99900 28.07400
H  31.99400 -1.62800 29.56700
H  31.73500 -0.49600 28.16900
H  29.28000 1.15900 33.45000
H  29.46500 -2.26600 36.11400
H  28.49300 -1.27600 37.03500
H  30.26100 -0.89600 36.95700
Mg 16.86400 52.27000 26.84800
C  19.06900 50.95500 29.34800
C  14.91600 53.50100 29.34500
C  14.85900 53.58900 24.43200
C  19.04700 51.18900 24.40000
N  16.97600 52.14000 28.98800
C  17.94400 51.56800 29.79300
C  17.61800 51.88100 31.26500
C  16.11000 52.21700 31.20500
C  15.98500 52.70700 29.75500
C  15.10300 51.03900 31.39900
C  18.51900 52.94600 31.93000
C  19.02200 52.86300 33.36600
H  18.18300 52.15900 34.38000
N  15.10700 53.37900 26.87700
C  14.46800 53.76500 28.04500
C  13.28800 54.53600 27.72300
C  13.27500 54.58800 26.26800
C  14.39400 53.79100 25.78500
C  12.36700 55.15300 28.73400
C  12.26600 55.34800 25.42400
O  12.34100 55.43500 24.21400
C  11.14600 56.11700 26.04000
N  16.87000 52.11000 24.69800
C  15.89500 52.78300 23.93900
C  16.12600 52.50600 22.43000
C  17.54100 51.92000 22.44600
C  17.89700 51.75900 23.94900
C  15.03600 51.65000 21.80300
C  18.59600 52.70700 21.60200
C  19.15400 54.02200 22.16600
N  18.61800 51.12200 26.92100
C  19.43900 50.83700 25.78700
C  20.62900 50.15500 26.30900
C  20.50200 50.13900 27.69900
C  19.30500 50.77200 28.01100
C  21.79800 49.87600 25.50500
C  21.19600 49.86400 28.99800
O  22.26100 49.31200 29.27400
C  20.23100 50.38900 30.06400
C  19.86200 49.48800 31.12400
O  19.11600 48.51000 30.94900
O  20.28900 49.84200 32.31400
C  20.30700 48.86100 33.46400
H  14.23600 53.74200 30.16600
H  14.29500 54.08400 23.63900
H  19.76700 50.84600 23.65400
H  17.66200 50.96000 31.84600
H  16.07600 53.04100 31.91700
H  14.37700 50.91100 30.59600
H  14.53000 51.25100 32.30100
H  15.57600 50.06500 31.52600
H  18.04000 53.92200 31.85400
H  19.44000 53.01000 31.35200
H  19.13200 53.82700 33.86200
H  20.02100 52.42900 33.40300
H  12.11000 56.15200 28.38000
H  12.79100 55.21800 29.73600
H  11.46100 54.54600 28.75200
H  10.43200 56.47800 25.29900
H  11.62200 56.94200 26.56900
H  10.65600 55.42700 26.72700
H  16.20900 53.48100 21.95100
H  17.56400 50.88600 22.10100
H  14.66800 51.99200 20.83600
H  14.14200 51.67600 22.42600
H  15.38800 50.62200 21.71900
H  18.22000 53.15300 20.68100
H  19.36000 51.98200 21.32200
H  18.95700 54.79600 21.42300
H  20.22100 54.01100 22.39000
H  18.65000 54.31000 23.08800
H  22.66700 50.12500 26.11300
H  21.78300 50.41800 24.55900
H  21.89000 48.83600 25.19100
H  20.72700 51.19900 30.59700
H  19.27200 48.76300 33.79200
H  20.99600 49.13700 34.26300
H  20.54000 47.87800 33.05600

