158

Mg 8.67000 5.34500 27.31800
C  9.58100 3.58200 30.07500
C  6.03600 6.87400 29.08500
C  7.45900 6.94300 24.46800
C  10.42200 3.16800 25.23800
N  8.01400 5.32400 29.35200
C  8.55600 4.49400 30.32900
C  7.90700 4.80500 31.77200
C  6.58900 5.53200 31.18900
C  6.89800 5.97000 29.82400
C  5.33300 4.53200 31.09900
C  8.77000 5.75500 32.58500
C  9.08600 5.37200 34.02000
H  10.14400 6.02700 34.85900
N  7.08100 6.83400 26.87100
C  6.14700 7.27900 27.73600
C  5.28000 8.30400 27.10100
C  5.79800 8.53600 25.79200
C  6.80900 7.42000 25.64900
C  4.34700 9.14100 27.90000
C  5.39200 9.50400 24.69800
O  5.97500 9.55900 23.57000
C  4.32200 10.45800 24.97200
N  8.74300 4.97800 25.13100
C  8.26600 5.85300 24.19400
C  8.78900 5.49200 22.71900
C  9.64700 4.19600 23.08400
C  9.65400 4.10400 24.59100
C  7.62000 5.27100 21.63300
C  11.08300 4.15700 22.56500
C  11.44300 2.84500 21.89000
N  9.86000 3.79600 27.51100
C  10.54400 2.96600 26.63100
C  11.31200 1.98400 27.34700
C  11.04100 2.23800 28.70800
C  10.08700 3.31500 28.74800
C  12.20300 0.83200 26.74100
C  11.47400 1.88500 30.01700
O  12.41800 1.17100 30.32600
C  10.51400 2.69300 30.95800
C  9.69300 1.79400 31.75700
O  8.84300 1.02600 31.33800
O  10.08900 2.02500 33.08700
C  9.50600 1.02400 33.99100
H  5.12300 7.05300 29.65700
H  7.16300 7.39000 23.51700
H  11.15900 2.59800 24.66800
H  7.70800 3.89100 32.33000
H  6.37000 6.35400 31.87100
H  4.61900 4.77300 31.88600
H  5.56300 3.46700 31.09700
H  4.72200 4.63800 30.20300
H  8.36100 6.76300 32.52300
H  9.80300 5.82500 32.24500
H  9.30400 4.30800 34.10800
H  8.13900 5.36800 34.56000
H  4.31600 8.83000 28.94400
H  3.37300 9.09600 27.41200
H  4.62700 10.19500 27.87600
H  3.42100 9.92500 25.27400
H  4.31100 11.03800 24.04900
H  4.59500 11.09400 25.81500
H  9.42700 6.33700 22.45800
H  9.03500 3.41400 22.63500
H  6.73000 5.77500 22.00900
H  7.38800 4.20600 21.64300
H  7.80600 5.70000 20.64800
H  11.75100 4.38100 23.39700
H  11.33500 4.99100 21.91000
H  12.13000 3.07200 21.07400
H  10.61800 2.22900 21.53400
H  12.07800 2.25600 22.55200
H  13.26500 1.07400 26.70400
H  11.84100 0.62700 25.73300
H  12.05900 -0.04600 27.37000
H  11.18600 3.27000 31.59300
H  8.45800 0.82100 33.77100
H  9.34900 1.55600 34.92900
H  10.13200 0.14600 34.15500
Mg 50.92200 45.64700 42.45500
C  47.74600 46.72400 41.05300
C  49.99400 42.53900 41.09300
C  54.06200 44.72700 42.76300
C  51.72700 49.02300 42.80100
N  49.13800 44.77300 41.01700
C  47.94500 45.40200 40.86500
C  46.99700 44.37500 40.29500
C  47.55600 43.04400 40.71900
C  49.01000 43.46100 40.99400
C  46.92800 42.31700 42.04000
C  46.71700 44.57600 38.79300
C  45.36300 44.42200 38.16000
H  45.33400 43.53300 36.94100
N  51.92900 43.88600 41.92100
C  51.31400 42.68700 41.52300
C  52.36500 41.70200 41.66100
C  53.58000 42.31000 42.10900
C  53.20600 43.66500 42.38000
C  52.22700 40.27800 41.21700
C  54.88200 41.52300 42.41500
O  54.99700 40.32100 42.12900
C  56.05300 42.05700 43.06300
N  52.64600 46.69600 42.72100
C  53.81800 46.06800 42.96000
C  55.00700 47.04800 43.26300
C  54.21400 48.45600 43.15000
C  52.80500 48.10100 42.87200
C  55.67000 46.73700 44.59100
C  54.89300 49.43200 42.07800
C  55.27000 50.81000 42.61700
N  49.90400 47.56900 42.28900
C  50.37300 48.84000 42.47200
C  49.27100 49.74600 42.29700
C  48.24100 49.00400 41.72000
C  48.66800 47.66900 41.68800
C  49.36300 51.26900 42.46500
C  46.93500 49.03700 41.24200
O  46.09100 49.96200 41.18800
C  46.56700 47.57800 40.71300
C  45.36100 47.09200 41.43500
O  45.27200 46.84500 42.63700
O  44.25200 47.09700 40.58600
C  42.83800 46.94200 41.07900
H  49.87700 41.46800 40.91400
H  55.08500 44.56700 43.10700
H  52.10000 50.04700 42.87300
H  46.06000 44.37000 40.85100
H  47.48600 42.25100 39.97400
H  46.29900 41.48100 41.73300
H  46.25500 43.03700 42.50600
H  47.69500 41.96300 42.72800
H  47.50900 44.03800 38.27200
H  46.94800 45.62200 38.59200
H  44.64900 45.24500 38.13400
H  44.84900 43.73200 38.82900
H  52.69500 39.61600 41.94700
H  52.80400 40.20200 40.29500
H  51.25400 39.90100 40.90500
H  55.78100 42.65700 43.93100
H  56.60300 42.65000 42.33200
H  56.74200 41.26100 43.34400
H  55.73400 46.95000 42.45700
H  54.39200 48.89100 44.13400
H  56.66300 46.32400 44.41600
H  55.13500 46.01700 45.21100
H  55.73800 47.67500 45.14200
H  54.15200 49.66400 41.31300
H  55.70500 49.06800 41.44900
H  54.63500 51.52500 42.09200
H  56.29000 51.16600 42.47600
H  54.96600 50.91600 43.65800
H  50.37900 51.66000 42.51200
H  48.97200 51.49000 43.45800
H  48.83800 51.71000 41.61800
H  46.30200 47.66600 39.65900
H  42.76400 47.34800 42.08800
H  42.47200 45.92100 41.19400
H  42.17300 47.50800 40.42700

