158

Mg -0.13400 7.04900 25.68200
C  0.79300 9.06000 28.55000
C  -0.15400 4.42000 27.78700
C  -0.57100 5.07200 23.08200
C  0.54000 9.75200 23.73000
N  0.58600 6.75600 27.88500
C  0.61100 7.70800 28.88300
C  0.63700 7.09800 30.31300
C  0.57500 5.63800 29.96300
C  0.36400 5.53700 28.47600
C  1.79600 4.76600 30.36100
C  -0.43300 7.59300 31.30200
C  0.10300 7.97700 32.73300
H  1.30500 7.23400 33.31300
N  -0.43700 5.01000 25.46600
C  -0.43900 4.07800 26.46900
C  -0.81100 2.79700 25.92500
C  -0.91300 2.92700 24.55300
C  -0.65100 4.34200 24.31200
C  -1.12000 1.64500 26.70700
C  -1.21800 1.87100 23.50700
O  -1.20100 2.21700 22.31500
C  -1.65200 0.38100 23.70500
N  0.15200 7.28000 23.74800
C  -0.32900 6.38300 22.87300
C  -0.38300 7.04400 21.45300
C  0.07700 8.49700 21.66900
C  0.19600 8.51800 23.18700
C  0.45800 6.36500 20.36400
C  -0.85400 9.54600 21.12300
C  -2.03000 9.96000 21.87600
N  0.51800 9.04600 26.03100
C  0.74800 10.03600 25.09100
C  1.04800 11.27200 25.74600
C  1.07300 10.97100 27.13500
C  0.82300 9.57700 27.25100
C  1.31000 12.67500 25.03800
C  1.30500 11.44100 28.47500
O  1.74100 12.51600 28.77800
C  0.98600 10.24600 29.47200
C  2.15900 10.12900 30.36000
O  3.09800 9.33800 30.23500
O  2.09100 11.05600 31.41900
C  3.33000 10.95400 32.25600
H  -0.21300 3.56000 28.45800
H  -0.58400 4.47400 22.16900
H  0.63500 10.59500 23.04100
H  1.62900 7.33600 30.69800
H  -0.28800 5.08900 30.34000
H  2.44200 4.69900 29.48500
H  1.57000 3.72600 30.59400
H  2.38400 5.23200 31.15200
H  -1.22900 6.85600 31.40900
H  -0.92800 8.43800 30.82300
H  -0.75400 7.94700 33.40600
H  0.49400 8.99400 32.71500
H  -2.13700 1.69000 27.09800
H  -0.33400 1.64400 27.46300
H  -0.98300 0.67100 26.23600
H  -1.05000 -0.14100 24.44900
H  -1.51500 -0.10600 22.74000
H  -2.67100 0.43400 24.08900
H  -1.40500 7.14500 21.08600
H  1.09100 8.67900 21.31100
H  0.67100 5.30800 20.52300
H  1.39000 6.93100 20.34900
H  0.00500 6.45900 19.37700
H  -1.20800 9.22100 20.14500
H  -0.29100 10.46200 20.94700
H  -1.96800 10.98100 22.25300
H  -2.22300 9.28500 22.71000
H  -2.91700 9.91600 21.24400
H  0.30300 13.06800 24.90200
H  1.89400 12.57000 24.12400
H  1.84300 13.37400 25.68200
H  0.05600 10.38000 30.02600
H  4.27000 11.23400 31.78100
H  3.35200 9.94500 32.66800
H  3.16500 11.71700 33.01700
Mg 53.90500 23.60200 43.71300
C  51.31700 25.95600 43.28800
C  51.73400 21.08200 42.57700
C  56.46400 21.41800 43.76300
C  55.81300 26.16600 44.87400
N  51.82900 23.59700 42.77200
C  50.97800 24.64900 42.79500
C  49.60400 24.24300 42.10800
C  49.74400 22.68400 42.08400
C  51.21000 22.42100 42.41300
C  48.88700 22.00200 43.11700
C  49.40500 24.75900 40.61800
C  50.76900 24.98300 39.84200
H  50.50100 25.68200 38.50600
N  54.09200 21.49400 43.21200
C  53.04400 20.65900 42.85300
C  53.57100 19.31500 42.79400
C  54.96900 19.38200 43.11700
C  55.23900 20.75300 43.34500
C  52.65400 18.13800 42.43800
C  55.92800 18.14400 43.26300
O  55.48600 17.02800 43.02600
C  57.32200 18.30600 43.56800
N  55.89000 23.77900 44.18200
C  56.81700 22.79300 44.04600
C  58.21700 23.18300 44.58800
C  57.96900 24.70600 44.97900
C  56.47400 24.96800 44.62100
C  58.75200 22.33300 45.73100
C  58.89200 25.69500 44.22300
C  58.71900 26.02400 42.74500
N  53.70800 25.74100 43.96200
C  54.49100 26.63000 44.59900
C  53.86000 27.84300 45.04700
C  52.49900 27.55600 44.55900
C  52.54900 26.29700 43.87000
C  54.40600 28.93900 45.99700
C  51.16700 28.11500 44.46300
O  50.73900 29.20000 44.86700
C  50.37900 27.05400 43.53200
C  49.80300 27.62900 42.33800
O  50.42400 28.15400 41.42100
O  48.44500 27.66000 42.49300
C  47.69400 28.73700 41.82100
H  50.98600 20.32500 42.33100
H  57.30200 20.79500 44.08400
H  56.42400 26.96200 45.30400
H  48.75200 24.44900 42.75500
H  49.51300 22.26100 41.10700
H  47.82900 22.23600 42.99800
H  49.06900 22.30200 44.15000
H  48.81600 20.91600 43.05500
H  48.69700 25.56800 40.43800
H  48.99500 23.95600 40.00600
H  51.36500 24.09600 39.62300
H  51.43800 25.70400 40.31200
H  53.09500 17.19600 42.76400
H  52.41800 18.09100 41.37500
H  51.72600 18.25800 42.99800
H  57.76300 17.31000 43.59900
H  57.45600 18.86000 44.49700
H  57.83700 18.92800 42.83500
H  58.89100 23.09800 43.73500
H  58.12200 24.70000 46.05800
H  59.55200 21.62800 45.50200
H  57.97200 21.65700 46.08100
H  59.05200 22.89800 46.61300
H  59.91500 25.32300 44.15900
H  58.94100 26.61800 44.80300
H  59.51700 25.72500 42.06500
H  58.55000 27.09000 42.59400
H  57.90700 25.39300 42.38300
H  55.40600 28.73100 46.37800
H  53.86700 28.87000 46.94200
H  54.25700 29.91000 45.52500
H  49.62300 26.66800 44.21600
H  48.19400 29.69100 41.98200
H  46.70000 28.81200 42.26400
H  47.68600 28.49300 40.75900

