158

Mg 34.85300 2.94600 29.26900
C  33.00400 4.29400 31.96800
C  37.49500 2.66700 31.61800
C  36.90800 2.40500 26.82500
C  32.15500 3.68600 27.14400
N  35.13200 3.44200 31.51000
C  34.26000 3.90900 32.41400
C  34.80400 3.82300 33.81700
C  36.31600 3.68200 33.57800
C  36.34500 3.20800 32.14500
C  37.00700 5.00700 33.89000
C  34.25300 2.68300 34.70900
C  34.07200 3.07400 36.23600
H  34.96400 4.27700 36.89000
N  36.82900 2.29000 29.23500
C  37.76400 2.31300 30.24500
C  38.97500 1.73600 29.76600
C  38.84900 1.68600 28.34700
C  37.47400 2.19900 28.08200
C  40.08900 1.37200 30.69300
C  39.89500 1.18700 27.30000
O  39.70500 1.18700 26.08100
C  41.20800 0.82200 27.83600
N  34.62800 3.21000 27.30900
C  35.60000 2.75000 26.51200
C  35.01900 2.58000 25.06700
C  33.50500 2.69300 25.26500
C  33.42000 3.31500 26.69500
C  35.63200 3.74000 24.14600
C  32.70400 1.32400 25.13900
C  31.40500 1.30800 24.38700
N  32.87200 3.73000 29.45400
C  31.88700 4.01100 28.51400
C  30.70000 4.53600 29.16300
C  31.09000 4.62900 30.50800
C  32.44100 4.20800 30.63900
C  29.42000 4.92800 28.39400
C  30.63300 4.96300 31.83100
O  29.51000 5.21300 32.20400
C  31.82300 4.82600 32.82200
C  32.08000 6.10700 33.49700
O  32.87300 6.99100 33.13700
O  31.29700 6.22000 34.56800
C  31.30000 7.51300 35.30400
H  38.33200 2.54100 32.30700
H  37.50400 2.06700 25.97500
H  31.26900 3.87700 26.53500
H  34.63400 4.81900 34.22700
H  36.76800 2.91900 34.21100
H  36.37900 5.68000 34.47500
H  37.30500 5.48500 32.95700
H  37.92100 4.93100 34.47800
H  34.91400 1.82100 34.61800
H  33.24100 2.48600 34.35600
H  34.18000 2.22300 36.90800
H  33.04500 3.41700 36.36000
H  40.59800 0.44700 30.42200
H  39.65700 1.40400 31.69300
H  40.87400 2.12800 30.67100
H  41.74200 1.61300 28.36300
H  41.84000 0.45700 27.02600
H  41.02400 0.02400 28.55600
H  35.39700 1.60300 24.76700
H  32.92600 3.33800 24.60400
H  36.36500 3.31300 23.46200
H  36.10800 4.53400 24.72100
H  34.80600 4.13500 23.55400
H  32.41500 0.96600 26.12700
H  33.40800 0.72000 24.56600
H  31.48300 0.69700 23.48700
H  31.16800 2.32700 24.08200
H  30.61400 0.84800 24.97800
H  29.46300 5.42000 27.42200
H  28.82900 5.58600 29.03100
H  28.76400 4.07100 28.24300
H  31.50100 4.09600 33.56500
H  32.01000 7.33000 36.11000
H  30.25800 7.62100 35.60600
H  31.60500 8.35800 34.68800
Mg 49.25400 34.74000 26.54000
C  46.91000 33.84700 29.15800
C  50.10200 37.57900 28.50100
C  50.63500 36.02400 23.90100
C  47.68700 32.19000 24.65600
N  48.61900 35.60000 28.55600
C  47.80000 34.92700 29.43700
C  47.74300 35.67800 30.76700
C  48.39400 37.07700 30.40600
C  49.13400 36.71300 29.10600
C  47.43100 38.24100 30.22800
C  48.34600 35.07600 32.03900
C  47.59000 35.16900 33.37400
H  47.95300 36.24800 34.37400
N  50.35900 36.52200 26.29700
C  50.69300 37.51000 27.17400
C  51.49900 38.54000 26.53400
C  51.57800 38.16900 25.13800
C  50.83300 36.86100 25.06800
C  52.01800 39.73100 27.23000
C  52.33700 38.92500 23.96400
O  52.37300 38.43400 22.83500
C  52.87700 40.29100 24.04900
N  49.11300 34.21800 24.55200
C  49.93100 34.84600 23.72700
C  50.06900 33.99500 22.43400
C  49.22200 32.73900 22.73600
C  48.53900 33.09100 24.01800
C  49.61500 34.76200 21.10500
C  49.98600 31.38600 22.85300
C  50.03400 30.59800 21.51000
N  47.80900 33.09300 26.93400
C  47.24900 32.22200 25.95800
C  46.27100 31.34800 26.57200
C  46.10700 31.97900 27.85700
C  47.06500 33.03300 28.01200
C  45.60000 30.12100 25.96300
C  45.33900 31.94200 29.10600
O  44.47700 31.18000 29.48200
C  45.77800 33.17200 30.02400
C  46.11800 32.62100 31.32400
O  46.91300 31.70800 31.54300
O  45.32300 33.11500 32.24800
C  45.09800 32.40400 33.51800
H  50.38000 38.48500 29.04200
H  51.33200 36.29800 23.10500
H  47.39500 31.32300 24.05900
H  46.70900 35.91000 31.02000
H  49.10900 37.39100 31.16700
H  47.30400 38.48400 29.17300
H  47.84900 39.12600 30.70700
H  46.52300 37.98800 30.77500
H  49.33900 35.50100 32.18800
H  48.49600 33.99800 31.97300
H  47.70400 34.22400 33.90600
H  46.51800 35.31400 33.24800
H  51.95800 40.64900 26.64500
H  53.00400 39.57700 27.66900
H  51.42700 39.95000 28.11900
H  53.68600 40.39800 24.77200
H  52.06600 40.99700 24.22900
H  53.22400 40.58800 23.06000
H  51.12300 33.73000 22.34600
H  48.45000 32.55000 21.98900
H  49.07100 34.08200 20.45000
H  50.55200 35.07900 20.64600
H  49.12500 35.71800 21.29100
H  49.48300 30.73400 23.56700
H  51.01500 31.63400 23.11300
H  49.46300 29.68200 21.65900
H  51.06400 30.40700 21.21200
H  49.46600 31.14700 20.75900
H  46.21300 29.22100 26.00200
H  45.35300 30.07500 24.90200
H  44.72800 29.79400 26.53100
H  44.96100 33.88100 30.15900
H  44.10300 31.97800 33.64900
H  45.18900 33.19900 34.25900
H  45.84300 31.68100 33.85400

