158

Mg 44.39800 2.61000 46.94600
C  42.48500 5.43700 47.08900
C  41.55600 0.64800 46.62200
C  46.38200 -0.12800 46.62800
C  47.23100 4.63900 46.84700
N  42.31200 2.98400 46.65900
C  41.74600 4.23700 46.81300
C  40.25900 4.11800 46.59900
C  39.85400 2.66900 46.58500
C  41.33400 2.03200 46.61700
C  39.06700 2.21800 47.84800
C  39.86300 4.71500 45.20500
C  38.59100 5.56900 45.15200
H  37.80400 5.43400 43.80800
N  43.97100 0.51800 46.81000
C  42.75500 -0.06400 46.74000
C  42.94800 -1.53000 46.61200
C  44.38100 -1.75300 46.45800
C  44.95700 -0.40300 46.65500
C  41.79800 -2.49700 46.38000
C  45.00800 -3.24900 46.24400
O  44.35600 -4.31200 46.27900
C  46.53300 -3.40700 46.09500
N  46.47100 2.29400 46.72400
C  47.06000 1.09300 46.58800
C  48.59700 1.11700 46.39500
C  48.86700 2.68600 46.43100
C  47.44300 3.28300 46.76300
C  49.31700 0.32500 47.50700
C  49.52000 3.44400 45.21200
C  50.98900 3.75300 45.41500
N  44.82400 4.62900 46.83400
C  46.02800 5.36300 46.90600
C  45.75400 6.74500 47.07200
C  44.36300 6.79600 47.13600
C  43.83900 5.51100 47.07800
C  46.74800 7.88700 46.99100
C  43.26600 7.74900 47.23300
O  43.23300 8.93700 47.35100
C  41.92800 6.80700 47.32500
C  41.15900 6.96800 48.60100
O  41.54800 6.95200 49.75400
O  39.85700 7.10200 48.27000
C  38.96700 7.40200 49.38100
H  40.65300 0.07000 46.41200
H  47.08500 -0.96100 46.56400
H  48.08700 5.31100 46.94700
H  39.69600 4.60800 47.39400
H  39.33000 2.36200 45.68000
H  38.25300 2.92600 48.00000
H  39.71500 2.23800 48.72400
H  38.62800 1.22700 47.73200
H  39.78800 3.87200 44.51800
H  40.64700 5.35100 44.79600
H  38.86800 6.60900 45.32600
H  38.01900 5.15000 45.97900
H  41.58700 -2.61500 45.31700
H  40.88600 -1.97700 46.67500
H  41.81000 -3.42200 46.95700
H  46.97400 -2.99700 47.00400
H  46.99300 -2.75000 45.35600
H  46.87900 -4.40800 45.83900
H  48.87800 0.76000 45.40400
H  49.40600 2.96700 47.33600
H  48.77900 0.41800 48.45000
H  50.33500 0.69600 47.63100
H  49.33800 -0.68200 47.08800
H  49.04500 4.39200 44.95900
H  49.33200 2.76900 44.37700
H  51.28300 3.81700 46.46300
H  51.07000 4.74100 44.96100
H  51.39100 2.87900 44.90300
H  47.71500 7.59900 46.57900
H  46.87800 8.22600 48.01900
H  46.32300 8.63900 46.32700
H  41.22800 7.07300 46.53300
H  39.37100 8.20000 50.00200
H  38.76300 6.46700 49.90300
H  38.04700 7.78700 48.94000
Mg -1.12900 43.96100 25.17900
C  1.28500 43.51700 27.57300
C  -3.59500 43.36300 27.60000
C  -3.38900 43.74900 22.77400
C  1.44700 44.24500 22.80600
N  -1.13300 43.40100 27.32300
C  -0.02800 43.53200 28.09500
C  -0.39000 43.50100 29.59200
C  -1.93700 43.26300 29.61000
C  -2.26500 43.34100 28.06200
C  -2.30900 41.97500 30.31700
C  -0.05800 44.79200 30.33600
C  0.12000 44.66300 31.85800
H  0.17000 43.26500 32.49500
N  -3.20000 43.62300 25.19800
C  -4.02000 43.37300 26.29900
C  -5.44900 43.24600 25.84000
C  -5.36700 43.26900 24.41000
C  -3.97500 43.52200 24.02900
C  -6.70900 43.18900 26.76000
C  -6.52300 43.17700 23.41700
O  -6.38400 43.49200 22.28300
C  -7.95200 42.74400 23.84900
N  -0.97300 44.15700 23.12900
C  -2.06800 43.92200 22.35300
C  -1.67600 43.90500 20.80100
C  -0.21700 44.48700 20.89700
C  0.15200 44.35000 22.33700
C  -1.94100 42.59500 19.98800
C  0.07400 45.92300 20.26500
C  -0.01900 47.16900 21.10300
N  0.94000 43.84500 25.10900
C  1.87300 44.01900 24.08900
C  3.22200 43.83700 24.62400
C  3.01600 43.65800 26.00300
C  1.68400 43.69400 26.17900
C  4.42000 43.74700 23.81000
C  3.69900 43.29600 27.28000
O  4.83800 43.00900 27.53700
C  2.56500 43.27300 28.35800
C  2.58400 41.94700 29.09500
O  1.97100 40.93400 28.77300
O  3.44900 41.95800 30.14300
C  3.67400 40.68100 30.78700
H  -4.40000 43.44300 28.33300
H  -4.09400 43.56000 21.96200
H  2.28100 44.28500 22.10200
H  0.12400 42.61500 29.96600
H  -2.41800 44.15300 30.01700
H  -3.11800 41.49800 29.76400
H  -2.75000 42.20700 31.28600
H  -1.49400 41.26400 30.45800
H  -0.78400 45.59800 30.22400
H  0.89300 45.15500 29.94700
H  -0.40300 45.52300 32.27500
H  1.04200 45.16500 32.14800
H  -6.48700 43.69200 27.70200
H  -6.98700 42.17200 27.03500
H  -7.56700 43.68600 26.30800
H  -8.68700 43.50400 24.11400
H  -7.85700 42.02000 24.65900
H  -8.40100 42.22800 23.00000
H  -2.33600 44.63400 20.33100
H  0.45100 43.77500 20.41300
H  -2.48000 41.95800 20.69000
H  -0.93700 42.26900 19.71400
H  -2.45300 42.86000 19.06300
H  -0.62000 46.03600 19.43300
H  1.08600 45.78300 19.88500
H  0.84800 47.80600 20.92800
H  -0.03800 46.91900 22.16400
H  -0.93500 47.73400 20.93100
H  4.51700 42.67600 23.63000
H  5.37900 43.96900 24.27700
H  4.37000 44.06000 22.76700
H  2.63200 44.02200 29.14800
H  3.92800 39.88300 30.09000
H  2.82500 40.45000 31.43100
H  4.54700 40.85400 31.41700

