158

Mg -10.03800 39.68200 39.89200
C  -9.09600 36.33500 39.18200
C  -6.95500 40.70100 38.79700
C  -11.30200 42.92500 39.61300
C  -13.16400 38.59900 40.74100
N  -8.30900 38.57100 38.85900
C  -8.07100 37.24800 38.76300
C  -6.66800 36.95700 38.24900
C  -5.91900 38.34000 38.52300
C  -7.13500 39.23500 38.76300
C  -5.08300 38.30800 39.86400
C  -6.52900 36.38700 36.78200
C  -6.64100 37.28700 35.57500
H  -7.82400 37.16000 34.62900
N  -9.27000 41.50500 39.28500
C  -7.92900 41.71300 38.96200
C  -7.69300 43.12500 38.92900
C  -8.90400 43.77600 39.06900
C  -9.91700 42.73000 39.31900
C  -6.32400 43.77100 38.74400
C  -9.06100 45.34000 38.94200
O  -8.20300 46.10000 38.58000
C  -10.36900 45.95700 39.39600
N  -11.92300 40.66500 40.01900
C  -12.25600 41.98100 39.87600
C  -13.71700 42.39000 40.14400
C  -14.28700 40.95900 40.53500
C  -13.02800 39.98800 40.44600
C  -13.89200 43.52000 41.22500
C  -15.54300 40.61600 39.67400
C  -16.88300 40.84500 40.21600
N  -10.97200 37.82900 40.11100
C  -12.29500 37.56000 40.45700
C  -12.49900 36.13600 40.37400
C  -11.25800 35.62900 39.90100
C  -10.42900 36.68400 39.65400
C  -13.70300 35.33800 40.68300
C  -10.54600 34.39300 39.57100
O  -11.03900 33.26800 39.55300
C  -9.13600 34.76800 39.06000
C  -8.09000 34.04800 39.81800
O  -7.98300 33.99800 41.03100
O  -7.15600 33.61900 38.97600
C  -5.83700 33.10000 39.41300
H  -5.90400 40.96800 38.67300
H  -11.68300 43.93700 39.45900
H  -14.16900 38.32200 41.06500
H  -6.40800 36.14200 38.92400
H  -5.27300 38.75600 37.75100
H  -5.11300 37.32300 40.33000
H  -5.27300 39.04000 40.64900
H  -4.02600 38.56800 39.79400
H  -7.33500 35.65300 36.77400
H  -5.62600 35.77600 36.77100
H  -5.68600 37.15200 35.06800
H  -6.61700 38.30300 35.97100
H  -6.29200 44.20400 37.74400
H  -5.51000 43.05100 38.83100
H  -6.14600 44.59200 39.43900
H  -10.58700 45.71700 40.43700
H  -11.21400 45.82900 38.72000
H  -10.26300 47.04200 39.40900
H  -14.07600 42.78800 39.19500
H  -14.56100 40.96000 41.59000
H  -12.85300 43.69200 41.50500
H  -14.45200 43.21900 42.11000
H  -14.26300 44.42600 40.74500
H  -15.35600 39.64300 39.22000
H  -15.56700 41.34400 38.86400
H  -17.55100 39.98600 40.15900
H  -17.40400 41.69000 39.76500
H  -16.84200 41.01800 41.29100
H  -14.46400 35.34300 39.90200
H  -14.01700 35.74900 41.64200
H  -13.33700 34.31400 40.61700
H  -9.07100 34.49700 38.00600
H  -5.78800 33.18000 40.49900
H  -4.99000 33.54600 38.89300
H  -5.72600 32.04900 39.14400
Mg -2.24500 35.38100 27.31900
C  -4.06800 33.45700 29.54200
C  -1.32000 37.45000 29.86500
C  -0.57800 37.13200 25.10500
C  -3.45100 33.24700 24.72200
N  -2.71000 35.49800 29.36400
C  -3.31700 34.55100 30.13000
C  -3.17300 34.75400 31.59900
C  -2.60800 36.11500 31.69000
C  -2.16600 36.38200 30.27400
C  -3.64400 37.15600 32.29200
C  -2.55200 33.60400 32.43200
C  -3.27100 33.04900 33.60900
H  -2.48800 32.51600 34.82000
N  -1.20500 37.09500 27.46400
C  -0.87000 37.78200 28.57300
C  -0.02200 38.93500 28.27900
C  0.21200 38.86800 26.88200
C  -0.52600 37.65700 26.42100
C  0.30300 40.01400 29.28900
C  1.01900 39.75400 26.04100
O  1.13500 39.56700 24.81000
C  1.74300 40.95200 26.68500
N  -2.02300 35.26700 25.27300
C  -1.20900 36.02700 24.55500
C  -1.15000 35.68400 23.03900
C  -2.05300 34.44700 23.00300
C  -2.54900 34.23100 24.44600
C  -1.62500 36.79000 22.02700
C  -1.28200 33.13100 22.46500
C  -1.76200 32.55100 21.09500
N  -3.64600 33.84900 27.08600
C  -3.97300 33.01300 26.02500
C  -4.92500 31.98300 26.41200
C  -4.91800 32.05800 27.78100
C  -4.19000 33.22500 28.18500
C  -5.56100 30.93200 25.55200
C  -5.32500 31.41900 28.94800
O  -5.91300 30.36100 29.10500
C  -4.88200 32.33400 30.20200
C  -6.20200 32.83600 30.89500
O  -7.11600 33.45100 30.24000
O  -6.27600 32.60600 32.18500
C  -7.46200 32.91700 32.88200
H  -0.99600 37.92900 30.79200
H  -0.12700 37.72800 24.30900
H  -3.77300 32.46400 24.03200
H  -4.21600 34.81900 31.90900
H  -1.67600 36.07500 32.25300
H  -3.23300 38.16200 32.37800
H  -3.89700 36.98400 33.33800
H  -4.59000 37.06400 31.75800
H  -1.63400 33.98400 32.88100
H  -2.31000 32.79200 31.74700
H  -3.73400 32.12400 33.26400
H  -4.08400 33.68700 33.95600
H  0.03100 39.85700 30.33200
H  -0.11200 40.94000 28.88900
H  1.39000 40.08900 29.30100
H  2.78600 40.73300 26.91400
H  1.34300 41.39400 27.59800
H  1.58700 41.70100 25.90900
H  -0.13300 35.35000 22.83100
H  -2.97700 34.56700 22.43600
H  -1.12100 36.49100 21.10800
H  -1.57100 37.82100 22.37700
H  -2.68600 36.62100 21.84400
H  -1.34600 32.39200 23.26400
H  -0.21700 33.27000 22.28100
H  -0.79200 32.38500 20.62700
H  -2.45800 33.23400 20.60700
H  -2.30300 31.64200 21.35500
H  -6.43300 30.48500 26.03000
H  -4.88100 30.15900 25.19500
H  -5.88300 31.29700 24.57700
H  -4.23000 31.76500 30.86400
H  -7.15500 33.60400 33.67100
H  -7.88200 31.99400 33.28100
H  -8.28300 33.37700 32.33200

