158

Mg -1.06400 17.73700 26.49500
C  -1.42600 15.70200 29.38100
C  -1.93700 20.49600 28.45100
C  -1.39800 19.55200 23.70700
C  -0.64400 14.84800 24.64100
N  -1.56200 18.02500 28.69400
C  -1.69100 17.06900 29.69700
C  -1.98800 17.67400 31.03900
C  -2.21000 19.24700 30.73700
C  -1.87900 19.30100 29.19100
C  -3.53600 19.83800 31.14600
C  -0.94300 17.37500 32.19600
C  -1.05700 18.23200 33.54600
H  -0.79600 17.44100 34.85400
N  -1.48500 19.75500 26.15200
C  -1.67100 20.78200 27.06900
C  -1.77000 22.08000 26.40700
C  -1.68400 21.81300 25.03500
C  -1.48000 20.34300 24.89300
C  -2.00700 23.37400 27.24100
C  -1.86200 22.81400 23.95900
O  -1.96900 22.49600 22.80900
C  -1.90100 24.25500 24.24500
N  -1.23600 17.21000 24.45400
C  -1.29000 18.18500 23.44500
C  -0.98400 17.56600 22.11300
C  -0.47400 16.07400 22.50200
C  -0.76100 16.02700 23.97700
C  -2.16300 17.55800 21.07600
C  0.96000 15.67400 22.13300
C  2.10100 16.57200 22.56100
N  -0.97500 15.72100 26.87300
C  -0.84500 14.66200 25.99400
C  -0.86600 13.40300 26.69900
C  -0.99400 13.79500 28.01800
C  -1.14900 15.17700 28.09800
C  -0.63600 11.92600 26.12500
C  -0.91600 13.27500 29.35600
O  -0.60100 12.14900 29.79800
C  -1.21300 14.51000 30.34700
C  -0.03200 14.40300 31.33300
O  1.14400 14.65100 31.08300
O  -0.49700 13.75500 32.44800
C  0.58800 13.50500 33.41400
H  -2.23600 21.36500 29.04100
H  -1.37700 20.11400 22.77100
H  -0.32800 13.95200 24.10100
H  -2.85300 17.15600 31.45600
H  -1.38900 19.71000 31.28500
H  -4.00700 20.65800 30.60400
H  -3.29500 20.28100 32.11200
H  -4.30700 19.06800 31.14400
H  0.03600 17.38800 31.71700
H  -1.25300 16.37600 32.50000
H  -2.01800 18.74300 33.59900
H  -0.19800 18.89100 33.41700
H  -1.26000 24.13000 27.00000
H  -1.94400 23.24800 28.32200
H  -3.01000 23.69900 26.96700
H  -2.85300 24.51400 24.70900
H  -1.87400 24.78700 23.29400
H  -0.95700 24.46000 24.75100
H  -0.15700 18.09900 21.64300
H  -1.11500 15.39300 21.94200
H  -2.97000 18.05600 21.61500
H  -2.42800 16.54300 20.78000
H  -1.90500 17.98100 20.10500
H  0.89100 15.54300 21.05300
H  1.10900 14.69600 22.59100
H  1.83500 17.32400 23.30400
H  2.49100 17.11900 21.70200
H  2.94600 16.07400 23.03500
H  0.21300 11.97400 25.44300
H  -1.53200 11.43000 25.75000
H  -0.33900 11.41900 27.04300
H  -2.17000 14.39600 30.85500
H  1.21400 12.65900 33.13000
H  0.12800 13.33600 34.38800
H  1.13100 14.42100 33.64400
Mg 29.30200 59.77500 40.84200
C  26.24000 58.36500 40.06200
C  30.81700 56.90000 39.78100
C  32.29900 61.33200 41.11900
C  27.62900 62.77200 41.50300
N  28.59700 57.87100 40.12500
C  27.35100 57.63500 39.70000
C  27.41300 56.28700 38.88900
C  28.69500 55.56400 39.35500
C  29.41500 56.83100 39.73900
C  28.54700 54.53100 40.46400
C  27.26500 56.48100 37.36400
C  26.70600 55.28600 36.57800
H  25.92100 55.70100 35.39100
N  31.28500 59.17300 40.47200
C  31.73200 57.98000 40.05200
C  33.16800 57.95400 39.93000
C  33.62800 59.19200 40.30600
C  32.36600 59.91900 40.69800
C  33.96200 56.73800 39.48000
C  35.05700 59.58300 40.49600
O  35.93600 58.75100 40.31000
C  35.43600 60.98000 40.85700
N  29.85900 61.79800 41.29400
C  31.19700 62.13700 41.39000
C  31.33400 63.66600 41.71600
C  29.79300 63.96600 42.02300
C  29.01000 62.78900 41.54300
C  32.28000 64.05200 42.84400
C  29.17100 65.31500 41.49000
C  28.28400 66.15200 42.42100
N  27.25300 60.41600 41.10000
C  26.79200 61.67700 41.26700
C  25.40400 61.61400 41.18500
C  25.11500 60.29400 40.65500
C  26.27800 59.62900 40.62500
C  24.40300 62.61800 41.44000
C  24.01900 59.37200 40.23400
O  22.81200 59.43500 40.26700
C  24.71800 58.05600 39.84300
C  24.27900 56.91300 40.84900
O  24.32700 57.14600 42.04800
O  23.78200 55.81900 40.21500
C  23.49300 54.73000 41.17100
H  31.18400 55.92300 39.46100
H  33.25600 61.84300 41.24300
H  27.13100 63.70100 41.78700
H  26.58100 55.66100 39.21500
H  29.16200 55.09200 38.49100
H  28.80700 54.94100 41.44000
H  29.19100 53.66100 40.33300
H  27.51200 54.19400 40.40400
H  28.23200 56.76200 36.94700
H  26.52900 57.24900 37.12800
H  26.10200 54.58600 37.15600
H  27.57000 54.69700 36.27000
H  33.34000 55.97900 39.00400
H  34.61200 56.25500 40.20900
H  34.63600 57.17000 38.74000
H  34.95000 61.62600 40.12600
H  36.49400 61.23300 40.92900
H  35.14800 61.08000 41.90300
H  31.76300 64.21000 40.87500
H  29.77200 63.92700 43.11200
H  32.97000 63.26700 43.15500
H  31.72900 64.15100 43.77900
H  32.94100 64.86800 42.55100
H  28.58800 65.03800 40.61200
H  30.02700 65.89200 41.14000
H  28.57700 67.20100 42.37400
H  28.41800 65.85200 43.46000
H  27.21900 66.06000 42.20800
H  23.46200 62.55700 40.89300
H  24.71500 63.54000 40.95100
H  24.38100 62.82200 42.51000
H  24.52200 57.68600 38.83700
H  24.46800 54.29500 41.39000
H  22.90900 53.89000 40.79400
H  23.00900 54.99100 42.11200

