158

Mg 40.65700 9.03600 29.49700
C  42.14500 10.55100 32.20300
C  38.30500 7.64000 31.71600
C  39.03300 7.70200 26.93500
C  43.07000 10.35800 27.43300
N  40.32300 9.05200 31.73200
C  41.05400 9.77700 32.60500
C  40.50100 9.56700 34.00500
C  39.33900 8.51300 33.83800
C  39.34600 8.25300 32.35500
C  39.43200 7.26900 34.69100
C  40.11000 10.98300 34.65500
C  39.38600 10.90900 35.99900
H  39.78600 11.78500 37.21000
N  38.93000 7.82700 29.36800
C  38.15200 7.38600 30.33700
C  37.01700 6.71300 29.78600
C  37.20400 6.63700 28.37800
C  38.43200 7.39500 28.16100
C  35.89100 6.04800 30.62200
C  36.44800 5.87900 27.27800
O  36.80200 5.87800 26.14900
C  35.15100 5.18700 27.62200
N  41.04300 8.92400 27.38700
C  40.22800 8.33200 26.56700
C  40.75600 8.55700 25.08200
C  41.93100 9.54500 25.21600
C  42.01200 9.66800 26.75700
C  41.01700 7.21900 24.38600
C  41.60800 10.90000 24.43700
C  40.50600 11.82700 24.97200
N  42.29600 10.07200 29.71800
C  43.20600 10.49900 28.82100
C  44.21800 11.39500 29.43800
C  43.83100 11.46200 30.80200
C  42.68900 10.64600 30.92500
C  45.34900 12.12500 28.72300
C  44.17200 11.98000 32.04200
O  45.13900 12.59800 32.34100
C  43.08200 11.39400 33.05900
C  43.72200 10.47200 34.06600
O  44.26200 9.38200 33.81600
O  43.64400 11.05100 35.31400
C  44.20500 10.34300 36.42600
H  37.61500 7.19000 32.43200
H  38.39900 7.62300 26.04900
H  43.79700 10.68800 26.68800
H  41.32700 9.07800 34.52100
H  38.40100 8.99000 34.12200
H  40.27000 7.27400 35.38900
H  39.57100 6.46900 33.96500
H  38.51300 7.08200 35.24500
H  39.54900 11.48000 33.86400
H  40.90800 11.69600 34.86600
H  39.50100 9.86700 36.29800
H  38.30800 10.96200 35.84800
H  36.27200 5.76500 31.60300
H  35.55800 5.07700 30.25300
H  35.03500 6.70500 30.76900
H  34.45800 5.90900 28.05300
H  35.37500 4.37300 28.31100
H  34.71200 4.78300 26.71000
H  39.88100 8.89900 24.52900
H  42.87600 9.07700 24.93900
H  42.06700 7.15000 24.10000
H  40.41600 7.06400 23.49000
H  40.82800 6.39600 25.07600
H  41.45600 10.67600 23.38100
H  42.52900 11.45700 24.26600
H  40.88100 12.79000 25.32000
H  40.02900 11.39700 25.85300
H  39.69700 11.79000 24.24200
H  45.88600 12.74000 29.44600
H  44.92700 12.88500 28.06600
H  45.96100 11.41000 28.17400
H  42.43500 12.16400 33.47900
H  43.79900 9.33200 36.46100
H  44.05200 10.76600 37.41900
H  45.28000 10.18700 36.33500
Mg 17.06600 52.19800 26.74200
C  19.17600 50.79100 29.30100
C  14.81800 52.90800 29.24100
C  15.20600 53.48100 24.39800
C  19.25800 50.80900 24.43400
N  17.06200 51.94200 28.98000
C  18.01800 51.42400 29.78300
C  17.61000 51.52600 31.23100
C  16.07600 51.70900 31.11200
C  15.97700 52.24100 29.65600
C  15.41900 50.29700 31.08800
C  18.36000 52.73200 31.90200
C  18.38000 52.66800 33.46600
H  17.39000 51.73500 34.19900
N  15.27800 53.11200 26.77200
C  14.52400 53.36400 27.94700
C  13.41500 54.27600 27.55000
C  13.55700 54.46600 26.12900
C  14.68000 53.63400 25.66900
C  12.32600 54.75800 28.50400
C  12.78000 55.41200 25.28900
O  12.97300 55.39400 24.07800
C  11.75000 56.37000 25.85100
N  17.15800 52.01100 24.67800
C  16.29200 52.73000 23.93600
C  16.83700 52.91300 22.56200
C  18.08400 51.92700 22.52000
C  18.21600 51.58200 23.96200
C  15.81600 52.50200 21.37800
C  19.43600 52.68600 22.13600
C  20.22100 52.22200 20.93900
N  18.78700 50.99500 26.81700
C  19.54700 50.45000 25.78000
C  20.63600 49.60600 26.25300
C  20.58500 49.73100 27.59500
C  19.47200 50.64200 27.87600
C  21.65500 48.88900 25.40000
C  21.23100 49.37600 28.84200
O  22.20000 48.67500 29.11700
C  20.39600 50.16600 29.92600
C  20.01800 49.22200 31.02200
O  19.45300 48.18700 30.79900
O  20.37200 49.60600 32.20700
C  20.25500 48.64000 33.32000
H  14.11800 53.05400 30.06600
H  14.94800 54.01400 23.47900
H  20.03800 50.54600 23.71600
H  17.93800 50.59300 31.69000
H  15.51400 52.40000 31.74100
H  16.16900 49.52100 30.93400
H  14.65800 50.28900 30.30700
H  14.89100 50.25300 32.04000
H  17.93300 53.67300 31.55500
H  19.41200 52.62100 31.64100
H  18.39900 53.68500 33.85800
H  19.38000 52.26300 33.62000
H  12.47200 55.83500 28.42100
H  12.56600 54.40100 29.50600
H  11.38300 54.34800 28.14500
H  11.05800 55.79800 26.46800
H  11.29000 56.94200 25.04500
H  12.07400 57.15200 26.53700
H  17.12500 53.95400 22.42100
H  17.87800 51.05300 21.90200
H  15.19000 51.64400 21.62200
H  16.47300 52.43200 20.51100
H  15.22400 53.40800 21.24900
H  20.18500 52.80800 22.91900
H  19.09100 53.69900 21.92800
H  21.22600 52.11800 21.34800
H  20.23200 52.87400 20.06500
H  19.74900 51.29000 20.62800
H  22.62300 49.10100 25.85300
H  21.61600 49.41800 24.44700
H  21.48300 47.81300 25.37700
H  21.15200 50.88300 30.24700
H  20.12000 47.57400 33.13700
H  19.37700 48.99500 33.85900
H  21.15700 48.65700 33.93200

