158

Mg 0.97500 7.79300 25.22600
C  1.51500 9.68400 28.24400
C  1.40400 4.98700 27.25500
C  0.89400 5.93400 22.41100
C  1.16200 10.73600 23.43400
N  1.51600 7.41400 27.50000
C  1.57400 8.29400 28.51000
C  1.74100 7.65400 29.92000
C  1.73800 6.11000 29.57300
C  1.59700 6.12900 28.02100
C  3.07700 5.41900 29.95000
C  0.53100 7.97100 30.94300
C  1.00200 8.27300 32.46500
H  2.15500 7.50100 32.97000
N  1.05300 5.72400 24.87700
C  1.13700 4.79500 25.88800
C  0.86500 3.50700 25.27900
C  0.63300 3.72700 23.87400
C  0.84300 5.12900 23.61600
C  0.60100 2.22600 26.10400
C  0.23300 2.82200 22.77000
O  -0.03500 3.21400 21.62300
C  0.03400 1.32300 22.92500
N  1.22200 8.24300 23.18900
C  1.07700 7.31000 22.18400
C  0.82100 8.02700 20.83100
C  1.09700 9.51000 21.13900
C  1.12300 9.55100 22.66300
C  1.44500 7.40800 19.54100
C  0.10000 10.44300 20.45800
C  -1.27800 10.66400 21.24200
N  1.33600 9.81800 25.63300
C  1.28300 10.90300 24.80300
C  1.44300 12.14200 25.54600
C  1.50600 11.67300 26.90800
C  1.34700 10.26900 26.91600
C  1.76200 13.49700 24.94300
C  1.82800 12.12400 28.25000
O  2.08100 13.20900 28.66200
C  1.67700 10.81000 29.15000
C  2.78200 10.81600 30.09100
O  3.88500 10.23400 29.92100
O  2.43300 11.44200 31.25800
C  3.49900 11.48600 32.25100
H  1.50000 4.09900 27.88300
H  0.75400 5.47500 21.43000
H  1.03200 11.67500 22.89100
H  2.74200 7.95900 30.22500
H  0.83400 5.67200 29.99600
H  3.14300 5.75900 30.98300
H  3.98900 5.67900 29.41200
H  3.09700 4.33000 29.90600
H  -0.28600 7.26200 30.80900
H  0.16800 8.90500 30.51500
H  0.13800 7.93000 33.03400
H  1.10500 9.35300 32.57500
H  -0.46600 2.00200 26.11000
H  0.71900 2.48500 27.15700
H  1.14400 1.35200 25.74600
H  0.80700 0.91200 23.57500
H  0.02800 0.82100 21.95700
H  -0.87400 1.16000 23.50600
H  -0.24400 7.95700 20.61100
H  2.07100 9.81600 20.75800
H  2.15400 6.62500 19.80800
H  1.94200 8.15800 18.92500
H  0.70100 6.90200 18.92500
H  -0.18500 10.25200 19.42400
H  0.52900 11.44300 20.52400
H  -2.06900 11.12600 20.65100
H  -1.23200 11.41400 22.03200
H  -1.60600 9.75000 21.73700
H  2.71700 13.33600 24.44300
H  2.04400 14.07300 25.82500
H  0.85700 13.79900 24.41700
H  0.83600 10.93900 29.83200
H  3.95400 10.51900 32.46600
H  3.08500 11.82000 33.20300
H  4.31900 12.10900 31.89300
Mg -3.42700 34.65100 25.99500
C  -4.94400 32.71200 28.64400
C  -2.08900 36.64800 28.50100
C  -2.33400 36.73300 23.65500
C  -5.18700 32.70400 23.74200
N  -3.62400 34.63900 28.26200
C  -4.08400 33.66500 29.13200
C  -3.68300 33.98600 30.65700
C  -2.79100 35.30000 30.46300
C  -2.81400 35.53400 28.96600
C  -3.26600 36.52400 31.31300
C  -3.04300 32.81000 31.44600
C  -3.70200 32.40000 32.80200
H  -2.84200 32.47200 33.98700
N  -2.23300 36.32000 26.09200
C  -1.73500 36.97600 27.20800
C  -0.81700 38.07900 26.76100
C  -0.81900 37.99700 25.30600
C  -1.84700 37.01400 24.93300
C  -0.05000 38.94700 27.73200
C  0.06700 38.83900 24.32300
O  0.04800 38.74800 23.10400
C  0.97600 39.91700 24.89500
N  -3.88300 34.75400 24.07900
C  -3.32300 35.78200 23.27300
C  -3.87300 35.68400 21.81900
C  -4.40500 34.19900 21.77900
C  -4.50000 33.86000 23.24500
C  -4.93000 36.82800 21.48600
C  -3.45300 33.22300 21.04100
C  -2.13200 32.83400 21.68800
N  -4.83200 33.03900 26.15300
C  -5.45200 32.34700 25.10300
C  -6.24600 31.25700 25.62100
C  -6.13200 31.33500 27.06600
C  -5.24500 32.49000 27.29500
C  -7.08400 30.31800 24.85400
C  -6.40500 30.68500 28.29700
O  -7.01000 29.66200 28.59100
C  -5.73300 31.64200 29.37700
C  -6.78900 32.14400 30.27500
O  -7.80200 32.77500 30.01800
O  -6.50400 31.74000 31.60600
C  -7.57400 31.93600 32.60300
H  -1.57200 37.21400 29.27800
H  -2.08400 37.47300 22.89200
H  -5.51800 31.95900 23.01600
H  -4.60700 34.28300 31.15400
H  -1.79300 35.05400 30.82700
H  -2.44500 37.04100 31.80900
H  -3.92700 36.16800 32.10400
H  -3.82200 37.28000 30.75900
H  -2.07200 33.14400 31.81300
H  -2.92600 31.85800 30.92800
H  -4.09500 31.39800 32.62500
H  -4.62400 32.89700 33.10300
H  -0.44900 39.96000 27.68000
H  1.02300 38.94300 27.53800
H  -0.14900 38.58400 28.75500
H  1.56500 40.33400 24.07800
H  1.73200 39.43000 25.51000
H  0.47700 40.65300 25.52500
H  -3.00600 35.89200 21.19200
H  -5.39500 34.13400 21.32800
H  -4.37400 37.61600 20.97900
H  -5.46200 37.15800 22.37800
H  -5.73300 36.47300 20.84000
H  -3.16300 33.60200 20.06200
H  -4.13900 32.39600 20.85800
H  -1.94100 31.76400 21.77400
H  -1.97800 33.29100 22.66500
H  -1.33000 33.33500 21.14600
H  -7.46300 29.71600 25.68000
H  -6.47900 29.86900 24.06600
H  -7.98000 30.70100 24.36500
H  -5.08700 30.95700 29.92700
H  -7.26900 31.51000 33.55800
H  -8.42100 31.33700 32.27000
H  -7.92400 32.96400 32.70400

