158

Mg 0.75000 7.54100 27.24000
C  1.38500 9.67900 29.91500
C  0.38200 4.97500 29.54700
C  0.01500 5.74200 24.69600
C  1.34500 10.30600 25.07900
N  0.89800 7.34200 29.42200
C  1.19700 8.38700 30.33300
C  1.32000 7.80900 31.74500
C  1.34800 6.28600 31.57600
C  0.83300 6.19500 30.09700
C  2.87100 5.83500 31.68500
C  0.11600 8.35600 32.60700
C  0.15700 7.97200 34.05700
H  1.32600 7.27100 34.83300
N  0.17300 5.63200 27.14400
C  0.00800 4.68000 28.17500
C  -0.56900 3.49200 27.58000
C  -0.67700 3.71800 26.15300
C  -0.23000 5.08400 25.92900
C  -0.99500 2.25500 28.33200
C  -1.02600 2.68300 24.98100
O  -0.79800 2.91200 23.82100
C  -1.56300 1.29700 25.29400
N  0.75800 7.98300 25.15800
C  0.41000 6.99300 24.32800
C  0.50500 7.47000 22.82400
C  0.68600 9.06000 23.00100
C  1.00800 9.13000 24.49300
C  1.60700 6.72900 22.03200
C  -0.61700 9.86400 22.67700
C  -0.39200 11.31200 22.21900
N  1.27700 9.56200 27.37800
C  1.43500 10.59500 26.45600
C  1.76400 11.79200 27.06600
C  1.87300 11.52000 28.42900
C  1.43200 10.15700 28.56500
C  2.11200 13.09300 26.47600
C  2.21000 12.05700 29.71000
O  2.47600 13.18000 29.96500
C  1.74900 10.93900 30.74000
C  2.67000 10.79300 31.82400
O  3.82200 10.39300 31.68300
O  2.18000 11.24000 33.04000
C  2.97000 11.15100 34.26900
H  0.30500 4.19200 30.30500
H  -0.38500 5.12800 23.88700
H  1.40800 11.22100 24.48600
H  2.22900 8.30200 32.08800
H  0.68000 5.72000 32.22500
H  3.02400 5.15300 32.52200
H  3.56100 6.63600 31.95000
H  3.17800 5.37700 30.74500
H  -0.81400 7.88700 32.28400
H  0.10000 9.44100 32.50600
H  -0.80400 7.50000 34.26000
H  0.04500 8.82300 34.73000
H  -2.05700 2.01400 28.29400
H  -0.74900 2.37600 29.38700
H  -0.42000 1.40700 27.96100
H  -0.69800 0.80300 25.73700
H  -1.88200 0.78300 24.38700
H  -2.42100 1.31200 25.96700
H  -0.48300 7.30500 22.39500
H  1.65000 9.36000 22.59100
H  1.27400 6.22000 21.12800
H  2.01400 5.99400 22.72600
H  2.47500 7.24000 21.61400
H  -1.27400 9.83500 23.54600
H  -1.01700 9.22500 21.89000
H  -0.53800 12.01400 23.04000
H  -1.05000 11.56800 21.39000
H  0.63000 11.55700 21.92900
H  1.23300 13.73600 26.45400
H  2.57700 12.97200 25.49800
H  2.77200 13.56500 27.20400
H  0.84500 11.41400 31.12200
H  2.63100 10.43600 35.01800
H  2.90400 12.10100 34.79900
H  4.00300 10.88100 34.05300
Mg 24.36600 0.55600 29.69800
C  26.46100 0.55400 32.56200
C  21.68700 0.55100 31.75100
C  22.45500 0.53100 26.97300
C  27.31300 -0.10600 27.76100
N  24.15000 0.69100 31.90500
C  25.09600 0.74600 32.88100
C  24.44200 1.00700 34.28000
C  22.92100 0.67000 33.88900
C  22.85700 0.63600 32.45500
C  22.52400 -0.74600 34.36200
C  24.83100 2.42100 34.78100
C  24.50900 2.58300 36.27200
H  25.55100 2.23300 37.28500
N  22.32200 0.65200 29.39200
C  21.35000 0.59400 30.38400
C  19.99600 0.67700 29.71600
C  20.25300 0.67800 28.28500
C  21.70300 0.61200 28.18800
C  18.67300 0.66000 30.43500
C  19.33000 0.77300 27.15200
O  19.54200 0.53300 25.97500
C  17.94800 1.09400 27.56900
N  24.84900 0.15000 27.66400
C  23.89800 0.40800 26.73000
C  24.48800 0.19000 25.29100
C  26.02500 0.10600 25.55400
C  26.06000 0.09100 27.10700
C  23.92200 -1.08100 24.60500
C  26.93900 1.20300 24.98600
C  27.15200 2.45600 25.78700
N  26.44500 0.22200 29.98700
C  27.53100 0.02100 29.11600
C  28.76500 0.03200 29.86300
C  28.41300 0.26800 31.13000
C  27.02000 0.28800 31.23300
C  30.13100 -0.20500 29.20400
C  28.93900 0.53700 32.46800
O  30.10700 0.65100 32.87400
C  27.65800 0.70600 33.45400
C  27.79500 -0.41100 34.43400
O  27.09000 -1.36400 34.46100
O  28.82200 -0.08700 35.27500
C  28.91300 -0.90000 36.43200
H  20.73600 0.67300 32.27500
H  21.88300 0.57700 26.04300
H  28.12900 -0.19400 27.04000
H  24.90000 0.38100 35.04600
H  22.24400 1.40500 34.32400
H  23.22600 -0.84300 35.19000
H  22.56400 -1.62600 33.72000
H  21.56000 -0.72700 34.87200
H  24.24100 3.16100 34.24100
H  25.89300 2.43100 34.53300
H  23.53700 2.12000 36.44500
H  24.27500 3.64700 36.29700
H  18.03500 1.46800 30.07800
H  18.76800 0.74100 31.51800
H  18.17800 -0.30200 30.29900
H  17.99200 2.05400 28.08200
H  17.58000 0.28400 28.19900
H  17.31600 1.36200 26.72200
H  24.24000 0.99500 24.60000
H  26.34300 -0.89800 25.27600
H  22.85200 -1.26800 24.70300
H  24.42000 -1.97900 24.97000
H  24.08600 -0.93700 23.53700
H  26.37400 1.57300 24.13000
H  27.86500 0.76300 24.61700
H  26.66000 2.59700 26.75000
H  27.14100 3.38400 25.21700
H  28.21400 2.34000 26.00300
H  30.12100 -0.12600 28.11700
H  30.43400 -1.21500 29.47800
H  30.98600 0.41600 29.46900
H  27.85500 1.68000 33.90200
H  28.82300 -1.95400 36.17100
H  28.12200 -0.73800 37.16500
H  29.85800 -0.65900 36.92000

