158

Mg 23.80900 -6.76000 46.45100
C  26.12600 -4.58500 45.13300
C  21.55700 -5.47300 43.94600
C  21.60700 -9.34500 47.02700
C  26.29000 -8.54400 48.12700
N  23.85300 -5.30500 44.74100
C  24.90300 -4.46600 44.45200
C  24.61600 -3.40700 43.43900
C  22.99100 -3.41400 43.39900
C  22.74100 -4.78800 44.05300
C  22.32400 -2.31200 44.20000
C  25.34300 -3.58100 41.99800
C  26.27000 -2.46000 41.50300
H  26.11000 -1.95600 40.04700
N  21.83800 -7.24200 45.73500
C  21.12100 -6.59000 44.71700
C  19.76500 -7.06000 44.69300
C  19.70300 -8.17500 45.67100
C  21.05200 -8.30900 46.25600
C  18.67500 -6.64700 43.80500
C  18.41100 -9.00700 46.11400
O  17.29100 -8.65200 45.69500
C  18.46500 -10.09600 47.12800
N  23.88600 -8.67200 47.49500
C  22.86700 -9.50800 47.63800
C  23.31400 -10.76500 48.42300
C  24.83200 -10.49600 48.76200
C  25.00700 -9.10300 48.15800
C  22.43400 -11.07800 49.68500
C  25.81800 -11.48200 48.17700
C  26.56900 -12.20600 49.30300
N  25.71800 -6.51500 46.74800
C  26.64900 -7.33500 47.44300
C  27.94200 -6.73300 47.24500
C  27.76800 -5.62700 46.40500
C  26.41100 -5.62200 46.11400
C  29.29200 -7.33500 47.49600
C  28.41500 -4.53700 45.74100
O  29.64200 -4.18400 45.81200
C  27.39500 -3.87200 44.78600
C  27.40700 -2.44800 45.16900
O  26.89200 -1.91200 46.14300
O  28.21100 -1.82200 44.29700
C  28.41000 -0.37800 44.47100
H  20.80000 -5.01200 43.30800
H  20.88900 -10.12600 47.28400
H  27.14800 -9.03200 48.59400
H  24.95800 -2.48200 43.90300
H  22.56000 -3.41300 42.39800
H  21.99400 -1.56100 43.48300
H  23.12400 -1.84200 44.77200
H  21.45400 -2.57800 44.80100
H  24.52400 -3.70400 41.29000
H  25.87300 -4.52500 42.12300
H  27.32700 -2.56000 41.74900
H  25.87900 -1.56600 41.98800
H  18.27300 -5.68800 44.13300
H  17.93200 -7.41000 43.57300
H  19.04900 -6.48700 42.79400
H  17.45800 -10.45700 47.33500
H  18.74900 -9.52900 48.01400
H  19.06400 -10.91200 46.72300
H  23.20800 -11.55700 47.68200
H  25.09800 -10.18800 49.77300
H  22.95300 -10.89000 50.62400
H  22.13500 -12.12300 49.59600
H  21.57100 -10.42200 49.79400
H  26.57400 -11.10000 47.49100
H  25.32700 -12.25900 47.59200
H  26.37500 -13.27000 49.44100
H  26.38300 -11.75500 50.27700
H  27.63500 -12.16500 49.08200
H  29.11400 -8.09400 48.25800
H  29.98900 -6.57900 47.85700
H  29.51500 -7.89500 46.58800
H  27.86000 -3.95300 43.80300
H  27.48500 0.04900 44.86000
H  28.50200 0.10600 43.49800
H  29.13000 -0.12100 45.24800
Mg 41.94200 41.26500 26.19000
C  41.05800 43.72600 28.57000
C  42.38400 39.02900 28.69500
C  43.11200 39.02800 23.91100
C  41.57900 43.57500 23.78600
N  41.78600 41.40800 28.37900
C  41.29100 42.45200 29.13900
C  41.31900 42.18000 30.71900
C  41.79300 40.65600 30.63700
C  42.04800 40.33200 29.15100
C  43.11900 40.38200 31.41000
C  39.94200 42.49200 31.43900
C  39.65700 41.73000 32.71800
H  39.15000 42.55700 33.97500
N  42.61900 39.26200 26.31400
C  42.66400 38.54500 27.43300
C  43.14700 37.16700 27.05200
C  43.38900 37.18900 25.66300
C  42.94000 38.51100 25.21700
C  43.49500 36.04200 28.06700
C  44.02900 36.13100 24.86500
O  44.28300 36.31400 23.69100
C  44.13000 34.70400 25.42900
N  42.39900 41.34100 24.22000
C  42.84100 40.30900 23.40600
C  42.82000 40.65900 21.91800
C  42.24200 42.15100 21.84300
C  42.05400 42.36700 23.36700
C  44.13800 40.61200 21.05500
C  40.91100 42.20400 21.11600
C  39.63000 41.79400 21.82900
N  41.55900 43.31500 26.16400
C  41.35700 44.10800 25.12000
C  40.85400 45.44500 25.52200
C  40.73300 45.28000 26.93600
C  41.20400 44.02200 27.22800
C  40.52000 46.62800 24.63200
C  40.29200 45.98300 28.10100
O  39.81500 47.09700 28.25700
C  40.52700 44.98800 29.24500
C  41.50700 45.68600 30.08000
O  42.61800 46.05500 29.84000
O  41.07500 45.90800 31.37500
C  42.07100 46.27400 32.38300
H  42.23200 38.33600 29.52500
H  43.42800 38.37000 23.09900
H  41.35700 44.25500 22.96000
H  42.07400 42.79500 31.20800
H  41.04400 39.99300 31.07100
H  43.78400 41.20300 31.13900
H  43.58900 39.43500 31.14700
H  43.01300 40.46500 32.49200
H  39.18400 42.42900 30.65800
H  39.95200 43.55900 31.66100
H  40.53100 41.22000 33.12200
H  38.88600 40.97100 32.58900
H  44.52400 35.72600 27.89700
H  42.74200 35.25500 28.05400
H  43.44500 36.51000 29.05000
H  44.99700 34.51400 26.06200
H  44.09900 34.01700 24.58300
H  43.15800 34.44300 25.84700
H  42.14100 40.01600 21.35900
H  43.00400 42.74600 21.33900
H  44.09000 41.26200 20.18100
H  44.35600 39.64700 20.59800
H  44.97800 40.82300 21.71800
H  41.07700 41.63200 20.20300
H  40.82600 43.22800 20.75200
H  39.31400 42.55800 22.53900
H  39.84300 40.88000 22.38300
H  39.01800 41.57900 20.95300
H  40.45000 46.32200 23.58800
H  41.26300 47.40300 24.82300
H  39.55800 46.98800 24.99800
H  39.59500 44.80500 29.78000
H  43.05000 45.83000 32.19800
H  41.69400 45.82900 33.30400
H  42.29200 47.33900 32.45900

