158

Mg 40.90000 8.37700 29.25700
C  42.43900 9.78300 32.09900
C  38.49100 7.01000 31.28400
C  39.68400 6.97200 26.50400
C  43.85600 9.30200 27.54500
N  40.53900 8.33500 31.51700
C  41.23600 9.10500 32.44500
C  40.47800 9.11900 33.81700
C  39.33700 8.12500 33.52500
C  39.43900 7.79400 31.98600
C  39.45900 6.68800 34.21600
C  40.07300 10.50300 34.32700
C  39.97900 10.57700 35.83600
H  40.95100 11.49300 36.61800
N  39.20200 7.17600 28.93300
C  38.33400 6.70600 29.90900
C  37.26100 6.02400 29.22400
C  37.56000 6.03400 27.87000
C  38.86300 6.69400 27.70500
C  36.08400 5.38400 29.92800
C  36.68100 5.53300 26.73100
O  36.97700 5.61000 25.55100
C  35.22200 5.06900 27.01500
N  41.67100 8.20500 27.34800
C  40.92400 7.61700 26.35200
C  41.65200 7.58000 25.03900
C  42.89000 8.62900 25.23200
C  42.81800 8.68400 26.84700
C  42.16200 6.20700 24.53100
C  42.92700 9.92900 24.44800
C  42.15800 11.08700 25.01500
N  42.78700 9.32800 29.70000
C  43.76000 9.71700 28.86700
C  44.70600 10.62200 29.59300
C  44.26600 10.63700 30.92400
C  43.05100 9.85000 30.90100
C  45.87300 11.30700 29.04900
C  44.53900 11.14900 32.25400
O  45.44600 11.75200 32.73500
C  43.35000 10.50800 33.07300
C  44.05300 9.61400 34.04600
O  44.79100 8.71100 33.69700
O  43.56200 9.84200 35.31400
C  43.95900 8.84000 36.31700
H  37.60900 6.80500 31.89300
H  39.29900 6.57800 25.56100
H  44.55400 9.88600 26.94100
H  41.08300 8.60900 34.56600
H  38.33100 8.42000 33.82400
H  39.92100 5.93100 33.58200
H  38.47500 6.26200 34.41200
H  40.02600 6.64000 35.14600
H  39.11500 10.75300 33.87100
H  40.72200 11.20200 33.79800
H  40.00600 9.58200 36.28100
H  38.96000 10.92400 36.00500
H  35.09900 5.75700 29.64600
H  36.19000 5.46700 31.00900
H  36.12500 4.33100 29.64700
H  35.20000 4.09100 27.49600
H  34.72700 5.03800 26.04400
H  34.81300 5.88600 27.61000
H  41.11200 8.03300 24.20800
H  43.75100 8.03700 24.92100
H  41.84600 6.09900 23.49400
H  41.70600 5.35300 25.03100
H  43.24500 6.08500 24.56100
H  42.40500 9.61300 23.54500
H  43.94900 10.15100 24.13800
H  41.66200 11.55700 24.16600
H  42.91500 11.70200 25.50300
H  41.46800 10.77600 25.80000
H  45.87800 11.36900 27.96100
H  46.71700 10.65400 29.27100
H  46.00400 12.27400 29.53500
H  42.93800 11.39400 33.55600
H  43.75700 9.12800 37.34800
H  45.02900 8.63500 36.28100
H  43.32100 7.97000 36.16600
Mg 47.42500 15.89300 27.98500
C  45.81200 15.60800 31.13000
C  49.46600 18.19100 29.26800
C  48.64500 16.31100 24.86500
C  44.89900 13.91100 26.68000
N  47.63300 16.67500 30.02700
C  46.97300 16.38400 31.15200
C  47.56200 17.25900 32.27400
C  48.51500 18.19600 31.64700
C  48.60700 17.61100 30.22100
C  48.11300 19.65400 31.64000
C  48.03100 16.43000 33.44600
C  47.96500 17.05500 34.85100
H  49.05300 16.59800 35.81300
N  48.92900 16.94300 27.18300
C  49.60100 17.91000 27.87900
C  50.53300 18.62700 26.99800
C  50.42600 17.98500 25.72200
C  49.27700 17.03900 25.87000
C  51.39600 19.76900 27.42900
C  51.24700 18.21500 24.50000
O  51.01100 17.64000 23.43900
C  52.38000 19.11700 24.54400
N  46.89600 15.22000 26.00100
C  47.59800 15.38200 24.90800
C  47.01000 14.61400 23.68500
C  45.98900 13.70200 24.42700
C  45.91400 14.27500 25.78600
C  46.48000 15.49600 22.50300
C  46.41100 12.22000 24.26900
C  47.64400 11.79800 25.08500
N  45.69700 15.01900 28.71000
C  44.73700 14.34900 28.00200
C  43.60900 14.03800 28.82100
C  44.02600 14.45700 30.07900
C  45.31200 15.08200 29.94000
C  42.45100 13.15000 28.44300
C  43.64500 14.54300 31.47900
O  42.62300 14.17500 32.04800
C  44.74900 15.31100 32.21400
C  44.27300 16.58900 32.82600
O  43.84800 17.55300 32.13800
O  44.43200 16.59900 34.13700
C  43.95300 17.80700 34.79400
H  50.19200 18.90800 29.65800
H  48.96700 16.42800 23.82800
H  44.18400 13.21400 26.23700
H  46.79800 17.95400 32.62300
H  49.46400 18.04200 32.16200
H  47.29800 19.93500 32.30700
H  47.80100 19.99200 30.65200
H  49.02600 20.16800 31.94300
H  49.07900 16.19300 33.26500
H  47.56100 15.45800 33.59600
H  46.99700 16.75600 35.25300
H  47.96800 18.14400 34.80500
H  52.48000 19.65200 27.40700
H  51.00300 20.19200 28.35300
H  51.20800 20.61700 26.77000
H  53.13800 18.65900 25.18000
H  51.94700 20.09500 24.75600
H  52.77200 19.25600 23.53700
H  47.87600 14.07800 23.29700
H  44.98500 13.73300 24.00200
H  46.45300 16.56100 22.73300
H  45.44500 15.30700 22.21600
H  47.23000 15.29000 21.74000
H  46.46700 11.98700 23.20500
H  45.57800 11.58100 24.56200
H  47.84100 12.34300 26.00800
H  48.51000 12.09800 24.49400
H  47.56400 10.73900 25.32900
H  41.73800 13.69000 27.82000
H  42.01100 12.73600 29.35000
H  43.01500 12.46100 27.81500
H  45.09600 14.69800 33.04600
H  44.27100 18.69800 34.25300
H  44.49100 17.91700 35.73500
H  42.91800 17.79800 35.13400

