158

Mg 40.42400 9.74400 29.61700
C  42.18800 11.06700 32.40600
C  38.21000 8.40100 31.90400
C  38.91700 8.26500 27.01600
C  43.24400 10.38200 27.66600
N  40.25600 9.64200 31.89200
C  40.97500 10.45000 32.80700
C  40.32500 10.55900 34.13600
C  39.24000 9.42400 34.04300
C  39.20000 9.11800 32.48700
C  39.42800 8.19700 34.96100
C  39.84800 11.91400 34.74400
C  39.22000 11.89800 36.16100
H  40.03600 12.44100 37.40400
N  38.68900 8.64800 29.48100
C  37.93400 8.17300 30.53600
C  36.87800 7.29200 30.06000
C  36.99800 7.37500 28.56700
C  38.23600 8.11700 28.26000
C  35.96600 6.46400 30.96000
C  36.12500 6.74300 27.41400
O  36.31000 6.95900 26.17200
C  34.95900 5.88300 27.81800
N  41.10000 9.30100 27.68900
C  40.22100 8.74500 26.78700
C  40.73800 8.97400 25.34000
C  42.22700 9.40200 25.52500
C  42.20900 9.73300 27.01500
C  40.60800 7.74700 24.36600
C  42.73200 10.53200 24.55900
C  42.60700 12.03200 24.96300
N  42.32700 10.63200 29.85400
C  43.36400 10.85300 28.97400
C  44.39800 11.61500 29.59500
C  43.90800 11.83200 30.89200
C  42.73200 11.01100 31.10500
C  45.54900 12.08800 28.87600
C  44.23400 12.47600 32.18000
O  45.19900 13.13200 32.42300
C  43.15000 11.96000 33.16100
C  43.80700 11.37700 34.37300
O  44.51400 10.35500 34.34700
O  43.40500 12.08500 35.44800
C  43.86600 11.60100 36.76300
H  37.49600 8.00400 32.63000
H  38.33900 7.96900 26.13700
H  43.99700 10.69500 26.93900
H  41.14200 10.16100 34.73700
H  38.28600 9.89400 34.28300
H  40.47700 8.16900 35.25500
H  39.31000 7.25200 34.43200
H  38.75100 8.26500 35.81300
H  38.98700 12.24700 34.16600
H  40.58500 12.71600 34.79700
H  38.90800 10.88000 36.39400
H  38.33700 12.53300 36.23500
H  36.33700 6.29600 31.97100
H  35.86500 5.48600 30.49000
H  34.95600 6.87000 31.02400
H  35.37100 5.01800 28.33700
H  34.32700 5.66900 26.95700
H  34.44000 6.45600 28.58700
H  40.30100 9.89200 24.94700
H  42.96300 8.63200 25.29300
H  40.26400 6.81900 24.82300
H  41.51800 7.51500 23.81400
H  39.80400 7.98700 23.66900
H  42.28400 10.37500 23.57800
H  43.78900 10.30900 24.41400
H  41.91200 12.24300 25.77500
H  42.18400 12.57900 24.12100
H  43.61300 12.42500 25.10700
H  45.31600 12.48400 27.88700
H  46.34600 11.35500 28.75100
H  45.82900 12.97500 29.44400
H  42.70200 12.88600 33.52200
H  44.95400 11.59000 36.83500
H  43.35500 10.66100 36.97300
H  43.56000 12.35500 37.48800
Mg 1.18200 42.62500 25.49800
C  2.09700 42.56500 29.06200
C  -1.61300 40.85200 26.46900
C  0.77100 41.77500 22.26900
C  4.27700 43.85200 24.82900
N  0.31300 41.96100 27.57900
C  0.80000 42.02600 28.82800
C  -0.19200 41.51700 29.90600
C  -1.22600 40.83200 28.94700
C  -0.77200 41.14000 27.55800
C  -1.34900 39.23600 29.13000
C  -0.76900 42.71900 30.74300
C  -0.85300 42.51700 32.25800
H  -1.42500 41.19400 32.83500
N  -0.35000 41.72500 24.45200
C  -1.45300 41.05000 25.03100
C  -2.32800 40.59700 23.97600
C  -1.65700 40.89300 22.70000
C  -0.31700 41.49800 23.06000
C  -3.68900 39.95400 24.31100
C  -2.05300 40.63300 21.26300
O  -1.35700 40.85300 20.27900
C  -3.48700 40.17300 20.98700
N  2.36500 42.69000 23.83200
C  1.98800 42.30300 22.61100
C  3.13500 42.50700 21.63300
C  4.04800 43.56200 22.33400
C  3.49900 43.46900 23.72800
C  3.82100 41.11300 21.27600
C  3.92400 45.05000 21.87200
C  2.50200 45.58400 21.77800
N  2.81100 43.26000 26.65400
C  4.06800 43.74600 26.22200
C  4.88800 44.00800 27.34200
C  4.15000 43.54200 28.45100
C  2.92000 43.08200 28.01200
C  6.28600 44.60700 27.30400
C  4.15700 43.36000 29.94500
O  5.02500 43.67400 30.76700
C  2.82400 42.70400 30.31500
C  3.03800 41.52400 31.08500
O  3.74800 40.57300 30.72800
O  2.28600 41.56800 32.22000
C  2.21700 40.38200 33.04700
H  -2.51200 40.36700 26.85500
H  0.75400 41.53000 21.20500
H  5.26800 44.16100 24.48900
H  0.26100 40.77700 30.56500
H  -2.21100 41.28500 29.06200
H  -2.39300 39.05700 29.38900
H  -0.72000 38.85100 29.93200
H  -1.14700 38.70400 28.20000
H  -1.74600 43.01200 30.35700
H  -0.15700 43.61000 30.60300
H  -1.53700 43.25900 32.67100
H  0.14800 42.74100 32.62600
H  -3.80800 39.35800 25.21600
H  -3.80600 39.22600 23.50900
H  -4.52100 40.65700 24.27100
H  -4.27400 40.60700 21.60400
H  -3.60600 39.09300 21.07400
H  -3.74200 40.39100 19.94900
H  2.79200 42.95200 20.69900
H  5.07400 43.19600 22.28800
H  3.15000 40.27200 21.44700
H  4.68800 41.01400 21.92900
H  4.11400 41.05800 20.22700
H  4.20100 44.91100 20.82700
H  4.78900 45.56500 22.28900
H  2.40700 45.78900 20.71100
H  2.42800 46.48600 22.38600
H  1.67400 44.96500 22.12200
H  6.33800 45.64800 26.98300
H  7.01300 44.01700 26.74600
H  6.69400 44.59200 28.31500
H  2.30700 43.38000 30.99600
H  2.10600 39.43000 32.52900
H  1.43800 40.47000 33.80500
H  3.14800 40.25700 33.60000

