158

Mg 16.90900 -1.88100 28.05100
C  16.18000 0.35300 30.54700
C  19.00600 -3.66300 30.13800
C  18.37000 -3.56100 25.46200
C  15.29700 0.30800 25.81800
N  17.64700 -1.62400 30.03300
C  17.08200 -0.71400 30.93900
C  17.58700 -1.06300 32.32300
C  18.69100 -2.18700 32.09800
C  18.35600 -2.56800 30.64600
C  20.17000 -1.69100 32.17600
C  16.40900 -1.44900 33.22800
C  16.47500 -0.99900 34.69400
H  17.64800 -0.11100 35.21900
N  18.31800 -3.61900 27.84600
C  19.04400 -4.15300 28.80800
C  19.80100 -5.25900 28.31000
C  19.56200 -5.27200 26.89700
C  18.68100 -4.16200 26.69000
C  20.52900 -6.28900 29.21900
C  20.17300 -6.13000 25.78100
O  19.85100 -6.00300 24.60900
C  21.20500 -7.22700 26.15600
N  16.72900 -1.75200 25.99700
C  17.60800 -2.42600 25.17600
C  17.42100 -1.97100 23.73000
C  16.21700 -0.96300 23.76300
C  15.98400 -0.83600 25.25500
C  18.71200 -1.37800 23.17800
C  14.96900 -1.47900 22.99900
C  13.96100 -0.45400 22.56800
N  15.80200 -0.13300 28.14800
C  15.20100 0.59000 27.16000
C  14.44700 1.65500 27.77700
C  14.75800 1.60500 29.12800
C  15.70700 0.55500 29.23800
C  13.45100 2.58300 27.08400
C  14.50400 2.22100 30.41300
O  13.88800 3.22000 30.74700
C  15.57300 1.47400 31.38900
C  16.56800 2.41000 32.16500
O  17.83500 2.30200 32.09900
O  15.87900 3.28300 33.04000
C  16.79000 3.76900 34.12400
H  19.63600 -4.22600 30.83000
H  18.84200 -3.95800 24.56100
H  14.78800 0.93800 25.08500
H  18.01900 -0.17000 32.77400
H  18.54000 -2.99800 32.81000
H  20.46000 -1.69500 33.22600
H  20.28400 -0.64500 31.89100
H  20.87500 -2.26300 31.57400
H  16.39000 -2.53900 33.24700
H  15.45300 -1.16900 32.78600
H  16.55200 -1.90700 35.29100
H  15.46500 -0.67500 34.94100
H  21.60900 -6.14200 29.22800
H  20.28100 -7.31700 28.95500
H  20.22500 -6.17300 30.26000
H  21.27100 -7.85700 25.26900
H  20.80200 -7.88500 26.92600
H  22.17300 -6.83600 26.46800
H  17.19800 -2.92600 23.25500
H  16.59200 -0.08000 23.24400
H  19.35400 -1.16800 24.03400
H  18.56000 -0.38400 22.75900
H  19.17400 -2.13400 22.54400
H  14.42700 -2.15400 23.66200
H  15.33000 -2.05900 22.15000
H  14.34100 0.52900 22.84600
H  12.98900 -0.67500 23.01000
H  13.90900 -0.43900 21.47900
H  13.31500 2.41100 26.01600
H  13.86900 3.58800 27.15500
H  12.54200 2.61400 27.68400
H  15.01000 1.11800 32.25100
H  16.38400 4.74100 34.40400
H  17.86000 3.82600 33.92500
H  16.66200 3.15100 35.01300
Mg 30.10000 59.08000 39.47700
C  27.29800 57.13200 38.45400
C  32.12700 56.45900 38.41600
C  32.76500 61.24500 39.46400
C  27.95200 61.83700 39.52900
N  29.77100 57.14500 38.34400
C  28.50600 56.58300 38.18100
C  28.65300 55.15100 37.83400
C  30.13700 54.75900 38.24700
C  30.72700 56.18600 38.27500
C  30.44700 54.08600 39.65500
C  28.34800 55.05800 36.31000
C  27.32200 53.94300 35.96000
H  26.42000 54.34400 34.85000
N  32.19900 58.86800 39.13300
C  32.75600 57.72700 38.68200
C  34.19400 57.93700 38.47500
C  34.47700 59.33700 38.79800
C  33.17800 59.89000 39.19800
C  35.14700 56.86600 37.87400
C  35.83600 60.05000 38.71100
O  36.77300 59.55200 38.13900
C  36.06900 61.44300 39.39500
N  30.25800 61.17500 39.52700
C  31.48800 61.72500 39.65300
C  31.35400 63.26800 39.85200
C  29.84500 63.54400 39.84200
C  29.29400 62.12400 39.58100
C  32.13700 63.89500 40.99400
C  29.36800 64.58900 38.87200
C  29.62300 66.05100 39.31000
N  28.01700 59.38700 39.35500
C  27.29900 60.58900 39.41200
C  25.80700 60.28300 39.31300
C  25.82300 58.95600 38.97100
C  27.16200 58.49400 38.82600
C  24.62700 61.29400 39.35500
C  24.96600 57.90700 38.48300
O  23.76200 57.88000 38.19700
C  25.88900 56.65200 38.11000
C  25.44000 55.58300 39.06800
O  25.51000 55.56900 40.31500
O  24.95000 54.49700 38.25500
C  24.48700 53.27100 38.99500
H  32.83200 55.63900 38.25900
H  33.46500 62.07500 39.57400
H  27.28500 62.70000 39.59300
H  27.94300 54.56200 38.41400
H  30.61700 54.22300 37.42800
H  29.49400 53.69800 40.01600
H  30.73600 54.89100 40.33100
H  31.20700 53.30800 39.57400
H  29.27500 55.03000 35.73700
H  27.75400 55.94200 36.07500
H  26.76100 53.70300 36.86300
H  27.83000 53.05300 35.58800
H  34.99600 56.70100 36.80700
H  34.86100 55.95200 38.39500
H  36.20400 56.95000 38.12500
H  37.12300 61.64500 39.58700
H  35.53000 61.29500 40.33000
H  35.55000 62.20900 38.81900
H  31.88800 63.63100 38.97400
H  29.52500 63.88500 40.82700
H  32.21000 63.19900 41.82900
H  31.72500 64.82000 41.39800
H  33.10200 64.17900 40.57400
H  28.28100 64.54900 38.81000
H  29.76500 64.47800 37.86300
H  30.13300 66.65000 38.55600
H  30.15200 66.04400 40.26200
H  28.63900 66.46800 39.52300
H  24.11900 61.00100 40.27400
H  23.97400 61.26100 38.48300
H  24.94800 62.32700 39.49200
H  25.73400 56.47200 37.04600
H  24.74500 52.37800 38.42500
H  23.44600 53.38700 39.29600
H  24.97200 53.16000 39.96500

