158

Mg 52.69900 23.93000 44.79900
C  49.81800 25.69600 44.07800
C  51.35300 21.18800 43.36700
C  55.80000 22.69700 44.70400
C  54.16800 27.02700 46.04600
N  50.74400 23.48900 43.94400
C  49.73500 24.37900 43.67800
C  48.67600 23.65800 42.74700
C  49.08600 22.14500 42.99600
C  50.45100 22.25700 43.51800
C  48.19900 21.36000 43.99800
C  48.97500 24.02100 41.30300
C  47.90300 24.57200 40.39700
H  47.98800 24.04100 38.96900
N  53.42900 22.18600 44.19700
C  52.76500 21.15200 43.68100
C  53.61900 20.02900 43.48200
C  54.86300 20.35700 44.03400
C  54.76900 21.83200 44.37400
C  53.18700 18.71500 42.98100
C  56.03600 19.46700 44.02900
O  56.12500 18.33000 43.41700
C  57.22100 19.83100 44.92600
N  54.75200 24.89800 45.12800
C  55.79900 24.05400 45.11000
C  57.08400 24.76600 45.68800
C  56.50800 26.20900 46.07900
C  55.07800 26.10800 45.65100
C  57.81800 23.93500 46.80900
C  57.29200 27.38500 45.44900
C  57.67900 28.59000 46.34300
N  52.10300 25.98500 45.09800
C  52.81700 27.11000 45.63500
C  51.85700 28.23000 45.73800
C  50.64900 27.67500 45.17100
C  50.88400 26.39100 44.74200
C  52.03600 29.54200 46.40100
C  49.24200 28.03100 44.87600
O  48.50500 29.00500 45.19900
C  48.65600 26.77800 44.16800
C  48.27400 27.37500 42.85600
O  48.99400 27.42200 41.86100
O  46.96700 27.53600 42.75000
C  46.43300 28.13100 41.54800
H  51.02600 20.31900 42.79300
H  56.82700 22.33400 44.63300
H  54.42900 27.91000 46.63300
H  47.65400 23.87400 43.05800
H  49.31000 21.51800 42.13300
H  47.24400 21.85400 44.17200
H  48.68900 21.27700 44.96900
H  48.08800 20.34900 43.60600
H  49.36400 23.13800 40.79600
H  49.78500 24.74200 41.19900
H  48.08600 25.64100 40.29300
H  46.93000 24.32400 40.82200
H  53.67600 18.68200 42.00700
H  52.13300 18.47200 42.85000
H  53.59000 17.93300 43.62400
H  57.96200 20.48700 44.46800
H  57.56800 18.84800 45.24300
H  56.89900 20.36300 45.82100
H  57.85800 24.88200 44.92900
H  56.41000 26.25900 47.16400
H  58.18100 24.60400 47.59000
H  58.71900 23.51000 46.36800
H  57.17100 23.25600 47.36400
H  56.54700 27.84300 44.79800
H  58.07700 27.00600 44.79500
H  58.74400 28.72300 46.53200
H  57.24500 28.56500 47.34300
H  57.24800 29.43500 45.80700
H  52.56600 29.40400 47.34300
H  51.04200 29.97400 46.52300
H  52.56800 30.29200 45.81500
H  47.82300 26.35500 44.73100
H  45.46500 28.55600 41.81300
H  46.34900 27.38200 40.76100
H  47.07100 28.95300 41.22400
Mg -4.65000 25.23100 26.24200
C  -3.59000 26.75500 29.14600
C  -6.27700 22.87400 28.40900
C  -5.88000 23.65500 23.60000
C  -2.93200 27.46100 24.38900
N  -4.94000 24.89000 28.58700
C  -4.41900 25.72900 29.49900
C  -4.98000 25.42600 30.87100
C  -5.59800 23.98200 30.69800
C  -5.69500 23.93100 29.10700
C  -4.74700 22.89100 31.21200
C  -6.03800 26.49900 31.35200
C  -6.04800 26.86500 32.80700
H  -5.57400 25.80400 33.79300
N  -5.85400 23.45400 26.08900
C  -6.41700 22.66000 27.06500
C  -7.31300 21.64500 26.38900
C  -7.18100 21.87500 24.97200
C  -6.30300 23.01800 24.85400
C  -7.93600 20.46900 27.07000
C  -7.81300 21.11500 23.81000
O  -7.71600 21.42200 22.64300
C  -8.56000 19.81000 24.07800
N  -4.40500 25.45700 24.21100
C  -5.06700 24.75700 23.29200
C  -4.77700 25.32600 21.88700
C  -3.66300 26.38200 22.12600
C  -3.76700 26.50400 23.65500
C  -4.27900 24.33300 20.82800
C  -3.85400 27.63100 21.28000
C  -4.76600 28.63300 21.95700
N  -3.42700 26.72100 26.61300
C  -2.75100 27.60600 25.78700
C  -1.84800 28.47500 26.45900
C  -2.25600 28.15600 27.77300
C  -3.22100 27.14800 27.82100
C  -1.01300 29.62000 25.94200
C  -2.03500 28.63200 29.07800
O  -1.21600 29.49200 29.41100
C  -2.94300 27.73000 30.06400
C  -2.03900 27.11400 31.00900
O  -1.36100 26.07100 30.78800
O  -2.06800 27.89600 32.15900
C  -1.32700 27.21300 33.24900
H  -6.75700 22.20400 29.12600
H  -6.20600 23.14600 22.69000
H  -2.35800 28.01200 23.64100
H  -4.24000 25.34300 31.66600
H  -6.59200 23.89200 31.13600
H  -4.05700 23.22400 31.98700
H  -4.01900 22.42800 30.54600
H  -5.27000 22.12400 31.78400
H  -7.09300 26.28500 31.17900
H  -5.85200 27.47000 30.89400
H  -7.07800 27.03600 33.12200
H  -5.55700 27.83000 32.93500
H  -8.91300 20.26600 26.62900
H  -8.12500 20.69200 28.12000
H  -7.33600 19.56000 27.05700
H  -9.43600 20.05100 24.68000
H  -7.85500 19.10600 24.52100
H  -8.82000 19.18600 23.22300
H  -5.64000 25.88600 21.52800
H  -2.69100 25.93200 21.92600
H  -4.96500 24.25500 19.98500
H  -4.23600 23.31100 21.20600
H  -3.26700 24.56900 20.50000
H  -4.02300 27.32600 20.24700
H  -2.90900 28.17500 21.26600
H  -4.19600 29.27400 22.62900
H  -5.50700 27.99000 22.43200
H  -5.24800 29.26600 21.21200
H  0.03900 29.47400 26.18600
H  -1.30000 30.55900 26.41600
H  -1.01900 29.73200 24.85700
H  -3.82700 28.21000 30.48400
H  -0.28500 27.05600 32.97000
H  -1.63900 26.20800 33.53500
H  -1.29700 27.81400 34.15800

