158

Mg 1.51300 -1.09400 45.24900
C  5.07700 -0.02200 44.82300
C  0.73200 1.51000 43.24000
C  -1.38000 -2.56100 44.87400
C  2.91200 -4.03300 46.74800
N  2.83200 0.57500 44.13000
C  4.15900 0.79100 44.09000
C  4.50200 1.88200 43.16200
C  3.11100 2.57500 42.93700
C  2.12700 1.48300 43.39800
C  2.89000 3.96200 43.58700
C  5.16500 1.25700 41.89700
C  6.64100 1.64100 41.61100
H  6.87400 2.70700 40.49900
N  -0.13000 -0.51500 44.38300
C  -0.32700 0.63500 43.58600
C  -1.74700 0.67600 43.26100
C  -2.33700 -0.56000 43.63000
C  -1.28200 -1.29200 44.33000
C  -2.29600 1.88100 42.53800
C  -3.74800 -0.93200 43.42500
O  -4.46200 -0.10300 42.91200
C  -4.35400 -2.31000 43.78700
N  0.87400 -2.98300 45.75000
C  -0.41000 -3.32000 45.60800
C  -0.71700 -4.75300 46.06700
C  0.59200 -5.19300 46.70100
C  1.51400 -4.00400 46.43700
C  -2.04400 -4.94600 46.88400
C  1.21200 -6.60200 46.28200
C  1.78700 -7.45600 47.41900
N  3.51300 -1.74800 45.96100
C  3.89700 -3.02500 46.43000
C  5.35100 -3.04000 46.70000
C  5.81300 -1.85100 46.07300
C  4.68700 -1.17400 45.56800
C  6.17800 -4.12900 47.31600
C  7.05300 -1.08200 45.79600
O  8.17100 -1.27900 46.22600
C  6.61200 0.14900 44.97400
C  6.93100 1.39400 45.80000
O  6.68800 1.49800 47.01100
O  7.60100 2.35200 45.08800
C  7.99100 3.53100 45.88000
H  0.44600 2.20100 42.44500
H  -2.28400 -3.15900 44.74200
H  3.27900 -4.96900 47.17400
H  5.17600 2.54200 43.70800
H  2.94900 2.59800 41.85900
H  2.02100 3.90000 44.24100
H  2.68600 4.70800 42.81900
H  3.71300 4.26800 44.23300
H  4.60200 1.52900 41.00400
H  4.97000 0.18500 41.89200
H  6.97400 0.68600 41.20300
H  7.25000 1.75700 42.50700
H  -2.76000 1.56000 41.60600
H  -1.52300 2.60600 42.28100
H  -3.04100 2.28800 43.22100
H  -4.39100 -2.36100 44.87500
H  -3.68300 -3.01800 43.30100
H  -5.38500 -2.31200 43.43200
H  -0.95400 -5.31300 45.16300
H  0.45000 -5.11500 47.77900
H  -2.69700 -4.07400 46.86400
H  -1.75600 -5.26300 47.88700
H  -2.58500 -5.70600 46.32100
H  2.09600 -6.36800 45.68900
H  0.63200 -7.28800 45.66500
H  2.86000 -7.26600 47.39500
H  1.57600 -8.51900 47.30200
H  1.42300 -7.13500 48.39500
H  6.32700 -4.03500 48.39200
H  7.14400 -4.19400 46.81400
H  5.71600 -5.11500 47.26600
H  7.18600 0.17700 44.04700
H  7.16400 3.97000 46.43900
H  8.17100 4.21600 45.05200
H  8.90900 3.31800 46.42700
Mg -5.13000 25.03600 25.53900
C  -3.89700 26.71700 28.19800
C  -6.87100 22.71300 27.65200
C  -5.87500 22.95900 22.82000
C  -3.03600 26.78400 23.45100
N  -5.19100 24.67800 27.59600
C  -4.81400 25.62000 28.49700
C  -5.23400 25.25300 29.97600
C  -5.92100 23.85200 29.70100
C  -6.06500 23.77700 28.20500
C  -5.16600 22.62100 30.30900
C  -6.11500 26.34800 30.53100
C  -6.31700 26.39400 32.08600
H  -5.53700 25.39500 32.99300
N  -6.37500 23.23100 25.23600
C  -6.96200 22.45800 26.23600
C  -7.93600 21.47700 25.59500
C  -7.61000 21.50700 24.15900
C  -6.53100 22.57300 24.02300
C  -8.88900 20.59000 26.40200
C  -8.23400 20.78900 23.03800
O  -7.84500 20.97200 21.87700
C  -9.33200 19.82900 23.29800
N  -4.39800 24.77200 23.48300
C  -4.93500 23.91400 22.58000
C  -4.21900 24.03300 21.25100
C  -3.25500 25.21200 21.40900
C  -3.58800 25.67800 22.81600
C  -3.61700 22.77900 20.61100
C  -3.38400 26.32700 20.29900
C  -2.14800 27.03200 19.94300
N  -3.82700 26.56700 25.70100
C  -3.04600 27.23400 24.81000
C  -2.30000 28.27600 25.46700
C  -2.67100 28.15700 26.78800
C  -3.54000 27.06100 26.91100
C  -1.27800 29.20200 24.67900
C  -2.35000 28.57200 28.13700
O  -1.53800 29.38900 28.59500
C  -3.19100 27.68300 29.12400
C  -2.23400 27.03500 30.08000
O  -1.44000 26.12800 29.84700
O  -2.36700 27.78700 31.24500
C  -1.62500 27.32500 32.30600
H  -7.31400 22.04600 28.39400
H  -6.08900 22.34200 21.94500
H  -2.20200 27.16500 22.85900
H  -4.40100 25.19300 30.67600
H  -6.95700 23.88500 30.03800
H  -5.03200 21.82800 29.57300
H  -5.79900 22.32100 31.14400
H  -4.24700 22.95200 30.79300
H  -7.10900 26.20900 30.10700
H  -5.90500 27.34400 30.14100
H  -7.35900 26.24100 32.36700
H  -5.92700 27.36000 32.40500
H  -9.31200 19.85300 25.71900
H  -9.67400 21.25100 26.76900
H  -8.45900 20.13300 27.29300
H  -10.20200 20.34600 23.70400
H  -8.89200 19.02900 23.89400
H  -9.51900 19.30000 22.36300
H  -4.99200 24.38800 20.57100
H  -2.26100 24.78800 21.54800
H  -2.60800 22.94900 20.23400
H  -4.26100 22.33500 19.85200
H  -3.64100 21.99900 21.37200
H  -4.09300 27.05000 20.70300
H  -3.78200 25.81900 19.42000
H  -2.17900 27.11100 18.85600
H  -1.25800 26.49400 20.26900
H  -2.07200 28.07900 20.23700
H  -1.81000 29.71000 23.87400
H  -0.50500 28.60700 24.19400
H  -1.00300 30.06300 25.28800
H  -3.78900 28.39200 29.69700
H  -1.11800 28.18300 32.74800
H  -0.80500 26.60900 32.24400
H  -2.30100 26.93400 33.06600

