158

Mg 25.64700 1.82200 29.94400
C  27.81100 1.63800 32.84800
C  23.06200 2.16200 32.14300
C  23.72600 1.64100 27.37100
C  28.49700 1.38700 28.03200
N  25.48800 1.88700 32.22700
C  26.49200 1.93500 33.14800
C  25.94400 2.26300 34.58300
C  24.39800 2.23200 34.41300
C  24.30200 2.13200 32.84800
C  23.54200 1.20900 35.19000
C  26.55800 3.62600 35.17100
C  27.20100 3.46600 36.59300
H  26.64300 4.38300 37.64900
N  23.64400 1.88900 29.72900
C  22.71000 2.00300 30.76700
C  21.39500 1.95300 30.23600
C  21.52500 1.76000 28.81400
C  23.00300 1.73700 28.55700
C  20.17300 2.24000 31.09800
C  20.42500 1.54200 27.74700
O  20.88500 1.22400 26.65000
C  18.89300 1.61000 27.95400
N  26.03100 1.47000 27.98700
C  25.05900 1.51700 27.07000
C  25.60800 1.45800 25.68800
C  27.17600 1.45600 25.86400
C  27.25600 1.42600 27.34300
C  25.05100 0.33600 24.80200
C  27.91300 2.68300 25.17900
C  27.46400 2.92900 23.76300
N  27.80000 1.51200 30.29800
C  28.81000 1.28200 29.42400
C  30.08900 1.01100 30.13000
C  29.71000 1.23700 31.50400
C  28.36100 1.48300 31.56500
C  31.36200 0.59400 29.45400
C  30.26600 1.28800 32.76200
O  31.41400 1.01800 33.12700
C  29.12700 1.50900 33.71600
C  29.06600 0.36200 34.64700
O  28.25300 -0.54000 34.49200
O  29.86700 0.53900 35.77000
C  29.52300 -0.34500 36.92800
H  22.31000 2.48300 32.86700
H  23.12500 1.71000 26.46200
H  29.33800 1.38800 27.33500
H  26.31300 1.43800 35.19200
H  23.98900 3.22800 34.58400
H  23.28100 0.40900 34.49700
H  22.70200 1.66100 35.71600
H  23.98200 0.71900 36.05800
H  25.80000 4.40700 35.23500
H  27.29600 4.07100 34.50500
H  28.26100 3.67200 36.74000
H  26.88100 2.48800 36.95500
H  19.82900 1.45000 31.76600
H  19.41100 2.41000 30.33800
H  20.15800 3.15700 31.68700
H  18.35800 1.17000 27.11200
H  18.69400 2.67900 28.03000
H  18.53900 1.15100 28.87800
H  25.20900 2.35800 25.22000
H  27.53900 0.52900 25.41900
H  24.38800 -0.34100 25.34000
H  25.77800 -0.40100 24.46300
H  24.46200 0.76100 23.98800
H  28.99600 2.58100 25.10900
H  27.62300 3.48800 25.85500
H  26.89600 2.12300 23.29900
H  28.24500 3.12000 23.02800
H  26.76100 3.76000 23.82200
H  32.09100 1.39600 29.56400
H  31.11900 0.46600 28.39900
H  31.65500 -0.34100 29.93300
H  29.29800 2.39700 34.32500
H  28.67000 0.10500 37.43600
H  30.34600 -0.32600 37.64300
H  29.30500 -1.35300 36.57700
Mg 40.48000 9.51700 29.00900
C  42.75800 10.56900 31.40700
C  38.42200 8.39900 31.37000
C  38.58800 8.13900 26.54300
C  42.94700 10.14700 26.60900
N  40.69300 9.35900 31.23500
C  41.59700 10.00700 32.01600
C  41.16200 9.95700 33.42600
C  39.78600 9.23100 33.34900
C  39.60000 8.96200 31.89600
C  39.66000 7.99600 34.26100
C  40.93600 11.42000 34.04000
C  40.36400 11.49200 35.49800
H  41.35700 11.48300 36.62100
N  38.59800 8.51900 28.93900
C  37.94400 8.16000 30.07900
C  36.69900 7.50700 29.67700
C  36.73700 7.42200 28.22200
C  37.99000 8.02900 27.82200
C  35.69400 6.91800 30.64500
C  35.65600 6.93000 27.24600
O  35.84000 6.88700 26.05600
C  34.28700 6.37100 27.74200
N  40.73400 9.28500 26.89000
C  39.80800 8.60600 26.12100
C  40.25400 8.61400 24.64700
C  41.66600 9.35400 24.71500
C  41.72600 9.64200 26.15600
C  40.40200 7.17500 24.03900
C  41.71500 10.58000 23.86700
C  41.41900 11.96900 24.52400
N  42.47800 10.19200 28.95300
C  43.34100 10.38600 27.94200
C  44.58500 10.90700 28.48300
C  44.35100 11.14300 29.84600
C  43.08500 10.56900 30.11700
C  45.77900 11.38000 27.61700
C  44.86200 11.66100 31.09800
O  45.93600 12.14000 31.33900
C  43.79400 11.40900 32.23900
C  44.45000 10.58400 33.28600
O  44.77400 9.40700 33.24200
O  44.84700 11.44600 34.28200
C  45.26500 10.81900 35.49900
H  37.62600 8.33100 32.11500
H  37.91200 7.79000 25.75900
H  43.71500 10.18800 25.83300
H  41.87200 9.36200 34.00000
H  38.94500 9.82600 33.70300
H  39.35300 7.11200 33.70300
H  38.94300 8.20100 35.05600
H  40.56400 7.73300 34.81000
H  40.35400 11.96000 33.29400
H  41.82200 12.04400 34.15700
H  39.76500 10.58700 35.59800
H  39.59700 12.26100 35.60100
H  34.86100 7.61700 30.57400
H  36.11800 6.87000 31.64800
H  35.25600 5.99000 30.27800
H  34.30600 5.66100 28.56900
H  33.78400 5.84500 26.93100
H  33.62800 7.17300 28.07400
H  39.46900 9.10100 24.06900
H  42.52700 8.72800 24.48000
H  40.27000 6.42200 24.81500
H  41.39100 7.08900 23.59000
H  39.57000 7.08800 23.34100
H  41.06800 10.52300 22.99100
H  42.69800 10.63000 23.39900
H  40.72000 12.54500 23.91900
H  42.30400 12.60400 24.54700
H  40.96400 11.97500 25.51500
H  45.88600 12.45200 27.77700
H  45.64300 11.11200 26.56900
H  46.63600 10.88700 28.07600
H  43.51900 12.38200 32.64700
H  45.15000 11.47800 36.35900
H  46.33700 10.68600 35.35900
H  44.73800 9.89300 35.73000

