158

Mg 1.23400 7.62600 25.40600
C  1.73000 9.50300 28.29400
C  1.78500 4.78300 27.40900
C  0.89300 5.88400 22.60000
C  1.50700 10.61500 23.60600
N  1.82300 7.21900 27.56700
C  1.74300 8.15700 28.53400
C  1.76000 7.47100 29.92100
C  2.14800 5.94300 29.63300
C  1.94200 5.96900 28.11200
C  3.53300 5.54400 30.04300
C  0.33700 7.66800 30.62900
C  0.38900 7.87500 32.21500
H  1.67700 7.58400 32.96200
N  1.31400 5.61100 25.03700
C  1.42700 4.56200 26.07200
C  1.25900 3.29100 25.35800
C  1.01700 3.60900 23.96800
C  0.98800 5.08800 23.79600
C  1.29300 1.92300 26.03600
C  0.77300 2.58400 22.83700
O  0.33800 2.96300 21.74600
C  1.17600 1.13100 23.01000
N  1.15700 8.20600 23.39800
C  0.95400 7.25400 22.43200
C  1.01400 7.90800 21.02400
C  0.81900 9.46900 21.30000
C  1.26800 9.45700 22.82700
C  2.32000 7.71400 20.15700
C  -0.65900 9.96000 21.02800
C  -0.77800 11.14300 20.02800
N  1.53100 9.66500 25.82200
C  1.59800 10.74100 24.96400
C  1.79800 11.96600 25.75500
C  1.81700 11.47700 27.08000
C  1.57900 10.10700 27.05300
C  2.09300 13.35600 25.22200
C  2.11900 11.94300 28.41500
O  2.51700 13.05600 28.75300
C  1.91900 10.68800 29.27600
C  3.07900 10.56900 30.14600
O  4.13200 9.97300 29.98600
O  2.76200 11.22500 31.34000
C  3.69300 11.16500 32.45300
H  1.97100 3.89100 28.01000
H  0.72200 5.27100 21.71300
H  1.39400 11.59000 23.12700
H  2.51900 7.88400 30.58500
H  1.43800 5.24000 30.06800
H  4.10600 6.17800 30.71900
H  4.12100 5.28600 29.16200
H  3.32800 4.57700 30.50200
H  -0.24500 6.75500 30.50400
H  -0.23600 8.51700 30.25600
H  -0.45700 7.35400 32.66500
H  0.29200 8.94700 32.38300
H  1.99700 1.17400 25.67300
H  0.32600 1.44600 25.87500
H  1.39700 2.05900 27.11300
H  1.10800 0.48000 22.13800
H  0.45000 0.70100 23.70100
H  2.16400 0.99400 23.44900
H  0.20500 7.56300 20.38000
H  1.50300 10.11100 20.74400
H  2.77000 8.64200 19.80300
H  2.27100 6.90900 19.42300
H  3.01700 7.22400 20.83700
H  -1.18400 10.30000 21.92000
H  -1.29400 9.19600 20.58000
H  -1.61000 11.00200 19.33800
H  0.07900 11.27900 19.36800
H  -0.93500 12.05300 20.60800
H  1.73400 13.46900 24.19900
H  3.16100 13.57200 25.26900
H  1.61800 14.05600 25.90900
H  1.04100 10.89800 29.88700
H  3.25300 11.37300 33.42800
H  4.52700 11.84400 32.27400
H  4.06800 10.14200 32.41600
Mg 36.16600 49.48200 25.98500
C  35.67600 47.61300 28.97700
C  35.84200 52.34500 27.65200
C  35.90900 51.00600 23.06700
C  36.54700 46.47200 24.26100
N  35.76500 49.93300 28.06300
C  35.64300 49.04000 29.14300
C  35.38800 49.82700 30.44100
C  35.70300 51.37800 30.01600
C  35.89200 51.17400 28.48800
C  34.53900 52.35600 30.47500
C  36.33100 49.37600 31.64000
C  35.70200 48.82000 32.86900
H  34.23700 49.17700 33.17900
N  35.85500 51.42200 25.42000
C  35.79400 52.45200 26.28900
C  35.64400 53.66800 25.55400
C  35.60100 53.34900 24.15000
C  35.83500 51.86200 24.16400
C  35.47500 55.01500 26.13700
C  35.41300 54.17600 22.90600
O  35.53800 53.78100 21.77900
C  35.33100 55.71300 23.05400
N  36.00800 48.78500 23.94700
C  35.89000 49.65500 22.94700
C  36.09000 48.97000 21.57300
C  36.50900 47.51200 21.96300
C  36.26700 47.58700 23.46500
C  34.92500 49.01800 20.50900
C  38.00400 47.15800 21.61200
C  38.12300 45.97700 20.60000
N  36.16400 47.38500 26.48200
C  36.39600 46.30900 25.65500
C  36.42600 45.10800 26.45800
C  36.13500 45.56500 27.83000
C  36.01000 46.97900 27.75000
C  36.67100 43.68300 26.08300
C  36.06200 45.12000 29.21100
O  36.27400 44.01600 29.75600
C  35.62500 46.53000 30.01600
C  34.33400 46.28700 30.66700
O  33.29300 46.69200 30.17000
O  34.49700 45.48600 31.78100
C  33.32600 45.18000 32.50000
H  35.92600 53.26500 28.23400
H  35.94400 51.52600 22.10700
H  36.75300 45.63400 23.59100
H  34.34200 49.77500 30.74500
H  36.61600 51.83500 30.39700
H  34.98900 53.16900 31.04600
H  33.93400 51.81200 31.20100
H  33.88500 52.70600 29.67700
H  36.94800 50.19900 31.99900
H  36.86700 48.52700 31.21500
H  36.23800 49.22300 33.72900
H  35.76400 47.73200 32.90100
H  36.29700 55.68100 25.87600
H  35.37700 55.02500 27.22200
H  34.59200 55.45500 25.67400
H  36.26500 56.04600 23.50500
H  34.43600 56.10500 23.53600
H  35.33900 56.05000 22.01700
H  36.94600 49.50600 21.16300
H  35.79700 46.83500 21.49000
H  34.96200 49.86600 19.82400
H  33.92200 49.07000 20.93200
H  35.00900 48.11400 19.90500
H  38.58500 46.90700 22.50000
H  38.42800 48.06600 21.18200
H  38.80700 46.36000 19.84200
H  37.20200 45.81400 20.04000
H  38.39700 45.03500 21.07700
H  37.70300 43.53200 26.40000
H  36.52900 43.48700 25.02100
H  36.04400 43.06200 26.72400
H  36.35700 46.56300 30.82300
H  32.82900 46.12100 32.73500
H  33.54300 44.59300 33.39300
H  32.60800 44.57500 31.94700

