158

Mg -1.82800 17.75300 26.34700
C  -2.11000 15.43000 29.03100
C  -2.30200 20.29300 28.56400
C  -2.27100 19.85900 23.73400
C  -1.79600 15.02900 24.24200
N  -2.18200 17.83100 28.56000
C  -2.10000 16.79900 29.47600
C  -2.27700 17.29400 30.92000
C  -2.43500 18.85200 30.75100
C  -2.33000 19.03200 29.18500
C  -3.62800 19.57800 31.44200
C  -1.09200 16.77100 31.82500
C  -0.48600 17.62000 32.96800
H  -0.15400 16.90100 34.27800
N  -2.11700 19.69100 26.21600
C  -2.26300 20.65800 27.22900
C  -2.12100 22.02700 26.66100
C  -2.13900 21.85800 25.23600
C  -2.15500 20.41700 25.02700
C  -1.84300 23.21200 27.59000
C  -1.98500 22.92400 24.17000
O  -1.78700 22.69500 22.98300
C  -2.23900 24.34100 24.58100
N  -2.17200 17.47600 24.26100
C  -2.18100 18.48500 23.36100
C  -2.03600 18.00400 21.90200
C  -1.99800 16.47200 22.10900
C  -1.92900 16.28300 23.63700
C  -3.31500 18.46800 21.11300
C  -0.74700 15.77400 21.39200
C  0.64600 16.02700 21.95700
N  -1.98700 15.66700 26.56200
C  -1.91700 14.68200 25.60500
C  -1.98300 13.39600 26.24200
C  -2.10000 13.62600 27.60300
C  -2.01300 15.01200 27.74600
C  -1.96600 12.18500 25.46600
C  -2.21600 12.93900 28.85600
O  -2.25000 11.78600 29.23400
C  -2.25400 14.11700 29.77500
C  -1.15900 13.74300 30.65400
O  -0.01600 13.96700 30.45800
O  -1.62300 13.05700 31.74200
C  -0.64100 12.75500 32.83500
H  -2.27200 20.99800 29.39800
H  -2.35700 20.57000 22.91000
H  -1.71600 14.17800 23.56300
H  -3.19300 16.84900 31.31000
H  -1.47000 19.26600 31.04100
H  -3.20000 20.49900 31.83700
H  -4.20800 19.06100 32.20600
H  -4.32000 19.90400 30.66500
H  -0.27300 16.62000 31.12100
H  -1.43500 15.81200 32.21400
H  -1.21300 18.39600 33.20700
H  0.40200 18.03900 32.49700
H  -1.05300 23.88700 27.26200
H  -1.57600 23.00200 28.62600
H  -2.72300 23.85600 27.60000
H  -3.00700 24.34500 25.35500
H  -2.52700 25.08600 23.84000
H  -1.33700 24.68500 25.08600
H  -1.09700 18.43300 21.55300
H  -2.96600 16.06200 21.82100
H  -3.09500 19.00800 20.19200
H  -4.06000 19.14200 21.53500
H  -3.78500 17.56200 20.72900
H  -0.64900 16.31900 20.45300
H  -0.95300 14.71000 21.27700
H  0.93700 15.05000 22.34400
H  0.61700 16.69600 22.81600
H  1.38700 16.41700 21.26000
H  -1.54600 11.31800 25.97700
H  -1.23900 12.38100 24.67900
H  -2.96000 11.97700 25.07100
H  -3.15500 14.27700 30.36700
H  -0.00300 12.02100 32.34000
H  -1.01800 12.31900 33.76000
H  -0.06700 13.65200 33.06500
Mg 46.55000 25.39000 28.89500
C  47.49300 27.66300 31.50700
C  45.91900 23.07400 31.31300
C  46.28200 22.99000 26.38000
C  47.92700 27.61000 26.64900
N  46.53800 25.42400 31.15600
C  46.76200 26.52600 31.99000
C  46.39300 26.25300 33.41900
C  45.95600 24.70800 33.36500
C  46.09500 24.36900 31.87900
C  46.93300 23.80100 34.18600
C  45.19900 27.19800 33.90200
C  45.40400 27.87800 35.20900
H  46.23100 27.16400 36.31000
N  46.02700 23.31000 28.81300
C  45.87800 22.52800 30.00900
C  45.48200 21.17900 29.53800
C  45.52600 21.14500 28.09100
C  45.96400 22.51300 27.70100
C  45.07600 20.09200 30.54700
C  45.12200 20.00800 27.20500
O  45.26400 19.98200 25.97800
C  44.56400 18.77600 27.92600
N  46.86000 25.36700 26.83200
C  46.61400 24.29900 25.95600
C  46.97100 24.66800 24.51300
C  47.31200 26.15100 24.64500
C  47.41500 26.41500 26.13000
C  48.19300 23.90800 23.94700
C  46.30300 27.13800 23.96700
C  46.91100 28.41000 23.32000
N  47.50700 27.24500 28.94300
C  47.94900 28.01800 27.97100
C  48.56400 29.20700 28.53700
C  48.35100 29.12900 29.87900
C  47.74400 27.91600 30.11600
C  49.16700 30.22700 27.78800
C  48.59800 29.82900 31.16700
O  49.01300 30.95400 31.47500
C  48.02400 28.82100 32.26900
C  49.00300 28.49500 33.24400
O  49.56800 27.38500 33.26900
O  49.26600 29.46400 34.12300
C  50.17400 29.13500 35.25100
H  45.78100 22.35600 32.12400
H  45.92200 22.40800 25.52900
H  48.29000 28.27300 25.86000
H  47.24000 26.30700 34.10400
H  44.94600 24.39500 33.63000
H  47.41200 24.37700 34.97800
H  47.74400 23.51700 33.51500
H  46.34300 23.00900 34.64700
H  44.20300 26.76000 33.84100
H  45.13000 27.99300 33.15900
H  44.43400 28.04300 35.67700
H  45.78000 28.88700 35.04100
H  43.99400 19.97700 30.47100
H  45.29300 20.45500 31.55100
H  45.66000 19.18100 30.41400
H  43.80300 19.05600 28.65400
H  45.38500 18.13300 28.24200
H  44.13900 18.25400 27.06800
H  46.09000 24.39300 23.93300
H  48.30200 26.45500 24.30500
H  47.92300 23.25800 23.11400
H  48.51000 23.28600 24.78400
H  49.03300 24.57500 23.75300
H  45.68900 27.46100 24.80700
H  45.61600 26.56700 23.34200
H  46.60400 28.55200 22.28400
H  47.99500 28.36600 23.20900
H  46.68000 29.33100 23.85600
H  49.58200 29.98000 26.81100
H  50.05200 30.54900 28.33600
H  48.48100 31.06300 27.65300
H  47.22600 29.38000 32.75800
H  51.01900 28.53200 34.91900
H  49.55300 28.66400 36.01300
H  50.44500 30.08700 35.70700

