158

Mg 36.44300 50.16600 24.66700
C  36.71500 48.00500 27.37700
C  34.96200 52.44900 26.51200
C  35.51500 51.80800 21.84200
C  37.42300 47.44900 22.53800
N  35.94600 50.21900 26.76400
C  36.18700 49.29100 27.74600
C  35.74900 49.87100 29.10700
C  34.95500 51.19100 28.70800
C  35.27400 51.34200 27.20800
C  33.42500 51.25800 29.19300
C  37.05300 50.15100 29.90000
C  37.07300 49.83900 31.45900
H  35.66900 49.86000 32.13800
N  35.66300 51.99100 24.24500
C  35.12400 52.81800 25.13500
C  34.77200 54.09000 24.58000
C  34.99500 53.95400 23.15600
C  35.42300 52.51700 23.04100
C  34.31600 55.37300 25.38700
C  34.96300 54.99300 22.09400
O  35.21900 54.74500 20.87200
C  34.63100 56.44900 22.49600
N  36.25300 49.58800 22.48400
C  36.03000 50.58700 21.57500
C  36.32800 50.04700 20.18100
C  36.94600 48.59300 20.39100
C  36.91600 48.51800 21.90400
C  35.15100 50.05000 19.20500
C  38.36200 48.39500 19.76600
C  38.64000 47.03100 19.17000
N  37.03000 48.21700 24.90300
C  37.36400 47.19300 23.94600
C  37.79100 46.03800 24.65800
C  37.53200 46.32500 25.94100
C  37.07600 47.63100 26.08700
C  38.37500 44.83600 24.10800
C  37.59200 45.72400 27.30400
O  37.97400 44.64800 27.60400
C  37.15600 46.82900 28.24000
C  36.18000 46.24800 29.15500
O  35.04200 45.95700 28.85200
O  36.68200 46.07200 30.40300
C  35.75600 45.53800 31.40400
H  34.34500 53.17100 27.05100
H  35.43700 52.38300 20.91700
H  37.94000 46.65400 21.99600
H  35.07700 49.19700 29.63900
H  35.37100 51.99300 29.31800
H  32.80500 51.53300 28.34000
H  33.39300 52.10900 29.87400
H  33.12300 50.32600 29.67100
H  37.32500 51.20100 29.79600
H  37.90400 49.61600 29.47800
H  37.73800 50.61400 31.84000
H  37.63300 48.92100 31.63700
H  35.02400 56.16300 25.63700
H  33.93800 55.24500 26.40100
H  33.45900 55.85700 24.91800
H  33.62100 56.54300 22.89500
H  34.76800 57.00000 21.56600
H  35.33900 56.88500 23.20200
H  37.04200 50.73700 19.73300
H  36.29200 47.80500 20.01800
H  34.26500 50.37700 19.74900
H  34.87400 49.03800 18.91100
H  35.24000 50.72300 18.35300
H  39.04100 48.65600 20.57700
H  38.43200 49.18900 19.02200
H  37.84600 46.29200 19.27400
H  39.57200 46.70500 19.63200
H  38.64400 47.30300 18.11500
H  39.07100 44.95500 23.27700
H  37.61800 44.14000 23.74700
H  38.96300 44.28200 24.83900
H  38.06300 46.99700 28.82100
H  34.91600 46.17400 31.68300
H  36.39500 45.45700 32.28400
H  35.30800 44.60200 31.07200
Mg -11.69100 37.63700 42.45500
C  -9.54700 34.95600 41.47700
C  -9.52200 39.73500 41.06800
C  -14.04700 40.02200 42.85500
C  -14.05400 35.14800 43.41300
N  -9.87800 37.30800 41.16800
C  -9.12300 36.19100 41.02300
C  -7.87200 36.48800 40.26900
C  -7.73600 38.08600 40.36700
C  -9.14700 38.37700 40.94100
C  -6.50300 38.70000 41.18200
C  -7.89100 35.85300 38.82400
C  -6.49300 35.33700 38.51400
H  -5.87300 36.09100 37.35100
N  -11.78100 39.67600 41.99800
C  -10.73400 40.34300 41.45100
C  -11.18600 41.65200 41.22400
C  -12.49500 41.80900 41.72300
C  -12.87800 40.52400 42.23100
C  -10.33400 42.70700 40.62800
C  -13.33800 43.06300 41.67600
O  -12.99400 43.99300 40.95300
C  -14.74200 43.16500 42.26600
N  -13.75000 37.59800 42.95500
C  -14.44600 38.77300 43.16200
C  -15.88300 38.52200 43.81800
C  -15.77600 37.00000 44.04300
C  -14.43400 36.55600 43.42500
C  -16.13400 39.38600 45.12900
C  -16.99000 36.27800 43.39400
C  -17.06400 36.13300 41.89700
N  -11.81700 35.53700 42.50700
C  -12.80200 34.69700 42.94800
C  -12.33300 33.30200 42.92700
C  -11.05000 33.39000 42.40400
C  -10.84500 34.71800 41.99000
C  -12.97800 32.04300 43.51300
C  -9.77900 32.58900 42.15100
O  -9.53200 31.40800 42.37800
C  -8.77100 33.60400 41.44700
C  -7.55800 33.72300 42.26400
O  -7.48900 34.38000 43.29900
O  -6.45600 33.04300 41.72100
C  -5.15400 33.15100 42.47700
H  -8.70700 40.39500 40.76600
H  -14.88900 40.71400 42.92400
H  -14.66200 34.42500 43.96000
H  -6.97100 36.13100 40.76700
H  -7.70400 38.53600 39.37500
H  -5.69800 38.02200 41.46500
H  -6.81200 39.40800 41.95200
H  -5.92300 39.31700 40.49600
H  -8.18400 36.62600 38.11400
H  -8.54600 34.98600 38.73800
H  -6.56800 34.29700 38.19500
H  -5.87000 35.36800 39.40800
H  -9.29700 42.36900 40.61100
H  -10.37500 43.63500 41.19900
H  -10.72300 42.95900 39.64200
H  -14.95600 44.23300 42.23200
H  -14.51200 42.86100 43.28700
H  -15.50900 42.63500 41.70000
H  -16.64000 38.85200 43.10600
H  -15.82700 36.89800 45.12700
H  -17.13200 39.81800 45.05300
H  -15.29100 40.07500 45.17600
H  -16.23700 38.69100 45.96200
H  -17.86500 36.89700 43.58900
H  -17.30300 35.37200 43.91300
H  -17.31900 35.11200 41.61300
H  -16.17500 36.30100 41.28900
H  -17.83000 36.84400 41.58900
H  -14.04400 32.20900 43.66300
H  -12.56000 31.48900 44.35400
H  -12.82400 31.39200 42.65200
H  -8.51600 33.22600 40.45800
H  -5.30100 33.01500 43.54800
H  -4.75800 34.15100 42.30500
H  -4.46600 32.42300 42.04600

