158

Mg 7.88000 3.77600 27.42400
C  9.36500 2.49700 30.28800
C  5.98400 5.84500 29.51400
C  6.52700 4.99200 24.70800
C  9.15500 1.11400 25.59300
N  7.62500 4.02700 29.70300
C  8.40300 3.48400 30.61700
C  8.31900 4.31000 31.88000
C  7.13500 5.29000 31.68100
C  6.85400 5.02600 30.17200
C  5.94400 5.19100 32.59600
C  9.59100 5.07000 32.35100
C  9.56100 5.62600 33.77500
H  10.49000 5.12300 34.92400
N  6.49800 5.20300 27.16400
C  5.81400 5.92400 28.11600
C  4.97300 6.91000 27.48300
C  5.09500 6.71600 26.04900
C  6.04900 5.56900 25.93300
C  4.10000 7.91800 28.26700
C  4.41400 7.35500 24.87700
O  4.59600 7.13800 23.66800
C  3.57500 8.57600 25.18300
N  7.80700 3.08500 25.44600
C  7.26900 3.77200 24.46700
C  7.61400 3.26100 23.02300
C  8.42100 2.05400 23.32800
C  8.46900 2.07500 24.88600
C  6.37500 3.16600 22.09900
C  9.80100 2.06900 22.64900
C  10.97000 2.88300 23.26700
N  9.12000 2.20700 27.78900
C  9.53600 1.16300 26.94200
C  10.45800 0.30400 27.69800
C  10.42500 0.80900 29.04700
C  9.59900 1.95000 28.99600
C  11.16600 -0.88900 27.20100
C  10.91900 0.58000 30.40000
O  11.73800 -0.27000 30.78400
C  10.27500 1.66200 31.24500
C  9.60800 1.10500 32.42600
O  8.44500 0.67700 32.37300
O  10.43100 1.14200 33.58900
C  9.88300 0.29900 34.66400
H  5.37800 6.49100 30.15300
H  6.06900 5.46200 23.83500
H  9.62500 0.31700 25.01200
H  8.05000 3.56400 32.62700
H  7.47200 6.32500 31.63900
H  5.46800 6.11600 32.92100
H  6.23600 4.71800 33.53400
H  5.18800 4.50700 32.21100
H  9.71700 5.80600 31.55800
H  10.48100 4.44200 32.31500
H  8.53200 5.59900 34.13300
H  9.94800 6.63500 33.63600
H  4.42500 8.95000 28.13800
H  4.17400 7.69200 29.33100
H  3.05900 7.83300 27.95600
H  3.14200 8.95300 24.25700
H  4.22300 9.33100 25.62800
H  2.75500 8.36300 25.86900
H  8.36300 3.93300 22.60400
H  7.86300 1.21400 22.91400
H  5.42000 3.38900 22.57500
H  6.34300 2.13700 21.74200
H  6.49500 3.86200 21.26900
H  9.76100 2.33600 21.59300
H  10.03200 1.00400 22.65800
H  11.85400 2.37500 23.65300
H  10.60700 3.70600 23.88300
H  11.40900 3.47300 22.46300
H  10.63100 -1.33100 26.36100
H  11.34900 -1.63800 27.97100
H  12.09100 -0.46900 26.80500
H  11.14300 2.21800 31.60000
H  9.12500 -0.41300 34.33900
H  9.62100 0.98100 35.47300
H  10.68900 -0.37100 34.96400
Mg 48.54400 35.20500 26.80000
C  46.44700 33.91100 29.27700
C  49.42800 37.90700 28.83600
C  50.12100 36.56600 24.10200
C  47.60400 32.56300 24.77300
N  48.01400 35.83200 28.74800
C  47.20200 35.07200 29.63400
C  47.46600 35.52300 31.06900
C  48.00600 37.03100 30.82700
C  48.55900 36.91400 29.38000
C  46.97000 38.11200 30.89200
C  48.65000 34.64800 31.80600
C  48.60600 34.44000 33.35200
H  47.73600 35.24500 34.34100
N  49.65700 36.99400 26.47900
C  49.98400 37.89200 27.46100
C  50.68400 38.97100 26.86900
C  50.80500 38.67800 25.51300
C  50.22300 37.29100 25.30400
C  51.16800 40.11600 27.76200
C  51.51900 39.54400 24.40900
O  51.56700 39.21200 23.21600
C  52.20800 40.84000 24.75600
N  48.70800 34.67500 24.69000
C  49.45700 35.32900 23.83000
C  49.55900 34.64900 22.41900
C  48.84500 33.25900 22.72000
C  48.37800 33.50500 24.14400
C  49.04500 35.45300 21.22800
C  49.71400 32.06500 22.46700
C  49.78300 31.56200 21.08500
N  47.38700 33.52400 26.95400
C  47.12300 32.51900 26.05400
C  46.20200 31.47500 26.63800
C  45.88600 32.05500 27.85100
C  46.62600 33.26100 28.01500
C  45.90600 30.09400 25.99700
C  45.10600 31.80200 29.02600
O  44.35800 30.89100 29.30100
C  45.40200 33.05600 29.96000
C  45.83800 32.58500 31.37200
O  46.72500 31.71700 31.56100
O  44.86100 33.04800 32.34300
C  44.96400 32.40300 33.67400
H  49.62700 38.70700 29.55200
H  50.71000 36.96300 23.27300
H  47.39400 31.70200 24.13500
H  46.59700 35.68300 31.70700
H  48.79000 37.40400 31.48500
H  45.98200 37.66900 30.77000
H  47.15200 38.77000 30.04100
H  46.92600 38.77500 31.75600
H  49.65400 34.98900 31.55700
H  48.63100 33.62900 31.42000
H  49.66600 34.57500 33.56700
H  48.60800 33.36800 33.55100
H  50.60300 41.00300 27.47500
H  52.22600 40.31800 27.59400
H  51.21500 39.97500 28.84200
H  52.67500 41.28700 23.87700
H  53.08500 40.48500 25.29800
H  51.63000 41.50900 25.39300
H  50.64500 34.65300 22.32900
H  47.91900 33.21100 22.14700
H  48.32900 36.17800 21.61500
H  48.43400 34.80300 20.60200
H  49.76900 36.05200 20.67400
H  49.36100 31.38900 23.24600
H  50.75700 32.27000 22.70700
H  50.76600 31.13900 20.87900
H  49.49700 32.32400 20.36000
H  49.10800 30.71000 21.00400
H  46.62400 29.88100 25.20600
H  44.91200 30.18600 25.55800
H  45.98000 29.27200 26.70900
H  44.59800 33.76500 30.16000
H  44.80300 31.32800 33.59100
H  44.25200 32.92100 34.31700
H  45.97300 32.53000 34.06400

