158

Mg 49.71700 45.54900 41.07100
C  46.57600 47.23900 40.50300
C  48.36300 42.80900 39.78200
C  52.80400 44.34100 41.11700
C  51.02100 48.82000 41.87700
N  47.61500 45.09600 40.32100
C  46.47700 45.93900 40.12100
C  45.40300 45.20000 39.44700
C  45.95800 43.73100 39.36400
C  47.43300 43.86700 39.81200
C  45.16600 42.61800 40.04000
C  45.08700 45.75600 37.99700
C  43.86500 45.12700 37.32800
H  44.01400 44.11100 36.17700
N  50.51000 43.85700 40.44500
C  49.76600 42.80600 39.97900
C  50.66300 41.69200 39.71000
C  51.93900 42.13800 40.08600
C  51.78600 43.48700 40.56200
C  50.28800 40.38900 38.99500
C  53.25200 41.34400 39.91400
O  53.22800 40.17400 39.58500
C  54.58900 42.00100 40.03600
N  51.57500 46.40700 41.48700
C  52.70000 45.62800 41.57500
C  53.96900 46.51800 41.89300
C  53.39000 47.91100 41.85800
C  51.93100 47.69100 41.83000
C  54.80800 46.09800 43.26800
C  53.95200 48.86200 40.67800
C  54.76900 50.05000 41.23000
N  48.97600 47.54300 41.35500
C  49.60700 48.73200 41.68700
C  48.76500 49.81900 41.83400
C  47.46000 49.28200 41.42100
C  47.69000 47.92100 41.15600
C  49.12900 51.16800 42.32800
C  46.07300 49.54400 41.21000
O  45.39100 50.49800 41.51500
C  45.55100 48.35400 40.35300
C  44.27600 47.96400 40.96900
O  44.12600 47.14100 41.89200
O  43.26500 48.40200 40.13100
C  41.94900 48.28500 40.78800
H  47.96100 41.86600 39.40600
H  53.84500 44.01400 41.11300
H  51.52000 49.71000 42.26600
H  44.52000 45.18900 40.08500
H  45.98500 43.30500 38.36200
H  44.12600 42.93400 39.95900
H  45.39200 42.49000 41.09900
H  45.33600 41.62500 39.62300
H  45.89800 45.53500 37.30400
H  44.80800 46.81000 37.97400
H  43.24000 45.99400 37.11200
H  43.24600 44.67100 38.10100
H  49.23600 40.10800 39.05100
H  50.80700 39.53400 39.42800
H  50.57200 40.52500 37.95200
H  54.92400 42.19900 41.05500
H  54.61300 42.87400 39.38400
H  55.24600 41.27200 39.56200
H  54.66900 46.35500 41.07400
H  53.50800 48.33700 42.85400
H  54.53600 45.11900 43.66300
H  54.56100 46.72700 44.12200
H  55.88700 46.16500 43.12600
H  53.10100 49.29500 40.15200
H  54.57900 48.28700 39.99800
H  54.43200 51.05200 40.96500
H  55.78200 50.12500 40.83300
H  54.89200 50.06600 42.31300
H  50.09600 51.47200 41.92700
H  49.14100 51.26400 43.41400
H  48.48800 51.96100 41.94400
H  45.40600 48.87000 39.40400
H  41.47900 47.45200 40.26600
H  41.36000 49.19100 40.64700
H  41.99500 47.99200 41.83700
Mg 28.35600 57.85300 41.43600
C  25.58600 55.83100 40.48900
C  30.44800 55.60100 39.92900
C  30.89300 60.07700 41.64900
C  25.98100 60.34600 42.39800
N  27.96900 55.86200 40.41900
C  26.80800 55.23100 40.05700
C  27.10100 53.90700 39.30400
C  28.68200 53.94700 39.06400
C  29.07400 55.18900 39.92500
C  29.37000 52.59900 39.54500
C  26.28200 53.82700 37.91500
C  26.52800 55.02000 36.92700
H  26.91200 54.66900 35.47600
N  30.41500 57.76100 40.99200
C  31.08300 56.78800 40.40400
C  32.56000 57.09900 40.35800
C  32.72100 58.36700 40.94700
C  31.31800 58.79300 41.19600
C  33.48300 56.13100 39.95900
C  34.05200 59.03400 41.19500
O  35.08800 58.53000 40.76300
C  34.19900 60.27800 42.02900
N  28.43200 60.02200 41.91400
C  29.61800 60.68300 42.00100
C  29.37500 62.12800 42.34500
C  27.90200 62.12900 42.83300
C  27.40000 60.77900 42.35000
C  30.40500 62.92200 43.25500
C  27.05200 63.36900 42.54500
C  26.37000 64.14400 43.68000
N  26.18200 58.07000 41.60400
C  25.41100 59.12900 42.02700
C  23.98600 58.74700 42.06400
C  24.03100 57.39000 41.54900
C  25.33500 57.07000 41.13800
C  22.89700 59.54900 42.73000
C  23.16400 56.29000 41.20200
O  21.98000 56.07100 41.46900
C  24.07000 55.26100 40.43000
C  23.90900 53.91900 40.97900
O  23.46300 52.97300 40.37700
O  24.30100 53.91500 42.25800
C  24.36000 52.61900 42.90800
H  31.02500 54.88600 39.33900
H  31.71800 60.78700 41.73800
H  25.19600 60.96900 42.83100
H  26.75100 53.00900 39.81400
H  29.05200 54.16700 38.06300
H  29.76400 52.04100 38.69600
H  28.75200 51.93500 40.14900
H  30.21200 52.87300 40.18000
H  25.20200 53.91900 38.03200
H  26.43900 52.88600 37.38700
H  27.30300 55.65600 37.35500
H  25.59400 55.56300 36.77800
H  34.36900 56.04400 40.58700
H  33.80500 56.43800 38.96400
H  33.04700 55.14800 39.77900
H  33.67700 60.11500 42.97200
H  33.79800 61.16600 41.54000
H  35.25100 60.41100 42.28200
H  29.50800 62.68200 41.41500
H  27.87700 61.93700 43.90500
H  31.19400 62.20200 43.47200
H  30.04100 63.29400 44.21300
H  30.83700 63.75000 42.69300
H  26.25800 63.15100 41.83000
H  27.67300 64.12800 42.07000
H  26.45300 63.65200 44.64900
H  25.31600 64.19600 43.40600
H  26.79400 65.13400 43.84800
H  23.17400 59.64400 43.78000
H  21.97800 59.02500 42.46600
H  22.72800 60.55000 42.33100
H  23.67300 55.27400 39.41500
H  24.68900 51.88900 42.16800
H  23.37500 52.36700 43.30100
H  25.01000 52.66600 43.78200

