158

Mg 55.51900 23.82100 44.67400
C  53.33900 26.51000 44.21200
C  53.09800 21.78300 43.46000
C  57.87200 21.45500 44.63100
C  57.93200 26.23500 45.88200
N  53.51000 24.26200 43.64100
C  52.80900 25.33800 43.59200
C  51.50500 25.06600 42.83200
C  51.29100 23.52700 43.06600
C  52.70100 23.16500 43.42900
C  50.31800 23.23100 44.22000
C  51.59000 25.51800 41.33200
C  50.23600 25.86200 40.64600
H  49.88100 25.06200 39.36900
N  55.50000 21.86300 43.99600
C  54.36200 21.18100 43.60100
C  54.79200 19.84200 43.32900
C  56.19400 19.72000 43.64900
C  56.59500 20.99900 44.12700
C  53.79800 18.81500 42.83400
C  57.03500 18.38200 43.61900
O  56.53500 17.32600 43.24900
C  58.42400 18.33700 44.01000
N  57.60200 23.87900 45.07700
C  58.29000 22.65500 45.17700
C  59.77500 22.89800 45.61100
C  59.74400 24.42700 45.89800
C  58.30800 24.88700 45.59300
C  60.32200 21.98900 46.75000
C  60.79300 25.24300 45.13300
C  61.84300 25.88900 46.09300
N  55.62100 26.03700 45.05900
C  56.67200 26.80300 45.58600
C  56.13400 28.19400 45.78000
C  54.81900 28.08100 45.30100
C  54.63100 26.74800 44.75400
C  56.83700 29.33600 46.27300
C  53.53200 28.77200 45.16600
O  53.16700 29.90300 45.57700
C  52.55600 27.84200 44.37500
C  52.24900 28.59100 43.12300
O  53.09300 28.92200 42.30700
O  50.87800 28.75000 43.03800
C  50.46000 29.60600 41.89000
H  52.23900 21.17800 43.16200
H  58.67600 20.71800 44.68400
H  58.64600 26.86200 46.41900
H  50.81700 25.74200 43.33900
H  50.95200 23.01700 42.16400
H  49.41100 22.77500 43.82200
H  50.01800 24.15800 44.70700
H  50.70600 22.62700 45.04100
H  52.08500 24.75900 40.72600
H  52.20000 26.41600 41.23600
H  50.31700 26.92500 40.42000
H  49.43100 25.77500 41.37500
H  53.03400 19.41900 42.34400
H  53.39000 18.25600 43.67600
H  54.42500 18.21300 42.17700
H  58.44300 18.71300 45.03300
H  58.93300 18.96400 43.27900
H  58.71400 17.28700 43.96300
H  60.33300 22.77600 44.68300
H  59.87200 24.55900 46.97200
H  61.01700 21.36100 46.19200
H  59.52000 21.37000 47.15100
H  60.86600 22.49400 47.54800
H  60.32100 26.11800 44.68700
H  61.26200 24.65100 44.34700
H  62.68100 25.20300 45.96500
H  61.50100 25.92800 47.12700
H  62.24000 26.80800 45.66200
H  57.02400 29.14000 47.32900
H  56.28400 30.26800 46.15900
H  57.79500 29.39100 45.75500
H  51.66500 27.66600 44.97900
H  50.41800 30.68700 42.02700
H  49.46000 29.33400 41.55100
H  51.12100 29.52500 41.02700
Mg 41.11800 40.96300 26.59300
C  40.38900 43.25200 29.10900
C  42.48900 38.83000 28.83400
C  42.24400 39.05800 24.02700
C  40.86900 43.68100 24.30200
N  41.38900 41.02300 28.75400
C  40.87400 41.97500 29.60900
C  40.96400 41.54300 31.06700
C  41.67300 40.20100 31.01800
C  41.91400 39.98700 29.45900
C  42.97100 40.11700 31.87000
C  39.67600 41.61100 31.99700
C  39.86300 42.23500 33.42300
H  39.11600 41.68300 34.64800
N  42.16200 39.12000 26.47200
C  42.63300 38.45500 27.52200
C  43.33100 37.24500 26.95800
C  43.19800 37.31100 25.57500
C  42.49500 38.55600 25.29900
C  43.86800 36.18900 27.81300
C  43.67100 36.27500 24.47300
O  43.49600 36.46500 23.29200
C  44.40700 35.03100 24.92000
N  41.47900 41.31000 24.48500
C  41.98200 40.35900 23.69200
C  41.99500 40.83900 22.25000
C  41.16300 42.13300 22.28200
C  41.15600 42.42400 23.76000
C  43.42500 41.09100 21.69700
C  39.78800 41.90500 21.56600
C  38.73400 40.91300 22.00400
N  40.48100 42.95300 26.61800
C  40.55200 43.92700 25.64900
C  40.06700 45.21500 26.15100
C  39.96500 45.01600 27.51500
C  40.29000 43.63900 27.74600
C  39.85300 46.53400 25.34500
C  39.54100 45.62400 28.79500
O  39.15800 46.72900 29.11400
C  39.88700 44.44400 29.90000
C  40.93900 45.07200 30.78000
O  42.07400 45.38100 30.39000
O  40.58700 45.28000 32.10300
C  41.55800 45.73200 33.04600
H  42.95600 38.21700 29.60700
H  42.43800 38.44700 23.14300
H  40.71200 44.61700 23.76200
H  41.66100 42.31800 31.38400
H  40.96300 39.46600 31.39600
H  42.74300 39.24300 32.48000
H  43.29800 40.90500 32.54800
H  43.78900 39.84600 31.20300
H  39.04800 40.72100 32.04400
H  38.98200 42.21200 31.40900
H  39.41500 43.21300 33.25000
H  40.88900 42.48900 33.68800
H  43.27200 35.32000 27.53400
H  43.78100 36.26900 28.89700
H  44.84900 35.85000 27.48100
H  45.31100 35.29400 25.47000
H  44.52200 34.39900 24.03900
H  43.69900 34.60200 25.62900
H  41.52200 40.09000 21.61600
H  41.70400 42.98200 21.86500
H  44.14300 40.73400 22.43600
H  43.55800 42.09800 21.30400
H  43.55300 40.39100 20.87100
H  40.06500 41.66300 20.54000
H  39.39200 42.91800 21.49600
H  37.82300 41.46700 22.23300
H  39.05500 40.31100 22.85400
H  38.63000 40.26700 21.13200
H  39.37500 47.30100 25.95400
H  39.25100 46.34400 24.45600
H  40.78400 46.99700 25.01900
H  39.00900 44.26700 30.52100
H  42.33700 46.32300 32.56500
H  41.80300 44.86300 33.65800
H  41.11100 46.44500 33.73800

