158

Mg 15.89600 -2.02800 27.80000
C  15.00600 0.17400 30.43500
C  18.10100 -3.46300 30.06600
C  17.26500 -3.59400 25.20600
C  14.36700 0.30900 25.56500
N  16.45800 -1.70900 30.01900
C  15.89800 -0.88600 30.91600
C  16.44700 -1.17600 32.38200
C  17.39900 -2.32900 32.13700
C  17.41000 -2.50200 30.64300
C  18.82200 -2.09200 32.77800
C  15.23900 -1.38400 33.36900
C  15.29600 -0.69900 34.70000
H  16.59700 -0.16800 35.24500
N  17.35600 -3.48200 27.64800
C  18.16500 -3.96900 28.62100
C  19.04000 -5.01800 28.06200
C  18.69700 -5.14200 26.71700
C  17.73900 -4.05200 26.46600
C  19.96200 -5.86200 28.83700
C  19.21400 -6.06100 25.67900
O  18.78800 -5.99100 24.51900
C  20.05700 -7.30300 26.05200
N  16.03700 -1.54500 25.70400
C  16.47100 -2.51200 24.85600
C  16.19300 -2.15000 23.34400
C  15.31700 -0.87000 23.46400
C  15.24800 -0.62200 25.02700
C  17.50300 -1.86500 22.63800
C  13.87600 -0.93000 22.76800
C  13.46800 0.33600 22.05200
N  14.80000 -0.20800 27.96300
C  14.22500 0.60500 26.97700
C  13.62000 1.74000 27.52200
C  13.86900 1.58600 28.90700
C  14.56500 0.39900 29.13300
C  12.92300 2.83200 26.78500
C  13.49000 2.15300 30.21900
O  12.95600 3.21000 30.51400
C  14.23300 1.23500 31.25200
C  15.06500 2.23700 32.00400
O  15.92300 2.98500 31.58400
O  14.52600 2.34700 33.31200
C  14.90400 3.50900 34.12300
H  18.71800 -4.05700 30.74400
H  17.70600 -4.00400 24.29600
H  13.96700 0.90000 24.73700
H  17.09400 -0.40800 32.80600
H  17.07300 -3.26900 32.58300
H  18.88300 -1.21600 33.42400
H  19.52200 -2.16300 31.94500
H  19.10100 -2.93800 33.40600
H  15.04000 -2.43700 33.57100
H  14.34400 -1.00400 32.87600
H  14.84700 -1.31200 35.48200
H  14.54000 0.08100 34.79400
H  20.96000 -5.98900 28.41700
H  19.62000 -6.89500 28.89600
H  20.00900 -5.58600 29.89100
H  20.27900 -7.80100 25.10800
H  19.40900 -7.86800 26.72200
H  21.01200 -6.89700 26.38500
H  15.63600 -3.01900 22.99300
H  15.74200 0.04300 23.04700
H  17.49700 -0.95400 22.04000
H  17.83300 -2.64400 21.95100
H  18.29900 -1.86800 23.38200
H  13.13300 -1.12600 23.54100
H  13.74600 -1.76600 22.08000
H  14.37300 0.88800 21.79800
H  12.86400 0.91100 22.75300
H  13.02600 0.08800 21.08700
H  12.26700 2.46200 25.99600
H  13.66400 3.49900 26.34600
H  12.35500 3.38000 27.53600
H  13.44200 0.80700 31.86700
H  15.75100 3.43900 34.80500
H  13.96900 3.71200 34.64600
H  15.10900 4.43200 33.58200
Mg 42.16500 41.43500 27.03700
C  41.44600 43.73800 29.53200
C  43.01600 39.14200 29.54000
C  43.42800 39.42100 24.59800
C  41.92500 44.08200 24.66800
N  42.16200 41.43800 29.21200
C  41.68600 42.40200 29.96600
C  41.54600 41.96700 31.49400
C  42.23800 40.59300 31.46400
C  42.51200 40.34300 29.99500
C  43.52300 40.40500 32.35000
C  40.07700 41.99200 32.02100
C  39.72100 43.15300 32.98100
H  38.90200 42.75400 34.26100
N  42.95100 39.43800 27.05300
C  43.18100 38.63900 28.16300
C  43.51900 37.28100 27.69900
C  43.49500 37.34300 26.26400
C  43.25600 38.76500 25.93900
C  43.76600 36.16700 28.65100
C  43.67300 36.21900 25.24500
O  43.70000 36.35200 24.01900
C  43.73600 34.70500 25.72000
N  42.76100 41.72900 25.02900
C  43.20300 40.76400 24.21500
C  43.56800 41.29200 22.82800
C  42.57200 42.49100 22.84100
C  42.39800 42.83200 24.27000
C  45.03300 41.63200 22.49400
C  41.22000 42.18600 22.13900
C  40.36200 40.95000 22.54400
N  41.81900 43.52800 27.05200
C  41.68100 44.42100 26.02000
C  41.41800 45.68600 26.60600
C  41.36700 45.50900 27.98600
C  41.57600 44.15900 28.20400
C  41.18400 46.93100 25.89700
C  41.17300 46.15500 29.23900
O  40.97700 47.31900 29.60700
C  41.11500 45.00200 30.25500
C  42.05000 45.47700 31.30100
O  43.25600 45.54400 31.07500
O  41.48500 45.90100 32.47300
C  42.47800 46.45500 33.45200
H  43.27400 38.45600 30.34800
H  43.88200 38.78900 23.83200
H  41.72500 44.86400 23.93100
H  42.24400 42.66900 31.95100
H  41.52600 39.83500 31.79000
H  44.10900 39.60000 31.90500
H  43.16800 40.22300 33.36400
H  44.14100 41.29800 32.44800
H  39.83100 41.11100 32.61400
H  39.34800 42.00500 31.21100
H  39.01900 43.94400 32.71700
H  40.64000 43.58900 33.37300
H  44.58800 35.56100 28.27000
H  42.87500 35.54100 28.64400
H  44.01000 36.52400 29.65200
H  44.67600 34.59800 26.26100
H  43.71800 34.04000 24.85600
H  42.91600 34.46900 26.39800
H  43.14400 40.63900 22.06500
H  43.03800 43.34100 22.34300
H  45.31700 42.64400 22.78300
H  45.12100 41.48700 21.41700
H  45.78400 40.95700 22.90400
H  41.54100 42.08800 21.10200
H  40.59200 43.07400 22.21300
H  40.29900 40.29100 21.67800
H  39.45700 41.44800 22.88900
H  40.87700 40.47200 23.37800
H  40.14600 47.26300 25.92800
H  41.54000 46.81100 24.87300
H  41.74700 47.77100 26.30200
H  40.12700 44.92500 30.71000
H  43.37800 46.88000 33.00800
H  42.69300 45.65400 34.16000
H  42.08700 47.29800 34.02100

