158

Mg -3.35900 16.96400 26.79100
C  -3.38800 14.96800 29.59000
C  -3.72000 19.83400 28.62500
C  -3.30900 18.73500 23.91000
C  -3.57400 13.94900 24.86300
N  -3.46900 17.26800 28.84300
C  -3.51300 16.34300 29.90200
C  -3.48300 16.99100 31.29600
C  -3.63200 18.49600 30.87100
C  -3.66300 18.56500 29.34700
C  -4.59100 19.37000 31.69700
C  -2.28300 16.59000 32.22600
C  -1.67700 17.45100 33.32700
H  -1.41400 16.87600 34.72000
N  -3.35200 19.02000 26.35900
C  -3.48300 20.05900 27.29600
C  -3.35400 21.37000 26.63400
C  -3.12300 21.05200 25.22200
C  -3.26200 19.57300 25.12100
C  -3.52500 22.75600 27.32300
C  -2.93400 22.02800 24.06500
O  -3.07000 21.61600 22.89200
C  -2.68300 23.43100 24.35700
N  -3.54300 16.35500 24.65000
C  -3.41900 17.36600 23.72600
C  -3.43200 16.78000 22.30400
C  -3.33300 15.21800 22.59700
C  -3.50600 15.10400 24.09500
C  -4.76400 17.30600 21.73300
C  -1.90400 14.84100 21.99400
C  -0.77000 15.33000 22.93000
N  -3.53100 14.93800 27.05200
C  -3.54700 13.83000 26.20800
C  -3.46600 12.52700 26.95800
C  -3.47400 12.97700 28.29200
C  -3.46500 14.39600 28.29000
C  -3.49000 11.14500 26.43400
C  -3.38300 12.56100 29.69100
O  -3.32000 11.45600 30.14000
C  -3.30900 13.75600 30.48400
C  -2.02500 13.60300 31.21400
O  -0.89300 14.05700 30.87500
O  -2.30700 13.11400 32.45200
C  -1.15000 12.96900 33.34500
H  -3.79300 20.67600 29.31700
H  -3.30000 19.22900 22.93600
H  -3.53000 13.06400 24.22300
H  -4.41700 16.71400 31.78500
H  -2.66700 18.94300 31.11100
H  -5.36200 19.90900 31.14600
H  -4.06600 20.21700 32.13700
H  -5.05900 18.84900 32.53300
H  -1.49100 16.44300 31.49100
H  -2.64700 15.68800 32.71800
H  -2.09500 18.45700 33.37200
H  -0.68100 17.69300 32.95900
H  -2.63900 23.36800 27.15100
H  -3.56800 22.56900 28.39600
H  -4.36700 23.31900 26.91800
H  -3.58100 23.86900 24.79000
H  -2.43800 23.95200 23.43100
H  -1.84500 23.57800 25.03800
H  -2.65800 17.20200 21.66300
H  -4.15200 14.66300 22.14000
H  -5.41400 16.49000 21.41600
H  -4.42100 17.83700 20.84400
H  -5.19700 18.07500 22.37200
H  -1.73000 15.37700 21.06100
H  -1.86600 13.77700 21.76000
H  -0.06000 14.51900 23.09300
H  -1.01200 15.60000 23.95800
H  -0.25500 16.17100 22.46700
H  -3.56800 11.08200 25.34800
H  -4.29500 10.55300 26.86900
H  -2.56000 10.59500 26.57900
H  -4.09300 13.67600 31.23600
H  -0.99400 13.81600 34.01300
H  -0.22800 12.73700 32.81200
H  -1.54100 12.15800 33.96000
Mg 23.34900 -4.91800 45.61600
C  25.42800 -2.31700 44.24700
C  20.94000 -3.74600 43.51000
C  21.67100 -7.75100 46.26700
C  26.29900 -6.25800 47.01900
N  23.27000 -3.22800 43.96900
C  24.17300 -2.34300 43.65400
C  23.62300 -1.31400 42.63900
C  22.05000 -1.61700 42.77000
C  22.05400 -2.95300 43.47800
C  21.31600 -0.52000 43.58200
C  24.26800 -1.58000 41.20800
C  24.88800 -0.44100 40.38900
H  25.66800 -0.88700 39.18700
N  21.47000 -5.60200 45.06000
C  20.67900 -5.03300 44.15100
C  19.43900 -5.69400 44.16200
C  19.53600 -6.79500 45.05200
C  20.97400 -6.77800 45.47500
C  18.33400 -5.31600 43.17000
C  18.44100 -7.79500 45.22200
O  17.32500 -7.64000 44.72100
C  18.60500 -9.00400 46.03800
N  23.91900 -6.74800 46.48700
C  23.03900 -7.78100 46.65600
C  23.69300 -8.90600 47.40000
C  25.17800 -8.49400 47.61000
C  25.17000 -7.01500 47.05000
C  22.98800 -9.38000 48.71300
C  26.16300 -9.46400 46.89300
C  27.25600 -9.98300 47.81300
N  25.30300 -4.30600 45.83800
C  26.43400 -4.92400 46.51600
C  27.55600 -4.11100 46.39000
C  27.18300 -3.03900 45.58400
C  25.86600 -3.27100 45.12900
C  28.84200 -4.35600 47.02600
C  27.68300 -1.83000 45.00100
O  28.76300 -1.25200 45.12400
C  26.63300 -1.35800 44.03400
C  26.47100 0.15400 44.24700
O  25.86000 0.63000 45.18700
O  27.22900 0.91400 43.37400
C  27.32000 2.38300 43.68900
H  20.07500 -3.33500 42.98600
H  21.18400 -8.67600 46.58500
H  27.18700 -6.70600 47.46900
H  23.87000 -0.28900 42.91600
H  21.46200 -1.58300 41.85300
H  22.03700 -0.12300 44.29700
H  20.43000 -0.85800 44.11900
H  21.04100 0.23300 42.84300
H  23.54200 -2.06600 40.55700
H  25.05300 -2.32100 41.35900
H  25.46000 0.15800 41.09700
H  24.07200 0.08500 39.89300
H  18.59900 -4.54000 42.45100
H  17.54900 -4.98300 43.84900
H  17.97600 -6.22400 42.68500
H  19.05200 -8.81500 47.01400
H  19.29800 -9.62000 45.46400
H  17.71100 -9.62300 46.12100
H  23.64900 -9.83900 46.83800
H  25.36200 -8.49200 48.68500
H  22.14100 -8.74500 48.97200
H  23.53100 -9.03800 49.59400
H  22.87700 -10.45900 48.82200
H  26.74600 -8.88400 46.17700
H  25.61500 -10.28000 46.42300
H  27.26600 -11.07300 47.83600
H  27.03800 -9.63400 48.82300
H  28.21900 -9.60400 47.47000
H  29.17200 -5.34900 46.72100
H  28.75200 -4.39600 48.11200
H  29.52400 -3.58100 46.67800
H  26.97700 -1.47200 43.00600
H  26.92800 2.96700 42.85600
H  28.39700 2.55000 43.71300
H  26.92900 2.62100 44.67800

