158

Mg 7.77700 2.67600 27.22000
C  9.31400 1.54600 30.21200
C  5.86700 4.85800 29.07400
C  6.79000 4.14600 24.31800
C  9.81500 0.50500 25.50300
N  7.66100 3.14600 29.35000
C  8.37300 2.57600 30.41300
C  8.15800 3.37400 31.70200
C  6.79700 4.14100 31.38800
C  6.73700 4.03400 29.79700
C  5.48400 3.67100 32.16100
C  9.39400 4.17500 32.16100
C  9.22200 4.75700 33.58700
H  10.12700 4.26700 34.76700
N  6.33100 4.19100 26.70200
C  5.68800 4.93000 27.65900
C  4.75600 5.81800 27.03100
C  5.09100 5.77400 25.58900
C  6.06900 4.65500 25.45000
C  3.84400 6.74200 27.75300
C  4.66700 6.68500 24.40400
O  5.10200 6.60500 23.27200
C  3.65600 7.72900 24.80500
N  8.17300 2.30000 25.23900
C  7.72100 3.12900 24.24500
C  8.11200 2.57900 22.85800
C  9.07900 1.42200 23.22400
C  8.98000 1.39100 24.71000
C  6.97100 2.19000 21.84000
C  10.49700 1.75900 22.80700
C  11.30900 2.66100 23.74400
N  9.19700 1.21600 27.69200
C  9.97500 0.42200 26.88800
C  10.84900 -0.39900 27.71200
C  10.60300 0.03400 29.00300
C  9.55500 0.92400 29.02700
C  11.79400 -1.44100 27.20700
C  11.00400 -0.17600 30.34900
O  11.90600 -0.96000 30.70900
C  10.32800 0.85600 31.19100
C  9.68300 0.17300 32.30000
O  8.59300 -0.37600 32.29200
O  10.44900 0.37700 33.42100
C  9.81700 0.04400 34.68000
H  5.26100 5.42300 29.78500
H  6.67300 4.53600 23.30500
H  10.41300 -0.22600 24.95500
H  7.92900 2.61700 32.45200
H  6.82500 5.17600 31.72700
H  5.75800 2.74200 32.66000
H  4.73600 3.47000 31.39400
H  5.11300 4.44800 32.83000
H  9.42700 5.05500 31.52000
H  10.36800 3.68500 32.13700
H  8.18600 4.51100 33.81900
H  9.30300 5.82600 33.38600
H  4.13200 7.79300 27.76800
H  3.67000 6.32500 28.74500
H  2.85200 6.57500 27.33500
H  2.81300 7.14300 25.17100
H  3.42600 8.41500 23.99000
H  4.07800 8.28400 25.64200
H  8.68200 3.32000 22.29800
H  8.88800 0.43500 22.80300
H  5.95100 2.35800 22.18500
H  7.18500 1.14400 21.62100
H  7.12700 2.74200 20.91300
H  10.40000 2.17300 21.80300
H  10.99700 0.79000 22.79100
H  10.73700 3.06300 24.58000
H  11.51900 3.57100 23.18300
H  12.19500 2.13300 24.09700
H  11.97000 -1.30600 26.14000
H  11.50300 -2.48300 27.33900
H  12.70300 -1.32700 27.79700
H  11.08000 1.59400 31.47200
H  8.79000 -0.32000 34.65500
H  9.71400 0.93800 35.29400
H  10.46500 -0.74300 35.06600
Mg 40.30900 9.77800 29.99000
C  42.24100 11.20500 32.43600
C  38.15300 8.52700 32.30500
C  38.45400 8.49500 27.47700
C  42.99700 10.31600 27.75100
N  40.26100 9.82300 32.09200
C  41.04700 10.57500 32.82900
C  40.54200 10.64500 34.30000
C  39.39800 9.48900 34.31000
C  39.22100 9.26200 32.83500
C  39.77700 8.20100 35.09000
C  40.07600 12.04300 34.85800
C  39.63900 12.08400 36.33900
H  40.27200 13.04500 37.35700
N  38.59800 8.62600 29.88300
C  37.78800 8.24000 30.93500
C  36.59100 7.48000 30.46500
C  36.59100 7.58400 29.00200
C  37.91100 8.32800 28.73000
C  35.50300 6.86300 31.36200
C  35.55000 7.03900 28.04000
O  35.67200 7.14700 26.80400
C  34.18400 6.53000 28.46600
N  40.59100 9.45800 27.88800
C  39.61900 8.95900 27.07300
C  40.14000 8.91000 25.55000
C  41.59300 9.44800 25.72000
C  41.78600 9.79200 27.17000
C  40.00600 7.66000 24.68800
C  41.87900 10.69900 24.76600
C  41.70600 12.10900 25.17900
N  42.22800 10.56500 29.98100
C  43.20200 10.73100 28.99400
C  44.37400 11.36000 29.61000
C  43.99400 11.67100 30.95100
C  42.71100 11.06500 31.14500
C  45.77800 11.58700 29.05100
C  44.44600 12.34000 32.21000
O  45.41500 13.07200 32.45500
C  43.29100 12.02500 33.20800
C  43.88700 11.44500 34.43800
O  44.34200 10.31700 34.48300
O  43.90900 12.36900 35.47200
C  44.44800 12.00400 36.77600
H  37.40300 8.17400 33.01500
H  37.87500 8.14200 26.62100
H  43.82200 10.41400 27.04200
H  41.38800 10.40500 34.94300
H  38.43500 9.83800 34.68400
H  40.86400 8.14200 35.03500
H  39.42100 7.32600 34.54800
H  39.38800 8.25300 36.10700
H  39.26300 12.46000 34.26400
H  40.90300 12.74100 34.72800
H  39.58400 11.06300 36.71800
H  38.61000 12.43400 36.26800
H  35.89000 6.93200 32.37800
H  35.31800 5.89300 30.90000
H  34.60500 7.47800 31.31800
H  34.38700 5.57700 28.95500
H  33.67800 6.28100 27.53300
H  33.63300 7.22000 29.10600
H  39.60900 9.76400 25.12700
H  42.31500 8.68700 25.42500
H  39.91500 6.81600 25.37200
H  40.91900 7.50500 24.11200
H  39.21200 7.66400 23.94100
H  41.22400 10.68200 23.89500
H  42.77700 10.59600 24.15700
H  41.39300 12.75300 24.35800
H  42.65400 12.51700 25.53100
H  40.94900 12.11400 25.96400
H  46.18500 10.58100 29.14900
H  46.40000 12.21500 29.68900
H  45.69400 12.00700 28.04800
H  42.81500 12.95800 33.50900
H  43.66400 11.86100 37.52000
H  45.23000 12.65700 37.16400
H  45.01700 11.07400 36.77300

