158

Mg 24.26500 -5.35500 45.46000
C  26.57600 -3.19100 43.85900
C  21.79500 -4.10200 43.53200
C  22.41900 -8.06500 46.31300
C  27.12100 -6.74500 47.23400
N  24.20600 -3.94200 43.77600
C  25.27800 -3.19600 43.32100
C  24.84300 -2.32300 42.18200
C  23.28400 -2.23900 42.43600
C  23.00700 -3.44100 43.37400
C  22.71900 -0.86500 42.96000
C  25.48500 -2.86600 40.82200
C  26.07100 -1.77900 39.88600
H  26.17100 -2.08800 38.33100
N  22.25900 -5.97400 45.06000
C  21.41200 -5.31100 44.22700
C  20.12100 -5.97300 44.29000
C  20.20800 -7.11300 45.14900
C  21.64200 -7.15300 45.52500
C  18.94900 -5.54600 43.46300
C  19.17600 -8.22100 45.43900
O  18.04800 -8.14700 44.93500
C  19.35500 -9.45100 46.27200
N  24.74900 -7.13600 46.58800
C  23.76800 -8.09100 46.72200
C  24.40800 -9.35500 47.34800
C  25.75300 -8.79500 47.86900
C  25.88800 -7.45300 47.22400
C  23.59700 -10.20300 48.40000
C  26.95100 -9.73800 47.72100
C  27.86200 -9.80600 48.98400
N  26.32000 -4.94200 45.75000
C  27.32300 -5.62600 46.47800
C  28.59900 -4.87800 46.21600
C  28.31000 -3.94300 45.17400
C  26.95300 -4.05700 44.93000
C  29.83100 -4.99800 46.93100
C  28.94000 -2.99800 44.26400
O  30.09000 -2.79400 44.06800
C  27.78600 -2.44800 43.40500
C  27.71300 -1.03400 43.66600
O  28.02500 -0.19300 42.88000
O  27.07900 -0.80600 44.85900
C  26.73100 0.58400 45.17900
H  20.99400 -3.68500 42.91800
H  21.76600 -8.88500 46.61900
H  28.02600 -7.19500 47.64800
H  25.30800 -1.36200 42.40200
H  22.89500 -2.30400 41.42000
H  23.42600 -0.03500 42.95800
H  22.40300 -0.90300 44.00300
H  21.83500 -0.56100 42.39900
H  24.74600 -3.41000 40.23300
H  26.29800 -3.55200 41.05700
H  27.10900 -1.61300 40.17600
H  25.53000 -0.84700 40.04500
H  18.91200 -6.29400 42.67100
H  19.15000 -4.61500 42.93300
H  18.08800 -5.44600 44.12400
H  20.07200 -10.16900 45.87300
H  18.37600 -9.92400 46.35400
H  19.61800 -9.19100 47.29800
H  24.59800 -9.99400 46.48600
H  25.54000 -8.54800 48.90900
H  23.23500 -11.03600 47.79800
H  22.74300 -9.68700 48.83700
H  24.14400 -10.74800 49.16900
H  27.60400 -9.38900 46.92000
H  26.53900 -10.72500 47.51100
H  27.55400 -9.12700 49.77900
H  28.88800 -9.54100 48.73300
H  27.83700 -10.76000 49.51100
H  30.17800 -5.99300 46.65200
H  29.61500 -4.96700 47.99800
H  30.51300 -4.21600 46.59500
H  28.09000 -2.53800 42.36200
H  27.44400 1.01300 45.88300
H  25.77000 0.64100 45.69000
H  26.65200 1.32100 44.38000
Mg 0.11900 44.27100 25.77400
C  2.30600 43.51300 28.36400
C  -2.54300 43.56100 27.82300
C  -1.95300 44.30400 23.03300
C  2.82800 44.66500 23.69100
N  0.00200 43.55100 27.75000
C  0.96400 43.33900 28.66200
C  0.36700 43.31000 30.09500
C  -1.07400 42.99400 29.78500
C  -1.22600 43.32700 28.33100
C  -1.50700 41.58000 30.17200
C  0.52200 44.67900 30.90400
C  0.54900 44.66700 32.43100
H  0.58600 43.30200 33.14400
N  -1.98100 44.17200 25.50100
C  -2.90700 43.86100 26.46400
C  -4.24100 43.91400 25.96500
C  -4.07800 44.18200 24.54200
C  -2.66100 44.23700 24.30000
C  -5.42300 43.58400 26.76700
C  -5.16800 44.28400 23.45200
O  -4.91200 44.57000 22.25800
C  -6.57600 44.11000 23.79900
N  0.34200 44.43500 23.65600
C  -0.61400 44.50900 22.73200
C  -0.10200 45.06000 21.36900
C  1.43900 45.03500 21.60100
C  1.57200 44.74400 23.06300
C  -0.57900 44.37500 20.03600
C  2.25200 46.24000 20.92800
C  2.45500 47.38900 21.84900
N  2.16900 43.95300 25.92200
C  3.20600 44.17300 24.98500
C  4.47800 44.00400 25.62500
C  4.20200 43.71300 26.93900
C  2.80100 43.75900 27.10000
C  5.73200 44.22500 24.92100
C  4.82300 43.51800 28.26000
O  6.02700 43.41600 28.57600
C  3.57600 43.42400 29.23800
C  3.63700 42.15200 30.11200
O  3.37900 41.06500 29.68800
O  4.15300 42.46600 31.36800
C  4.34800 41.25300 32.21100
H  -3.29800 43.34600 28.58200
H  -2.63700 44.30200 22.18200
H  3.69100 44.95100 23.08600
H  0.83400 42.49100 30.64200
H  -1.77200 43.63200 30.32600
H  -2.03300 41.27700 29.26700
H  -2.15000 41.63700 31.05000
H  -0.64300 40.93900 30.34200
H  -0.22400 45.41100 30.59600
H  1.49100 45.08500 30.61400
H  -0.32700 45.18400 32.82200
H  1.38700 45.25200 32.81100
H  -5.17000 43.13100 27.72500
H  -6.19600 42.97100 26.30300
H  -5.98700 44.46300 27.07700
H  -6.81300 43.09200 24.10800
H  -7.08800 44.31500 22.85800
H  -6.83200 44.88100 24.52600
H  -0.39600 46.10900 21.32800
H  1.86000 44.22600 21.00300
H  0.09500 44.51100 19.19000
H  -1.56000 44.81200 19.85300
H  -0.75700 43.31200 20.19900
H  1.77300 46.65000 20.03800
H  3.25300 45.94600 20.61200
H  2.36100 48.24000 21.17300
H  3.47100 47.60600 22.17700
H  1.69000 47.52600 22.61400
H  6.48800 43.53800 25.30000
H  6.10000 45.21400 25.19500
H  5.76000 43.98300 23.85800
H  3.59500 44.34300 29.82400
H  4.92900 40.43000 31.79600
H  3.43200 40.81900 32.61100
H  4.75700 41.60700 33.15700

