158

Mg -1.48300 17.78400 27.24500
C  -1.86900 15.32100 29.72700
C  -2.06500 20.16800 29.48100
C  -1.36900 19.89400 24.67200
C  -1.58300 15.03400 24.73900
N  -1.91200 17.66400 29.41200
C  -1.96500 16.62800 30.26100
C  -2.31400 17.17900 31.65700
C  -2.60900 18.67600 31.40500
C  -2.18700 18.87400 29.96300
C  -4.02500 19.09500 31.74500
C  -1.16900 16.84800 32.69000
C  -1.59000 16.06300 33.94800
H  -0.44200 15.98700 34.99000
N  -1.61400 19.76500 27.04800
C  -1.70100 20.58400 28.16600
C  -1.57200 21.92900 27.73800
C  -1.38200 21.91000 26.38200
C  -1.37400 20.53100 25.97700
C  -1.82200 23.15300 28.62300
C  -1.13200 22.99800 25.38600
O  -1.03300 22.84200 24.18800
C  -1.02000 24.41200 25.85300
N  -1.45100 17.46600 25.05100
C  -1.46600 18.57400 24.25100
C  -1.83300 18.16600 22.78700
C  -1.67500 16.63600 22.80100
C  -1.54500 16.40600 24.28100
C  -3.22900 18.51300 22.31400
C  -0.47600 15.98900 22.03100
C  0.99400 16.28800 22.56100
N  -1.56800 15.64700 27.19000
C  -1.54800 14.72600 26.14100
C  -1.76900 13.38700 26.70400
C  -1.90400 13.58700 28.08900
C  -1.74300 14.98100 28.32100
C  -2.09100 12.20700 25.92200
C  -2.17900 12.90700 29.29400
O  -2.30100 11.68600 29.51100
C  -2.22200 13.98900 30.43200
C  -1.11500 13.58500 31.42000
O  0.04800 13.97100 31.34000
O  -1.55200 12.93000 32.52900
C  -0.62300 12.55000 33.64500
H  -2.15500 21.02000 30.15800
H  -1.52500 20.50300 23.77900
H  -1.66000 14.21000 24.02800
H  -3.20700 16.70700 32.06700
H  -1.99300 19.39900 31.94100
H  -4.55900 18.49000 32.47800
H  -4.52000 19.19900 30.78000
H  -3.96600 20.12100 32.11000
H  -0.79500 17.82900 32.98200
H  -0.37900 16.35400 32.12400
H  -1.82700 15.04400 33.63900
H  -2.40600 16.63500 34.39000
H  -2.67400 23.75700 28.31000
H  -0.89300 23.69800 28.78600
H  -2.18400 22.99600 29.63900
H  -1.93700 24.70100 26.36600
H  -0.86900 25.03000 24.96800
H  -0.29000 24.41000 26.66300
H  -1.12200 18.64900 22.11600
H  -2.56700 16.12700 22.43800
H  -3.59800 18.96200 23.23700
H  -3.85000 17.63400 22.14500
H  -3.22300 19.17100 21.44500
H  -0.57200 16.34100 21.00400
H  -0.53500 14.90100 21.99700
H  1.02500 16.75500 23.54500
H  1.49200 16.92000 21.82500
H  1.60700 15.39900 22.71000
H  -2.22800 11.46700 26.71000
H  -1.34300 11.84700 25.21600
H  -3.05400 12.41700 25.45700
H  -3.22400 13.93200 30.85600
H  -0.01100 11.68700 33.38400
H  -1.14400 12.35800 34.58400
H  0.06500 13.39000 33.73600
Mg 17.53000 -0.66500 27.42200
C  16.21200 1.16800 30.22900
C  19.31700 -2.47000 29.70800
C  18.42600 -2.50900 24.84400
C  15.75300 1.48400 25.29800
N  17.82200 -0.53800 29.73400
C  17.15900 0.27600 30.63500
C  17.56100 -0.09400 32.03300
C  18.87500 -0.91400 31.74700
C  18.70800 -1.32900 30.30000
C  20.17000 -0.28600 32.08300
C  16.33000 -0.86500 32.79600
C  16.33200 -0.66300 34.33000
H  17.57400 -0.02200 35.02200
N  18.60600 -2.33200 27.30500
C  19.32300 -2.92500 28.35600
C  20.00300 -4.13000 27.80000
C  19.72400 -4.11400 26.39100
C  18.85500 -2.96300 26.12500
C  20.81100 -5.14000 28.61800
C  20.19700 -5.14100 25.41700
O  19.88600 -5.09700 24.23200
C  21.25600 -6.25000 25.73000
N  17.35000 -0.37000 25.29600
C  17.70200 -1.37500 24.46800
C  17.30700 -1.04800 23.02100
C  16.45700 0.30700 23.16900
C  16.56100 0.54100 24.66900
C  18.44000 -0.94500 21.88800
C  15.02300 0.27500 22.62000
C  14.05700 -0.48400 23.57000
N  16.25400 0.91300 27.66100
C  15.58300 1.71600 26.72700
C  14.68700 2.54800 27.34200
C  14.95100 2.40600 28.72300
C  15.92200 1.41100 28.88300
C  13.80700 3.49000 26.65200
C  14.59600 3.01300 30.10200
O  13.78700 3.86100 30.38500
C  15.30900 2.10600 31.08600
C  16.09100 3.03500 32.01600
O  17.16500 3.58200 31.73900
O  15.53900 3.14500 33.24900
C  16.21900 3.92600 34.29500
H  19.89800 -3.05100 30.42800
H  18.57300 -3.15300 23.97500
H  15.19000 2.11500 24.60800
H  17.87400 0.79100 32.58700
H  18.80200 -1.82800 32.33700
H  20.82900 -0.48300 31.23700
H  20.47600 -0.77200 33.00900
H  20.16000 0.80400 32.09700
H  16.57100 -1.90700 32.58700
H  15.35300 -0.68100 32.34900
H  16.20100 -1.57700 34.90900
H  15.47200 -0.01100 34.48300
H  21.87100 -5.10100 28.36600
H  20.42600 -6.14300 28.43300
H  20.50100 -4.97200 29.65000
H  21.59500 -6.62300 24.76300
H  20.76700 -7.01300 26.33700
H  22.15100 -5.82000 26.18100
H  16.55900 -1.77900 22.71400
H  17.00300 1.07800 22.62500
H  19.30900 -1.55500 22.13700
H  18.83800 0.05400 21.70700
H  18.03300 -1.46400 21.02100
H  14.90300 -0.24200 21.66800
H  14.66900 1.28800 22.42700
H  13.45800 0.20400 24.16600
H  14.44200 -1.36800 24.07900
H  13.36600 -0.95100 22.86900
H  14.33600 4.33800 26.21700
H  13.03800 3.75700 27.37800
H  13.41700 2.96100 25.78300
H  14.76400 1.47800 31.79100
H  17.10500 4.42800 33.90500
H  16.69600 3.32000 35.06500
H  15.57900 4.62700 34.83000

