158

Mg 30.64100 58.44100 40.63700
C  27.84600 56.56100 39.65500
C  32.64300 55.79700 39.96800
C  33.14400 60.57400 40.60600
C  28.31600 61.24200 41.30200
N  30.29800 56.51200 39.71600
C  29.12800 55.90700 39.46300
C  29.33400 54.46000 39.04500
C  30.74000 54.14300 39.71500
C  31.32000 55.56700 39.78900
C  30.74500 53.34200 41.01000
C  29.20600 54.39700 37.49800
C  28.23600 53.39600 36.83800
H  27.23900 54.08300 35.88400
N  32.63600 58.20900 40.36200
C  33.29100 57.00100 40.15700
C  34.65700 57.25300 40.04100
C  34.83100 58.59200 40.35300
C  33.53500 59.23400 40.38500
C  35.60900 56.17000 39.81200
C  36.19600 59.28700 40.63200
O  37.30200 58.68600 40.53300
C  36.35000 60.77100 41.16200
N  30.62200 60.60800 40.86400
C  31.90300 61.18900 40.79400
C  31.74700 62.68800 41.12100
C  30.22600 62.89800 41.47100
C  29.67900 61.53600 41.18200
C  32.65700 63.22400 42.20500
C  29.46300 63.96700 40.61400
C  29.87300 65.37600 40.81400
N  28.54200 58.86700 40.59500
C  27.74600 60.04600 40.85400
C  26.33700 59.58100 40.62900
C  26.32300 58.34200 40.11700
C  27.70400 57.91300 40.10400
C  25.16800 60.49300 40.86600
C  25.48500 57.20500 39.63200
O  24.31900 57.20900 39.31900
C  26.51600 55.99700 39.41900
C  26.14300 54.90700 40.32500
O  26.63500 54.79700 41.42200
O  25.12000 54.10400 39.84200
C  24.41900 53.18400 40.79300
H  33.26700 54.91900 39.78600
H  33.94500 61.31100 40.51700
H  27.72200 62.02400 41.77800
H  28.49100 53.88900 39.43400
H  31.28900 53.52600 39.00300
H  29.67300 53.21000 41.15700
H  31.19100 53.75600 41.91300
H  31.23300 52.37800 40.86500
H  30.18400 54.12100 37.10300
H  29.16400 55.40400 37.08100
H  27.71900 52.88200 37.64800
H  28.80000 52.64900 36.27900
H  35.61400 55.55600 40.71200
H  36.67100 56.38900 39.69500
H  35.38900 55.49500 38.98500
H  36.36000 61.46800 40.32500
H  37.29000 60.81800 41.71200
H  35.49400 60.94300 41.81400
H  31.99500 63.10000 40.14300
H  30.13500 63.13000 42.53200
H  33.11400 62.39900 42.75100
H  32.22600 63.95400 42.89000
H  33.45800 63.80200 41.74400
H  28.42200 64.06000 40.92400
H  29.30800 63.75300 39.55600
H  30.11800 65.77300 39.82900
H  30.72300 65.56700 41.46900
H  29.03700 65.99900 41.13400
H  24.40500 60.10500 41.54200
H  24.69800 60.47400 39.88300
H  25.40200 61.52900 41.11100
H  26.33800 55.65500 38.40000
H  23.39500 53.53800 40.91700
H  24.67600 53.33900 41.84100
H  24.36600 52.10500 40.64900
Mg -5.03600 24.99700 26.12000
C  -3.77400 26.21300 29.09200
C  -7.07200 22.82100 27.95600
C  -6.06500 23.45700 23.25800
C  -2.90800 26.95500 24.31300
N  -5.32200 24.61100 28.28800
C  -4.78100 25.37500 29.30200
C  -5.28400 24.94200 30.67300
C  -6.14500 23.66800 30.23400
C  -6.19700 23.69900 28.74100
C  -5.67100 22.28800 30.82600
C  -6.12400 26.09700 31.42300
C  -6.19100 26.02800 32.95600
H  -5.53100 24.78300 33.66800
N  -6.45200 23.47800 25.65100
C  -7.23500 22.74800 26.56500
C  -8.08200 21.79900 25.86100
C  -7.81300 22.03400 24.53400
C  -6.70600 22.97500 24.41800
C  -9.19700 21.01700 26.46600
C  -8.60600 21.36500 23.44100
O  -8.18900 21.50000 22.29500
C  -9.87000 20.62000 23.62400
N  -4.52600 25.14000 24.05000
C  -5.09700 24.41000 23.07200
C  -4.38000 24.71500 21.68300
C  -3.60500 25.99700 22.01400
C  -3.61700 26.02200 23.55800
C  -3.48200 23.52400 21.16200
C  -4.19700 27.32800 21.43600
C  -3.28400 28.12700 20.43000
N  -3.52500 26.23100 26.57100
C  -2.84700 27.14700 25.71000
C  -2.02500 27.97700 26.59200
C  -2.40300 27.69200 27.90100
C  -3.22400 26.52600 27.85900
C  -1.06500 29.05600 26.20600
C  -2.15400 28.02500 29.26900
O  -1.50600 28.95800 29.77900
C  -3.04300 27.04300 30.11000
C  -2.09300 26.38400 31.09600
O  -1.26100 25.52400 30.85800
O  -2.27800 26.93000 32.29500
C  -1.54500 26.49600 33.46800
H  -7.73900 22.22700 28.58400
H  -6.35300 22.98300 22.31700
H  -2.34700 27.77900 23.86700
H  -4.35300 24.70300 31.18600
H  -7.20500 23.81600 30.44400
H  -6.45800 21.65800 31.24000
H  -5.00500 22.49500 31.66300
H  -5.22400 21.67000 30.04700
H  -7.14800 26.18500 31.06000
H  -5.73900 27.08900 31.18400
H  -7.24700 25.97000 33.21900
H  -5.71000 26.90300 33.39300
H  -9.07900 21.06000 27.54900
H  -9.12000 19.94200 26.30500
H  -10.19600 21.40400 26.26500
H  -9.70600 19.65700 24.10800
H  -10.30100 20.47700 22.63400
H  -10.62900 21.04500 24.28000
H  -5.07800 24.99500 20.89400
H  -2.55300 25.82200 21.79000
H  -4.02300 23.31600 20.23900
H  -3.57400 22.68500 21.85000
H  -2.41200 23.71700 21.07500
H  -4.41800 28.04100 22.23000
H  -5.13700 27.05100 20.96000
H  -3.55800 28.08500 19.37600
H  -2.27900 27.70400 20.44400
H  -3.31200 29.19400 20.64800
H  -0.69300 28.87800 25.19700
H  -0.20800 29.19700 26.86400
H  -1.59900 30.00300 26.12000
H  -3.77300 27.61600 30.68200
H  -1.37900 27.29800 34.18800
H  -0.67500 25.92100 33.15200
H  -2.10500 25.72200 33.99200

