158

Mg -1.57100 18.38600 26.89100
C  -2.32500 16.35600 29.75600
C  -2.39500 21.17000 28.76200
C  -1.17100 20.16300 23.99800
C  -1.32900 15.38100 25.03000
N  -2.27400 18.67800 29.02200
C  -2.25600 17.74000 30.05200
C  -2.48800 18.40100 31.38400
C  -2.93600 19.91800 30.99200
C  -2.54400 19.97100 29.46900
C  -4.42400 20.34800 31.15500
C  -1.28200 18.25600 32.40600
C  -1.64200 17.72400 33.86800
H  -0.43400 17.53700 34.86200
N  -1.79400 20.31400 26.41500
C  -2.02600 21.33000 27.36100
C  -1.95400 22.60300 26.70200
C  -1.46200 22.32500 25.36500
C  -1.40700 20.91100 25.22300
C  -2.25800 23.95600 27.35600
C  -1.18900 23.30800 24.21700
O  -0.90300 22.93500 23.06100
C  -1.06600 24.77800 24.50400
N  -1.07000 17.86400 24.82500
C  -1.02300 18.78600 23.81800
C  -0.94200 18.08200 22.40600
C  -0.95100 16.60300 22.79800
C  -1.14700 16.56200 24.34100
C  -2.14700 18.58000 21.43000
C  0.41000 15.87300 22.33200
C  0.15100 14.49600 21.76800
N  -1.72800 16.27600 27.29100
C  -1.58900 15.20400 26.40600
C  -1.93200 14.02000 27.11000
C  -2.16900 14.37900 28.40600
C  -2.02900 15.78200 28.45100
C  -2.16100 12.64500 26.48900
C  -2.56100 13.84500 29.69300
O  -2.70500 12.68900 29.98700
C  -2.61200 15.15000 30.68800
C  -1.53300 14.81300 31.67200
O  -0.33300 14.64100 31.36700
O  -1.98800 14.60600 32.92800
C  -1.26700 13.63400 33.75500
H  -2.45900 22.04300 29.41600
H  -1.16300 20.60200 22.99800
H  -1.33700 14.49200 24.39600
H  -3.33500 17.89000 31.84200
H  -2.25200 20.60000 31.49800
H  -4.77400 20.71200 30.18900
H  -4.54200 21.10500 31.93100
H  -4.96400 19.45400 31.46600
H  -0.78000 19.21500 32.53700
H  -0.49500 17.64200 31.96800
H  -2.15000 16.76300 33.78700
H  -2.31800 18.41800 34.36700
H  -3.15100 24.34300 26.86600
H  -1.30800 24.48300 27.44200
H  -2.52300 23.85800 28.40900
H  -1.26400 25.38100 23.61800
H  -0.13900 25.00100 25.03100
H  -1.92600 25.06800 25.10700
H  -0.00800 18.41000 21.95100
H  -1.73300 16.12900 22.20500
H  -2.90100 17.79400 21.37500
H  -1.77000 18.75000 20.42200
H  -2.63000 19.49800 21.76500
H  1.10500 15.82700 23.16900
H  0.82800 16.54700 21.58400
H  0.86900 14.34100 20.96200
H  -0.87500 14.43800 21.40500
H  0.24400 13.70000 22.50600
H  -2.18900 12.59200 25.40100
H  -3.10700 12.20200 26.80000
H  -1.46300 11.94300 26.94600
H  -3.52600 15.23700 31.27500
H  -0.60200 14.25200 34.35900
H  -0.64700 12.93500 33.19500
H  -1.89300 13.08500 34.45800
Mg 25.86900 1.44100 29.10000
C  27.73300 1.03500 31.99800
C  23.00900 1.27900 31.09900
C  24.05500 1.60300 26.31400
C  28.73500 0.50000 27.19700
N  25.48800 1.16000 31.34500
C  26.37800 1.23100 32.34500
C  25.68300 1.31500 33.73300
C  24.17200 1.52200 33.38200
C  24.20400 1.22400 31.85000
C  23.30300 0.74000 34.37900
C  26.32500 2.46100 34.54000
C  25.49500 2.97400 35.76200
H  25.87400 2.63800 37.20900
N  23.83500 1.57200 28.78600
C  22.76700 1.39400 29.71200
C  21.57500 1.60700 29.05800
C  21.81000 1.75100 27.61100
C  23.27100 1.62300 27.48600
C  20.26300 1.65300 29.75600
C  20.86900 1.93800 26.50200
O  21.21600 1.80800 25.33700
C  19.40000 2.13300 26.77800
N  26.33800 0.95200 27.01200
C  25.44800 1.36100 26.02600
C  26.11700 1.49100 24.65800
C  27.56000 1.11500 24.99200
C  27.58900 0.80300 26.47500
C  25.49000 0.76900 23.43700
C  28.56800 2.20700 24.64800
C  30.03200 1.77100 24.20300
N  27.81100 1.01800 29.41000
C  28.83200 0.58800 28.58200
C  30.02700 0.42100 29.34200
C  29.67700 0.68800 30.60700
C  28.29600 0.93200 30.64600
C  31.34000 -0.05500 28.81500
C  30.20400 0.79100 31.95400
O  31.36900 0.62200 32.32000
C  28.97700 0.96400 32.89000
C  28.87000 -0.24600 33.81400
O  28.71900 -1.40800 33.46000
O  28.89900 0.19800 35.11300
C  28.45700 -0.81300 36.11300
H  22.16600 1.42300 31.77900
H  23.46600 1.79300 25.41500
H  29.62500 0.40600 26.57000
H  25.90700 0.40500 34.29000
H  23.74300 2.51300 33.53500
H  22.70000 0.05800 33.78000
H  22.71000 1.47400 34.92400
H  23.91900 0.02500 34.92500
H  26.50700 3.35700 33.94600
H  27.28900 2.21800 34.98700
H  24.46400 2.63200 35.67100
H  25.55800 4.05800 35.66100
H  19.77200 2.61700 29.62600
H  20.38700 1.63500 30.83800
H  19.64100 0.82200 29.42100
H  18.91800 1.21700 27.11800
H  18.91400 2.21500 25.80600
H  19.20200 2.95500 27.46600
H  26.05400 2.51900 24.29900
H  27.79400 0.19300 24.46100
H  24.74800 0.00100 23.65700
H  26.27800 0.41100 22.77400
H  24.79000 1.37000 22.85700
H  28.84100 2.85200 25.48300
H  28.22600 2.81700 23.81200
H  30.35100 2.43400 23.39900
H  29.89600 0.74100 23.87300
H  30.71500 1.83400 25.05100
H  31.93700 -0.40000 29.65900
H  31.85200 0.73200 28.26100
H  31.27300 -0.93400 28.17400
H  29.07400 1.82100 33.55700
H  28.97900 -1.76700 36.03900
H  27.38400 -1.00700 36.11000
H  28.80500 -0.36500 37.04400

