158

Mg 44.05800 3.50300 47.95200
C  42.07700 6.26800 47.27900
C  41.23500 1.48200 47.63700
C  46.06600 0.64800 47.87800
C  46.88100 5.42200 47.58900
N  42.00400 3.85800 47.55800
C  41.37000 5.08800 47.38000
C  39.86300 4.93600 47.31200
C  39.57800 3.44600 47.54500
C  41.05300 2.87400 47.54600
C  38.89100 3.10600 48.87100
C  39.18600 5.52900 46.04800
C  39.62400 4.93000 44.68800
H  39.57900 5.87600 43.51100
N  43.74000 1.35000 47.79700
C  42.48600 0.77600 47.79100
C  42.65600 -0.63300 47.61000
C  44.04800 -0.88300 47.45000
C  44.70100 0.40300 47.67300
C  41.52900 -1.59000 47.59100
C  44.76300 -2.19700 47.17700
O  44.16300 -3.28300 47.17800
C  46.18500 -2.20900 46.82100
N  46.18700 3.16800 47.51500
C  46.72300 1.89200 47.84500
C  48.19500 1.96500 48.23600
C  48.51700 3.53000 48.05400
C  47.08600 4.10700 47.73600
C  48.42400 1.47100 49.75200
C  49.54400 3.85000 46.97200
C  50.96900 4.07700 47.45400
N  44.49200 5.46700 47.50100
C  45.69600 6.15900 47.46200
C  45.37000 7.58700 47.50600
C  44.00300 7.67100 47.34300
C  43.48900 6.37300 47.38700
C  46.44700 8.63400 47.64100
C  42.95900 8.56400 47.15400
O  42.97300 9.75200 47.05600
C  41.63100 7.69100 47.17400
C  40.95300 8.14900 48.32500
O  41.38000 8.05400 49.47400
O  39.70800 8.59200 47.95800
C  38.80800 9.08000 49.02100
H  40.28900 0.93600 47.64700
H  46.79100 -0.12900 48.12800
H  47.72600 6.09300 47.75300
H  39.58400 5.58800 48.13900
H  39.06800 3.00700 46.68800
H  37.96600 2.58400 48.62400
H  38.67000 3.99800 49.45800
H  39.44100 2.46100 49.55600
H  39.33000 6.60900 46.07500
H  38.14000 5.28300 46.22900
H  39.03000 4.04600 44.45600
H  40.67500 4.64400 44.73500
H  41.32600 -1.87800 46.56000
H  40.63700 -1.06900 47.94000
H  41.87800 -2.39700 48.23500
H  46.88100 -2.54500 47.58900
H  46.36900 -1.24200 46.35200
H  46.32300 -2.84000 45.94200
H  48.80300 1.32900 47.59100
H  48.80000 4.08100 48.95100
H  48.60000 0.39600 49.69800
H  47.59200 1.78000 50.38400
H  49.33900 1.98100 50.05200
H  49.08400 4.66600 46.41400
H  49.69000 2.93000 46.40600
H  51.65100 3.26700 47.19400
H  50.95200 4.26200 48.52800
H  51.30200 5.01100 47.00200
H  47.14000 8.47200 48.46700
H  46.12800 9.67600 47.68100
H  46.98800 8.63700 46.69400
H  41.09700 7.99600 46.27400
H  38.02000 8.32700 49.03600
H  38.42700 10.02000 48.62100
H  39.28600 9.24000 49.98800
Mg -8.96300 41.38800 42.62100
C  -8.56400 38.12900 41.48100
C  -6.39400 42.39300 40.59000
C  -9.97200 44.62100 42.99100
C  -12.05200 40.32400 44.08900
N  -7.53000 40.35500 41.31000
C  -7.58100 39.04600 41.00600
C  -6.48200 38.65300 39.98600
C  -5.64900 39.92400 39.97400
C  -6.58600 40.98600 40.67000
C  -4.25900 39.84700 40.60800
C  -7.13700 38.21100 38.60900
C  -6.76000 36.77100 38.16600
H  -5.67100 36.69000 37.09700
N  -8.16700 43.29400 42.03000
C  -7.11400 43.45200 41.18300
C  -6.90500 44.82000 40.99800
C  -7.97900 45.56700 41.62700
C  -8.75900 44.43200 42.31600
C  -5.69900 45.42300 40.10700
C  -8.05800 47.04800 41.77600
O  -7.28500 47.84100 41.26200
C  -9.27300 47.68600 42.45600
N  -10.62700 42.40200 43.62700
C  -10.76800 43.71900 43.73200
C  -12.13100 44.14900 44.41200
C  -12.81200 42.73000 44.69200
C  -11.75600 41.69700 44.18400
C  -12.08300 45.07100 45.69300
C  -14.22200 42.69400 43.90400
C  -15.42300 42.14500 44.73800
N  -10.10900 39.61700 42.81000
C  -11.32000 39.28600 43.47600
C  -11.61800 37.90900 43.25200
C  -10.50400 37.42200 42.50800
C  -9.63900 38.46700 42.32300
C  -12.76200 37.14000 43.82900
C  -9.89800 36.14800 42.08700
O  -10.34400 34.99000 42.19100
C  -8.56200 36.57500 41.31700
C  -7.39700 35.90700 41.89800
O  -6.90600 36.14100 43.01700
O  -6.85900 34.93100 41.06600
C  -5.61300 34.27600 41.60200
H  -5.57200 42.60800 39.90400
H  -10.47700 45.58800 43.02500
H  -12.97900 40.03700 44.58900
H  -5.88200 37.80000 40.30200
H  -5.39900 40.28600 38.97700
H  -3.45600 40.29700 40.02400
H  -4.08700 38.77800 40.73300
H  -4.23500 40.33500 41.58200
H  -6.86800 38.94600 37.85000
H  -8.22500 38.23600 38.66400
H  -7.57300 36.16800 37.76100
H  -6.31200 36.14100 38.93500
H  -5.42200 44.71100 39.32900
H  -4.78000 45.46000 40.69200
H  -5.94000 46.43500 39.78200
H  -9.22300 47.35200 43.49200
H  -10.22100 47.43700 41.97900
H  -9.19100 48.77300 42.43400
H  -12.59200 44.83800 43.70500
H  -13.03600 42.58300 45.74900
H  -11.08800 45.46200 45.90300
H  -12.45300 44.54900 46.57600
H  -12.70100 45.94900 45.50300
H  -14.08900 42.15800 42.96400
H  -14.41100 43.67800 43.47500
H  -16.27300 42.82000 44.83300
H  -15.19800 41.88800 45.77400
H  -15.84400 41.26400 44.25400
H  -12.91700 36.12100 43.47500
H  -13.66800 37.71000 43.62000
H  -12.82600 37.15900 44.91700
H  -8.73300 36.34700 40.26500
H  -5.43200 33.42600 40.94400
H  -5.64100 33.99200 42.65300
H  -4.74200 34.93000 41.55200

