158

Mg 54.44200 24.07600 44.50300
C  51.88100 26.26900 43.98700
C  52.53400 21.52600 43.32700
C  57.25000 21.96100 44.42100
C  56.57000 26.82100 45.46900
N  52.56700 23.94600 43.72700
C  51.64000 24.93100 43.51800
C  50.35500 24.49700 42.84900
C  50.45100 22.96500 43.11900
C  51.95200 22.77800 43.44600
C  49.53500 22.39500 44.24800
C  50.18200 24.81200 41.31900
C  48.68500 24.79600 40.76400
H  48.51500 24.15500 39.41600
N  54.82700 22.08800 43.90100
C  53.89900 21.19500 43.49100
C  54.48700 19.86500 43.33000
C  55.85100 20.06000 43.45300
C  56.06200 21.41100 43.88600
C  53.62400 18.58100 43.01700
C  56.91100 19.02300 43.29700
O  56.59200 17.85300 43.15200
C  58.37700 19.25800 43.35100
N  56.63000 24.39100 44.74600
C  57.50500 23.32100 44.83100
C  58.88600 23.85100 45.38800
C  58.66700 25.33800 45.66500
C  57.23200 25.59200 45.16900
C  59.38200 23.01500 46.60600
C  59.67900 26.40500 45.05100
C  60.46300 27.24700 46.07900
N  54.25300 26.14700 44.71000
C  55.17700 27.09600 45.22500
C  54.40900 28.29400 45.44300
C  53.12300 28.09900 44.97900
C  53.09600 26.75300 44.53600
C  54.99700 29.52000 46.14900
C  51.78600 28.67200 44.75200
O  51.29300 29.81100 44.95200
C  50.96500 27.50300 44.02600
C  50.66800 28.18400 42.72600
O  51.53800 28.59200 41.96400
O  49.35200 27.93100 42.36500
C  48.90900 28.54100 41.16900
H  51.79900 20.76000 43.07100
H  58.07900 21.27700 44.61400
H  57.18500 27.62300 45.88300
H  49.46900 24.71100 43.44700
H  50.30700 22.40100 42.19800
H  50.04200 22.34600 45.21200
H  49.21100 21.38800 43.98400
H  48.62100 22.99000 44.26700
H  50.65900 23.98900 40.78700
H  50.73200 25.71800 41.06700
H  48.31700 25.80500 40.57500
H  47.95000 24.34400 41.42900
H  53.71800 18.32100 41.96200
H  52.55500 18.71300 43.18400
H  53.89900 17.70200 43.60100
H  58.50200 20.06700 42.63200
H  58.85100 18.31700 43.07200
H  58.70100 19.52600 44.35700
H  59.52300 23.73300 44.51200
H  58.70300 25.47300 46.74600
H  58.57800 22.35000 46.92200
H  59.64600 23.65400 47.44900
H  60.28100 22.48300 46.29400
H  59.19400 27.10300 44.36900
H  60.52600 25.84500 44.65300
H  60.18500 26.94900 47.09000
H  60.31200 28.30100 45.84600
H  61.54600 27.30500 45.96700
H  54.41600 29.80400 47.02600
H  55.15500 30.39400 45.51700
H  55.98200 29.26500 46.54200
H  50.02500 27.31100 44.54200
H  48.79300 29.59900 41.40700
H  47.90000 28.17800 40.97200
H  49.57100 28.29200 40.34000
Mg 47.89500 25.03300 27.73200
C  48.75100 27.42600 30.22200
C  46.93200 22.93000 30.01900
C  47.29300 22.91200 25.29400
C  49.03800 27.35700 25.44200
N  47.74100 25.26300 29.89300
C  48.15800 26.25400 30.74800
C  47.90900 25.85800 32.20200
C  47.53200 24.31800 32.04800
C  47.34500 24.17800 30.52500
C  48.64300 23.39700 32.57000
C  46.86500 26.72000 32.94100
C  46.47500 26.31500 34.35400
H  46.51400 27.38700 35.38100
N  47.17300 23.13400 27.66100
C  46.80100 22.43800 28.76600
C  46.45000 21.09300 28.33300
C  46.37900 21.10000 26.92000
C  47.02500 22.39100 26.53000
C  45.98100 20.01100 29.21200
C  45.93200 20.00900 25.98400
O  46.14000 20.08900 24.81900
C  45.13700 18.88100 26.41500
N  48.33300 25.01500 25.70800
C  47.83400 24.09700 24.88500
C  47.79600 24.49000 23.41200
C  48.22700 25.97300 23.43900
C  48.51000 26.14100 24.96700
C  48.73700 23.60700 22.64900
C  47.20300 27.01600 22.91900
C  47.32900 27.52800 21.46400
N  48.86300 26.92600 27.76900
C  49.37200 27.70500 26.74000
C  49.93900 28.88600 27.21200
C  49.74300 28.82500 28.62000
C  49.06900 27.66400 28.87300
C  50.68800 29.90800 26.40400
C  49.95800 29.54200 29.93800
O  50.47400 30.58300 30.24100
C  49.13600 28.65700 30.98400
C  49.93700 28.50500 32.21600
O  50.77300 27.61000 32.47700
O  49.59200 29.42100 33.20000
C  50.06300 29.07600 34.50300
H  46.60800 22.25000 30.80900
H  47.00300 22.17000 24.54700
H  49.30100 28.18200 24.77600
H  48.84300 25.99700 32.74600
H  46.58700 24.06500 32.53000
H  49.29400 23.82600 33.33200
H  49.14400 22.88400 31.75000
H  48.11800 22.64600 33.16000
H  45.99400 26.96300 32.33300
H  47.36200 27.68400 33.05100
H  47.09900 25.50500 34.73300
H  45.43800 25.98500 34.42500
H  46.58800 19.14300 28.95600
H  44.89200 19.97100 29.18900
H  46.20300 20.26600 30.24800
H  44.34900 19.13500 27.12400
H  45.67100 18.22900 27.10600
H  44.67100 18.24800 25.66000
H  46.79500 24.34400 23.00700
H  49.14800 26.10100 22.86900
H  49.57300 23.35100 23.30000
H  49.09400 24.09700 21.74300
H  48.26500 22.66500 22.36700
H  47.09800 27.90900 23.53500
H  46.25000 26.49000 22.96300
H  46.35800 27.84900 21.08800
H  47.76300 26.66700 20.95700
H  48.01900 28.36600 21.57000
H  51.14400 29.25800 25.65700
H  51.41400 30.46200 26.99900
H  50.05700 30.65400 25.92100
H  48.26100 29.21900 31.30900
H  51.15000 29.03800 34.58100
H  49.68400 28.12200 34.87000
H  49.81600 29.89100 35.18400

