158

Mg 0.48200 7.26500 25.30400
C  1.11700 9.17800 28.08500
C  0.69000 4.40300 27.27300
C  0.17000 5.37200 22.50800
C  0.96600 10.06800 23.26000
N  0.64500 6.85000 27.45300
C  0.89000 7.84200 28.40500
C  1.00400 7.23000 29.84500
C  0.96400 5.68900 29.48100
C  0.81900 5.58300 27.97100
C  2.18200 4.86400 29.91100
C  -0.14900 7.76700 30.64600
C  -0.03000 7.78900 32.19900
H  1.12200 7.19100 33.00400
N  0.42400 5.20900 24.95100
C  0.46900 4.20400 25.91600
C  0.40600 2.93700 25.25300
C  0.16900 3.20700 23.87900
C  0.21600 4.63100 23.70000
C  0.55900 1.56500 25.95300
C  -0.15300 2.23900 22.75600
O  -0.18500 2.53100 21.56500
C  -0.30000 0.73000 23.09500
N  0.60900 7.66600 23.28200
C  0.23000 6.74300 22.32500
C  0.07900 7.34400 20.93900
C  0.15800 8.91100 21.22100
C  0.56300 8.89600 22.67600
C  1.04500 6.85100 19.92500
C  -1.18200 9.71700 20.96700
C  -1.23100 11.20600 20.60400
N  1.03000 9.23700 25.54400
C  1.15900 10.28400 24.64000
C  1.40400 11.51100 25.36500
C  1.46700 11.11800 26.70600
C  1.16900 9.76500 26.76600
C  1.44300 12.91400 24.75300
C  1.68400 11.56500 28.07700
O  1.86700 12.71200 28.57600
C  1.47700 10.32500 28.99200
C  2.73800 10.19500 29.75100
O  3.82000 10.05400 29.20300
O  2.39700 10.44600 31.06500
C  3.52800 10.67800 31.97900
H  0.65400 3.49800 27.88300
H  0.03400 4.82900 21.57000
H  1.00000 11.02400 22.73300
H  1.92100 7.53300 30.34900
H  0.02100 5.33000 29.89400
H  2.73400 4.49800 29.04500
H  1.78000 4.06200 30.52900
H  2.79100 5.42700 30.61900
H  -1.00300 7.10700 30.49100
H  -0.49900 8.73900 30.29900
H  -1.00300 7.40200 32.50100
H  -0.02600 8.83100 32.52100
H  1.33300 0.97600 25.46100
H  -0.41400 1.07500 25.90500
H  0.92000 1.71500 26.97100
H  -0.66300 0.29000 22.16600
H  -1.00800 0.63600 23.91900
H  0.68800 0.31600 23.29400
H  -0.91400 7.07900 20.57600
H  1.03200 9.37200 20.76100
H  1.88900 7.48700 19.65900
H  0.56000 6.66300 18.96800
H  1.49200 5.88800 20.17100
H  -1.80900 9.41800 21.80700
H  -1.55900 9.31400 20.02700
H  -1.82800 11.62800 21.41200
H  -1.56800 11.49400 19.60800
H  -0.29700 11.76800 20.62400
H  1.49800 13.73400 25.46900
H  0.58100 13.13900 24.12500
H  2.28900 12.89200 24.06600
H  0.69600 10.44200 29.74400
H  3.16900 11.40800 32.70400
H  4.47100 11.00800 31.54400
H  3.65800 9.74000 32.52000
Mg 43.07300 41.63900 25.95400
C  42.45300 44.02000 28.58200
C  43.86700 39.41200 28.27400
C  44.19800 39.75000 23.44800
C  42.55900 44.27200 23.68800
N  43.24400 41.74900 28.19400
C  42.80500 42.75700 29.07000
C  43.13600 42.36700 30.52000
C  43.59300 40.85700 30.43000
C  43.53200 40.60700 28.86800
C  44.94800 40.50900 31.06200
C  41.90000 42.44800 31.41800
C  42.09300 41.87500 32.85900
H  41.92700 42.83000 34.06000
N  43.96400 39.72700 25.87000
C  44.12700 38.95100 26.92100
C  44.66800 37.68400 26.47800
C  44.81300 37.77200 25.04300
C  44.36200 39.11500 24.72100
C  45.00000 36.56200 27.51200
C  45.04100 36.74800 24.02800
O  45.08600 36.96600 22.84900
C  45.36800 35.33900 24.57300
N  43.58200 42.04500 23.89500
C  43.97100 41.03600 23.04100
C  43.94300 41.49500 21.52500
C  43.20500 42.91800 21.66400
C  43.11000 43.12200 23.18200
C  45.29500 41.65300 20.83600
C  41.82700 42.87300 21.00300
C  40.79600 41.90700 21.58600
N  42.52000 43.66800 26.03400
C  42.36600 44.55500 25.03500
C  41.97600 45.85500 25.56700
C  41.92300 45.61800 26.95800
C  42.36000 44.32600 27.17300
C  41.63300 47.15000 24.86100
C  41.68000 46.26200 28.28600
O  41.29900 47.37500 28.61000
C  41.91700 45.22300 29.35800
C  42.80700 45.76900 30.36300
O  44.03500 45.76700 30.30600
O  42.09900 46.37900 31.39000
C  42.88600 46.73100 32.53100
H  44.03300 38.58900 28.97200
H  44.43900 39.15100 22.56600
H  42.35700 45.02600 22.92400
H  43.97600 42.99500 30.81800
H  42.93900 40.13700 30.92300
H  44.85700 39.63400 31.70400
H  45.39000 41.36500 31.57200
H  45.71100 40.18800 30.35300
H  41.11300 41.78900 31.05300
H  41.40700 43.42000 31.44000
H  43.04200 41.33900 32.85900
H  41.41900 41.03800 33.04100
H  44.51200 35.64000 27.19800
H  44.71300 36.73000 28.55000
H  46.07100 36.36600 27.46500
H  46.04800 35.31700 25.42500
H  45.80800 34.85500 23.70200
H  44.41700 34.88900 24.85900
H  43.39000 40.63900 21.13900
H  43.78200 43.79600 21.37400
H  45.33700 40.86100 20.08800
H  46.17100 41.62500 21.48300
H  45.32000 42.59100 20.28200
H  42.07200 42.59200 19.97900
H  41.48800 43.90800 21.02500
H  40.16000 42.48000 22.26100
H  41.24200 41.03900 22.07100
H  40.12600 41.49500 20.83100
H  42.40600 47.13500 24.09300
H  41.85800 47.93700 25.58100
H  40.69100 47.17400 24.31300
H  40.93400 45.07600 29.80600
H  43.39500 47.65300 32.25300
H  43.55100 45.94300 32.88500
H  42.08600 46.99800 33.22100

