158

Mg 24.39000 -7.78400 46.68300
C  27.06700 -5.63700 45.44800
C  22.50700 -6.45900 44.09500
C  22.13600 -10.12100 47.46800
C  26.86300 -9.34600 48.73600
N  24.78400 -6.36400 44.99500
C  25.82200 -5.53500 44.74200
C  25.66100 -4.56100 43.60700
C  24.11300 -4.75100 43.24500
C  23.77100 -5.90600 44.19900
C  23.26100 -3.43700 43.44900
C  26.56900 -4.87200 42.33200
C  27.46200 -3.72200 42.02500
H  27.43000 -3.06100 40.71500
N  22.52100 -8.05300 46.03400
C  21.95500 -7.48200 44.95700
C  20.61000 -8.01600 44.77800
C  20.39200 -9.06300 45.76800
C  21.76600 -9.16500 46.48300
C  19.57600 -7.39700 43.84800
C  19.13900 -9.85200 45.95600
O  18.20300 -9.68400 45.17000
C  18.89300 -10.93200 46.94600
N  24.48500 -9.51900 47.78500
C  23.42300 -10.28400 48.07000
C  23.74000 -11.48000 48.97600
C  25.24000 -11.28100 49.28900
C  25.57400 -9.99300 48.54900
C  22.84600 -11.64900 50.17900
C  26.10200 -12.43700 48.87300
C  27.22800 -12.85600 49.89300
N  26.49600 -7.47700 47.16500
C  27.31000 -8.17100 48.01900
C  28.68000 -7.51900 48.06400
C  28.54800 -6.48600 47.07900
C  27.28900 -6.65200 46.51000
C  29.76400 -7.93000 48.94900
C  29.24200 -5.33100 46.45300
O  30.30800 -4.81200 46.71000
C  28.29800 -4.79400 45.33600
C  28.07300 -3.43300 45.53600
O  27.31500 -3.02300 46.37800
O  28.83000 -2.68300 44.65100
C  28.74200 -1.25200 44.87600
H  21.86900 -6.03000 43.32000
H  21.38200 -10.87400 47.70800
H  27.64300 -9.87000 49.29000
H  25.94600 -3.55300 43.90700
H  23.93400 -5.04600 42.21100
H  22.59100 -3.16500 42.63400
H  24.00500 -2.64000 43.46300
H  22.67600 -3.41500 44.36800
H  25.97900 -5.11400 41.44700
H  27.14900 -5.76000 42.58500
H  28.46600 -4.09600 42.22600
H  27.32900 -2.85700 42.67400
H  18.55700 -7.35500 44.23100
H  19.71300 -7.96700 42.92900
H  19.83700 -6.35800 43.64600
H  19.44000 -11.83000 46.65700
H  17.86300 -11.26500 46.81300
H  19.09800 -10.44100 47.89700
H  23.48000 -12.39200 48.43900
H  25.22000 -11.07000 50.35800
H  22.35200 -12.60600 50.01000
H  22.14300 -10.81700 50.21600
H  23.40700 -11.68000 51.11300
H  26.53300 -12.31600 47.87900
H  25.49800 -13.33500 48.74300
H  26.97000 -13.87700 50.17500
H  27.20800 -12.27200 50.81300
H  28.19200 -12.95300 49.39400
H  30.47400 -7.14000 49.19300
H  30.27200 -8.70900 48.37900
H  29.40600 -8.32800 49.89800
H  28.76400 -4.96700 44.36600
H  27.67600 -1.02300 44.86600
H  29.21200 -0.67600 44.07900
H  29.10400 -1.00100 45.87300
Mg 47.46600 34.63000 27.61800
C  45.72500 32.89700 30.14900
C  47.62300 37.29300 29.61800
C  48.45700 36.51300 24.97900
C  46.62600 32.01200 25.46400
N  46.81400 34.93600 29.57900
C  46.28700 34.10300 30.51500
C  46.36400 34.61300 31.92500
C  46.75500 36.12800 31.68400
C  47.04700 36.20200 30.18900
C  45.81100 37.23900 32.16300
C  47.54400 33.89000 32.76400
C  47.81000 34.33900 34.22400
H  46.80300 35.30300 34.91600
N  48.18000 36.60900 27.35300
C  48.20900 37.56900 28.33200
C  48.69900 38.84100 27.72500
C  48.88900 38.55200 26.33500
C  48.48500 37.16700 26.18300
C  48.81900 40.07300 28.48700
C  49.36600 39.49400 25.18800
O  49.36500 39.26500 23.97500
C  49.93800 40.78600 25.62900
N  47.50100 34.30400 25.52300
C  48.14400 35.14000 24.68400
C  48.31700 34.53500 23.25000
C  47.61800 33.19000 23.42100
C  47.27400 33.12900 24.88600
C  47.79900 35.37100 22.06500
C  48.54500 32.01900 22.93900
C  49.63500 31.39400 23.88400
N  46.44500 32.77000 27.74800
C  46.19200 31.82800 26.77700
C  45.47000 30.69100 27.37600
C  45.22800 31.09800 28.70900
C  45.85100 32.38400 28.86400
C  44.99400 29.41100 26.59900
C  44.56800 30.71600 29.91400
O  43.80100 29.79800 30.18700
C  44.75200 31.99600 30.87400
C  45.11700 31.56800 32.24300
O  45.94600 30.72000 32.53600
O  44.20700 32.02900 33.09900
C  44.24000 31.54400 34.46000
H  47.64500 38.18800 30.24300
H  48.70300 37.09300 24.08700
H  46.40900 31.19300 24.77500
H  45.39300 34.52700 32.41200
H  47.67400 36.36500 32.22000
H  46.40800 37.90000 32.79100
H  44.98700 36.84700 32.75900
H  45.41900 37.83300 31.33700
H  48.48300 33.96500 32.21600
H  47.27600 32.83300 32.75200
H  48.85300 34.60900 34.38800
H  47.61200 33.37400 34.69000
H  48.43600 40.01100 29.50600
H  48.38400 40.89800 27.92300
H  49.87100 40.29400 28.66800
H  49.16100 41.43000 26.04100
H  50.43400 41.33200 24.82700
H  50.60800 40.60400 26.46900
H  49.37700 34.36500 23.06400
H  46.66500 33.19800 22.89200
H  47.43500 36.38900 22.20300
H  46.99800 34.87400 21.51800
H  48.55700 35.63900 21.32900
H  49.01200 32.26200 21.98500
H  47.76800 31.27800 22.75000
H  50.60900 31.17700 23.44400
H  49.28800 30.44600 24.29500
H  49.71700 32.10200 24.70800
H  43.96700 29.53500 26.25700
H  44.95200 28.47100 27.14800
H  45.54500 29.32500 25.66200
H  43.76900 32.46800 30.84500
H  44.87200 30.67500 34.64400
H  43.24600 31.20200 34.75000
H  44.48600 32.36300 35.13500

