158

Mg 40.72300 8.36900 29.49400
C  42.34500 9.74200 32.22800
C  38.59300 6.71300 31.67900
C  39.36900 6.90000 26.77900
C  43.24800 9.56300 27.50500
N  40.50100 8.31500 31.67600
C  41.30000 8.99600 32.62000
C  40.58300 8.99000 34.00400
C  39.49200 7.82700 33.77700
C  39.51900 7.60000 32.27100
C  39.63700 6.49800 34.50400
C  39.93900 10.28100 34.44900
C  39.47400 10.39600 35.96000
H  40.10300 11.59400 36.72800
N  39.29500 6.97000 29.28000
C  38.49200 6.43300 30.28100
C  37.52100 5.55000 29.69900
C  37.53600 5.76100 28.32300
C  38.75000 6.62700 28.05800
C  36.78000 4.53600 30.51200
C  36.66500 5.03900 27.35400
O  37.03900 4.92300 26.22200
C  35.40000 4.40500 27.66100
N  41.18900 8.24400 27.35100
C  40.47300 7.65000 26.44000
C  41.01700 7.87700 24.99100
C  42.30200 8.68700 25.28100
C  42.27900 8.84800 26.81200
C  41.27600 6.51400 24.44600
C  42.36100 10.07400 24.59800
C  41.44900 10.32300 23.38900
N  42.49600 9.44300 29.75600
C  43.46800 9.75500 28.87500
C  44.46500 10.59800 29.55500
C  44.06500 10.69200 30.85300
C  42.89700 9.88200 30.93200
C  45.67500 11.18600 28.89800
C  44.38800 11.21700 32.17600
O  45.32000 11.90900 32.53400
C  43.21200 10.72800 33.10200
C  43.85500 10.10300 34.25000
O  44.86300 9.42700 34.34000
O  43.03100 10.38800 35.37700
C  43.37200 9.62700 36.63000
H  37.86400 6.19900 32.30900
H  38.78700 6.56800 25.91700
H  44.07200 9.89300 26.86700
H  41.23300 8.78500 34.85400
H  38.50900 8.15000 34.12000
H  39.09000 6.61200 35.43900
H  40.67300 6.42700 34.83600
H  39.42100 5.60800 33.91200
H  39.06400 10.56500 33.86500
H  40.75400 11.00400 34.42200
H  39.72300 9.42300 36.38400
H  38.39900 10.50000 35.81700
H  35.74000 4.80700 30.69200
H  37.16100 4.33800 31.51400
H  36.91800 3.60000 29.97200
H  35.61400 3.43600 28.11100
H  34.84700 4.28100 26.73100
H  34.85500 5.05000 28.35000
H  40.23500 8.42000 24.45900
H  43.25500 8.21100 25.05100
H  42.18900 6.49100 23.85200
H  40.48800 6.22200 23.75100
H  41.45700 5.78400 25.23400
H  43.37400 10.41600 24.38500
H  42.01800 10.83100 25.30400
H  41.29000 9.43800 22.77200
H  41.90400 11.04600 22.71200
H  40.50300 10.76400 23.70400
H  45.72600 12.16300 29.37900
H  45.59600 11.27900 27.81500
H  46.48300 10.60100 29.33800
H  42.56800 11.55700 33.39600
H  43.06600 8.58800 36.51000
H  42.80700 10.05000 37.46100
H  44.44700 9.72100 36.78200
Mg 36.46600 50.09500 25.80000
C  36.28800 48.30700 28.90700
C  35.10800 52.79500 27.52500
C  36.11300 51.72000 22.89700
C  36.99600 47.12300 24.06900
N  35.64000 50.45800 27.93800
C  35.89300 49.63400 29.04700
C  35.68600 50.45300 30.37800
C  35.27100 51.83000 29.86500
C  35.39400 51.67700 28.34300
C  33.94900 52.38800 30.47200
C  36.99400 50.46000 31.29000
C  36.81800 50.33400 32.85400
H  35.38200 50.50300 33.34300
N  35.86700 52.03400 25.22200
C  35.31100 52.95000 26.11100
C  35.01400 54.20300 25.36100
C  35.37100 53.96800 24.00200
C  35.77400 52.53300 23.95100
C  34.24400 55.32200 25.95100
C  35.20600 54.88000 22.70200
O  35.34800 54.45500 21.56300
C  34.94900 56.31800 22.87900
N  36.60400 49.57200 23.79100
C  36.50100 50.42100 22.81400
C  36.60300 49.77800 21.39800
C  36.92800 48.27200 21.74900
C  36.89200 48.29200 23.30200
C  35.28000 49.84500 20.58000
C  38.20400 47.66400 21.09500
C  39.56700 47.72600 21.70100
N  36.78300 48.11300 26.31000
C  36.99100 46.97800 25.54100
C  37.12800 45.80800 26.36600
C  36.85800 46.30900 27.69500
C  36.60600 47.72200 27.64400
C  37.35900 44.34100 25.88500
C  36.85700 45.96200 29.17900
O  36.97100 44.81300 29.63300
C  36.26800 47.17900 29.95000
C  34.74500 46.77100 30.21400
O  33.77200 47.00800 29.45700
O  34.61300 46.04700 31.40300
C  33.17900 45.71400 31.73100
H  34.82300 53.68000 28.09700
H  35.97400 52.10600 21.88500
H  37.11600 46.22900 23.45400
H  34.96800 49.86800 30.95300
H  36.07300 52.55000 30.02800
H  33.12300 52.34300 29.76300
H  34.14100 53.45400 30.59200
H  33.60700 51.85200 31.35800
H  37.56300 51.38900 31.26300
H  37.60700 49.60200 31.01400
H  37.51000 51.05100 33.29600
H  37.22200 49.37300 33.17200
H  34.05200 55.36500 27.02300
H  33.32400 55.43900 25.38000
H  34.94600 56.15400 25.88600
H  35.38500 56.66700 23.81500
H  33.86100 56.38100 22.89100
H  35.36600 56.92100 22.07300
H  37.44600 50.23800 20.88200
H  36.12500 47.63800 21.37400
H  34.39900 49.96600 21.21000
H  35.13000 48.95000 19.97500
H  35.25700 50.73400 19.95100
H  38.36500 47.91200 20.04600
H  37.92900 46.60900 21.08100
H  39.71200 48.58900 22.35100
H  40.34200 47.80500 20.93900
H  39.78800 46.84800 22.30700
H  38.02400 44.27700 25.02400
H  36.64300 43.51900 25.86800
H  38.09700 44.11900 26.65600
H  36.72900 47.40600 30.91200
H  33.29900 44.93200 32.48100
H  32.51800 45.35400 30.94300
H  32.74700 46.54500 32.28900

