158

Mg -1.44100 17.27500 27.21100
C  -2.31600 15.30600 30.06900
C  -1.92800 20.01000 29.33000
C  -0.91500 19.18500 24.67300
C  -1.33500 14.40700 25.30200
N  -1.99200 17.60400 29.47500
C  -2.21700 16.62000 30.45800
C  -2.43400 17.22800 31.84900
C  -2.57900 18.70900 31.49300
C  -2.14100 18.78900 30.02300
C  -3.94800 19.50000 31.69900
C  -1.37400 16.98000 32.99600
C  -1.99600 16.59600 34.33900
H  -1.01400 16.42400 35.46400
N  -1.36600 19.34600 27.00900
C  -1.50600 20.28300 28.02100
C  -1.24100 21.59000 27.39900
C  -0.92600 21.38600 26.01400
C  -1.12000 19.95400 25.85700
C  -1.47100 22.91500 28.11500
C  -0.50600 22.32900 24.95300
O  -0.24900 21.97300 23.82100
C  -0.34600 23.79500 25.20300
N  -1.45800 16.91800 25.27100
C  -1.09800 17.86500 24.37700
C  -0.94300 17.33300 22.92500
C  -0.72900 15.85300 23.25200
C  -1.14700 15.68400 24.73600
C  -2.02000 17.63200 21.92500
C  0.68000 15.26800 22.98600
C  1.70500 15.75000 24.06400
N  -1.72400 15.21500 27.54700
C  -1.66400 14.15700 26.65900
C  -1.91900 12.96700 27.43300
C  -2.24700 13.37100 28.74700
C  -2.11900 14.74700 28.77200
C  -2.09500 11.48900 26.89400
C  -2.63900 12.87600 30.01100
O  -2.80100 11.74600 30.42700
C  -2.61900 14.07400 30.99000
C  -1.58700 13.74300 32.05900
O  -0.32400 13.74100 32.00300
O  -2.31000 13.42900 33.19700
C  -1.57900 13.01900 34.46100
H  -2.14400 20.90600 29.91600
H  -0.74500 19.74300 23.74900
H  -1.30500 13.53700 24.64200
H  -3.37300 16.84700 32.24900
H  -1.83600 19.22900 32.09800
H  -4.76000 18.89500 32.10200
H  -4.23100 19.85900 30.71000
H  -3.89600 20.38800 32.33000
H  -0.70200 17.82800 33.13000
H  -0.66400 16.24500 32.61800
H  -2.40000 15.58400 34.32100
H  -2.75700 17.33800 34.57900
H  -0.55600 23.14600 28.66100
H  -2.26300 22.80900 28.85600
H  -1.60900 23.83400 27.54500
H  0.44800 23.79400 25.95000
H  -1.37000 24.08600 25.44000
H  -0.03900 24.33200 24.30600
H  -0.03100 17.73500 22.48400
H  -1.48600 15.30600 22.69100
H  -2.93600 18.08900 22.29900
H  -2.22100 16.70800 21.38200
H  -1.62600 18.27400 21.13700
H  1.05300 15.78500 22.10200
H  0.67200 14.18400 22.87600
H  1.36500 16.58500 24.67800
H  2.66500 16.04200 23.64000
H  1.93300 14.92900 24.74400
H  -1.40800 11.27700 26.07400
H  -3.06700 11.34600 26.42300
H  -1.90800 10.84200 27.75100
H  -3.59300 14.04300 31.47700
H  -0.68000 13.58900 34.69500
H  -1.38800 11.95200 34.57500
H  -2.27900 13.32000 35.24100
Mg 46.68900 25.40700 27.88000
C  47.80700 27.46700 30.54000
C  45.56500 23.14600 30.36300
C  46.22500 23.17600 25.51400
C  48.16900 27.61700 25.68700
N  46.60000 25.37000 30.16000
C  47.13100 26.31800 30.98000
C  46.92300 25.97500 32.46400
C  46.33200 24.52600 32.34300
C  46.18200 24.31200 30.87700
C  47.22000 23.48100 33.03100
C  45.90700 26.96200 33.10400
C  46.44000 27.62800 34.40100
H  45.30500 27.91400 35.42500
N  45.81800 23.47300 27.89400
C  45.37600 22.70600 29.00500
C  44.65000 21.52900 28.48400
C  44.91300 21.46700 27.04400
C  45.68600 22.72900 26.75400
C  43.82200 20.58300 29.29600
C  44.54900 20.41700 25.98400
O  44.91500 20.53300 24.81600
C  43.59300 19.26400 26.31100
N  47.16400 25.42600 25.93200
C  46.83400 24.39800 25.07700
C  47.09300 24.78400 23.57400
C  47.31500 26.36000 23.62200
C  47.58500 26.51700 25.17300
C  48.24100 24.01400 22.86500
C  46.14700 27.36100 23.22100
C  46.72300 28.54900 22.36200
N  47.84400 27.12900 28.04200
C  48.38000 27.92600 27.03500
C  49.18500 29.00800 27.61500
C  49.01500 28.80700 29.00300
C  48.10000 27.69800 29.18500
C  49.81800 30.12900 26.88600
C  49.22400 29.41700 30.25900
O  49.87700 30.40600 30.52300
C  48.51200 28.55400 31.30700
C  49.62400 28.08900 32.18100
O  50.26000 27.02700 32.01700
O  49.76600 28.93300 33.28500
C  50.82900 28.57200 34.21100
H  45.18300 22.46100 31.12300
H  46.27500 22.41000 24.73800
H  48.41600 28.26100 24.84100
H  47.80000 26.04400 33.10800
H  45.30000 24.38600 32.66400
H  47.90700 23.03200 32.31400
H  46.53500 22.66500 33.26300
H  47.56600 23.78300 34.02000
H  44.92200 26.52500 33.26600
H  45.72900 27.74500 32.36700
H  46.94400 28.56700 34.17300
H  47.16900 26.99100 34.90200
H  42.87800 20.42400 28.77400
H  43.67400 21.01900 30.28400
H  44.37300 19.64700 29.38800
H  43.81400 18.55300 25.51600
H  42.54100 19.54000 26.25100
H  43.74100 18.86400 27.31400
H  46.18900 24.47900 23.04700
H  48.23900 26.72500 23.17500
H  48.04000 23.47100 21.94200
H  48.62700 23.39100 23.67200
H  49.08500 24.65400 22.60500
H  45.57200 27.64800 24.10200
H  45.45200 26.75300 22.64200
H  46.24300 28.53600 21.38300
H  47.80400 28.44000 22.27600
H  46.47000 29.49200 22.84800
H  50.09800 29.79600 25.88600
H  50.65700 30.54900 27.44000
H  49.12900 30.97100 26.95500
H  47.81200 29.15200 31.89100
H  50.38100 27.85100 34.89400
H  51.00500 29.37200 34.93000
H  51.75300 28.14600 33.82200

