158

Mg 9.63800 48.23300 25.60000
C  7.68300 49.01700 28.30500
C  12.31000 49.08900 27.31000
C  11.41400 47.57500 22.85000
C  6.67800 47.86300 23.56100
N  9.89100 48.83500 27.68900
C  9.01200 49.09100 28.69700
C  9.66800 49.47300 30.03300
C  11.09000 49.84600 29.50400
C  11.11800 49.22100 28.07200
C  11.23000 51.47000 29.43200
C  9.77500 48.33700 31.10700
C  9.47500 48.76100 32.55400
H  8.84800 47.59400 33.37700
N  11.65200 48.01900 25.21300
C  12.59900 48.44100 26.07200
C  13.92100 48.26000 25.47500
C  13.70900 47.76400 24.14500
C  12.22000 47.80400 24.02500
C  15.15500 48.52900 26.22800
C  14.66300 47.36000 22.93200
O  14.20900 46.90700 21.87000
C  16.20600 47.39000 23.23500
N  9.11200 47.68300 23.47800
C  10.10800 47.49200 22.55000
C  9.51200 47.15900 21.15900
C  7.98300 47.07800 21.48900
C  7.89500 47.56500 22.95900
C  9.86200 48.19800 20.04800
C  7.24100 45.72900 21.30800
C  7.74100 44.51200 22.21300
N  7.61200 48.36700 25.83900
C  6.51600 48.19800 24.96700
C  5.28700 48.33000 25.73000
C  5.64400 48.75900 27.01800
C  7.08400 48.70500 27.04800
C  3.85500 48.13200 25.24100
C  5.15300 48.98700 28.33900
O  4.03600 49.00500 28.80800
C  6.47100 49.28200 29.25400
C  6.25700 48.38900 30.45000
O  6.43100 47.18600 30.46500
O  5.54700 49.03300 31.41300
C  4.96900 48.12300 32.45200
H  13.21100 49.43000 27.82400
H  11.95100 47.24200 21.96000
H  5.75500 47.97100 22.98900
H  9.13100 50.30200 30.49500
H  11.92400 49.44600 30.08200
H  10.30600 52.04900 29.42700
H  11.77300 51.75400 28.53000
H  11.82400 51.86500 30.25600
H  10.81100 48.00000 31.14400
H  9.37500 47.40500 30.70700
H  8.76300 49.58300 32.48200
H  10.43700 49.14800 32.89100
H  15.89400 47.77900 25.94700
H  15.01300 48.50500 27.30800
H  15.54600 49.52500 26.02100
H  16.48700 46.48600 23.77500
H  16.41800 48.39100 23.61200
H  16.70000 47.37300 22.26300
H  9.95600 46.21200 20.85300
H  7.42500 47.72500 20.81200
H  10.77500 48.71400 20.34600
H  9.07700 48.91900 19.81800
H  10.17300 47.65800 19.15400
H  7.43000 45.38900 20.28900
H  6.19200 45.97100 21.47900
H  6.90100 44.14300 22.80100
H  8.64200 44.80700 22.75100
H  8.03000 43.77900 21.46000
H  3.83400 47.92700 24.17100
H  3.23000 49.00000 25.45200
H  3.55100 47.26900 25.83300
H  6.51400 50.33200 29.54400
H  4.32200 48.71100 33.10400
H  5.72100 47.75800 33.15100
H  4.48700 47.28700 31.94600
Mg -12.21000 16.26400 41.77400
C  -9.09100 14.55100 41.37700
C  -10.68500 18.94100 40.39300
C  -15.25900 17.58400 41.25200
C  -13.67200 13.25800 42.84900
N  -10.14500 16.60300 40.95200
C  -9.07000 15.84800 40.82800
C  -7.87500 16.53900 40.22900
C  -8.35300 18.05700 40.18700
C  -9.84800 17.86600 40.46400
C  -7.67200 18.95900 41.30000
C  -7.35800 15.82900 38.90500
C  -5.90800 15.39600 38.79000
H  -4.93100 16.32400 37.99700
N  -12.88200 18.01500 41.10700
C  -12.08600 18.99900 40.63500
C  -12.86600 20.21700 40.43100
C  -14.22900 19.84100 40.56700
C  -14.16100 18.41900 40.93600
C  -12.37800 21.55000 39.94800
C  -15.38200 20.77800 40.13200
O  -15.16400 21.87700 39.66200
C  -16.82300 20.13700 39.94100
N  -14.22500 15.50600 42.00700
C  -15.31500 16.30600 41.74000
C  -16.55100 15.54700 42.04400
C  -16.03700 14.41300 42.97200
C  -14.54900 14.37700 42.60900
C  -17.70300 16.32700 42.75600
C  -16.72800 13.04400 42.59800
C  -16.87800 12.05300 43.77200
N  -11.57100 14.29500 41.95500
C  -12.26200 13.20100 42.55800
C  -11.37100 12.03600 42.79000
C  -10.07400 12.53700 42.35800
C  -10.27600 13.89400 41.88700
C  -11.81600 10.64400 43.14000
C  -8.61500 12.30200 42.23900
O  -7.94400 11.35300 42.53200
C  -7.96000 13.58600 41.51500
C  -6.86200 14.05400 42.39000
O  -6.98900 14.88800 43.26200
O  -5.67400 13.57700 41.95400
C  -4.50700 14.41500 42.29700
H  -10.21100 19.78800 39.89200
H  -16.23700 18.06800 41.29000
H  -14.18100 12.40600 43.30400
H  -7.01100 16.47000 40.89100
H  -8.20600 18.41800 39.16900
H  -7.96700 18.82900 42.34100
H  -7.85500 20.00600 41.06000
H  -6.58600 18.90900 41.22000
H  -7.51200 16.40900 37.99400
H  -8.02200 14.99500 38.68000
H  -5.89500 14.36400 38.43700
H  -5.66800 15.21800 39.83900
H  -12.95800 22.34800 40.41300
H  -12.46300 21.60300 38.86300
H  -11.34000 21.64600 40.26500
H  -16.65700 19.16800 39.46900
H  -17.24300 20.76800 39.15800
H  -17.34400 20.10900 40.89800
H  -16.88400 15.21200 41.06200
H  -16.19500 14.63900 44.02700
H  -17.38200 17.35500 42.92500
H  -18.09100 15.84400 43.65300
H  -18.47300 16.49800 42.00400
H  -16.18200 12.47100 41.84800
H  -17.72100 13.13500 42.15700
H  -17.90100 11.67800 43.79300
H  -16.67500 12.46100 44.76200
H  -16.22400 11.21200 43.53900
H  -12.26200 10.67000 44.13500
H  -10.91700 10.02800 43.12200
H  -12.49600 10.28100 42.37000
H  -7.60000 13.28800 40.53100
H  -4.15900 14.12600 43.28900
H  -4.54800 15.49200 42.13200
H  -3.75600 14.14000 41.55600

