158

Mg 8.16200 3.38600 27.57100
C  9.35400 2.01800 30.70300
C  6.20200 5.50800 29.45800
C  6.80600 4.39100 24.77300
C  9.63100 0.62800 26.02500
N  7.83600 3.63000 29.79400
C  8.51900 3.09300 30.87500
C  8.06000 3.76200 32.18200
C  6.94700 4.77700 31.77500
C  6.96600 4.67600 30.29700
C  5.50500 4.62600 32.39500
C  9.21500 4.53000 32.90800
C  8.93000 4.93600 34.40600
H  9.83600 4.60100 35.61200
N  6.72900 4.84400 27.18000
C  6.02500 5.61500 28.03500
C  5.09100 6.48300 27.29600
C  5.26100 6.11700 25.90600
C  6.30400 5.08500 25.86100
C  4.22200 7.55700 27.97100
C  4.47000 6.59200 24.73500
O  4.52400 6.05600 23.61100
C  3.49200 7.68100 24.94500
N  8.20000 2.63900 25.74100
C  7.54200 3.23800 24.70200
C  7.60600 2.43000 23.41000
C  8.53900 1.25200 23.76400
C  8.86200 1.50900 25.29300
C  6.20300 1.93800 22.83200
C  9.82100 1.10900 22.88400
C  9.91900 -0.08200 21.91500
N  9.28500 1.70500 28.19800
C  9.87000 0.72900 27.39700
C  10.58300 -0.26600 28.21800
C  10.47000 0.26800 29.54300
C  9.61300 1.39800 29.45400
C  11.35800 -1.45900 27.86100
C  10.96200 0.09400 30.88200
O  11.78200 -0.73300 31.30600
C  10.25500 1.25200 31.66800
C  9.49200 0.70600 32.79700
O  8.37200 0.18900 32.70200
O  10.11900 0.96700 33.93600
C  9.39300 0.49200 35.11700
H  5.66900 6.24000 30.06800
H  6.39700 4.69900 23.80800
H  10.10000 -0.19500 25.48100
H  7.68600 3.04400 32.91200
H  7.24700 5.80700 31.97200
H  5.11900 5.43700 33.01200
H  5.52600 3.70900 32.98400
H  4.83400 4.55400 31.54000
H  9.60300 5.31900 32.26300
H  10.11100 3.91100 32.92700
H  7.90400 4.60500 34.56800
H  9.02700 6.02100 34.36100
H  3.14800 7.52000 27.78900
H  4.53100 8.54600 27.63200
H  4.37200 7.47200 29.04700
H  3.15500 8.19300 24.04400
H  4.07200 8.42100 25.49700
H  2.60900 7.32700 25.47800
H  8.13800 3.01900 22.66200
H  8.00800 0.30500 23.67000
H  5.63500 1.69200 23.72900
H  6.16700 0.99900 22.28000
H  5.61100 2.75000 22.40800
H  10.70800 1.16500 23.51500
H  10.02000 1.95000 22.21900
H  9.11300 -0.80000 22.06600
H  10.81300 -0.56500 22.30700
H  10.07700 0.17200 20.86700
H  10.68700 -2.18800 28.31400
H  12.32600 -1.46700 28.36100
H  11.45200 -1.56800 26.78000
H  11.08200 1.90600 31.94600
H  8.75100 1.29900 35.46800
H  10.11300 0.34700 35.92300
H  8.99300 -0.50600 34.93400
Mg 9.65500 48.39300 25.54400
C  7.74700 48.59200 28.51300
C  12.27000 49.68900 27.37300
C  11.47200 48.22000 22.79200
C  6.75200 47.35600 23.83500
N  9.94100 49.01100 27.68200
C  9.02200 48.99000 28.73100
C  9.67900 49.33000 30.06500
C  10.98500 50.02400 29.59500
C  11.14200 49.56100 28.14900
C  11.00000 51.59900 29.66700
C  9.80700 48.03800 30.98600
C  10.98900 47.98700 31.96300
H  10.77100 46.94100 33.06600
N  11.64200 49.00600 25.17400
C  12.59000 49.39800 26.03700
C  13.85900 49.58500 25.42100
C  13.67100 49.11300 24.09500
C  12.22100 48.76800 23.91800
C  15.07200 50.09200 26.17100
C  14.67700 48.96000 22.88800
O  14.37300 48.54400 21.77600
C  16.11500 49.43200 22.96900
N  9.12100 48.04600 23.57100
C  10.11300 47.93700 22.59100
C  9.49800 47.41100 21.33900
C  7.96100 47.14300 21.65000
C  7.93100 47.55800 23.14900
C  9.86200 48.39600 20.10700
C  7.49500 45.69100 21.23900
C  7.31200 44.66900 22.39400
N  7.64300 47.94200 26.02300
C  6.58500 47.57000 25.25400
C  5.36900 47.49700 26.08000
C  5.80500 47.83900 27.39100
C  7.18700 48.07200 27.30800
C  4.05800 47.06100 25.47300
C  5.38000 47.85600 28.77700
O  4.33800 47.47100 29.32700
C  6.62900 48.30700 29.57100
C  6.98900 47.06900 30.33900
O  7.56300 46.00600 29.98400
O  6.57800 47.22500 31.61000
C  6.72600 46.03500 32.51100
H  13.10300 50.10300 27.94400
H  12.04600 47.88600 21.92600
H  5.79400 47.15600 23.35100
H  8.86600 49.96200 30.42300
H  11.85300 49.68900 30.16300
H  11.17200 51.96100 28.65300
H  11.88900 51.84400 30.24900
H  10.09600 51.99500 30.12900
H  9.88600 47.14900 30.36000
H  8.97500 47.93500 31.68200
H  11.15600 49.00500 32.31500
H  11.87500 47.69100 31.40100
H  15.14200 49.74700 27.20300
H  15.03600 51.18100 26.13800
H  15.99300 49.76400 25.69000
H  16.71800 48.74900 23.56800
H  16.10400 50.40200 23.46600
H  16.71900 49.52900 22.06600
H  10.00300 46.45300 21.21700
H  7.34500 47.88800 21.14800
H  10.25300 49.33200 20.50600
H  8.99700 48.63000 19.48800
H  10.62900 47.84000 19.56800
H  8.27500 45.44100 20.51900
H  6.59900 45.84100 20.63600
H  7.99200 44.95300 23.19700
H  7.55300 43.63500 22.14700
H  6.32900 44.77900 22.85100
H  3.43700 47.93300 25.26400
H  3.54300 46.36800 26.13700
H  4.24200 46.51900 24.54500
H  6.46800 49.12900 30.26800
H  6.12800 46.30300 33.38200
H  7.75000 45.94300 32.87200
H  6.39400 45.06800 32.13300

