158

Mg 0.62800 7.92000 27.54900
C  1.23900 10.10800 30.21100
C  0.68300 5.25000 29.70500
C  0.69000 5.76200 24.92700
C  0.92100 10.58700 25.33700
N  1.04500 7.74900 29.69400
C  1.17600 8.75200 30.62900
C  0.77200 8.27100 31.95900
C  1.02400 6.67900 31.87500
C  0.81800 6.54900 30.32400
C  2.44800 6.22600 32.36500
C  -0.75300 8.61800 32.31800
C  -0.89900 9.24400 33.75400
H  0.09600 8.98000 34.92200
N  0.72300 5.75800 27.37900
C  0.71500 4.86700 28.34800
C  0.66500 3.48100 27.81000
C  0.67000 3.62100 26.37000
C  0.66600 5.08400 26.13400
C  0.70400 2.12200 28.68200
C  0.60000 2.58300 25.26900
O  0.54400 2.81100 24.07600
C  0.56800 1.20800 25.68200
N  0.82500 8.13100 25.44400
C  0.78000 7.12300 24.55000
C  0.70000 7.59900 23.07600
C  0.57300 9.16400 23.29900
C  0.75200 9.33100 24.80300
C  1.82600 7.16500 22.12400
C  -0.85100 9.61500 22.90200
C  -0.92400 10.03700 21.51200
N  0.90500 9.97100 27.67600
C  1.00800 10.93000 26.72300
C  1.19500 12.17400 27.32600
C  1.24100 11.94400 28.68800
C  1.19700 10.54400 28.82900
C  1.35800 13.42900 26.60000
C  1.41800 12.59200 29.97800
O  1.54200 13.78100 30.30600
C  1.33300 11.44200 31.06000
C  2.57100 11.45300 31.90000
O  3.68300 11.00600 31.61400
O  2.25400 12.02700 33.14700
C  3.21700 11.93600 34.22100
H  0.64200 4.40700 30.39900
H  0.57500 5.17200 24.01600
H  0.97700 11.41800 24.63100
H  1.47800 8.75800 32.63200
H  0.27300 6.07900 32.38800
H  3.04600 7.01900 32.81400
H  3.00900 5.83500 31.51600
H  2.41200 5.50700 33.18400
H  -1.33800 7.70000 32.27200
H  -1.17100 9.29800 31.57500
H  -1.83400 8.83400 34.13500
H  -1.13700 10.30100 33.64100
H  1.10000 2.38000 29.66500
H  1.32400 1.28900 28.35400
H  -0.32400 1.81600 28.87600
H  1.45700 0.95800 26.26200
H  0.48000 0.63100 24.76200
H  -0.36400 0.97200 26.19600
H  -0.21200 7.08100 22.78100
H  1.36900 9.70700 22.78900
H  2.66200 6.81900 22.73200
H  2.25800 7.92500 21.47300
H  1.51900 6.28100 21.56500
H  -1.24000 10.38200 23.57300
H  -1.47600 8.73400 23.04200
H  -0.01000 10.43800 21.07200
H  -1.55500 10.92500 21.55300
H  -1.33000 9.31200 20.80700
H  2.15300 13.39600 25.85400
H  1.58200 14.22400 27.31100
H  0.40500 13.67000 26.13000
H  0.54900 11.60100 31.80000
H  4.23000 11.69600 33.90000
H  2.91600 11.21900 34.98500
H  3.40500 12.94800 34.57700
Mg 16.65000 -0.33900 28.26200
C  15.59400 1.76100 30.97300
C  18.51800 -2.10400 30.53600
C  18.16000 -1.88700 25.78700
C  15.26200 2.04600 26.08200
N  16.94500 -0.27100 30.56400
C  16.35000 0.68800 31.41100
C  16.70300 0.35300 32.90600
C  17.84400 -0.74300 32.63700
C  17.76700 -1.08900 31.15400
C  19.35200 -0.46000 33.05000
C  15.57700 -0.03200 33.91000
C  15.58200 0.74000 35.23400
H  16.95500 1.15400 35.84400
N  17.89000 -1.96500 28.18400
C  18.63600 -2.56500 29.17800
C  19.44800 -3.65000 28.64900
C  19.14000 -3.72800 27.29800
C  18.33100 -2.49200 26.99000
C  20.40000 -4.57000 29.41500
C  19.48600 -4.73600 26.27500
O  18.96900 -4.78700 25.13300
C  20.38800 -6.03900 26.59700
N  16.58400 -0.08100 26.21500
C  17.36600 -0.79900 25.38900
C  17.32800 -0.33300 23.91500
C  16.25700 0.90000 24.03300
C  15.97400 0.94900 25.57400
C  18.81200 0.17000 23.49500
C  14.98000 0.67800 23.17800
C  14.34300 1.91000 22.46200
N  15.58200 1.50700 28.40800
C  15.04100 2.32400 27.43700
C  14.26800 3.35900 28.03700
C  14.46000 3.22700 29.44400
C  15.28100 2.05400 29.63700
C  13.47000 4.45700 27.36600
C  14.14900 3.70600 30.80300
O  13.54600 4.65200 31.15700
C  14.81200 2.71000 31.82000
C  15.77700 3.49600 32.52600
O  16.88800 3.83500 32.22600
O  15.15200 3.87500 33.70000
C  15.87700 4.86600 34.53200
H  19.18500 -2.72600 31.13600
H  18.71700 -2.40200 25.00100
H  14.76700 2.74200 25.40100
H  17.10400 1.29900 33.26800
H  17.54000 -1.64300 33.17000
H  19.52000 0.48600 33.56600
H  20.01400 -0.47200 32.18400
H  19.73000 -1.31500 33.61100
H  15.84600 -1.04600 34.20700
H  14.60100 -0.12900 33.43500
H  15.20700 0.01800 35.95800
H  14.92000 1.60500 35.25000
H  19.90300 -5.48500 29.73500
H  20.67700 -4.10300 30.36000
H  21.32800 -4.81400 28.89700
H  19.99300 -6.53200 27.48500
H  21.37300 -5.62900 26.82100
H  20.35600 -6.79300 25.81000
H  16.99800 -1.20200 23.34600
H  16.72200 1.85200 23.77900
H  19.50300 0.38200 24.31000
H  18.70100 1.10500 22.94600
H  19.25400 -0.60800 22.87300
H  14.24100 0.29100 23.88000
H  15.21200 0.03800 22.32700
H  14.90900 2.74500 22.87500
H  13.29200 2.06400 22.70700
H  14.48200 1.87100 21.38200
H  12.40000 4.26800 27.29000
H  13.92200 4.68200 26.40000
H  13.55800 5.40200 27.90000
H  14.06100 2.31300 32.50300
H  16.45900 5.66300 34.06900
H  16.52500 4.53600 35.34400
H  15.08500 5.42000 35.03700

