158

Mg 25.30000 1.51500 29.63000
C  27.61100 1.42900 32.27200
C  22.87500 1.50000 31.83400
C  23.21100 1.27500 27.00100
C  28.00500 0.73100 27.47500
N  25.29900 1.29900 31.91600
C  26.31400 1.60100 32.73500
C  25.82100 1.95200 34.16300
C  24.32500 2.06600 33.92900
C  24.10500 1.51600 32.50600
C  23.44200 1.36600 34.99000
C  26.31600 3.26000 34.86700
C  26.61400 3.18300 36.37200
H  26.04300 4.18200 37.36700
N  23.27700 1.30600 29.44100
C  22.39400 1.39600 30.48000
C  21.05100 1.44600 29.92400
C  21.15000 1.50300 28.56700
C  22.60400 1.36800 28.27300
C  19.82600 1.40800 30.89100
C  20.07400 1.56600 27.55400
O  20.35000 1.41200 26.34300
C  18.64000 1.73900 27.98300
N  25.58000 0.99500 27.54500
C  24.59300 1.13100 26.66500
C  25.06600 1.13500 25.26300
C  26.60800 1.09900 25.40200
C  26.75900 0.97400 26.91500
C  24.40900 0.03700 24.37600
C  27.30800 2.38700 24.79900
C  27.11000 3.64800 25.67100
N  27.40500 1.12500 29.80200
C  28.36300 0.78800 28.88300
C  29.67400 0.66000 29.42200
C  29.44000 0.93500 30.78400
C  28.04400 1.16700 30.94700
C  30.96800 0.30900 28.76000
C  30.03000 1.06200 32.12000
O  31.21300 0.94400 32.52200
C  28.85700 1.51300 33.13600
C  28.86700 0.59400 34.22700
O  28.72400 -0.62500 34.20000
O  29.14600 1.33200 35.38000
C  29.35000 0.59100 36.61200
H  22.11200 1.75900 32.57100
H  22.60000 1.34200 26.09900
H  28.87100 0.68000 26.81100
H  25.97200 1.07400 34.79100
H  24.08800 3.13000 33.91400
H  23.97600 1.38700 35.94000
H  23.15000 0.33500 34.79200
H  22.51900 1.90000 35.21600
H  25.65300 4.11400 34.73200
H  27.20400 3.57500 34.31900
H  27.68100 3.31100 36.55900
H  26.42000 2.20000 36.80200
H  19.10300 2.20400 30.71000
H  20.07100 1.37700 31.95200
H  19.43700 0.42500 30.62500
H  18.43800 0.81700 28.52700
H  18.06200 1.91400 27.07500
H  18.56000 2.55300 28.70300
H  24.83800 2.07500 24.76200
H  26.99200 0.18300 24.95200
H  23.59200 -0.42700 24.92800
H  25.13200 -0.75200 24.17000
H  23.98200 0.47000 23.47200
H  26.79500 2.49600 23.84300
H  28.36000 2.12900 24.67600
H  28.06300 4.06200 25.99900
H  26.51400 3.54800 26.57800
H  26.59100 4.45100 25.14800
H  31.01800 0.44900 27.68000
H  31.12200 -0.73900 29.01900
H  31.74200 0.88800 29.26400
H  29.08500 2.49700 33.54600
H  30.07800 1.21400 37.13200
H  29.49200 -0.48200 36.48300
H  28.40200 0.74100 37.13000
Mg 44.76800 4.68200 48.25500
C  42.66100 7.44200 47.35300
C  42.21800 2.62100 47.40200
C  46.99000 2.14000 48.37000
C  47.48200 6.99000 48.47400
N  42.68600 4.95800 47.42300
C  42.00400 6.17900 47.14200
C  40.52400 5.90000 46.62500
C  40.43500 4.35900 46.96400
C  41.84200 3.94800 47.37700
C  39.46600 4.11600 48.16400
C  40.47500 6.16200 45.07700
C  39.02000 6.46400 44.49100
H  38.89400 7.39100 43.26200
N  44.64100 2.71100 48.04600
C  43.51500 2.01000 47.64400
C  43.84300 0.63700 47.79300
C  45.18400 0.43200 48.21800
C  45.63400 1.81300 48.26400
C  42.75900 -0.48800 47.56400
C  45.75500 -0.89500 48.66100
O  45.08200 -1.91500 48.65000
C  47.19600 -0.93600 49.30400
N  46.92000 4.58300 48.30500
C  47.59400 3.40000 48.44900
C  49.06300 3.59800 48.52400
C  49.23300 5.19100 48.42000
C  47.82800 5.66500 48.40200
C  49.70300 2.90000 49.73800
C  50.11100 5.66700 47.18500
C  51.35800 6.52800 47.43800
N  45.13500 6.80100 47.94700
C  46.24100 7.59300 48.17900
C  45.93800 8.98200 47.94900
C  44.50100 9.01400 47.74000
C  44.08400 7.68100 47.69600
C  46.96900 10.14500 48.04600
C  43.27500 9.85300 47.45300
O  43.17600 11.08800 47.30700
C  42.07400 8.87300 47.20500
C  41.03000 9.27400 48.16400
O  40.98200 8.84300 49.34200
O  40.10500 10.26000 47.58000
C  38.99300 10.69600 48.49000
H  41.35100 1.97100 47.26400
H  47.81300 1.44700 48.55600
H  48.32300 7.68500 48.53100
H  39.84600 6.52800 47.20400
H  40.16500 3.70200 46.13700
H  39.08600 5.06400 48.54700
H  39.92600 3.62200 49.01900
H  38.66400 3.43000 47.89100
H  40.74600 5.31800 44.44300
H  41.23000 6.85200 44.70000
H  38.43400 6.86900 45.31700
H  38.67500 5.44500 44.31700
H  41.96300 -0.18900 46.88100
H  42.22400 -0.61600 48.50500
H  43.26000 -1.35400 47.13300
H  47.30800 -1.97200 49.62300
H  47.38900 -0.21100 50.09500
H  47.91600 -0.87500 48.48800
H  49.46500 3.13200 47.62400
H  49.76000 5.61600 49.27400
H  50.39300 2.11700 49.42300
H  48.96400 2.48200 50.42100
H  50.26900 3.64800 50.29300
H  49.38900 6.35500 46.74700
H  50.39300 4.92900 46.43300
H  51.60500 6.41700 48.49300
H  51.17900 7.59900 47.33800
H  52.17100 6.25800 46.76300
H  47.13400 10.50700 49.06100
H  46.64200 11.00100 47.45600
H  47.92500 9.73400 47.72200
H  41.76600 9.01200 46.16900
H  38.09000 10.92400 47.92300
H  39.33000 11.61800 48.96400
H  38.70700 9.98700 49.26700

