158

Mg 30.25200 58.27000 41.13000
C  27.50000 56.29800 40.05700
C  32.34800 55.53700 40.19400
C  32.80900 60.29200 41.10100
C  28.03000 60.87300 41.43100
N  30.01800 56.20100 40.12000
C  28.74500 55.63900 39.88000
C  28.95400 54.27100 39.21700
C  30.40900 53.89500 39.77200
C  30.98400 55.30300 40.00500
C  30.51800 53.02000 41.07100
C  28.94100 54.45700 37.61600
C  27.94600 53.56900 36.88800
H  26.95100 54.26600 35.96400
N  32.33600 57.97800 40.83600
C  32.95000 56.84100 40.38800
C  34.42900 57.02600 40.36200
C  34.63300 58.39600 40.60700
C  33.23200 58.98200 40.82300
C  35.42500 55.83300 40.09500
C  35.93000 59.13500 40.65600
O  36.97700 58.39300 40.61700
C  36.12100 60.60300 40.73500
N  30.37900 60.28500 41.12300
C  31.57300 60.88300 41.35600
C  31.39600 62.38100 41.59100
C  29.94200 62.50500 41.87900
C  29.40100 61.14800 41.37900
C  32.35300 63.10500 42.61300
C  29.22400 63.77600 41.29300
C  28.18200 64.39600 42.19400
N  28.14300 58.55400 40.92300
C  27.40200 59.67300 41.14000
C  25.99400 59.41300 40.88700
C  25.97500 58.04600 40.65500
C  27.31800 57.62900 40.48700
C  24.85900 60.35800 40.90500
C  25.13700 56.89800 40.36200
O  23.88000 56.85100 40.40300
C  26.06800 55.70500 39.83100
C  25.87400 54.54300 40.71200
O  26.49300 54.26800 41.77400
O  24.89200 53.76500 40.14900
C  24.63600 52.49100 40.85800
H  32.88900 54.60100 40.03800
H  33.62000 60.97800 41.35300
H  27.42300 61.77900 41.49000
H  28.17300 53.59700 39.57000
H  30.98700 53.36800 39.01300
H  30.86400 53.57600 41.94200
H  31.25500 52.24500 40.86000
H  29.54400 52.60600 41.33300
H  29.90500 54.11600 37.23900
H  28.72500 55.47300 37.28400
H  27.36100 53.03400 37.63600
H  28.48600 52.79100 36.34900
H  35.84100 55.97300 39.09700
H  35.08500 54.81500 39.90500
H  36.16800 55.66000 40.87400
H  35.74900 60.84100 41.73200
H  35.58300 60.92600 39.84400
H  37.15800 60.92100 40.63100
H  31.60200 62.83300 40.62100
H  29.72900 62.41500 42.94400
H  33.19100 63.70600 42.25700
H  32.79100 62.31100 43.21700
H  31.70600 63.63400 43.31300
H  28.85900 63.54000 40.29300
H  30.02500 64.49900 41.13900
H  28.68800 65.20300 42.72500
H  27.95900 63.75400 43.04600
H  27.20900 64.68600 41.79900
H  25.31800 61.30300 40.61300
H  24.43200 60.46200 41.90300
H  24.15400 60.01200 40.15000
H  25.74200 55.44200 38.82500
H  24.33200 52.74200 41.87400
H  25.55400 51.91800 40.98000
H  23.85500 52.07500 40.22200
Mg 0.08500 44.06900 25.13900
C  2.14200 44.01100 28.10700
C  -2.45000 42.98600 27.13200
C  -1.70700 44.24600 22.42700
C  2.95300 44.71200 23.27000
N  -0.08000 43.48800 27.39900
C  0.86500 43.66800 28.41200
C  0.22100 43.34200 29.82600
C  -1.13600 42.67800 29.36500
C  -1.23900 43.13800 27.87100
C  -1.34900 41.16900 29.53700
C  -0.05600 44.66600 30.55500
C  0.06000 44.62400 32.04600
H  -0.29200 43.30200 32.75200
N  -1.77600 43.72700 24.84300
C  -2.71300 43.35100 25.75800
C  -3.98400 43.20500 25.08700
C  -3.83100 43.55900 23.71900
C  -2.43800 43.97700 23.63500
C  -5.25200 42.93200 25.85300
C  -4.85100 43.60200 22.50900
O  -4.49100 43.97500 21.39800
C  -6.31200 43.26000 22.69800
N  0.65200 44.02200 22.96000
C  -0.37600 44.36800 22.09200
C  0.17000 44.96000 20.73400
C  1.69300 45.29600 21.17500
C  1.73100 44.66400 22.59000
C  0.12800 43.95500 19.55900
C  2.10900 46.76800 21.10900
C  1.37000 47.73200 22.05900
N  2.11700 44.23700 25.50600
C  3.13100 44.49000 24.67900
C  4.39200 44.47900 25.35300
C  4.02600 44.36000 26.71400
C  2.58800 44.20300 26.74300
C  5.85200 44.69100 24.75500
C  4.53900 44.29700 28.03700
O  5.73200 44.23000 28.31600
C  3.28900 44.08500 28.99400
C  3.58100 42.90200 29.88900
O  3.67000 41.74100 29.44400
O  3.63200 43.27500 31.20700
C  3.87800 42.13700 32.15000
H  -3.21700 42.68100 27.84700
H  -2.29900 44.55600 21.56300
H  3.78100 45.06500 22.65300
H  0.79700 42.67500 30.46700
H  -1.93500 43.19900 29.89300
H  -0.58300 40.87500 30.25500
H  -1.10500 40.63500 28.61900
H  -2.28400 40.86300 30.00500
H  -1.05000 45.05200 30.33100
H  0.65900 45.42600 30.23900
H  -0.44300 45.46000 32.53200
H  1.11900 44.74400 32.27500
H  -5.48800 43.88500 26.32600
H  -4.89300 42.26700 26.63800
H  -5.96300 42.47100 25.16800
H  -6.74400 43.67300 23.61000
H  -6.23400 42.17400 22.75400
H  -6.98400 43.63300 21.92500
H  -0.45500 45.84100 20.58800
H  2.37000 44.71800 20.54600
H  -0.58600 44.32000 18.82100
H  -0.18400 42.99100 19.96100
H  1.00100 43.93100 18.90700
H  1.72700 47.00800 20.11700
H  3.19800 46.81500 21.11500
H  1.97800 48.23900 22.80800
H  0.74600 47.01800 22.59700
H  0.65100 48.35500 21.52600
H  5.82700 45.43300 23.95700
H  6.37400 43.78400 24.45000
H  6.45500 45.07300 25.57800
H  3.18800 44.95900 29.63600
H  2.87000 41.81200 32.41100
H  4.49700 42.45400 32.99000
H  4.43800 41.29500 31.74300

