158

Mg 24.44600 -6.38200 47.07900
C  27.07400 -4.15400 46.02000
C  22.43800 -4.63300 44.76600
C  22.02900 -8.65600 47.42700
C  26.71400 -8.30300 48.77100
N  24.76800 -4.60500 45.56300
C  25.89600 -3.86200 45.31200
C  25.69300 -2.83700 44.28900
C  24.14100 -2.77800 44.29500
C  23.70700 -4.07800 44.92900
C  23.46600 -1.62800 45.04200
C  26.30400 -3.35200 42.99200
C  27.31500 -2.38800 42.23900
H  27.17300 -1.96300 40.77300
N  22.45300 -6.56900 46.21900
C  21.86600 -5.75400 45.33800
C  20.50300 -6.22300 45.09000
C  20.32900 -7.41500 45.87400
C  21.61100 -7.60300 46.56200
C  19.46900 -5.70300 44.10600
C  19.13300 -8.32000 45.85700
O  18.23300 -8.24600 45.03600
C  18.86900 -9.30000 46.99900
N  24.38000 -8.21200 47.97600
C  23.25800 -8.92000 48.08600
C  23.54700 -10.32500 48.65300
C  24.91500 -10.12700 49.23700
C  25.40200 -8.76600 48.73300
C  22.50400 -10.91800 49.63600
C  25.94000 -11.28800 48.90000
C  26.71500 -11.73900 50.11700
N  26.49600 -6.23900 47.45200
C  27.26400 -7.10100 48.25600
C  28.58500 -6.56200 48.28900
C  28.57000 -5.40600 47.47800
C  27.26300 -5.24900 46.90500
C  29.73400 -7.18200 49.05900
C  29.45100 -4.36700 46.95700
O  30.62500 -4.07400 47.12000
C  28.48700 -3.50800 45.94000
C  28.55000 -2.10900 46.38500
O  28.34200 -1.61400 47.48000
O  28.94400 -1.44000 45.26800
C  28.78300 0.03500 45.29600
H  21.72600 -4.05300 44.17600
H  21.19400 -9.30800 47.69100
H  27.41400 -8.96700 49.28200
H  26.05200 -1.86000 44.61300
H  23.72500 -2.80000 43.28800
H  24.25100 -0.96800 45.41200
H  22.77000 -1.90500 45.83400
H  22.94200 -1.05300 44.28000
H  25.52900 -3.49700 42.24000
H  26.82900 -4.29200 43.15900
H  28.14400 -3.09500 42.23800
H  27.70600 -1.62900 42.91700
H  19.63900 -4.67200 43.79700
H  18.48800 -5.68800 44.58200
H  19.48300 -6.33000 43.21500
H  17.84600 -9.65300 47.12800
H  19.08400 -8.76600 47.92500
H  19.51500 -10.14000 46.74300
H  23.60500 -10.98600 47.78800
H  24.84600 -10.01000 50.31900
H  22.11700 -11.84700 49.21700
H  21.73700 -10.18500 49.88500
H  22.99500 -11.30600 50.52800
H  26.54400 -10.99000 48.04200
H  25.40800 -12.19800 48.62200
H  27.62200 -11.18700 50.36300
H  27.07800 -12.73700 49.86900
H  26.08600 -11.88800 50.99500
H  29.39300 -7.92100 49.78400
H  30.13700 -6.36400 49.65500
H  30.52800 -7.58700 48.43100
H  28.92000 -3.63000 44.94700
H  28.93300 0.34100 44.26100
H  29.35100 0.54600 46.07200
H  27.74100 0.04100 45.61600
Mg 16.95900 51.47700 26.73500
C  18.89800 49.93300 29.23200
C  14.61200 52.06600 29.20100
C  15.15500 53.08200 24.46800
C  19.18700 50.28300 24.31300
N  16.91400 51.15400 28.99100
C  17.82800 50.62600 29.80600
C  17.36000 50.75500 31.21600
C  15.82600 50.89200 31.11800
C  15.74000 51.36100 29.64700
C  15.00600 49.56700 31.39800
C  18.10400 52.01100 31.79400
C  18.43100 51.94200 33.27100
H  17.54300 51.00700 34.19800
N  15.17400 52.62400 26.84700
C  14.39400 52.78700 27.94600
C  13.35400 53.75300 27.61900
C  13.41200 53.90800 26.16500
C  14.63000 53.22000 25.74200
C  12.41900 54.26000 28.63000
C  12.57600 54.80500 25.35900
O  12.74100 55.08800 24.18100
C  11.34400 55.47800 25.96200
N  17.03800 51.42200 24.65300
C  16.22900 52.35700 24.00500
C  16.65900 52.31400 22.51300
C  18.11700 51.74500 22.47400
C  18.06300 51.05200 23.92100
C  15.62000 51.55300 21.54700
C  19.25400 52.75600 22.25200
C  19.10900 53.80400 21.17400
N  18.54400 50.23600 26.73600
C  19.40500 49.79900 25.68300
C  20.47900 48.94400 26.15700
C  20.29400 48.96200 27.51100
C  19.11700 49.71800 27.80900
C  21.54700 48.31200 25.30300
C  20.89900 48.48800 28.70000
O  21.89000 47.82200 28.94700
C  20.00000 49.15200 29.90800
C  19.63200 48.12400 30.89500
O  18.73200 47.33500 30.80100
O  20.44300 48.30600 32.05600
C  19.97200 47.51300 33.21700
H  13.85500 52.35600 29.93300
H  14.61100 53.66100 23.71800
H  20.03300 50.20500 23.62700
H  17.59600 49.83000 31.74200
H  15.38900 51.65400 31.76400
H  15.63500 48.81300 31.87200
H  14.75100 49.14700 30.42600
H  14.14600 49.73800 32.04500
H  17.53900 52.93900 31.69700
H  19.04700 52.06200 31.25000
H  18.36300 52.97800 33.60300
H  19.45700 51.59600 33.39700
H  12.21700 55.32900 28.55900
H  12.82200 54.03000 29.61600
H  11.38200 53.93000 28.56800
H  10.69600 55.93000 25.21100
H  11.79700 56.28200 26.54200
H  10.73000 54.79700 26.55100
H  16.71100 53.33200 22.12600
H  18.16700 50.85100 21.85400
H  15.95000 50.68500 20.97500
H  15.30700 52.31300 20.83100
H  14.86200 51.21900 22.25600
H  20.15700 52.23600 21.93100
H  19.41600 53.18600 23.24000
H  18.98700 54.77800 21.64900
H  18.24200 53.64500 20.53200
H  19.97500 53.94100 20.52600
H  22.21900 48.99700 24.78500
H  20.98700 47.73700 24.56600
H  22.11000 47.65400 25.96500
H  20.54300 49.98300 30.35800
H  19.80800 46.45400 33.02200
H  19.00700 47.86200 33.58400
H  20.64000 47.62200 34.07200

