158

Mg 0.57100 6.69900 24.17100
C  1.52500 8.82800 26.78000
C  0.46100 4.00200 26.40100
C  -0.21000 4.68200 21.68200
C  0.88700 9.41900 21.96500
N  1.16600 6.41000 26.19900
C  1.33700 7.40900 27.10100
C  1.57200 6.86600 28.48200
C  1.42000 5.32700 28.28100
C  0.97800 5.18500 26.87000
C  2.72300 4.54400 28.54100
C  0.52500 7.41300 29.48400
C  1.05800 7.73600 30.93300
H  2.22800 6.84400 31.47400
N  0.13500 4.65700 24.08900
C  0.13900 3.75400 25.09000
C  -0.29600 2.45900 24.57600
C  -0.44000 2.60400 23.18300
C  -0.17800 4.05500 22.92000
C  -0.44300 1.24300 25.43800
C  -0.73300 1.55500 22.16800
O  -0.70100 1.73900 21.00700
C  -0.89600 0.07000 22.63600
N  0.29600 7.03300 22.06100
C  -0.04600 6.02200 21.25700
C  -0.03600 6.45300 19.73100
C  0.22600 8.01800 19.87200
C  0.53000 8.16800 21.38000
C  1.08100 5.76500 19.08700
C  -0.96500 8.92300 19.36800
C  -0.59900 9.67700 18.14500
N  1.11900 8.68200 24.26000
C  1.10900 9.70200 23.35100
C  1.50500 10.92400 23.98900
C  1.65000 10.63000 25.33700
C  1.41000 9.29500 25.46800
C  1.80300 12.23300 23.27700
C  1.93800 11.19400 26.60400
O  2.13100 12.33400 26.95400
C  1.73400 10.04700 27.68900
C  2.95800 9.96500 28.39700
O  4.03500 9.56800 28.01600
O  2.77900 10.36100 29.71500
C  3.91900 10.28200 30.63700
H  0.36300 3.13200 27.05400
H  -0.48200 3.99500 20.87800
H  0.90200 10.30400 21.32500
H  2.53600 7.06600 28.95000
H  0.59700 4.78400 28.74600
H  3.05300 4.16400 27.57500
H  2.46500 3.71600 29.20100
H  3.45900 4.98600 29.21400
H  -0.17800 6.62800 29.76300
H  0.08400 8.29200 29.01500
H  0.23800 7.58400 31.63500
H  1.42400 8.74900 30.76400
H  -1.41500 0.77100 25.29300
H  -0.46700 1.37100 26.52000
H  0.37500 0.59300 25.12800
H  -1.77900 -0.01000 23.27000
H  0.04400 -0.35400 22.98800
H  -1.16400 -0.47800 21.73300
H  -1.00100 6.16000 19.31600
H  1.18100 8.22100 19.38700
H  2.00100 5.80600 19.67000
H  1.14500 6.19100 18.08600
H  0.74500 4.73000 19.02700
H  -1.38100 9.59300 20.12000
H  -1.78800 8.27900 19.05700
H  -1.17500 10.59000 18.29700
H  -0.81300 9.17700 17.20000
H  0.41700 10.06900 18.17800
H  1.50000 12.20300 22.23000
H  2.87000 12.44900 23.33100
H  1.29200 13.04200 23.79900
H  0.91300 10.23700 28.38100
H  4.47400 9.37000 30.41900
H  3.52700 10.22000 31.65200
H  4.55200 11.17000 30.65000
Mg 48.59200 34.67500 27.05600
C  46.59200 33.68000 29.82800
C  49.03100 37.55400 28.56100
C  49.62900 35.99700 24.11800
C  47.11800 32.09200 25.31500
N  48.02700 35.38700 29.00400
C  47.28700 34.84800 30.01800
C  47.30000 35.74200 31.33100
C  47.74600 37.12600 30.68600
C  48.28700 36.66000 29.30900
C  46.65100 38.21500 30.56000
C  48.26600 35.32800 32.40500
C  47.68600 35.37600 33.89300
H  48.47100 35.97700 34.94600
N  49.52000 36.45000 26.53900
C  49.61900 37.57600 27.25900
C  50.42800 38.58000 26.61400
C  50.65000 38.02600 25.29600
C  49.93600 36.80000 25.30100
C  50.88600 39.90900 27.23900
C  51.53600 38.53800 24.18200
O  51.71800 37.94400 23.14400
C  52.27100 39.85800 24.36000
N  48.31900 34.25100 25.01200
C  48.89200 34.84100 23.94700
C  48.76300 34.09400 22.60400
C  47.85400 32.85800 23.02400
C  47.76900 33.07100 24.54400
C  48.35500 34.95000 21.42200
C  48.44400 31.48500 22.43800
C  49.86400 31.14800 22.97800
N  47.22800 33.12500 27.43600
C  46.73100 32.10600 26.62200
C  45.80600 31.23600 27.37900
C  45.72000 31.83000 28.69100
C  46.62000 32.95700 28.66500
C  45.06800 30.09200 26.88200
C  45.08200 31.77000 29.99900
O  44.28900 30.98200 30.45500
C  45.59700 33.08200 30.77300
C  45.99600 32.75000 32.17500
O  46.96700 31.99900 32.39300
O  45.06600 33.21300 33.04800
C  45.08500 32.48500 34.28500
H  49.33400 38.44000 29.12200
H  49.90500 36.31500 23.11100
H  46.64800 31.31700 24.70700
H  46.30200 35.89000 31.74300
H  48.49600 37.59800 31.32000
H  45.75100 37.70600 30.90400
H  46.53800 38.74300 29.61300
H  46.97400 39.00300 31.24000
H  49.23500 35.82100 32.32900
H  48.50000 34.28400 32.20000
H  47.63800 34.34100 34.23300
H  46.70900 35.85500 33.83700
H  50.24500 40.20800 28.06800
H  50.81100 40.74000 26.53700
H  51.88700 39.87400 27.66800
H  51.51100 40.63900 24.36000
H  53.02700 39.99000 23.58600
H  52.78600 39.97400 25.31300
H  49.80100 33.84300 22.38400
H  46.86200 33.04100 22.61000
H  49.19600 35.13000 20.75200
H  47.89600 35.91400 21.63700
H  47.64200 34.39100 20.81600
H  48.69200 31.57200 21.38000
H  47.73400 30.72500 22.76400
H  49.70300 30.18000 23.45200
H  50.28700 31.90200 23.64200
H  50.52700 31.04600 22.11900
H  45.72600 29.22900 26.78300
H  44.59200 30.23800 25.91200
H  44.22100 29.92900 27.54900
H  44.71300 33.70800 30.89100
H  45.15000 31.43100 34.01300
H  44.21400 32.79700 34.86100
H  45.94200 32.85800 34.84600

