158

Mg 42.97500 4.20700 47.90600
C  40.90300 6.97200 47.58300
C  40.12400 2.18500 47.77400
C  45.06600 1.54000 47.74700
C  45.83800 6.33800 47.81100
N  40.73800 4.60500 47.77600
C  40.11500 5.80400 47.68300
C  38.57200 5.66900 47.81200
C  38.42300 4.11000 48.06100
C  39.87000 3.58100 47.84000
C  37.85300 3.70900 49.38900
C  37.77400 6.23200 46.62200
C  38.17800 5.61200 45.22000
H  37.64300 6.48200 43.99300
N  42.62100 2.10200 47.67800
C  41.41100 1.49500 47.60900
C  41.69600 0.08500 47.41000
C  43.05200 -0.07000 47.38200
C  43.66700 1.18500 47.62300
C  40.61000 -0.87700 47.41500
C  43.77200 -1.46500 47.25500
O  43.16700 -2.52900 47.13000
C  45.31300 -1.51000 47.23500
N  45.16500 3.99300 47.70800
C  45.73500 2.75200 47.79100
C  47.24500 2.73400 47.90000
C  47.55300 4.27600 47.78600
C  46.09700 4.95300 47.74000
C  47.76300 2.05600 49.19200
C  48.23200 4.72200 46.52000
C  49.73400 4.77300 46.46700
N  43.36000 6.17600 47.76200
C  44.54900 6.92000 47.73500
C  44.20200 8.28000 47.58100
C  42.83500 8.32200 47.52000
C  42.33400 7.07700 47.64500
C  45.15300 9.39400 47.55200
C  41.71800 9.31500 47.35900
O  41.81100 10.53500 47.29500
C  40.38600 8.37400 47.31500
C  39.49600 8.81700 48.39000
O  39.68900 8.67200 49.59000
O  38.35300 9.38800 47.87100
C  37.55700 10.23500 48.78400
H  39.18900 1.62300 47.71900
H  45.85200 0.78300 47.78000
H  46.67900 7.02600 47.70000
H  38.18100 6.10600 48.73100
H  37.70600 3.72600 47.33400
H  38.58300 3.13600 49.96100
H  36.89300 3.21500 49.23500
H  37.63300 4.61300 49.95800
H  37.64800 7.31400 46.58100
H  36.75100 5.89600 46.79400
H  37.62600 4.68600 45.05900
H  39.26600 5.55800 45.18300
H  40.40800 -1.34000 46.45000
H  39.70200 -0.40600 47.79000
H  40.85400 -1.69900 48.08800
H  45.59000 -0.68300 46.58200
H  45.77300 -2.43900 46.90000
H  45.72200 -1.32100 48.22700
H  47.68400 2.29100 47.00600
H  48.13200 4.60900 48.64800
H  47.00200 1.65800 49.86300
H  48.38100 2.74600 49.76600
H  48.38100 1.24700 48.80400
H  48.00400 5.77400 46.34500
H  47.83400 4.16200 45.67400
H  50.08800 4.06600 47.21700
H  50.07700 5.76200 46.77100
H  50.15400 4.53000 45.49200
H  45.71900 9.45900 48.48200
H  44.56800 10.27700 47.29500
H  45.87300 9.29300 46.74000
H  39.86600 8.59500 46.38300
H  38.24300 10.74600 49.45900
H  36.96700 9.56400 49.40900
H  37.06200 10.98600 48.16800
Mg 48.09100 45.07100 42.81600
C  44.68900 44.77100 42.84600
C  48.40100 41.80300 42.32300
C  51.43400 45.46900 42.69900
C  47.76900 48.58800 42.92500
N  46.72300 43.46000 42.62000
C  45.34800 43.53100 42.64100
C  44.68200 42.22900 42.55100
C  45.87200 41.22700 42.31500
C  47.10500 42.21900 42.49600
C  45.75600 39.92300 43.24300
C  43.57000 41.95000 41.56200
C  43.89800 42.15700 40.12600
H  44.24700 41.01600 39.20400
N  49.71500 43.84500 42.49100
C  49.64600 42.54700 42.40400
C  50.93600 41.96900 42.35200
C  51.88200 43.00800 42.38300
C  51.03600 44.18300 42.47900
C  51.18100 40.51400 42.02400
C  53.39800 42.85900 42.20500
O  53.98000 41.78200 42.37700
C  54.34300 44.05100 41.98500
N  49.43500 46.81200 42.54600
C  50.78000 46.67100 42.72200
C  51.41000 48.04500 42.88200
C  50.21600 49.04300 42.66800
C  49.04500 48.08500 42.73400
C  52.20800 48.24400 44.32600
C  50.34400 49.78600 41.33900
C  50.92600 51.16500 41.36500
N  46.56600 46.46200 42.74200
C  46.60500 47.77800 42.99000
C  45.26200 48.29800 43.18300
C  44.41000 47.19000 43.00900
C  45.27200 46.08600 42.89100
C  44.90000 49.77300 43.43600
C  43.05100 46.64000 43.11000
O  41.97500 47.22700 43.31900
C  43.22300 45.09000 42.91800
C  42.50900 44.38600 44.08400
O  41.71200 43.48400 43.86100
O  42.71400 45.00600 45.30500
C  42.07100 44.39700 46.45700
H  48.44100 40.73300 42.11000
H  52.48600 45.75000 42.61700
H  47.71200 49.65900 43.12900
H  44.15400 41.99000 43.47400
H  46.02800 40.92300 41.28000
H  44.76800 39.78400 43.68000
H  46.45500 39.81200 44.07200
H  45.81300 39.07400 42.56200
H  42.65300 42.51700 41.72600
H  43.19500 40.93700 41.70600
H  44.74800 42.83800 40.07700
H  43.15400 42.72600 39.56800
H  52.01000 40.24200 42.67700
H  51.50300 40.32100 41.00000
H  50.32800 39.92200 42.35500
H  53.91600 44.61600 41.15700
H  55.33000 43.68400 41.70100
H  54.44100 44.72700 42.83500
H  52.16900 48.06900 42.09900
H  50.20900 49.70400 43.53500
H  52.13800 47.29400 44.85600
H  51.70200 48.87300 45.05800
H  53.24400 48.54600 44.17600
H  49.32800 49.79300 40.94400
H  50.96000 49.15900 40.69500
H  50.15700 51.93500 41.29800
H  51.78800 51.21200 40.70000
H  51.55600 51.37100 42.23000
H  44.72500 50.16500 42.43400
H  45.63400 50.40600 43.93300
H  44.02000 49.72600 44.07800
H  42.73200 44.84300 41.97600
H  41.11900 44.92100 46.53900
H  42.73200 44.68300 47.27500
H  42.00600 43.30900 46.49000

