158

Mg 36.16000 48.46800 24.52500
C  36.30400 46.68400 27.53000
C  34.80100 51.08900 26.33600
C  35.57800 50.02600 21.71300
C  37.32400 45.68400 22.83600
N  35.65500 48.83800 26.74300
C  35.90100 47.99100 27.71800
C  35.65800 48.69500 29.08400
C  34.98300 50.06800 28.72000
C  35.07800 50.00700 27.17400
C  33.47600 50.29000 29.20100
C  36.96000 48.84700 29.93000
C  36.91800 48.37900 31.35500
H  35.58300 48.51800 32.08700
N  35.24100 50.23600 24.07000
C  34.78700 51.22300 24.91600
C  34.27700 52.34700 24.14900
C  34.46900 52.07000 22.77800
C  35.10700 50.70200 22.82800
C  33.81400 53.57700 24.80300
C  34.32100 53.05800 21.50600
O  34.71800 52.81200 20.37300
C  33.84000 54.51600 21.72700
N  36.35100 47.94800 22.56600
C  36.09800 48.76300 21.56400
C  36.37400 48.14300 20.20000
C  37.15800 46.84400 20.59200
C  36.98700 46.80700 22.13100
C  35.08600 47.89500 19.31100
C  38.63500 46.65300 20.09000
C  39.81000 46.98500 21.08600
N  36.87700 46.63900 25.03600
C  37.25900 45.60500 24.21800
C  37.64000 44.47800 25.05000
C  37.28300 44.86800 26.36900
C  36.76700 46.13700 26.28500
C  38.18900 43.16300 24.54600
C  37.15100 44.47200 27.75000
O  37.42900 43.39500 28.32900
C  36.54700 45.69700 28.55100
C  35.40300 45.18500 29.32300
O  34.20800 45.08700 29.02500
O  35.87600 44.97500 30.54700
C  34.98000 44.46600 31.57300
H  34.45900 51.97800 26.87000
H  35.50600 50.50000 20.73200
H  37.69400 44.75900 22.39000
H  34.98100 48.11700 29.71200
H  35.64400 50.88800 29.00100
H  33.22700 49.43700 29.83300
H  32.77900 50.29700 28.36300
H  33.32200 51.12700 29.88300
H  37.24800 49.89900 29.91800
H  37.76900 48.36000 29.38500
H  37.65000 48.89400 31.97800
H  37.17000 47.32000 31.41100
H  34.67300 54.24200 24.71100
H  33.45100 53.41100 25.81700
H  32.92500 53.90600 24.26600
H  32.84000 54.50000 22.16100
H  33.82500 54.84500 20.68800
H  34.53700 55.08400 22.34300
H  37.15100 48.79500 19.80000
H  36.56500 45.99900 20.24300
H  34.25700 48.50000 19.67800
H  34.64600 46.90400 19.42700
H  35.27600 48.11000 18.25900
H  38.78000 47.32700 19.24600
H  38.75000 45.68700 19.60000
H  40.28400 47.87900 20.68300
H  40.54900 46.18700 21.16200
H  39.55700 47.20100 22.12400
H  38.91800 43.30500 23.74800
H  37.33600 42.62100 24.13900
H  38.62500 42.65100 25.40400
H  37.28900 45.97600 29.29900
H  34.23800 45.24300 31.75900
H  35.45200 44.25100 32.53200
H  34.30300 43.69300 31.20900
Mg 1.20600 42.99200 26.40200
C  3.29700 43.09600 29.20100
C  -1.39300 42.11600 28.50700
C  -0.62100 42.34400 23.72900
C  3.89100 43.72500 24.32300
N  1.00700 42.76000 28.61500
C  2.02600 42.75800 29.55200
C  1.46800 42.47300 31.01000
C  0.00400 41.89000 30.66400
C  -0.07900 42.16400 29.13600
C  -0.23900 40.45500 30.99600
C  1.52800 43.72900 31.91800
C  1.60800 43.40500 33.42400
H  1.22700 41.98300 33.95700
N  -0.72500 42.49200 26.19500
C  -1.67000 42.31300 27.18400
C  -2.98000 42.09500 26.53200
C  -2.72400 42.08300 25.09500
C  -1.34200 42.32200 24.96500
C  -4.33200 41.91600 27.37800
C  -3.73200 41.96100 24.03500
O  -3.48300 42.04000 22.81500
C  -5.18500 41.65900 24.43800
N  1.67000 42.82400 24.32500
C  0.67400 42.54700 23.44100
C  1.29800 42.45600 22.05600
C  2.56500 43.34800 22.16400
C  2.71000 43.30600 23.67300
C  1.70100 40.99200 21.84700
C  2.46600 44.73700 21.54800
C  2.30200 45.96600 22.51700
N  3.19300 43.38800 26.63600
C  4.19200 43.60900 25.71300
C  5.46100 43.79500 26.45300
C  5.11800 43.65000 27.80800
C  3.75600 43.29000 27.85900
C  6.73600 44.08800 25.81200
C  5.70200 43.62800 29.03300
O  6.88100 43.74000 29.35700
C  4.49800 43.39600 30.04600
C  4.88000 42.34500 31.05200
O  5.05700 41.16700 30.86500
O  4.89200 43.01900 32.26800
C  5.04900 42.08600 33.38200
H  -2.25100 41.72800 29.06000
H  -1.23700 42.19100 22.84100
H  4.71800 43.95800 23.65000
H  1.96800 41.69200 31.58300
H  -0.76000 42.49100 31.15700
H  -0.09900 39.85400 30.09700
H  -1.21100 40.36700 31.48100
H  0.35700 40.15300 31.85700
H  0.66700 44.28400 31.54500
H  2.38900 44.33800 31.64200
H  0.90800 44.08700 33.90500
H  2.58300 43.68700 33.82100
H  -5.04300 42.63500 26.97000
H  -4.21300 42.14700 28.43700
H  -4.68000 40.88500 27.31600
H  -5.59200 42.53500 24.94200
H  -5.19200 40.83400 25.15000
H  -5.84300 41.45200 23.59400
H  0.64500 42.83300 21.26900
H  3.48200 42.85400 21.84100
H  2.68000 40.83700 21.39300
H  1.08600 40.74200 20.98200
H  1.56500 40.33300 22.70500
H  1.70000 44.76600 20.77300
H  3.43300 44.88100 21.06700
H  3.27200 46.46400 22.52200
H  2.13700 45.69400 23.55900
H  1.55900 46.69600 22.19500
H  7.30000 43.97900 26.73800
H  6.57100 45.11000 25.46900
H  6.87200 43.38700 24.98800
H  4.37600 44.33000 30.59400
H  4.79700 41.04400 33.18400
H  4.25400 42.25400 34.11000
H  6.04200 42.21900 33.81200

