158

Mg 1.77300 8.12400 25.29700
C  2.44700 9.93400 28.10800
C  1.66900 5.32300 27.05800
C  1.58800 6.48800 22.38600
C  1.75800 11.20300 23.37600
N  2.21900 7.66200 27.35400
C  2.25000 8.54500 28.38900
C  2.15000 7.90500 29.80200
C  2.08100 6.40800 29.34300
C  1.98000 6.43800 27.81600
C  3.22300 5.51100 29.83500
C  0.83200 8.36000 30.63100
C  0.93400 8.42500 32.21400
H  2.02400 7.59000 32.86800
N  1.63400 6.17800 24.77300
C  1.52800 5.17300 25.66900
C  1.26300 3.91700 24.92800
C  1.30800 4.22400 23.58600
C  1.58600 5.70000 23.54900
C  0.90400 2.60800 25.66300
C  1.00700 3.39600 22.41100
O  0.85700 3.80200 21.22200
C  0.94600 1.87200 22.55800
N  1.71300 8.75800 23.16100
C  1.65300 7.83500 22.18800
C  1.52400 8.49100 20.78600
C  1.36600 9.97900 21.15200
C  1.65900 10.00600 22.65400
C  2.74400 8.19000 19.86100
C  -0.05200 10.60500 20.81900
C  0.02300 11.50500 19.58400
N  1.97900 10.18900 25.59100
C  2.03400 11.31500 24.72400
C  2.22100 12.51600 25.57800
C  2.43100 11.99400 26.86100
C  2.32400 10.59300 26.85400
C  2.18500 13.94200 25.06900
C  2.73000 12.36600 28.27700
O  3.01800 13.44800 28.76000
C  2.72400 11.00700 29.10600
C  3.92500 10.91100 29.94500
O  4.99900 10.42500 29.54800
O  3.67500 11.32900 31.27000
C  4.86400 11.47500 32.15600
H  1.61900 4.40400 27.64600
H  1.64400 5.91800 21.45600
H  1.84300 12.15300 22.84400
H  3.04500 8.03100 30.41200
H  1.15900 5.96500 29.71900
H  2.98300 4.54500 30.28000
H  3.75300 6.02500 30.63600
H  3.93700 5.44000 29.01400
H  -0.00000 7.67900 30.45300
H  0.50300 9.29500 30.17800
H  -0.02500 8.07400 32.59400
H  1.15500 9.46700 32.44500
H  -0.14400 2.44300 25.41000
H  0.76300 2.63700 26.74400
H  1.54000 1.80700 25.28800
H  1.77400 1.37400 23.06400
H  0.91400 1.34200 21.60700
H  0.05400 1.53200 23.08400
H  0.64800 8.11400 20.25800
H  2.17900 10.55500 20.71100
H  2.58000 7.35400 19.18100
H  3.64700 8.03300 20.45100
H  2.88900 9.02000 19.16900
H  -0.29000 11.20500 21.69700
H  -0.87000 9.92700 20.57600
H  0.89700 11.42800 18.93700
H  0.02800 12.49500 20.03900
H  -0.88800 11.48000 18.98600
H  1.49700 13.97600 24.22500
H  3.16900 14.22200 24.69200
H  1.80400 14.64600 25.81000
H  1.78400 11.10900 29.64900
H  4.69200 12.32600 32.81400
H  5.81800 11.58000 31.63900
H  4.92900 10.55000 32.73000
Mg 44.78200 3.27100 47.38900
C  42.57500 6.02600 47.21000
C  42.07300 1.24200 47.03900
C  46.90100 0.52800 47.38300
C  47.42300 5.39800 47.38400
N  42.59900 3.64900 47.08300
C  41.91000 4.83700 47.03200
C  40.39500 4.68100 46.64900
C  40.30400 3.10800 47.02400
C  41.74100 2.61300 47.04500
C  39.42100 2.78100 48.31600
C  39.97100 5.03000 45.15800
C  39.01800 6.21800 45.03300
H  38.39400 6.34400 43.63600
N  44.51100 1.15300 47.25700
C  43.28700 0.52800 47.10500
C  43.57300 -0.90000 47.00700
C  44.95600 -1.09900 46.87800
C  45.58500 0.22200 47.20500
C  42.47100 -1.90800 46.95500
C  45.60200 -2.45000 46.51200
O  44.89000 -3.42300 46.29100
C  47.16800 -2.62100 46.34400
N  46.85500 2.97700 47.09900
C  47.51500 1.76800 47.40300
C  49.03900 1.98100 47.64200
C  49.16900 3.53900 47.58700
C  47.72200 4.05600 47.34600
C  49.58000 1.31500 48.89300
C  50.13900 4.00700 46.42700
C  51.45800 4.75800 46.81900
N  45.06000 5.32500 47.22700
C  46.15400 6.04400 47.31000
C  45.85100 7.46700 47.31700
C  44.45800 7.48300 47.20900
C  43.97500 6.14300 47.23800
C  46.74600 8.61500 47.34100
C  43.30600 8.36100 47.12700
O  43.27500 9.60100 47.06000
C  42.05500 7.42600 47.05100
C  41.18100 7.72200 48.18800
O  41.53100 7.60500 49.37400
O  39.92600 8.26900 47.82100
C  38.94600 8.61600 48.78700
H  41.15900 0.68200 46.83100
H  47.63800 -0.26900 47.26000
H  48.31500 6.01400 47.51900
H  39.81900 5.26100 47.37100
H  39.87300 2.57700 46.17600
H  39.12600 3.74000 48.74300
H  40.02200 2.27200 49.07000
H  38.56200 2.19800 47.98500
H  39.46200 4.12900 44.81600
H  40.86700 5.00200 44.53800
H  39.47500 7.15300 45.35800
H  38.17900 6.01700 45.69900
H  42.57600 -2.53000 46.06700
H  41.45500 -1.52200 46.87600
H  42.49900 -2.52600 47.85300
H  47.48200 -1.82400 45.67000
H  47.34400 -3.62900 45.96800
H  47.66000 -2.53900 47.31300
H  49.58800 1.50600 46.82900
H  49.52000 3.83300 48.57600
H  48.75100 1.23700 49.59600
H  50.37900 1.95900 49.26200
H  50.02100 0.35000 48.64300
H  49.67700 4.64600 45.67400
H  50.46400 3.16000 45.82300
H  51.44200 5.77100 46.41900
H  52.17800 4.19200 46.22800
H  51.61000 4.66700 47.89400
H  46.95000 8.86400 46.30000
H  47.58400 8.24300 47.93200
H  46.09500 9.39300 47.73900
H  41.48300 7.51200 46.12700
H  39.15600 8.24300 49.78900
H  37.95100 8.36200 48.42200
H  39.00400 9.70200 48.85900

