158

Mg 26.01000 51.43000 26.26100
C  23.76500 52.55400 28.57100
C  28.09000 50.41300 28.97100
C  28.43100 50.86700 24.10900
C  24.04100 52.83300 23.72600
N  26.03800 51.74300 28.54600
C  24.91200 52.10500 29.26400
C  25.18900 52.01500 30.81300
C  26.63200 51.57000 30.80000
C  27.01100 51.21600 29.35100
C  27.59700 52.67700 31.34500
C  24.18400 50.97700 31.55300
C  23.47300 51.51500 32.75600
H  24.27300 51.94300 34.04300
N  27.93200 50.64100 26.48000
C  28.52700 50.23800 27.60100
C  29.90500 49.91300 27.30800
C  30.10300 50.08500 25.89800
C  28.76300 50.58200 25.41700
C  30.87600 49.31300 28.44100
C  31.24200 49.83100 24.94600
O  31.22900 50.04100 23.72500
C  32.47400 49.36200 25.56900
N  26.23100 51.94800 24.17800
C  27.30300 51.44800 23.48700
C  27.14400 51.79700 22.03200
C  25.64200 52.25100 21.85500
C  25.28000 52.36300 23.32500
C  28.28700 52.61300 21.32600
C  24.83600 51.13700 21.12400
C  23.61400 51.60600 20.41200
N  24.16200 52.38100 26.15200
C  23.46900 52.78700 25.04000
C  22.09600 53.24700 25.49100
C  22.20900 53.12400 26.88000
C  23.45900 52.58300 27.19700
C  20.95600 53.83300 24.63100
C  21.47600 53.41800 28.14600
O  20.36400 53.86300 28.40100
C  22.51600 53.07000 29.29000
C  22.73800 54.29700 30.13100
O  23.83200 54.93900 30.16400
O  21.77900 54.37200 31.13700
C  22.11800 55.27900 32.23600
H  28.68300 50.12300 29.84000
H  29.19600 50.66500 23.35700
H  23.49200 53.18700 22.85100
H  25.03900 53.01000 31.23000
H  26.77100 50.69300 31.43300
H  27.08400 53.28600 32.09000
H  27.92200 53.29500 30.50900
H  28.56600 52.27500 31.64100
H  24.86800 50.22900 31.95300
H  23.44200 50.57700 30.86200
H  22.77200 50.70200 32.94300
H  23.01800 52.43800 32.39700
H  30.29600 48.95500 29.29200
H  31.50300 50.11000 28.84100
H  31.48400 48.48400 28.07800
H  32.32100 48.33000 25.88300
H  32.70600 49.90100 26.48800
H  33.30000 49.52600 24.87800
H  27.35100 50.80600 21.62800
H  25.59300 53.24400 21.40800
H  29.05700 52.73900 22.08800
H  28.00500 53.57900 20.90900
H  28.77500 51.95500 20.60600
H  24.45900 50.44100 21.87300
H  25.44900 50.64700 20.36900
H  23.94000 51.99900 19.44800
H  23.06800 52.29900 21.05200
H  23.00900 50.73200 20.17100
H  20.85900 53.23700 23.72400
H  21.24300 54.80500 24.23000
H  20.00700 53.89800 25.16400
H  22.07400 52.24800 29.85300
H  23.12700 54.93100 32.45500
H  21.37800 55.41300 33.02500
H  22.26800 56.30600 31.90300
Mg -0.26100 43.52800 26.67500
C  2.09600 43.17500 29.31700
C  -2.67500 42.92300 28.88400
C  -2.36300 43.36200 24.13100
C  2.52500 43.96300 24.38600
N  -0.30700 43.20500 28.89500
C  0.74300 43.04700 29.78600
C  0.26000 42.98500 31.21600
C  -1.30300 42.73200 30.97200
C  -1.42800 42.99000 29.49600
C  -1.79500 41.37500 31.53700
C  0.77600 44.27100 32.01800
C  1.57400 44.04000 33.28500
H  1.11600 43.05000 34.35100
N  -2.26200 43.29300 26.47400
C  -3.13500 43.03900 27.54200
C  -4.51700 42.86700 27.04400
C  -4.44500 43.06300 25.62500
C  -3.03300 43.28100 25.32300
C  -5.70200 42.71600 28.01300
C  -5.60100 43.21100 24.62700
O  -5.36900 43.57000 23.48400
C  -7.02700 43.10700 25.03200
N  0.03400 43.76500 24.57100
C  -0.99800 43.54900 23.71000
C  -0.54700 43.39300 22.29300
C  0.96200 43.74700 22.35000
C  1.21600 43.88500 23.86000
C  -0.74800 41.90000 21.79700
C  1.24400 45.18300 21.67300
C  2.61900 45.37800 21.05400
N  1.84900 43.68600 26.79000
C  2.82500 43.90500 25.78300
C  4.17900 43.80700 26.38800
C  3.94000 43.57400 27.76200
C  2.51500 43.44800 27.94400
C  5.56700 44.01200 25.76500
C  4.58500 43.37600 29.09000
O  5.75300 43.39000 29.48200
C  3.35700 43.10800 30.02200
C  3.56400 41.87200 30.85000
O  3.35800 40.73800 30.46800
O  4.17400 42.25600 31.95100
C  4.78400 41.15400 32.80700
H  -3.50300 42.74200 29.57300
H  -2.90600 43.17200 23.20300
H  3.25000 44.14300 23.59000
H  0.58500 42.10900 31.77700
H  -1.74300 43.49300 31.61700
H  -2.80800 41.37800 31.93800
H  -1.13800 41.00100 32.32300
H  -1.65600 40.67300 30.71400
H  -0.06300 44.89800 32.31800
H  1.36100 44.93900 31.38700
H  1.63700 45.03100 33.73300
H  2.61300 43.87000 33.00400
H  -6.48200 42.19200 27.46100
H  -6.04600 43.67800 28.39200
H  -5.38400 42.08500 28.84300
H  -7.23800 42.06900 25.28700
H  -7.70600 43.34300 24.21300
H  -7.38600 43.82400 25.77000
H  -0.95700 44.16000 21.63500
H  1.53400 42.99000 21.81400
H  0.13400 41.34000 21.48700
H  -1.35700 42.14000 20.92500
H  -1.43100 41.25500 22.35000
H  1.05600 45.87000 22.49800
H  0.41300 45.33800 20.98600
H  2.45600 45.37300 19.97700
H  3.28700 44.54100 21.25800
H  2.95300 46.38700 21.29700
H  5.56400 44.71100 24.92900
H  5.94300 43.08400 25.33500
H  6.34900 44.26700 26.48000
H  3.41600 43.90400 30.76400
H  5.20800 40.32900 32.23500
H  3.94300 40.66400 33.29800
H  5.55400 41.52400 33.48400

