158

Mg 24.35800 -4.77600 45.83600
C  26.69600 -2.61400 44.34800
C  21.94900 -3.63400 43.73200
C  22.41600 -7.38900 47.01300
C  26.92700 -5.98000 47.87600
N  24.39000 -3.36300 44.20500
C  25.41100 -2.56300 43.74300
C  24.99700 -1.75200 42.52500
C  23.48200 -1.75400 42.67000
C  23.20000 -2.99000 43.60400
C  22.83000 -0.49200 43.28700
C  25.66700 -2.24600 41.23600
C  26.23500 -1.13000 40.31900
H  25.74400 -1.20400 38.78800
N  22.46500 -5.48800 45.41900
C  21.60600 -4.81000 44.51000
C  20.36000 -5.48600 44.46600
C  20.42700 -6.56000 45.37900
C  21.79300 -6.52900 46.01000
C  19.29900 -4.86400 43.57600
C  19.24000 -7.50700 45.76500
O  18.15700 -7.39200 45.20900
C  19.31500 -8.55900 46.88500
N  24.68300 -6.53600 47.11500
C  23.65300 -7.35400 47.58400
C  24.17300 -8.43800 48.54300
C  25.55000 -7.87900 48.93300
C  25.70400 -6.69700 47.98100
C  23.23300 -8.82600 49.75800
C  26.68600 -8.93800 48.76600
C  27.47000 -9.33000 50.07200
N  26.37400 -4.35500 46.16200
C  27.33200 -4.96900 47.03200
C  28.58000 -4.29900 46.75200
C  28.36900 -3.37500 45.75000
C  27.02800 -3.42700 45.40500
C  29.89900 -4.79300 47.43900
C  29.04600 -2.42100 44.87300
O  30.22600 -2.07000 44.75200
C  27.95300 -1.91900 43.88100
C  27.90500 -0.41700 43.79000
O  27.46400 0.34000 44.63400
O  28.48800 0.00700 42.59600
C  28.24700 1.43500 42.31100
H  21.15900 -3.20100 43.11500
H  21.77100 -8.21400 47.32300
H  27.85200 -6.32500 48.34300
H  25.24600 -0.69200 42.55400
H  23.11600 -1.89800 41.65400
H  21.85200 -0.80900 43.65100
H  22.44100 0.14700 42.49300
H  23.42700 0.04600 44.02300
H  24.85400 -2.76600 40.72900
H  26.38700 -2.98900 41.58000
H  27.32200 -1.19500 40.29100
H  26.13600 -0.09300 40.64000
H  18.45800 -5.54400 43.44300
H  19.79000 -4.63600 42.63000
H  19.04000 -3.91600 44.04900
H  18.35200 -9.02200 47.09600
H  19.57900 -8.07000 47.82300
H  19.99200 -9.38600 46.66900
H  24.34800 -9.34700 47.96700
H  25.48800 -7.50200 49.95400
H  23.21300 -9.91100 49.86500
H  22.20600 -8.56100 49.50600
H  23.44700 -8.37600 50.72800
H  27.51500 -8.44000 48.26400
H  26.40200 -9.79500 48.15500
H  27.05200 -10.29200 50.37100
H  27.21000 -8.64900 50.88200
H  28.54800 -9.32300 49.91200
H  30.20200 -5.73500 46.98200
H  29.87600 -4.99500 48.51000
H  30.72200 -4.15400 47.11900
H  28.27700 -2.37300 42.94500
H  27.29300 1.83800 42.65100
H  28.29400 1.68100 41.25000
H  29.05400 2.04900 42.71100
Mg 16.95500 51.73400 26.37200
C  18.92500 50.58100 29.08400
C  14.59100 52.49800 28.61700
C  15.38600 52.84700 23.88000
C  19.37400 50.20400 24.19700
N  16.85800 51.62400 28.58600
C  17.67800 51.02100 29.43100
C  17.06800 50.85300 30.85100
C  15.52900 51.12900 30.61300
C  15.62200 51.75100 29.18900
C  14.64100 49.88600 30.60700
C  17.69800 51.76400 31.91400
C  18.00400 51.23300 33.36400
H  17.13000 51.94900 34.34700
N  15.17100 52.63000 26.29900
C  14.38300 53.05300 27.30800
C  13.45700 54.01300 26.81700
C  13.65000 54.15900 25.44400
C  14.73600 53.15700 25.12300
C  12.43100 54.67500 27.74800
C  12.90700 55.05900 24.46600
O  13.25300 55.05900 23.29100
C  11.92600 55.98700 24.91700
N  17.18100 51.38800 24.32400
C  16.36800 51.93900 23.48600
C  16.76100 51.76500 22.01700
C  18.19700 51.09800 22.11800
C  18.27200 50.87400 23.60800
C  15.84500 51.09900 20.99500
C  19.35700 51.82700 21.53700
C  20.27800 51.20600 20.40600
N  18.77700 50.64000 26.56900
C  19.59700 50.04700 25.58800
C  20.74000 49.39700 26.24700
C  20.57000 49.60000 27.58200
C  19.27800 50.29900 27.75000
C  21.96000 48.72600 25.66100
C  21.12500 49.40700 28.87000
O  22.27500 49.04000 29.19800
C  20.05800 49.98100 29.89100
C  19.74300 48.70500 30.57200
O  19.12700 47.75900 30.14500
O  20.29000 48.76000 31.83800
C  20.10800 47.51800 32.58700
H  13.66300 52.54100 29.19100
H  14.90000 53.30600 23.01600
H  20.18500 49.89700 23.53300
H  17.18100 49.84500 31.25000
H  15.13200 51.79000 31.38300
H  14.92000 49.15300 29.85000
H  13.65000 50.23500 30.31500
H  14.61000 49.56000 31.64700
H  16.99500 52.58200 32.06900
H  18.51500 52.34500 31.48600
H  19.07800 51.33400 33.51800
H  17.82700 50.16600 33.23100
H  12.66900 55.72800 27.59800
H  12.35900 54.23100 28.74100
H  11.40000 54.56500 27.41400
H  11.21400 55.40300 25.50000
H  11.46200 56.26000 23.96900
H  12.31300 56.84500 25.46600
H  16.79400 52.80700 21.69900
H  18.08800 50.11200 21.66600
H  16.42200 50.41800 20.37000
H  15.13000 51.77500 20.52300
H  15.26600 50.40800 21.60800
H  20.00800 52.12100 22.36100
H  18.90900 52.69900 21.06100
H  21.31700 51.43300 20.64200
H  19.99900 51.65300 19.45200
H  20.19000 50.12900 20.26200
H  22.64600 48.28000 26.38200
H  22.44900 49.44100 25.00000
H  21.60800 47.87000 25.08600
H  20.40200 50.70000 30.63500
H  20.70800 47.75000 33.46700
H  20.35800 46.66900 31.95100
H  19.03400 47.48100 32.76700

