158

Mg -12.63100 15.65600 42.75400
C  -9.26900 14.75500 42.13400
C  -12.14800 18.40400 40.64700
C  -15.96600 16.09700 42.57100
C  -13.15400 12.40100 43.97200
N  -10.90600 16.40800 41.24700
C  -9.58400 15.96200 41.41600
C  -8.63900 16.85000 40.62800
C  -9.62200 18.00300 40.14400
C  -11.01000 17.58800 40.63800
C  -9.24300 19.52400 40.49700
C  -7.80400 16.22000 39.49400
C  -6.32200 16.61700 39.48800
H  -5.91300 17.32200 38.21700
N  -13.84100 17.12000 41.84200
C  -13.42200 18.19600 41.14800
C  -14.60900 19.00900 40.81400
C  -15.74200 18.36900 41.41300
C  -15.19400 17.12100 41.94400
C  -14.49900 20.36800 40.29200
C  -17.16300 18.93200 41.58300
O  -17.40900 20.05000 41.16000
C  -18.26900 18.18800 42.23200
N  -14.27200 14.43000 43.25500
C  -15.51800 14.89000 43.20400
C  -16.53300 13.98800 43.87700
C  -15.67200 12.72600 44.05600
C  -14.22500 13.21500 43.77200
C  -17.16700 14.66700 45.16000
C  -16.15200 11.50300 43.09100
C  -16.88900 10.42900 43.84700
N  -11.52700 13.94000 43.08000
C  -11.84300 12.70700 43.56100
C  -10.64400 11.87800 43.65700
C  -9.61800 12.65500 43.20100
C  -10.19200 13.93200 42.79400
C  -10.53400 10.49500 44.27100
C  -8.15800 12.63400 42.97300
O  -7.35400 11.76500 43.19900
C  -7.90200 13.99400 42.24500
C  -6.88200 14.79600 42.95700
O  -7.04100 15.44900 43.96400
O  -5.63400 14.68800 42.26100
C  -4.60600 15.66600 42.84600
H  -11.91400 19.34200 40.14000
H  -17.04500 16.14600 42.73200
H  -13.45400 11.44900 44.41600
H  -7.94700 17.29200 41.34500
H  -9.72200 17.92200 39.06200
H  -8.16000 19.51100 40.61600
H  -9.73900 19.81800 41.42200
H  -9.38700 20.33200 39.77900
H  -8.25300 16.36900 38.51200
H  -7.92500 15.14800 39.65400
H  -5.80100 15.69000 39.72800
H  -6.10700 17.32700 40.28700
H  -15.29400 21.04300 40.61000
H  -14.52800 20.36600 39.20300
H  -13.62900 20.80100 40.78600
H  -18.50000 17.21400 41.80000
H  -19.17500 18.79400 42.23100
H  -17.99800 17.97100 43.26500
H  -17.32300 13.71300 43.17800
H  -15.64800 12.26000 45.04100
H  -16.65000 15.62300 45.23800
H  -16.88000 14.13800 46.06900
H  -18.25500 14.63900 45.10500
H  -15.25500 11.04700 42.67400
H  -16.75400 11.87600 42.26200
H  -17.04900 10.62200 44.90800
H  -16.31600 9.50200 43.81100
H  -17.83800 10.33500 43.32000
H  -11.47800 9.98300 44.08100
H  -10.40100 10.61400 45.34600
H  -9.67600 9.97800 43.84000
H  -7.45700 13.84400 41.26200
H  -3.64400 15.15800 42.77000
H  -4.75700 15.82700 43.91300
H  -4.61800 16.59600 42.27600
Mg -5.44200 25.60600 26.31200
C  -4.54100 27.17500 29.26600
C  -7.48300 23.50200 28.17100
C  -6.17300 23.91500 23.45500
C  -3.37900 27.82400 24.52900
N  -5.89400 25.32200 28.46400
C  -5.38700 26.06400 29.46900
C  -6.01700 25.69700 30.79500
C  -6.61800 24.26500 30.43400
C  -6.76300 24.40800 28.95900
C  -5.74100 22.99600 30.78500
C  -7.08600 26.76500 31.28500
C  -6.90400 27.24800 32.76900
H  -6.45000 26.18800 33.87000
N  -6.64900 23.87000 25.92800
C  -7.47200 23.19600 26.80000
C  -8.31600 22.25900 26.05600
C  -7.79000 22.18600 24.72000
C  -6.85400 23.39000 24.66100
C  -9.40100 21.42900 26.77900
C  -8.00700 21.21800 23.70100
O  -7.49300 21.40700 22.58800
C  -8.73900 19.95700 24.02300
N  -4.84400 25.86900 24.24200
C  -5.26600 24.96500 23.32200
C  -4.63700 25.39900 21.99200
C  -3.94600 26.82200 22.29300
C  -4.03900 26.87300 23.76100
C  -3.80900 24.33300 21.18500
C  -4.66600 28.03900 21.58200
C  -4.02400 28.41400 20.27200
N  -4.20400 27.16100 26.73600
C  -3.41800 27.99200 25.89600
C  -2.67700 28.91900 26.69600
C  -3.19100 28.68500 28.00800
C  -4.02500 27.58600 27.97200
C  -1.65800 29.85800 26.13500
C  -3.07400 29.16700 29.39700
O  -2.42600 30.07900 29.92400
C  -3.95400 28.12900 30.25400
C  -3.12700 27.43500 31.30700
O  -2.13600 26.69800 31.10700
O  -3.54300 27.85300 32.57600
C  -2.78600 27.27700 33.72600
H  -8.09000 22.82000 28.77100
H  -6.31100 23.39200 22.50700
H  -2.73200 28.52500 23.99800
H  -5.20400 25.63800 31.51900
H  -7.64400 24.05600 30.73700
H  -5.62000 22.33600 29.92600
H  -6.21000 22.35500 31.53200
H  -4.76800 23.33400 31.14100
H  -8.08400 26.37300 31.09100
H  -6.96600 27.63800 30.64300
H  -7.89400 27.55800 33.10300
H  -6.20300 28.07900 32.84300
H  -10.16700 21.31800 26.01200
H  -9.86700 21.93000 27.62700
H  -9.05300 20.44300 27.08700
H  -8.48600 19.64500 25.03700
H  -8.46200 19.14900 23.34600
H  -9.80100 20.10300 23.82300
H  -5.53400 25.52600 21.38500
H  -2.90600 26.64900 22.01600
H  -3.93600 23.33200 21.59700
H  -2.73900 24.53900 21.15700
H  -4.06400 24.32500 20.12500
H  -4.47200 28.96200 22.12900
H  -5.72100 27.77100 21.52500
H  -3.29800 29.22300 20.35600
H  -4.76500 28.66600 19.51400
H  -3.42300 27.61700 19.83400
H  -1.44100 29.66000 25.08600
H  -0.69500 30.06000 26.60400
H  -2.10000 30.83900 26.31000
H  -4.83400 28.51700 30.76700
H  -2.46300 26.24800 33.57400
H  -3.49200 27.32100 34.55400
H  -1.86500 27.83800 33.88600

