158

Mg 23.96100 -4.69200 46.18400
C  25.81900 -2.24200 44.51800
C  21.38700 -4.07000 43.82800
C  22.40500 -7.67300 46.97400
C  26.77100 -5.65000 47.86700
N  23.73900 -3.35300 44.34900
C  24.58000 -2.38800 43.90300
C  24.15000 -1.58700 42.71200
C  22.54300 -1.91500 42.82300
C  22.49300 -3.18100 43.70700
C  21.60500 -0.80500 43.43000
C  24.79900 -2.07900 41.45300
C  25.55600 -1.04000 40.58100
H  25.01100 -0.87200 39.13300
N  22.17000 -5.65400 45.63800
C  21.26900 -5.23100 44.73400
C  20.10700 -6.03400 44.78700
C  20.26700 -7.08600 45.71600
C  21.67100 -6.85000 46.15100
C  18.89000 -5.70300 43.92200
C  19.31200 -8.14800 46.09400
O  18.23000 -8.15100 45.55500
C  19.64200 -9.22000 47.17500
N  24.53700 -6.45800 47.36900
C  23.64900 -7.47800 47.58100
C  24.38600 -8.59700 48.33400
C  25.78300 -7.98700 48.58100
C  25.70000 -6.60400 47.98000
C  23.65000 -9.12800 49.72200
C  26.99600 -8.79600 47.91400
C  28.18800 -8.96200 48.85100
N  25.88700 -3.97400 46.44100
C  26.90900 -4.43000 47.22600
C  28.02300 -3.49500 47.13200
C  27.62700 -2.64300 46.13100
C  26.27700 -2.97000 45.69100
C  29.36500 -3.65600 47.74800
C  28.01800 -1.50300 45.38800
O  29.05200 -0.86900 45.47600
C  26.87300 -1.26800 44.21500
C  26.51500 0.11600 44.21100
O  25.84100 0.63100 45.09600
O  27.09600 0.73600 43.13200
C  27.29400 2.15800 43.33700
H  20.45400 -3.89900 43.28800
H  22.03800 -8.69300 47.10700
H  27.63500 -5.94100 48.46700
H  24.25500 -0.51300 42.86500
H  22.15000 -2.07200 41.81800
H  22.30900 -0.08600 43.85000
H  21.08800 -1.27700 44.26500
H  20.97300 -0.32700 42.68100
H  24.02600 -2.42100 40.76500
H  25.49800 -2.89300 41.64600
H  26.58800 -1.38700 40.54700
H  25.58500 -0.09000 41.11300
H  19.18300 -5.39700 42.91800
H  18.46100 -4.80200 44.36000
H  18.13100 -6.48500 43.96900
H  20.39000 -9.93100 46.82300
H  18.74500 -9.82900 47.28300
H  19.77500 -8.71900 48.13400
H  24.44300 -9.43300 47.63700
H  26.01500 -7.81400 49.63200
H  23.77000 -10.21200 49.73000
H  22.62600 -8.75500 49.72700
H  24.06000 -8.87200 50.69900
H  27.47200 -8.40900 47.01200
H  26.68800 -9.80500 47.64200
H  28.02700 -9.84100 49.47500
H  28.30500 -8.04200 49.42400
H  29.13500 -8.95600 48.31200
H  29.58500 -4.66200 48.10500
H  29.48800 -2.91100 48.53300
H  30.06500 -3.38000 46.96000
H  27.29400 -1.49300 43.23500
H  28.03200 2.51100 42.61600
H  27.53800 2.43400 44.36300
H  26.39600 2.70100 43.04500
Mg 1.12300 42.07900 26.31800
C  2.72300 41.91800 29.38000
C  -1.76100 41.01600 27.63900
C  -0.14400 41.63200 23.14300
C  4.20000 43.28600 24.88500
N  0.62400 41.37000 28.25600
C  1.37900 41.54700 29.39800
C  0.47300 41.34100 30.62200
C  -0.98800 41.07800 30.05000
C  -0.72500 41.24200 28.54200
C  -1.61600 39.72000 30.54300
C  0.50100 42.49300 31.65400
C  0.94000 42.25500 33.10800
H  -0.07700 42.47700 34.28100
N  -0.66900 41.40500 25.60200
C  -1.74500 40.88600 26.28700
C  -2.75700 40.55100 25.34300
C  -2.31400 40.80000 24.05900
C  -0.94000 41.24600 24.19700
C  -4.06800 39.99000 25.82500
C  -3.09000 40.78600 22.69900
O  -2.65100 40.90000 21.57800
C  -4.65500 40.59900 22.78300
N  1.83300 42.40100 24.35700
C  1.13800 42.12600 23.19700
C  2.00100 42.55400 21.91900
C  3.31200 43.17000 22.64100
C  3.05600 42.96400 24.09100
C  2.28300 41.44300 20.82900
C  3.60600 44.61900 22.11000
C  3.56400 44.87000 20.58900
N  3.03200 42.49300 26.93700
C  4.14700 42.93200 26.24700
C  5.28400 43.00200 27.14800
C  4.71900 42.68100 28.36100
C  3.41100 42.26300 28.18600
C  6.62400 43.48100 26.91900
C  5.04000 42.50600 29.78700
O  6.14000 42.76700 30.33700
C  3.75100 42.03300 30.54000
C  4.00800 40.76000 31.26600
O  4.43000 39.69700 30.86000
O  3.94000 41.06800 32.56100
C  3.86200 39.90100 33.48500
H  -2.64800 40.81500 28.24400
H  -0.48100 41.41200 22.12800
H  5.12500 43.59500 24.39400
H  0.88500 40.42400 31.04200
H  -1.66200 41.88900 30.32700
H  -1.17200 39.37600 31.47700
H  -1.39000 38.93900 29.81700
H  -2.70000 39.76100 30.64200
H  -0.43100 43.05500 31.71000
H  1.14800 43.32000 31.36200
H  1.65300 43.04800 33.33300
H  1.34100 41.24300 33.17500
H  -4.67000 39.52700 25.04400
H  -4.67700 40.81400 26.19700
H  -3.95200 39.20900 26.57700
H  -5.05400 41.20600 23.59600
H  -4.89400 39.54100 22.89100
H  -5.10300 41.01100 21.87900
H  1.38000 43.36900 21.54700
H  4.25000 42.65500 22.43200
H  2.18000 40.39100 21.09400
H  3.23100 41.62700 20.32300
H  1.49600 41.49300 20.07700
H  4.63500 44.83300 22.40100
H  2.98000 45.27100 22.71900
H  4.28300 44.23600 20.07000
H  4.00900 45.82600 20.31400
H  2.57900 44.87300 20.12200
H  6.58000 44.56800 26.98200
H  6.89600 43.18500 25.90600
H  7.21900 43.05200 27.72500
H  3.48600 42.79400 31.27500
H  3.22900 40.35900 34.24500
H  4.81100 39.74700 33.99900
H  3.30800 39.04600 33.09800

