158

Mg 40.42400 10.08300 29.94100
C  42.59400 11.26500 32.44500
C  38.38800 8.72900 32.27300
C  38.42900 8.90400 27.53600
C  42.72400 11.05300 27.57900
N  40.48600 10.09500 32.10800
C  41.47200 10.60300 32.93600
C  41.03200 10.44300 34.42500
C  39.69300 9.56000 34.36800
C  39.56600 9.39900 32.84700
C  39.80600 8.16900 35.09100
C  40.84500 11.79400 35.04200
C  40.22000 11.97300 36.42200
H  40.89500 12.89300 37.42100
N  38.65300 8.88000 29.87600
C  37.94000 8.48200 30.98100
C  36.76700 7.70200 30.59100
C  36.75300 7.83000 29.22600
C  37.97700 8.55600 28.77900
C  35.70700 7.08500 31.62200
C  35.77000 7.23500 28.20700
O  35.82100 7.34600 27.01400
C  34.51800 6.50700 28.68800
N  40.63500 9.79600 27.77700
C  39.58600 9.47100 26.99100
C  39.83100 9.74500 25.51900
C  41.21400 10.60000 25.55200
C  41.63500 10.45500 27.08100
C  39.89700 8.43700 24.66900
C  41.10800 12.05000 25.12300
C  40.00500 12.89300 25.74100
N  42.35400 10.81400 29.98000
C  43.12500 11.21900 28.93000
C  44.29900 11.77000 29.39900
C  44.11500 11.87900 30.81700
C  42.93500 11.23100 31.08300
C  45.37900 12.29000 28.58200
C  44.62700 12.48300 31.98800
O  45.66000 13.12000 32.13300
C  43.70800 12.01800 33.19000
C  44.45500 11.11400 34.17800
O  44.93500 10.03800 33.94800
O  44.47700 11.75100 35.35700
C  45.09200 11.18400 36.52700
H  37.63000 8.33500 32.95400
H  37.69000 8.58900 26.79600
H  43.29800 11.66200 26.87700
H  41.79600 9.87100 34.95100
H  38.78200 10.05300 34.70600
H  39.32800 7.37900 34.51200
H  39.25600 8.35900 36.01200
H  40.85000 8.13400 35.40200
H  40.34000 12.40700 34.29500
H  41.84200 12.22800 35.12000
H  40.30900 11.03400 36.97000
H  39.17500 12.26100 36.30700
H  36.14500 7.11900 32.62000
H  35.37900 6.06700 31.41300
H  34.82900 7.72900 31.57000
H  34.57600 5.66600 29.37800
H  33.91500 6.26300 27.81400
H  34.05200 7.37200 29.16100
H  38.99900 10.37200 25.19900
H  41.99600 10.13100 24.95500
H  39.50500 8.59200 23.66300
H  39.38600 7.59500 25.13600
H  40.93400 8.10200 24.64900
H  40.75200 12.10800 24.09500
H  42.07700 12.52500 25.27800
H  40.49800 13.64100 26.36200
H  39.22600 12.39700 26.31900
H  39.41800 13.46900 25.02500
H  44.96200 13.13800 28.03900
H  45.57700 11.55600 27.80100
H  46.32200 12.60500 29.02800
H  43.33700 12.95600 33.60500
H  45.53900 11.94000 37.17300
H  45.93600 10.59800 36.16300
H  44.44800 10.46700 37.03600
Mg -1.82200 34.26600 26.53800
C  -3.50600 32.60300 29.18600
C  -0.27800 36.30700 28.84600
C  -0.59800 36.15900 23.96800
C  -3.62300 32.46500 24.20600
N  -1.80800 34.39800 28.75300
C  -2.58600 33.61700 29.67100
C  -2.30400 33.95300 31.10500
C  -1.27300 35.25700 31.01800
C  -1.07500 35.36800 29.47400
C  -1.63600 36.49200 31.86200
C  -1.73800 32.69700 31.79400
C  -2.53900 32.10700 32.95500
H  -1.80400 31.91000 34.31800
N  -0.51300 35.89300 26.46000
C  0.00700 36.58900 27.54000
C  0.90600 37.55200 27.03500
C  0.70700 37.57700 25.59600
C  -0.13900 36.48900 25.28200
C  1.70800 38.50400 27.99800
C  1.30200 38.54500 24.55100
O  1.17500 38.58200 23.34200
C  2.26100 39.66200 25.08200
N  -2.22600 34.44400 24.39600
C  -1.53400 35.24100 23.54900
C  -1.81400 35.03400 22.00100
C  -2.75500 33.78400 22.14600
C  -2.90800 33.58000 23.65400
C  -2.45000 36.22600 21.33500
C  -2.19500 32.54500 21.30400
C  -0.99600 31.94100 21.92100
N  -3.25000 32.83600 26.65000
C  -3.87500 32.15300 25.64000
C  -4.83900 31.23900 26.14300
C  -4.75700 31.36300 27.54000
C  -3.76500 32.34400 27.76600
C  -5.58300 30.17500 25.35200
C  -5.23700 30.79300 28.77600
O  -6.07800 29.93900 28.96500
C  -4.47900 31.59500 29.93200
C  -5.46100 32.22300 30.85400
O  -6.15300 33.20500 30.55600
O  -5.59800 31.60000 32.06500
C  -6.69300 32.12600 32.87300
H  0.12100 36.90400 29.66800
H  -0.14500 36.69900 23.13400
H  -4.08600 31.77000 23.50200
H  -3.31300 34.14900 31.46900
H  -0.32300 34.95200 31.45600
H  -1.59600 37.42700 31.30400
H  -1.00700 36.57300 32.75000
H  -2.68500 36.33500 32.11300
H  -0.72800 32.97900 32.09300
H  -1.74000 31.88000 31.07200
H  -2.94200 31.12500 32.71100
H  -3.40700 32.73700 33.15200
H  1.31800 38.55000 29.01400
H  1.75700 39.51000 27.58000
H  2.75200 38.26500 28.20400
H  2.62200 40.34800 24.31500
H  3.12400 39.29900 25.64100
H  1.77100 40.33300 25.78700
H  -0.86000 34.75000 21.55800
H  -3.76500 34.00000 21.79800
H  -2.19400 36.22100 20.27600
H  -2.21000 37.07200 21.97900
H  -3.52600 36.07500 21.42100
H  -2.02800 32.87000 20.27800
H  -2.91300 31.73600 21.16800
H  -1.20600 30.88800 22.10800
H  -0.74500 32.25700 22.93400
H  -0.15500 32.01300 21.23100
H  -4.81900 29.63000 24.79800
H  -6.37100 30.66100 24.77700
H  -6.04700 29.47600 26.04800
H  -3.81600 30.89200 30.43500
H  -7.54700 32.44000 32.27300
H  -6.32900 33.05700 33.30700
H  -6.98600 31.47500 33.69600

