158

Mg 26.53100 0.27900 29.72000
C  28.41900 0.09500 32.61300
C  23.68700 0.78500 31.69700
C  24.70500 0.50900 26.88500
C  29.41100 -0.36400 27.79000
N  26.12400 0.10700 31.95400
C  27.08200 0.29200 32.93400
C  26.54800 0.83400 34.29000
C  25.00800 0.90600 34.03200
C  24.91000 0.63700 32.43000
C  24.28300 -0.22900 34.91100
C  27.31200 2.17300 34.76900
C  27.97000 2.09800 36.12100
H  27.57800 3.19200 37.20000
N  24.44300 0.60200 29.40100
C  23.48600 0.70000 30.33000
C  22.24100 0.89500 29.67400
C  22.42600 0.74300 28.24600
C  23.95500 0.61600 28.09800
C  20.99000 1.18500 30.47400
C  21.50500 0.74100 27.09600
O  21.90300 0.61000 25.93900
C  20.00300 0.98400 27.25100
N  26.89200 0.04100 27.62800
C  26.03400 0.30800 26.63400
C  26.67800 0.40200 25.26700
C  28.16800 0.05900 25.56100
C  28.16700 -0.13600 27.11700
C  26.01000 -0.58900 24.27000
C  29.17700 1.15700 25.13500
C  28.71500 2.04200 23.89600
N  28.46600 -0.19100 30.06400
C  29.52400 -0.35800 29.19300
C  30.73200 -0.62800 29.97400
C  30.33200 -0.43200 31.28300
C  28.96700 -0.15100 31.33000
C  32.12300 -1.02500 29.47600
C  30.76000 -0.45400 32.62000
O  31.83500 -0.84200 33.07200
C  29.56100 -0.03000 33.52300
C  29.43600 -1.15000 34.52300
O  28.86400 -2.24400 34.32700
O  30.01200 -0.81800 35.72200
C  29.95300 -1.78000 36.83200
H  22.85200 1.06100 32.34400
H  24.23000 0.78300 25.94000
H  30.30300 -0.52300 27.18100
H  26.73300 0.07900 35.05400
H  24.59800 1.91000 34.14900
H  23.91600 -1.03100 34.27100
H  23.48600 0.22600 35.49800
H  24.93200 -0.72400 35.63400
H  26.45400 2.82700 34.92600
H  27.91000 2.62500 33.97800
H  28.97300 2.43200 35.85700
H  28.03900 1.12500 36.60800
H  20.37700 0.29500 30.33200
H  20.44000 2.07400 30.16500
H  21.16100 1.36200 31.53600
H  19.66200 0.25700 27.98900
H  19.52200 0.74100 26.30400
H  19.89000 2.04700 27.46100
H  26.34700 1.34900 24.84000
H  28.43200 -0.89400 25.10200
H  25.30700 -1.20100 24.83500
H  26.63600 -1.28700 23.71300
H  25.40400 -0.04300 23.54700
H  30.06900 0.60700 24.83400
H  29.49400 1.74000 26.00000
H  27.85000 1.61500 23.38900
H  29.56400 2.20100 23.23100
H  28.43200 3.01200 24.30500
H  32.07300 -1.74000 28.65500
H  32.72000 -1.42900 30.29400
H  32.55800 -0.15700 28.98100
H  29.81900 0.91500 34.00000
H  30.89800 -1.64200 37.35700
H  29.77000 -2.82200 36.57200
H  29.20200 -1.44900 37.54900
Mg -2.53500 34.91200 27.01900
C  -3.95600 32.60300 29.27000
C  -1.17700 36.53700 29.81400
C  -1.65900 37.47000 25.12300
C  -4.84400 33.76200 24.65400
N  -2.48800 34.56600 29.24400
C  -3.12400 33.49900 29.93800
C  -2.82700 33.52200 31.42500
C  -2.12500 34.89700 31.53700
C  -1.92900 35.40000 30.12500
C  -2.82200 35.88800 32.44300
C  -1.89400 32.34600 31.86600
C  -2.30400 31.41800 32.98600
H  -1.73400 31.68100 34.46300
N  -1.41300 36.62800 27.35100
C  -0.83500 37.06900 28.56900
C  -0.04700 38.24400 28.23900
C  -0.09500 38.38100 26.84400
C  -1.05400 37.50800 26.38900
C  0.78700 39.02000 29.21500
C  0.67400 39.34000 25.89200
O  0.55800 39.33200 24.67800
C  1.69400 40.27900 26.41400
N  -3.15200 35.52700 25.16000
C  -2.62300 36.59500 24.58700
C  -3.26700 36.84700 23.18800
C  -4.23000 35.58300 23.01400
C  -4.06600 34.85500 24.34500
C  -4.08400 38.17500 23.12800
C  -4.03800 34.73700 21.70600
C  -2.57100 34.16500 21.65700
N  -3.96800 33.41800 26.91300
C  -4.83200 33.06600 25.88700
C  -5.52700 31.83400 26.27400
C  -5.29500 31.72400 27.62100
C  -4.34800 32.68000 27.94100
C  -6.44200 31.12000 25.45600
C  -5.62100 30.97300 28.76400
O  -6.27500 29.90700 28.89900
C  -4.91000 31.67900 29.98600
C  -5.82900 32.34500 30.84000
O  -6.67900 33.20900 30.47700
O  -5.68200 31.98200 32.17800
C  -6.42400 32.84400 33.10500
H  -0.82400 37.10300 30.67800
H  -1.55700 38.46300 24.68000
H  -5.47600 33.26100 23.91700
H  -3.75900 33.62700 31.98100
H  -1.12700 34.84000 31.97300
H  -3.86500 35.57100 32.44000
H  -2.89100 36.87300 31.97900
H  -2.45400 35.94600 33.46700
H  -0.90300 32.72600 32.11200
H  -1.70100 31.72600 30.98900
H  -1.98200 30.40300 32.75500
H  -3.37800 31.52800 33.13500
H  0.52400 40.06200 29.39600
H  1.82400 38.90100 28.89900
H  0.77800 38.56500 30.20500
H  2.19700 40.82600 25.61600
H  2.51000 39.68600 26.82800
H  1.33800 41.00200 27.14700
H  -2.47900 36.99300 22.44900
H  -5.31100 35.71900 23.04100
H  -5.14900 37.94700 23.12300
H  -3.91300 38.67200 22.17300
H  -3.91200 38.88400 23.93900
H  -4.19200 35.35100 20.81800
H  -4.78600 33.94700 21.77100
H  -2.55400 33.15500 22.06700
H  -1.87400 34.85200 22.13600
H  -2.22100 34.14900 20.62500
H  -6.08600 31.29700 24.44100
H  -7.42000 31.58000 25.59700
H  -6.48900 30.07900 25.77500
H  -4.41600 30.91000 30.57900
H  -7.26600 33.41100 32.70800
H  -5.76200 33.53400 33.62900
H  -6.82900 32.24500 33.92000

