158

Mg 43.95000 5.08700 46.82500
C  42.10900 7.99100 46.90900
C  41.20000 3.20100 46.65600
C  45.95200 2.35800 46.32000
C  46.91900 7.08300 46.99900
N  41.88500 5.59300 46.75800
C  41.34400 6.83500 46.79400
C  39.78600 6.74200 46.76800
C  39.48200 5.19800 46.75100
C  40.87000 4.59600 46.73400
C  38.49400 4.69700 47.86000
C  39.04000 7.62800 45.69300
C  39.74300 7.40300 44.25000
H  38.96200 6.74400 43.12800
N  43.61900 3.04500 46.49600
C  42.42100 2.41900 46.47700
C  42.56600 1.00900 46.21700
C  43.92200 0.74600 46.00600
C  44.56300 2.11500 46.21600
C  41.37600 0.01200 46.02600
C  44.54000 -0.50800 45.45400
O  43.84600 -1.42700 45.22200
C  45.91700 -0.72100 45.15900
N  46.12900 4.77200 46.76000
C  46.61100 3.56300 46.49700
C  48.17600 3.61100 46.43000
C  48.48000 5.00300 47.01800
C  47.10500 5.68000 46.93700
C  48.92000 2.48900 47.03000
C  49.64700 5.77300 46.23300
C  50.93400 6.10400 46.98900
N  44.43900 7.09800 46.74000
C  45.67400 7.76100 46.92100
C  45.51500 9.16700 47.11700
C  44.12600 9.32400 47.15300
C  43.50300 8.07600 46.83700
C  46.64000 10.20500 47.33600
C  43.01300 10.26300 47.35300
O  42.98000 11.47000 47.59800
C  41.72500 9.42800 47.10100
C  40.83700 9.56400 48.23100
O  40.89700 8.98500 49.31300
O  39.95000 10.55800 47.96200
C  38.99100 10.99700 48.96200
H  40.26600 2.63600 46.63200
H  46.36800 1.36800 46.11900
H  47.83600 7.64500 47.18500
H  39.48700 7.14000 47.73700
H  39.22000 4.80100 45.77000
H  37.51200 4.53500 47.41600
H  38.40400 5.48700 48.60600
H  38.84600 3.87400 48.48200
H  39.02500 8.65100 46.07100
H  38.05100 7.17300 45.73200
H  40.78400 7.08600 44.31100
H  39.86400 8.40200 43.83100
H  41.53800 -0.57600 45.12200
H  40.40000 0.49600 46.00700
H  41.44200 -0.79200 46.75900
H  46.06200 -1.72700 44.76600
H  46.44900 -0.58100 46.10000
H  46.26200 -0.00800 44.40900
H  48.39600 3.42600 45.37900
H  48.70400 4.99900 48.08400
H  48.28400 1.99300 47.76200
H  49.75800 2.91800 47.57900
H  49.20300 1.82700 46.21200
H  49.28000 6.66500 45.72500
H  49.78200 5.05800 45.42000
H  51.00000 7.19200 46.95600
H  51.71700 5.56800 46.45300
H  50.91800 5.75800 48.02200
H  46.37300 11.26100 47.28800
H  47.40500 10.08800 46.56900
H  47.09400 10.07900 48.31900
H  41.27400 10.01300 46.29900
H  38.05100 10.73100 48.47900
H  38.97800 12.07200 49.14600
H  39.07100 10.54000 49.94800
Mg 17.42100 51.88700 25.75700
C  19.06300 50.55000 28.48300
C  15.10300 53.11300 27.85600
C  15.75700 52.72400 23.11300
C  19.93500 50.40400 23.66900
N  17.06200 51.66400 27.90800
C  17.92100 51.21000 28.86600
C  17.40400 51.45900 30.29700
C  16.04100 52.20000 30.07600
C  16.09900 52.41100 28.50400
C  14.69900 51.46200 30.47800
C  18.36600 52.12100 31.39300
C  18.72000 51.37100 32.70300
H  17.82400 51.83100 33.85500
N  15.70600 52.91000 25.46300
C  14.94500 53.35500 26.46000
C  13.77400 54.09100 25.87300
C  13.93400 54.01100 24.47300
C  15.19700 53.25000 24.28900
C  12.77700 54.79300 26.79500
C  13.18800 54.57000 23.29800
O  13.59600 54.45600 22.17900
C  11.83600 55.25300 23.47900
N  17.75800 51.48800 23.65100
C  16.89200 52.07900 22.78100
C  17.33300 51.85200 21.27100
C  18.71300 51.06900 21.52000
C  18.82100 50.98300 23.01500
C  16.34800 50.93600 20.55800
C  19.98900 51.64500 20.80700
C  20.77100 52.91100 21.31300
N  19.18100 50.67600 25.96400
C  20.11200 50.19600 25.02300
C  21.10100 49.45800 25.71300
C  20.79200 49.54000 27.11100
C  19.56500 50.29500 27.15100
C  22.34900 48.76900 25.19100
C  21.21900 49.23300 28.40900
O  22.22600 48.59000 28.75000
C  20.09800 49.85700 29.37400
C  19.42700 48.69600 30.07100
O  18.53300 48.02900 29.66700
O  20.12900 48.45400 31.23800
C  19.49200 47.46300 32.16500
H  14.30300 53.56000 28.44900
H  15.38400 53.01300 22.12800
H  20.76500 50.02400 23.06900
H  17.16700 50.50900 30.77500
H  16.06100 53.24700 30.38100
H  14.08300 52.20500 30.98400
H  14.86800 50.56700 31.07600
H  14.27600 51.17200 29.51600
H  17.88500 53.06400 31.65100
H  19.39200 52.27800 31.06000
H  19.73500 51.48800 33.08300
H  18.46500 50.32800 32.51900
H  12.51800 55.70500 26.25700
H  13.19300 55.14400 27.73900
H  11.88200 54.20300 26.99200
H  11.08600 54.81500 22.81900
H  12.00200 56.29100 23.18800
H  11.45300 55.09800 24.48700
H  17.55600 52.82300 20.82900
H  18.56000 50.06300 21.13000
H  15.40400 50.96800 21.10100
H  16.69700 49.90300 20.53300
H  16.17700 51.19700 19.51400
H  19.73100 51.80600 19.76000
H  20.61500 50.75600 20.87400
H  20.74300 53.69900 20.56000
H  21.79600 52.54900 21.39500
H  20.40700 53.25400 22.28200
H  22.23700 47.72500 25.48300
H  23.21500 49.25800 25.63700
H  22.38700 48.80500 24.10200
H  20.52700 50.52700 30.11900
H  19.67800 46.49400 31.70200
H  18.41800 47.61100 32.27600
H  19.95600 47.42200 33.15000

