158

Mg 47.44900 44.40600 42.23300
C  44.09900 43.60900 43.13000
C  48.00500 40.96400 41.96300
C  50.40300 45.08000 40.71200
C  46.42500 47.75600 41.62700
N  46.21400 42.58800 42.63600
C  44.88300 42.45000 42.96700
C  44.36100 40.96500 42.88600
C  45.73900 40.17400 42.77600
C  46.77500 41.32700 42.49500
C  45.97400 39.14200 43.88600
C  43.31000 40.78800 41.76600
C  43.68900 41.28300 40.33200
H  43.25400 40.49400 39.08400
N  48.99100 43.21400 41.47200
C  49.03800 41.84100 41.54200
C  50.38900 41.41400 41.24400
C  51.07800 42.56200 40.80300
C  50.16600 43.72300 40.93800
C  50.96200 40.02700 41.40500
C  52.60900 42.51900 40.41500
O  53.32500 41.55400 40.40400
C  53.24700 43.73900 39.86800
N  48.30600 46.15700 41.22300
C  49.58700 46.20900 40.85000
C  50.10200 47.58300 40.77000
C  48.76800 48.38600 40.67300
C  47.70900 47.40700 41.14800
C  51.02700 47.83300 41.94600
C  48.39600 48.83600 39.28800
C  48.97200 50.24700 38.98500
N  45.75100 45.56100 42.61500
C  45.43800 46.91600 42.25100
C  44.14000 47.20900 42.72500
C  43.52400 45.93200 43.01100
C  44.55700 44.90600 42.88600
C  43.40700 48.49500 42.47100
C  42.27000 45.26300 43.37300
O  41.08100 45.63400 43.49300
C  42.60900 43.79400 43.39800
C  42.07100 43.28000 44.70000
O  42.31100 43.72400 45.80800
O  41.29200 42.13400 44.44700
C  41.03800 41.25700 45.56200
H  48.26100 39.90400 41.90300
H  51.36900 45.52400 40.46200
H  46.14000 48.80600 41.53800
H  43.90100 40.68800 43.83400
H  45.67000 39.68700 41.80300
H  46.17600 38.22600 43.33000
H  45.05900 38.92300 44.43700
H  46.75200 39.48700 44.56800
H  42.38800 41.29300 42.05500
H  43.18500 39.70600 41.77600
H  44.77300 41.17300 40.28000
H  43.51400 42.35300 40.22200
H  50.36800 39.29800 41.95500
H  51.97100 40.01300 41.81800
H  51.20800 39.54200 40.46100
H  52.55900 44.31800 39.25100
H  54.13500 43.52900 39.27100
H  53.51500 44.39300 40.69800
H  50.72600 47.60100 39.87700
H  48.71600 49.21200 41.38100
H  50.62900 47.46100 42.89000
H  51.21400 48.90100 42.06500
H  51.99600 47.47500 41.59700
H  47.31800 48.91700 39.15100
H  48.88100 48.14200 38.60000
H  49.51700 50.14800 38.04600
H  49.51200 50.61600 39.85800
H  48.11400 50.89900 38.81900
H  43.72300 48.96800 41.54100
H  43.67600 49.15900 43.29200
H  42.32600 48.43100 42.59000
H  42.06500 43.30400 42.59100
H  41.87400 41.01600 46.21800
H  40.75500 40.36400 45.00500
H  40.13400 41.59400 46.06800
Mg -2.18900 35.32900 26.85700
C  -3.47800 33.16000 29.30300
C  -0.84400 37.13800 29.26200
C  -0.97800 37.12700 24.42300
C  -3.85200 33.20800 24.36300
N  -2.21300 35.11000 29.09300
C  -2.56000 34.10900 29.84900
C  -2.25700 34.29100 31.31900
C  -1.50500 35.69600 31.29300
C  -1.57900 36.04300 29.78500
C  -2.08500 36.84000 32.23600
C  -1.50000 33.02800 31.83200
C  -1.96700 32.47000 33.17100
H  -0.94800 32.23700 34.28500
N  -1.18900 36.93300 26.80900
C  -0.65000 37.57400 27.94400
C  0.30200 38.61800 27.53200
C  0.37100 38.54000 26.14300
C  -0.62200 37.49700 25.70700
C  1.12900 39.53900 28.52900
C  1.20500 39.32900 25.19200
O  1.26400 39.19700 23.99200
C  2.12800 40.33500 25.73800
N  -2.62400 35.32600 24.74300
C  -1.92600 36.17600 23.94800
C  -2.25300 35.93900 22.46400
C  -3.06500 34.70100 22.45700
C  -3.22900 34.40400 23.94700
C  -2.95700 37.06300 21.69100
C  -2.44100 33.48300 21.62900
C  -1.23900 32.73500 22.29600
N  -3.49700 33.60200 26.75700
C  -4.08400 32.84900 25.71000
C  -4.81300 31.72200 26.23800
C  -4.70000 31.84500 27.67400
C  -3.79100 32.92000 27.93900
C  -5.47400 30.62300 25.48500
C  -5.03200 31.33000 28.90600
O  -5.79200 30.39900 29.17300
C  -4.21500 32.06000 30.04500
C  -5.11700 32.65200 31.04000
O  -5.87300 33.59900 30.85800
O  -5.03900 31.97700 32.22300
C  -6.12800 32.24100 33.14000
H  -0.27600 37.73300 29.98000
H  -0.68300 37.76400 23.58700
H  -4.32200 32.67100 23.53700
H  -3.19600 34.41000 31.86000
H  -0.52700 35.60000 31.76300
H  -2.95900 36.60300 32.84300
H  -2.35800 37.67800 31.59500
H  -1.36000 37.25200 32.93800
H  -0.43300 33.22600 31.93100
H  -1.47600 32.23300 31.08700
H  -2.53200 31.55300 33.00500
H  -2.65300 33.18400 33.62700
H  2.14700 39.79000 28.23000
H  1.08400 39.11600 29.53200
H  0.63500 40.49800 28.67800
H  2.96500 39.76400 26.13900
H  1.59100 40.94800 26.46200
H  2.45500 41.06900 25.00200
H  -1.25700 35.88900 22.02400
H  -4.12300 34.82600 22.22700
H  -3.64900 36.71700 20.92400
H  -2.17500 37.75400 21.37800
H  -3.51800 37.59800 22.45800
H  -2.23600 33.87300 20.63200
H  -3.23100 32.78100 21.36000
H  -0.92100 33.17800 23.23900
H  -0.31900 32.87700 21.72900
H  -1.48800 31.67900 22.40400
H  -4.93000 30.34400 24.58300
H  -6.47900 30.99500 25.28800
H  -5.59500 29.88200 26.27500
H  -3.56900 31.31600 30.51200
H  -7.02700 32.70100 32.73000
H  -5.74700 32.75500 34.02200
H  -6.42500 31.28800 33.58000

