158

Mg 25.23300 -0.05900 28.39600
C  26.82100 -0.41300 31.45300
C  22.20900 0.03600 29.95100
C  23.86600 0.27900 25.26900
C  28.34400 -0.75900 26.75500
N  24.66200 -0.16200 30.46200
C  25.45300 -0.24400 31.55500
C  24.71200 -0.08600 32.90800
C  23.18300 -0.22900 32.39800
C  23.34400 -0.13300 30.78800
C  22.43200 -1.40200 32.90300
C  24.99900 1.20100 33.78900
C  25.23600 0.86600 35.22400
H  26.05100 1.76900 36.11000
N  23.33800 0.12500 27.72900
C  22.21200 0.22400 28.52000
C  21.13800 0.48600 27.64300
C  21.61900 0.65700 26.34900
C  23.04400 0.34800 26.38800
C  19.61400 0.45800 28.14900
C  20.81400 1.12000 25.05100
O  21.31400 1.18600 23.94100
C  19.30800 1.34500 25.16400
N  26.05200 -0.10700 26.27100
C  25.23400 0.05400 25.21100
C  26.03000 -0.03000 23.86300
C  27.47100 -0.40300 24.32300
C  27.31200 -0.48300 25.86000
C  25.54800 -1.07300 22.86800
C  28.56600 0.60400 23.89600
C  28.60700 1.94100 24.64700
N  27.15100 -0.48000 28.93700
C  28.32200 -0.81200 28.19200
C  29.38200 -1.10700 29.08600
C  28.85300 -0.95400 30.38600
C  27.51100 -0.60000 30.25800
C  30.84000 -1.39100 28.77200
C  29.19000 -0.94000 31.84600
O  30.23700 -1.10900 32.47500
C  27.91500 -0.59200 32.59800
C  27.74000 -1.62400 33.66600
O  26.96000 -2.59800 33.60000
O  28.45900 -1.30800 34.80500
C  28.25300 -2.03200 36.07600
H  21.28700 -0.02200 30.53400
H  23.34600 0.37200 24.31400
H  29.24900 -1.05400 26.21900
H  24.99500 -0.95200 33.50600
H  22.62100 0.62200 32.78300
H  22.11800 -1.23800 33.93400
H  23.05600 -2.29400 32.86000
H  21.61600 -1.61800 32.21300
H  24.22900 1.97000 33.73000
H  25.92500 1.71000 33.52100
H  25.74700 -0.09000 35.33600
H  24.24100 0.77600 35.66100
H  19.11200 -0.46500 27.85800
H  19.03400 1.25800 27.69000
H  19.41400 0.45900 29.22000
H  18.97600 1.68100 24.18100
H  19.07700 2.22900 25.75800
H  18.88200 0.40100 25.50400
H  26.04000 0.94600 23.37700
H  27.82100 -1.33800 23.88600
H  26.30500 -1.69500 22.39100
H  25.07700 -0.52500 22.05100
H  24.86300 -1.79700 23.31000
H  28.49800 0.85000 22.83700
H  29.52700 0.10300 24.00800
H  29.65800 2.02400 24.92400
H  27.95400 1.95400 25.52100
H  28.42100 2.72100 23.90900
H  30.96600 -1.84200 27.78800
H  31.14800 -2.15600 29.48500
H  31.45700 -0.49500 28.83700
H  28.01800 0.32300 33.18000
H  27.56400 -1.38000 36.61200
H  29.23100 -2.14400 36.54500
H  27.80600 -3.01400 35.92300
Mg 17.01700 52.24100 25.23100
C  18.87600 51.03300 28.08200
C  14.66600 53.26000 27.40900
C  15.29100 53.06600 22.58800
C  19.57300 50.90200 23.20700
N  16.94500 52.29900 27.47300
C  17.81500 51.85600 28.42300
C  17.33600 52.11400 29.84400
C  15.87600 52.71700 29.65000
C  15.81100 52.69800 28.12300
C  14.83800 51.88600 30.38400
C  18.34800 53.06900 30.64300
C  18.79700 52.62100 32.12200
H  17.85500 51.78100 32.95100
N  15.25100 53.06300 25.00500
C  14.40900 53.38100 26.03400
C  13.19600 53.96900 25.46800
C  13.27600 53.79700 24.06400
C  14.67300 53.29600 23.81500
C  12.06200 54.57400 26.27400
C  12.20100 54.08800 23.03000
O  12.38000 53.77700 21.81400
C  10.80800 54.58300 23.43600
N  17.29500 51.78500 23.21500
C  16.47100 52.33700 22.26900
C  16.87400 52.03100 20.79900
C  18.25500 51.44200 21.07700
C  18.38700 51.42400 22.58900
C  15.95500 50.99600 20.17100
C  19.31500 52.27500 20.42200
C  20.60200 51.65800 20.06500
N  18.74600 51.09100 25.49300
C  19.68300 50.59000 24.56700
C  20.72500 49.92800 25.27400
C  20.47300 50.07500 26.64900
C  19.23000 50.72500 26.73000
C  21.95500 49.45100 24.55600
C  21.00900 49.71200 27.97400
O  22.05900 49.11300 28.32400
C  19.91600 50.29400 28.96200
C  19.31400 49.12200 29.60200
O  19.01900 48.11400 29.06400
O  19.22800 49.25400 30.97800
C  18.77900 48.13400 31.77200
H  13.83500 53.54500 28.05800
H  14.71300 53.20400 21.67100
H  20.33400 50.40000 22.60700
H  17.26900 51.16500 30.37700
H  15.73600 53.70600 30.08500
H  14.07300 52.51900 30.83500
H  15.16600 51.27000 31.22100
H  14.20100 51.27300 29.74600
H  17.82000 54.02100 30.70400
H  19.28100 53.02700 30.08200
H  19.01000 53.46900 32.77400
H  19.59600 51.89600 31.96800
H  12.12400 55.62700 25.99900
H  12.16400 54.45000 27.35200
H  11.13800 54.04600 26.03700
H  10.93700 55.45200 24.08300
H  10.31800 53.79800 24.01300
H  10.28800 54.76700 22.49600
H  16.79900 52.87900 20.11700
H  18.28700 50.40000 20.75800
H  15.38900 50.46200 20.93400
H  16.44200 50.26900 19.52200
H  15.18600 51.47700 19.56700
H  19.46000 53.04800 21.17600
H  18.87700 52.75900 19.54900
H  20.62800 51.48500 18.99000
H  20.60500 50.63200 20.43500
H  21.43600 52.24800 20.44600
H  22.79300 49.25600 25.22500
H  22.36600 50.13200 23.81100
H  21.83700 48.48800 24.05900
H  20.26000 50.87100 29.82100
H  17.81600 47.69500 31.51400
H  18.79200 48.40700 32.82700
H  19.45100 47.27500 31.79900

