158

Mg 23.75400 -3.90800 45.30100
C  25.84900 -1.38100 44.02200
C  21.29800 -2.91000 43.16300
C  22.43800 -6.92800 45.57200
C  26.73200 -5.22300 46.91100
N  23.66600 -2.35900 43.68400
C  24.62200 -1.45800 43.34900
C  24.17400 -0.58100 42.19700
C  22.56000 -0.75000 42.25100
C  22.49400 -2.15000 43.05100
C  21.61400 0.17100 43.10200
C  24.85600 -1.13400 40.91500
C  25.11600 -0.07700 39.89200
H  25.27000 -0.39000 38.37600
N  22.02300 -4.81300 44.55100
C  21.10100 -4.17300 43.74900
C  20.00100 -5.05400 43.49500
C  20.33800 -6.25900 44.21100
C  21.62200 -6.05300 44.84200
C  18.86400 -4.73800 42.60000
C  19.40900 -7.42400 44.20100
O  18.36900 -7.50600 43.55300
C  19.86200 -8.63100 44.95900
N  24.53800 -5.80700 46.12100
C  23.70900 -6.82500 46.07500
C  24.29000 -7.99400 46.88000
C  25.68100 -7.52300 47.33100
C  25.67500 -6.04800 46.79400
C  23.43600 -8.77300 48.03300
C  26.88500 -8.27900 46.77200
C  27.65900 -9.01200 47.88600
N  25.76500 -3.32400 45.65400
C  26.78000 -3.89000 46.41100
C  27.97200 -3.01500 46.31500
C  27.62600 -2.03500 45.42800
C  26.30200 -2.23900 44.98600
C  29.30500 -3.38300 47.01900
C  28.25500 -0.94100 44.71300
O  29.38400 -0.38200 44.79700
C  27.14300 -0.46200 43.71700
C  26.76400 0.92300 44.08100
O  25.99200 1.20700 44.98300
O  27.50900 1.82000 43.33000
C  27.31700 3.27000 43.47900
H  20.42300 -2.46000 42.68900
H  22.13500 -7.95900 45.77000
H  27.59300 -5.75200 47.32500
H  24.44800 0.43700 42.47200
H  22.21300 -1.07200 41.27000
H  20.76900 0.50900 42.50100
H  22.14200 1.08500 43.37400
H  21.36400 -0.28400 44.06000
H  24.16500 -1.87900 40.52000
H  25.82100 -1.53900 41.22200
H  26.00500 0.48900 40.17000
H  24.27600 0.61400 39.82100
H  19.07100 -5.06000 41.57900
H  18.69400 -3.66200 42.56700
H  17.90900 -5.09600 42.98600
H  19.22600 -9.51600 44.96900
H  19.89400 -8.35100 46.01200
H  20.83800 -8.94000 44.58500
H  24.48800 -8.76400 46.13400
H  25.71200 -7.50300 48.42100
H  22.63100 -8.06500 48.22800
H  23.93100 -8.88700 48.99800
H  23.09300 -9.74900 47.69100
H  27.57500 -7.62500 46.23800
H  26.65300 -9.06400 46.05200
H  27.40700 -10.03900 47.61900
H  27.43000 -8.61700 48.87600
H  28.73200 -8.84600 47.79200
H  29.26700 -4.43200 47.31400
H  29.55800 -2.83100 47.92400
H  30.10700 -3.27800 46.28800
H  27.55100 -0.53200 42.70900
H  26.51600 3.47400 44.19000
H  27.20900 3.75700 42.51000
H  28.13100 3.75400 44.02000
Mg 34.72000 3.10200 30.26600
C  32.22500 3.96500 32.40000
C  37.01600 3.14300 32.82200
C  37.20100 2.48900 27.95600
C  32.50900 3.29900 27.56600
N  34.61600 3.21000 32.41100
C  33.51200 3.73300 33.00300
C  33.77100 3.84400 34.55800
C  35.34000 3.81000 34.65700
C  35.66400 3.41800 33.20000
C  36.09500 5.08100 35.11500
C  33.13400 2.63600 35.23700
C  32.37800 3.09000 36.47500
H  33.14900 4.00700 37.50900
N  36.75400 2.74500 30.39600
C  37.52700 2.80100 31.55900
C  38.87800 2.42000 31.25700
C  38.98400 2.29800 29.82600
C  37.61800 2.55000 29.33000
C  40.01800 2.42000 32.32700
C  40.24800 1.96000 29.01100
O  40.22600 1.65100 27.82000
C  41.58600 1.79500 29.65800
N  34.87500 2.83000 28.06800
C  35.99400 2.66200 27.37700
C  35.77900 2.67100 25.87100
C  34.22100 2.59600 25.84200
C  33.82400 2.81500 27.26400
C  36.48800 3.88100 25.24200
C  33.62400 1.26700 25.23200
C  34.23400 0.84500 23.93600
N  32.80900 3.52200 29.96300
C  32.08900 3.69200 28.85800
C  30.76300 4.13000 29.18400
C  30.79600 4.29900 30.62100
C  32.03900 3.84000 30.99700
C  29.61200 4.32000 28.27400
C  29.98900 4.62500 31.82000
O  28.80500 4.85100 31.90800
C  30.95400 4.44300 33.04700
C  31.23800 5.84100 33.51600
O  32.06700 6.63000 33.10200
O  30.51700 6.11000 34.65400
C  30.82400 7.41200 35.25200
H  37.69500 2.95100 33.65500
H  37.93000 2.07600 27.25500
H  31.82300 3.26000 26.71700
H  33.41000 4.79500 34.95100
H  35.67800 3.03500 35.34400
H  36.81200 4.82700 35.89600
H  35.50600 5.94900 35.41100
H  36.67100 5.48800 34.28300
H  33.90500 1.96600 35.61800
H  32.41500 2.20100 34.54400
H  32.16100 2.11900 36.92100
H  31.48100 3.65600 36.22500
H  40.99100 2.82600 32.05000
H  40.35600 1.38400 32.35600
H  39.66300 2.73400 33.30800
H  42.29500 1.23800 29.04500
H  41.43600 1.04200 30.43100
H  41.87900 2.77600 30.03100
H  36.16300 1.77700 25.38000
H  33.79700 3.34700 25.17600
H  35.71700 4.56600 24.88900
H  37.13300 3.43500 24.48500
H  37.14900 4.38700 25.94500
H  32.56400 1.40900 25.02400
H  33.71200 0.35400 25.82100
H  33.41400 0.26500 23.51100
H  35.10600 0.24700 24.20200
H  34.54000 1.74000 23.39400
H  29.90300 4.93700 27.42300
H  28.74800 4.84700 28.68000
H  29.35300 3.28300 28.05700
H  30.51200 3.74900 33.76200
H  30.59400 8.19900 34.53300
H  31.88100 7.45900 35.51200
H  30.13400 7.50000 36.09200

