158

Mg 10.01800 48.94900 26.04800
C  7.90000 49.02700 28.81500
C  12.54200 49.97000 28.04900
C  11.97800 49.02700 23.24600
C  7.23400 48.47800 24.00500
N  10.12600 49.52600 28.13800
C  9.24300 49.24200 29.16700
C  9.77900 49.51800 30.59900
C  11.27200 49.98700 30.30500
C  11.30700 49.82900 28.75900
C  11.61500 51.43000 30.81300
C  9.83400 48.25600 31.56600
C  9.17100 48.44100 32.97600
H  9.44000 47.43900 34.08000
N  11.98300 49.46400 25.68700
C  12.87700 49.87400 26.66100
C  14.24700 49.99700 26.10800
C  14.04300 49.67800 24.75200
C  12.62700 49.32900 24.49200
C  15.43000 50.34000 26.99000
C  15.10900 49.67700 23.64000
O  14.90300 49.45600 22.46500
C  16.50600 50.17200 24.00300
N  9.60700 48.90200 23.87800
C  10.61500 48.79500 22.96700
C  10.09200 48.59400 21.59800
C  8.62800 48.12200 21.90700
C  8.46500 48.50800 23.36700
C  10.25500 49.78400 20.60000
C  8.24300 46.64300 21.50300
C  8.62000 45.53600 22.58400
N  7.96900 48.72500 26.30100
C  6.98700 48.62100 25.37600
C  5.71800 48.49100 26.05700
C  5.99200 48.68600 27.39500
C  7.39600 48.87700 27.47700
C  4.32600 48.12200 25.41000
C  5.40800 48.70000 28.64300
O  4.24000 48.61700 29.08600
C  6.64200 48.75900 29.62800
C  6.65400 47.44200 30.29000
O  7.24600 46.47800 29.95100
O  6.00600 47.53900 31.50500
C  6.04200 46.39700 32.41200
H  13.37500 50.14400 28.73300
H  12.52200 49.09000 22.30100
H  6.37300 48.13000 23.43000
H  9.12900 50.21900 31.12200
H  12.14000 49.48100 30.72900
H  12.39100 51.30100 31.56700
H  10.84600 51.87700 31.44400
H  11.94400 52.09800 30.01800
H  10.87700 48.01900 31.77700
H  9.40600 47.34700 31.14200
H  8.09300 48.56300 32.87600
H  9.51200 49.41000 33.34000
H  16.19100 49.56900 26.86200
H  15.31700 50.60800 28.04100
H  15.84800 51.31100 26.72500
H  17.16800 50.27700 23.14300
H  16.98700 49.33400 24.50800
H  16.54700 51.11800 24.54200
H  10.64000 47.68200 21.36200
H  7.93000 48.78600 21.39700
H  9.21500 50.11100 20.61700
H  10.46000 49.32000 19.63500
H  11.03500 50.48900 20.88400
H  8.85400 46.37500 20.64100
H  7.19700 46.48500 21.24500
H  8.53100 45.83200 23.62900
H  9.63800 45.18000 22.42600
H  7.96400 44.70400 22.33000
H  3.45400 47.99100 26.05000
H  4.50300 47.09200 25.09800
H  4.25000 48.72100 24.50300
H  6.64000 49.61200 30.30600
H  6.04200 46.84200 33.40700
H  6.87500 45.69300 32.43100
H  5.17400 45.75100 32.28100
Mg -10.35700 38.33900 40.61000
C  -8.21800 35.61600 39.89800
C  -8.01200 40.38600 39.01100
C  -12.47500 40.96200 40.68500
C  -12.79300 36.18200 41.45800
N  -8.41800 37.88200 39.37000
C  -7.68300 36.76400 39.39000
C  -6.42500 36.93400 38.49300
C  -6.25600 38.52700 38.64200
C  -7.67700 38.99500 39.02200
C  -5.03200 39.08100 39.38000
C  -6.63900 36.50100 36.95700
C  -5.64700 35.67200 36.21100
H  -5.32100 36.13400 34.81900
N  -10.19400 40.42100 40.09000
C  -9.14300 41.02500 39.46500
C  -9.36200 42.44500 39.57800
C  -10.63600 42.67800 40.14100
C  -11.17600 41.35900 40.40200
C  -8.49200 43.43000 39.12000
C  -11.37400 44.06700 40.21900
O  -10.78700 45.05300 39.78800
C  -12.70000 44.20400 40.71100
N  -12.32700 38.56000 40.97200
C  -13.00200 39.71500 40.97000
C  -14.49100 39.58100 41.27000
C  -14.56900 38.05300 41.54200
C  -13.16400 37.56500 41.23200
C  -15.00300 40.52400 42.36800
C  -15.67500 37.35600 40.66300
C  -16.78500 36.69900 41.49800
N  -10.54000 36.27400 40.71400
C  -11.54400 35.54500 41.11800
C  -11.09600 34.17400 41.32300
C  -9.79500 34.12700 40.81100
C  -9.51600 35.43300 40.39300
C  -11.82800 33.12300 42.04000
C  -8.62500 33.35800 40.55500
O  -8.48000 32.15700 40.59100
C  -7.62900 34.24700 39.80900
C  -6.25800 34.14000 40.43700
O  -5.34300 33.49600 39.89200
O  -6.12200 35.04300 41.50400
C  -4.97300 34.87100 42.43900
H  -7.19700 40.97000 38.57900
H  -13.17500 41.79400 40.57800
H  -13.63000 35.63700 41.90100
H  -5.54800 36.42400 38.88900
H  -6.16400 38.87400 37.61300
H  -4.31000 39.23100 38.57800
H  -4.63500 38.38400 40.11700
H  -5.21000 40.03000 39.88600
H  -6.94100 37.38900 36.40300
H  -7.51900 35.86000 36.90000
H  -5.99800 34.64000 36.22800
H  -4.64900 35.59500 36.64200
H  -8.76900 43.92700 38.19100
H  -7.46700 43.06900 39.03600
H  -8.26800 44.19700 39.86100
H  -12.84100 45.22900 41.05200
H  -12.76400 43.62200 41.63100
H  -13.48000 44.00800 39.97600
H  -15.11700 39.74800 40.39400
H  -14.87200 37.90100 42.57800
H  -15.71300 41.22500 41.92900
H  -14.16000 40.92500 42.93000
H  -15.50500 39.92900 43.13100
H  -15.22900 36.47200 40.20900
H  -16.14700 38.04800 39.96500
H  -16.57900 35.62900 41.51900
H  -17.77200 36.93200 41.09900
H  -16.80100 36.96600 42.55500
H  -11.86600 32.18700 41.48300
H  -12.84500 33.47900 42.20500
H  -11.39700 33.02000 43.03500
H  -7.62000 33.82100 38.80600
H  -5.29800 34.81500 43.47800
H  -4.34700 35.75200 42.29400
H  -4.31400 34.00300 42.40500

