158

Mg 41.18400 8.86900 29.39300
C  43.04200 10.03200 32.05900
C  38.89200 7.63400 31.70900
C  39.27100 7.69800 26.89600
C  43.71700 9.71100 27.12200
N  41.15800 8.70800 31.70400
C  41.91600 9.38000 32.56900
C  41.30500 9.41500 34.01300
C  40.17200 8.34300 33.83000
C  40.01000 8.24500 32.30800
C  40.44000 6.92400 34.39400
C  40.78300 10.81100 34.36700
C  39.86200 10.88300 35.67600
H  40.30300 11.82600 36.80800
N  39.32000 7.80900 29.37000
C  38.55400 7.45000 30.37400
C  37.33500 6.86600 29.89900
C  37.34800 7.05800 28.46400
C  38.65400 7.51800 28.24400
C  36.20200 6.34900 30.82000
C  36.28300 6.86900 27.45300
O  36.55500 6.99100 26.27200
C  34.86900 6.60600 27.92600
N  41.50600 8.69400 27.33700
C  40.51300 8.15600 26.49400
C  41.09600 8.05600 25.02600
C  42.33000 8.92300 25.08300
C  42.50700 9.17800 26.57900
C  41.28500 6.54300 24.58800
C  42.28100 10.17000 24.28100
C  41.65100 11.44700 24.87400
N  43.04000 9.69800 29.47800
C  43.96400 10.05400 28.50100
C  45.02200 10.83400 29.05000
C  44.67800 10.87000 30.44900
C  43.44800 10.10900 30.65200
C  46.13400 11.46100 28.31800
C  45.19500 11.25300 31.79000
O  46.23800 11.80300 32.01200
C  44.08400 10.80200 32.83500
C  44.80400 9.95900 33.84000
O  45.14800 8.81600 33.70000
O  44.82300 10.61100 34.99800
C  45.22900 9.89500 36.25000
H  38.24500 7.31700 32.53000
H  38.69800 7.58500 25.97300
H  44.50400 10.00700 26.42500
H  42.10400 9.01500 34.63700
H  39.24400 8.71900 34.26100
H  40.83600 6.34700 33.55900
H  39.64700 6.45700 34.97900
H  41.37200 7.05800 34.94400
H  40.27200 11.28300 33.52800
H  41.64900 11.43600 34.58400
H  39.68500 9.87800 36.05900
H  38.96500 11.42200 35.37100
H  36.56800 6.00800 31.78800
H  35.70900 5.45900 30.42600
H  35.38300 7.05300 30.96700
H  34.85500 5.56600 28.25100
H  34.13400 6.73200 27.13100
H  34.53000 7.36600 28.63000
H  40.32100 8.54500 24.43500
H  43.11600 8.35500 24.58400
H  40.78800 5.81700 25.23200
H  42.35900 6.36100 24.55700
H  40.85400 6.41100 23.59600
H  41.86200 10.10000 23.27700
H  43.30200 10.41800 23.99100
H  42.20300 11.76100 25.76000
H  40.60300 11.20500 25.05000
H  41.68000 12.22900 24.11500
H  45.74600 11.81000 27.36100
H  46.83300 10.66000 28.07500
H  46.61300 12.27500 28.86100
H  43.58200 11.68600 33.23000
H  44.46300 10.18300 36.97000
H  46.29800 10.02000 36.42200
H  45.04000 8.83600 36.07500
Mg 54.71700 23.58900 45.30400
C  52.22500 25.77500 44.20900
C  52.90700 21.00100 44.03300
C  57.58000 21.71200 45.34800
C  56.73300 26.50500 46.11000
N  52.71400 23.46200 44.30100
C  51.88400 24.37400 43.93000
C  50.60600 23.90800 43.23700
C  50.74300 22.37400 43.56800
C  52.19300 22.22600 44.05900
C  49.69800 21.92300 44.70500
C  50.44100 24.22300 41.71900
C  49.11000 24.82600 41.26000
H  48.51200 24.17800 40.05100
N  55.14500 21.54000 44.92100
C  54.25600 20.64900 44.40300
C  54.96800 19.39000 44.21300
C  56.31800 19.54200 44.62100
C  56.40400 20.97900 44.99300
C  54.32300 18.24100 43.60500
C  57.29100 18.45700 44.50900
O  56.93800 17.27300 44.25600
C  58.72100 18.76100 44.80000
N  56.82000 23.96700 45.76900
C  57.78600 23.08400 45.67400
C  59.13400 23.66500 46.08600
C  58.86100 25.15400 46.47900
C  57.36200 25.22900 46.12200
C  59.89500 22.91900 47.26000
C  59.84000 26.09900 45.86900
C  60.56900 27.02000 46.92200
N  54.55200 25.72400 45.30800
C  55.39000 26.72700 45.80000
C  54.65000 27.98600 45.80800
C  53.40400 27.69000 45.15100
C  53.44800 26.28600 44.79500
C  55.10800 29.35300 46.27200
C  52.07100 28.22800 44.79100
O  51.57000 29.29800 45.05300
C  51.30300 27.04200 44.04300
C  51.10500 27.52700 42.71500
O  52.00400 27.58100 41.92100
O  49.85900 27.99800 42.49300
C  49.76700 28.56000 41.11700
H  52.37300 20.15500 43.59500
H  58.51300 21.14900 45.41600
H  57.32300 27.41100 46.26200
H  49.75800 24.38400 43.73100
H  50.69300 21.80200 42.64100
H  50.18800 21.36200 45.50200
H  48.97900 21.33200 44.13700
H  49.24400 22.81800 45.13100
H  50.76400 23.40500 41.07500
H  51.09300 25.06800 41.49800
H  49.20300 25.88500 41.01800
H  48.45000 24.63900 42.10700
H  54.91800 17.84000 42.78500
H  53.36900 18.56700 43.18900
H  54.01100 17.52900 44.36900
H  58.97600 19.46800 44.01100
H  59.27200 17.82400 44.71800
H  59.04300 18.98900 45.81600
H  59.72300 23.50500 45.18300
H  59.05600 25.26100 47.54600
H  60.86600 22.55800 46.92200
H  59.34200 21.99100 47.40900
H  60.04000 23.49800 48.17200
H  59.35800 26.81900 45.20800
H  60.67700 25.64400 45.34000
H  61.63100 26.79500 46.82300
H  60.05600 26.96000 47.88100
H  60.56800 28.08700 46.70100
H  54.81000 29.45000 47.31600
H  54.66700 30.12400 45.63800
H  56.17600 29.57200 46.27600
H  50.33600 26.96800 44.54100
H  48.82700 29.06600 40.89500
H  49.86400 27.72100 40.42800
H  50.54500 29.30900 40.96900

