158

Mg 29.50600 58.50100 39.12700
C  26.86200 56.43500 38.33600
C  31.67600 56.00100 38.24400
C  32.11300 60.80900 39.14700
C  27.22200 61.10900 39.70600
N  29.24700 56.54000 38.12800
C  28.08300 55.90700 38.00200
C  28.30300 54.48300 37.46300
C  29.82600 54.29600 37.78700
C  30.29600 55.68900 38.09500
C  30.22200 53.18400 38.89800
C  27.93300 54.12900 36.00300
C  28.54400 55.08400 34.93900
H  27.69900 55.66700 33.87000
N  31.54300 58.44100 38.75400
C  32.29700 57.26900 38.51000
C  33.73200 57.55300 38.41200
C  33.85700 58.97800 38.63300
C  32.44600 59.47700 38.88500
C  34.74900 56.39900 38.21000
C  35.18300 59.66500 38.67000
O  36.25900 59.06500 38.43700
C  35.25700 61.19700 39.00400
N  29.61500 60.68800 39.31000
C  30.81500 61.39500 39.34300
C  30.54300 62.89600 39.50600
C  29.00000 62.97200 39.73000
C  28.57000 61.52700 39.55500
C  31.42400 63.59600 40.63600
C  28.25900 64.14300 38.93400
C  26.96100 64.65300 39.52700
N  27.50000 58.66900 39.31600
C  26.68200 59.79300 39.52300
C  25.33600 59.47700 39.36500
C  25.39100 58.14900 38.97500
C  26.68500 57.68200 38.93500
C  24.15300 60.32700 39.70200
C  24.57000 57.04600 38.53100
O  23.33300 56.99000 38.40500
C  25.47900 55.83800 38.03800
C  25.16900 54.60900 38.87400
O  25.82100 54.29400 39.85000
O  24.13200 53.93400 38.36000
C  23.60600 52.86000 39.23100
H  32.31300 55.13400 38.05500
H  32.86000 61.58500 38.96900
H  26.57000 61.94000 39.98300
H  27.73900 53.77400 38.06900
H  30.31200 54.09800 36.83100
H  29.36100 52.81000 39.45200
H  30.99900 53.65300 39.50100
H  30.55900 52.21700 38.52500
H  26.85200 54.23300 35.91300
H  28.19600 53.10800 35.72600
H  29.31800 54.43500 34.53000
H  29.07900 55.94300 35.34400
H  34.25500 55.47000 37.92400
H  35.30400 56.15500 39.11600
H  35.51100 56.68500 37.48500
H  36.30300 61.49800 39.06000
H  34.71500 61.44600 39.91700
H  34.77000 61.57800 38.10600
H  30.86100 63.40900 38.59900
H  28.89700 63.21800 40.78700
H  30.84400 64.09000 41.41600
H  32.09400 64.39600 40.32100
H  32.07900 62.95600 41.22600
H  27.80500 63.83600 37.99100
H  29.03700 64.77200 38.50100
H  27.15800 65.72400 39.57200
H  26.67600 64.24000 40.49500
H  26.06700 64.57900 38.90800
H  24.31400 60.87900 40.62800
H  23.27400 59.69600 39.83700
H  24.01200 61.07500 38.92100
H  25.30700 55.66700 36.97600
H  24.45800 52.28100 39.58800
H  23.01700 52.17100 38.62600
H  23.01600 53.17600 40.09100
Mg -1.74600 34.16500 27.36400
C  -3.50600 32.29300 29.65200
C  -0.34500 35.96100 29.89300
C  -0.54300 36.38100 25.00700
C  -3.77000 32.73400 24.88100
N  -1.85900 34.11000 29.43600
C  -2.60500 33.21400 30.27500
C  -2.36900 33.44800 31.84400
C  -1.43700 34.72300 31.79100
C  -1.23900 34.95900 30.27800
C  -2.05200 35.95200 32.57200
C  -1.84500 32.11700 32.48700
C  -2.72700 31.44800 33.57300
H  -1.96800 31.25600 34.86700
N  -0.42300 35.82900 27.42000
C  0.07400 36.39300 28.59100
C  0.97000 37.50300 28.16800
C  0.99300 37.53500 26.76100
C  -0.03300 36.60600 26.34500
C  1.86000 38.16300 29.14200
C  1.89200 38.37500 25.83800
O  1.70500 38.42200 24.60500
C  2.93300 39.21200 26.38900
N  -2.32900 34.59000 25.29500
C  -1.58100 35.44700 24.50800
C  -1.93100 35.44500 23.07400
C  -2.83200 34.17800 23.05700
C  -3.03600 33.84000 24.52200
C  -2.50800 36.76800 22.58200
C  -2.30900 32.95700 22.13500
C  -1.42000 31.96700 22.85400
N  -3.35900 32.80700 27.17400
C  -3.94100 32.23700 26.17500
C  -4.90900 31.25500 26.57500
C  -4.73900 31.20200 27.97000
C  -3.82600 32.16300 28.28900
C  -5.78500 30.47100 25.68300
C  -5.19800 30.51600 29.13100
O  -5.96100 29.53300 29.35000
C  -4.34100 31.18900 30.32200
C  -5.37200 31.81200 31.25300
O  -6.07700 32.79200 30.98500
O  -5.68600 30.93100 32.26100
C  -6.78400 31.36000 33.17400
H  -0.26500 36.58900 30.78200
H  -0.16300 37.00700 24.19700
H  -4.38700 32.31400 24.08400
H  -3.40800 33.53100 32.16100
H  -0.45900 34.52400 32.23000
H  -1.97700 35.66200 33.62000
H  -3.07600 36.16100 32.26300
H  -1.30200 36.74200 32.53100
H  -0.89800 32.33800 32.98000
H  -1.65100 31.39300 31.69600
H  -2.88900 30.43500 33.20500
H  -3.63300 32.01200 33.79400
H  1.80200 39.22100 28.88600
H  2.88200 37.80900 29.00900
H  1.42200 37.98400 30.12400
H  2.69900 39.82800 27.25800
H  3.34700 39.85800 25.61500
H  3.73700 38.54400 26.69700
H  -0.95800 35.28200 22.61200
H  -3.83700 34.45400 22.74000
H  -2.05000 37.03300 21.62900
H  -2.30200 37.58900 23.26900
H  -3.59400 36.69700 22.53200
H  -1.82500 33.37600 21.25300
H  -3.23600 32.43800 21.89100
H  -1.05400 32.34800 23.80700
H  -0.60500 31.80900 22.14900
H  -1.92500 31.02500 23.07100
H  -5.36300 29.59200 25.19600
H  -6.27000 31.13400 24.96600
H  -6.62800 30.05600 26.23500
H  -3.63300 30.46200 30.71800
H  -6.29500 32.00800 33.90000
H  -7.09800 30.39700 33.57800
H  -7.64900 31.84400 32.72000

