158

Mg 25.79400 0.59200 29.29700
C  27.79400 0.20600 32.11700
C  23.13500 1.31800 31.42700
C  23.90600 0.48000 26.68300
C  28.57100 -0.39400 27.32500
N  25.57600 0.93800 31.51100
C  26.54900 0.75400 32.47000
C  26.00400 1.14500 33.86800
C  24.46500 1.32700 33.61200
C  24.39800 1.16100 32.10300
C  23.39100 0.36100 34.29300
C  26.57000 2.38600 34.51800
C  27.06000 2.11900 35.94500
H  26.70400 3.12600 36.98700
N  23.76800 0.85200 29.07700
C  22.83700 1.16700 30.03400
C  21.53600 1.34800 29.41300
C  21.70300 1.17700 28.03600
C  23.17700 0.79500 27.86800
C  20.32800 1.56100 30.31200
C  20.72400 1.31800 26.86400
O  21.04300 1.13800 25.65900
C  19.39700 1.78700 27.23700
N  26.19800 -0.04400 27.27700
C  25.22200 0.20100 26.36800
C  25.78300 -0.03300 24.90800
C  27.31900 0.18700 25.16900
C  27.36900 -0.16500 26.69700
C  25.51400 -1.43000 24.28200
C  27.92200 1.57900 24.78900
C  28.77500 1.45200 23.51900
N  27.84000 0.02400 29.62000
C  28.82100 -0.44400 28.74400
C  30.00500 -0.70600 29.45900
C  29.67000 -0.38900 30.80400
C  28.35200 -0.03300 30.81100
C  31.30200 -1.26700 28.80600
C  30.18100 -0.27700 32.14100
O  31.30700 -0.47100 32.61700
C  29.03300 0.19100 33.01300
C  28.94500 -0.83300 34.10900
O  28.76500 -2.01200 33.87700
O  29.28200 -0.33300 35.29000
C  29.37900 -1.21800 36.40200
H  22.34000 1.58400 32.12700
H  23.34000 0.46800 25.74900
H  29.41700 -0.49600 26.64300
H  26.17100 0.31800 34.55800
H  23.99500 2.28300 33.84300
H  22.63800 0.99600 34.75900
H  23.77000 -0.20100 35.14600
H  22.86400 -0.29700 33.60200
H  25.73500 3.08700 34.50800
H  27.38400 2.85100 33.96100
H  28.14900 2.11900 35.99500
H  26.73400 1.12500 36.25300
H  19.47800 0.90400 30.12300
H  19.93700 2.56600 30.15200
H  20.54400 1.61900 31.37900
H  19.00900 1.09200 27.98200
H  18.72900 1.63000 26.39000
H  19.40900 2.84800 27.48700
H  25.43300 0.83800 24.35400
H  27.78300 -0.65600 24.65700
H  25.12400 -2.05200 25.08700
H  26.32600 -1.98200 23.80900
H  24.86900 -1.29300 23.41500
H  28.59200 1.82600 25.61300
H  27.28400 2.45300 24.65600
H  29.76500 1.77800 23.83700
H  28.38000 2.15200 22.78300
H  28.75200 0.45800 23.07100
H  30.96100 -1.99900 28.07400
H  31.99400 -1.62800 29.56700
H  31.73500 -0.49600 28.16900
H  29.28000 1.15900 33.45000
H  29.46500 -2.26600 36.11400
H  28.49300 -1.27600 37.03500
H  30.26100 -0.89600 36.95700
Mg 47.21300 35.16000 27.10400
C  45.49100 33.16300 29.43200
C  47.37200 37.77500 29.32100
C  48.70100 36.95200 24.68500
C  46.41200 32.62900 24.67300
N  46.56000 35.42300 29.16600
C  45.99500 34.38800 29.94000
C  45.96300 34.85500 31.28800
C  46.09800 36.40800 31.20000
C  46.67500 36.65400 29.76500
C  44.68800 37.10400 31.56100
C  47.19800 34.22900 32.10500
C  46.96800 34.15700 33.66000
H  45.98200 35.04300 34.33100
N  48.05200 37.01800 27.09100
C  48.05400 37.94400 28.11500
C  48.75200 39.13100 27.72900
C  49.13100 38.92300 26.30300
C  48.70300 37.54700 25.97900
C  48.95600 40.19400 28.78000
C  49.81500 39.94400 25.39900
O  50.25700 39.60000 24.32300
C  50.04600 41.41000 25.75000
N  47.20200 34.96700 24.79500
C  48.04700 35.81000 24.17000
C  48.41400 35.20200 22.76600
C  47.76600 33.75500 22.84400
C  47.07000 33.78000 24.16600
C  47.91800 36.02600 21.61500
C  48.83900 32.56300 22.68000
C  48.31800 31.49400 21.69000
N  46.08500 33.33200 27.07200
C  45.99400 32.42900 25.98200
C  45.40100 31.20500 26.56000
C  45.12700 31.43900 27.90800
C  45.55200 32.74300 28.09900
C  45.16700 29.95200 25.94300
C  44.62300 30.90800 29.08100
O  44.09800 29.83600 29.38300
C  44.56300 32.12500 30.08200
C  45.05000 31.47200 31.35900
O  46.20000 31.01900 31.52300
O  44.06800 31.50500 32.23200
C  44.52400 30.93600 33.48300
H  47.42200 38.68300 29.92600
H  49.00000 37.58000 23.84400
H  46.34400 31.74700 24.03300
H  45.13500 34.57300 31.93700
H  46.90700 36.69600 31.87200
H  43.95300 36.41200 31.97200
H  44.19400 37.55900 30.70300
H  44.86400 37.91400 32.27000
H  48.19100 34.60300 31.85500
H  47.41000 33.20800 31.78900
H  47.94000 34.38100 34.09900
H  46.76700 33.14600 34.01400
H  49.49600 41.05400 28.38500
H  49.43300 39.67800 29.61400
H  48.00100 40.47800 29.22200
H  50.45200 42.00600 24.93300
H  50.69800 41.18800 26.59400
H  49.13900 41.81800 26.19500
H  49.50000 35.26000 22.69300
H  47.00800 33.62200 22.07200
H  47.42300 35.36100 20.90700
H  48.79300 36.45900 21.13100
H  47.24800 36.82700 21.92600
H  49.07700 32.06100 23.61800
H  49.74400 32.98400 22.24100
H  47.53100 31.99300 21.12600
H  47.83800 30.68800 22.24500
H  49.14300 31.26100 21.01700
H  44.40300 29.33900 26.42300
H  46.07600 29.35600 25.86200
H  44.92900 30.04700 24.88400
H  43.55600 32.51700 30.22400
H  44.75300 29.87200 33.41100
H  43.87100 31.21300 34.31000
H  45.37900 31.55100 33.76600

