158

Mg 2.44800 -1.45900 44.17600
C  5.78700 -0.31900 43.96600
C  1.54200 1.41500 42.48700
C  -0.60400 -2.75600 43.71300
C  3.65100 -4.55300 45.29000
N  3.51600 0.28000 43.34300
C  4.86800 0.57800 43.42200
C  5.26300 1.85600 42.61200
C  3.90600 2.53000 42.42800
C  2.89500 1.30800 42.78700
C  3.55900 3.88600 43.20900
C  5.97500 1.42400 41.29600
C  7.20800 2.24200 40.85800
H  6.94200 3.32300 39.81300
N  0.68200 -0.64500 43.36400
C  0.53400 0.49800 42.69700
C  -0.80100 0.56800 42.33300
C  -1.52100 -0.52200 42.74900
C  -0.45700 -1.31700 43.32100
C  -1.39500 1.86300 41.74500
C  -3.03900 -0.69300 42.56400
O  -3.72700 0.16100 42.02400
C  -3.79000 -1.79900 43.27000
N  1.66700 -3.41000 44.51000
C  0.33400 -3.64700 44.24200
C  0.00700 -5.16900 44.60200
C  1.30100 -5.65200 45.35800
C  2.25300 -4.44200 45.12400
C  -1.28100 -5.35700 45.41700
C  1.85000 -7.08000 44.85100
C  2.26700 -8.09800 45.90400
N  4.35100 -2.33200 44.59800
C  4.61600 -3.60600 45.02700
C  6.06100 -3.61300 45.28100
C  6.58500 -2.36700 44.83200
C  5.50800 -1.66000 44.34300
C  6.83200 -4.75500 45.94300
C  7.76300 -1.48200 44.74700
O  8.98400 -1.74400 44.88600
C  7.30100 -0.21300 43.93600
C  7.85100 0.89800 44.73900
O  7.46900 1.11900 45.85000
O  8.78300 1.58200 44.03000
C  9.20700 2.88500 44.63800
H  1.38300 2.33900 41.92800
H  -1.49400 -3.36800 43.55500
H  3.97700 -5.52700 45.66100
H  5.90500 2.57600 43.11900
H  3.74000 2.73500 41.37000
H  3.00100 4.57900 42.57900
H  4.50700 4.32700 43.51700
H  3.00500 3.69800 44.12900
H  5.21100 1.47200 40.52000
H  6.40500 0.42400 41.34800
H  8.00400 1.53700 40.61700
H  7.60000 2.87400 41.65500
H  -1.74400 1.55300 40.76100
H  -0.62900 2.60700 41.52400
H  -2.08800 2.30100 42.46400
H  -4.86400 -1.63600 43.18400
H  -3.45600 -1.77100 44.30700
H  -3.53300 -2.70500 42.72000
H  -0.11500 -5.77400 43.70300
H  1.17600 -5.60500 46.44000
H  -1.94500 -6.08100 44.94400
H  -1.82700 -4.44700 45.66600
H  -0.98200 -5.81600 46.35900
H  2.68000 -6.92300 44.16200
H  1.08500 -7.58600 44.26100
H  1.69600 -9.02500 45.86000
H  1.88700 -7.72000 46.85300
H  3.34600 -8.12200 45.74900
H  6.19600 -5.31800 46.62700
H  7.69700 -4.37200 46.48400
H  7.15300 -5.48400 45.19900
H  7.70900 -0.13200 42.92800
H  8.27900 3.45600 44.63600
H  10.03000 3.40500 44.14600
H  9.35000 2.89600 45.71900
Mg 6.29500 54.90900 41.19400
C  6.13000 51.39900 40.97200
C  9.52500 54.82200 40.01400
C  6.34000 58.21900 41.10200
C  3.13100 54.85400 42.68600
N  7.57200 53.27800 40.35300
C  7.34600 51.94500 40.46800
C  8.55800 51.14900 40.10800
C  9.72400 52.24500 40.06100
C  8.93300 53.53100 40.19300
C  10.93900 52.13700 41.07500
C  8.37100 50.23100 38.81300
C  7.55700 50.80400 37.58800
H  8.13900 50.98400 36.19200
N  7.63500 56.27900 40.45600
C  8.91800 56.08100 40.06600
C  9.53000 57.33800 39.70000
C  8.64000 58.39300 39.96700
C  7.47000 57.64800 40.54300
C  10.92200 57.40900 39.14700
C  8.84600 59.82000 39.68300
O  9.86700 60.17700 39.16700
C  7.71700 60.82000 39.70500
N  4.81300 56.31800 41.65600
C  5.20200 57.63400 41.70600
C  4.11600 58.53100 42.25500
C  3.08500 57.43000 42.73600
C  3.72000 56.13000 42.39600
C  4.54700 59.46400 43.39200
C  1.77300 57.44800 41.98800
C  0.96400 58.75200 42.23100
N  4.79300 53.41300 41.58400
C  3.61400 53.51900 42.32000
C  3.14000 52.19500 42.66400
C  4.11100 51.35400 42.10100
C  5.10400 52.14500 41.41600
C  1.78900 51.95700 43.47100
C  4.50800 49.93900 42.05100
O  4.05800 48.82900 42.45500
C  5.80100 49.93500 41.29500
C  5.57700 49.00000 40.04400
O  5.02000 49.39200 39.03100
O  5.95400 47.67700 40.27700
C  5.60400 46.81000 39.17700
H  10.58100 54.57200 39.88700
H  6.40400 59.30700 41.03800
H  2.14800 54.71500 43.14200
H  8.80700 50.58900 41.00900
H  10.13400 52.34400 39.05600
H  11.08100 53.00900 41.71500
H  11.90000 51.97000 40.58900
H  10.65100 51.28900 41.69600
H  7.90800 49.26000 38.98900
H  9.36400 50.06200 38.39600
H  7.20900 51.82300 37.75600
H  6.59000 50.31700 37.46000
H  11.29400 56.43300 38.83500
H  11.49500 57.81600 39.98000
H  11.01700 57.93200 38.19500
H  7.86600 61.60000 38.95900
H  7.62600 61.21500 40.71700
H  6.79900 60.32500 39.38700
H  3.76600 59.02400 41.34800
H  2.88500 57.26700 43.79500
H  4.65100 59.07900 44.40600
H  3.81700 60.27200 43.33400
H  5.43800 60.03200 43.12500
H  1.19900 56.60100 42.36300
H  1.95500 57.18100 40.94700
H  0.10400 58.35600 42.77000
H  0.67300 59.32800 41.35300
H  1.38400 59.47200 42.93300
H  0.92100 52.39000 42.97600
H  2.01000 52.47900 44.40200
H  1.66400 50.89200 43.67000
H  6.56900 49.43000 41.88000
H  6.01000 47.21700 38.25000
H  4.52300 46.68900 39.10300
H  6.05200 45.81600 39.18400

