158

Mg 36.15600 49.56800 24.97500
C  36.13200 47.98500 28.16200
C  34.66900 52.25200 26.51200
C  35.50100 50.77900 21.93900
C  37.12800 46.52900 23.46100
N  35.25900 49.91400 27.08800
C  35.64100 49.27700 28.20700
C  35.38600 50.18400 29.47300
C  34.60500 51.36900 28.87200
C  34.77400 51.14000 27.36700
C  33.11700 51.45100 29.19400
C  36.75500 50.49800 30.16500
C  36.96000 49.88600 31.57800
H  35.64600 49.79200 32.44800
N  35.36300 51.32300 24.31500
C  34.92000 52.36300 25.11200
C  34.65800 53.51200 24.34200
C  34.90000 53.09400 23.00500
C  35.20300 51.64500 23.02100
C  34.10100 54.86500 24.77700
C  34.78000 53.92800 21.69400
O  34.76700 53.41200 20.60900
C  34.64500 55.41300 21.73500
N  36.24700 48.75100 22.92700
C  35.94000 49.48500 21.88300
C  36.46400 48.92300 20.58600
C  36.97500 47.47300 21.01900
C  36.70100 47.52400 22.58200
C  35.59000 48.87500 19.23400
C  38.44700 47.16800 20.67100
C  39.55400 47.85200 21.50300
N  36.58700 47.69100 25.60400
C  37.01000 46.55400 24.89300
C  37.31000 45.46600 25.85900
C  37.02900 46.01700 27.14500
C  36.58400 47.35700 26.94800
C  37.60400 43.99900 25.56500
C  37.05600 45.70100 28.55200
O  37.61200 44.78300 29.14000
C  36.35100 46.97100 29.29700
C  35.10000 46.45100 29.82700
O  33.93200 46.48400 29.48000
O  35.35700 45.86400 31.10300
C  34.19400 45.27400 31.80400
H  34.28300 53.16700 26.96400
H  35.32900 51.20600 20.94900
H  37.57000 45.60800 23.07600
H  34.78000 49.65800 30.21100
H  35.05000 52.34300 29.08000
H  32.69500 50.52300 29.58000
H  32.59900 51.80400 28.30300
H  33.04100 52.17000 30.00900
H  36.86300 51.57700 30.04900
H  37.54400 50.08500 29.53700
H  37.52700 50.64300 32.12000
H  37.54400 48.97800 31.72700
H  34.81000 55.69100 24.72100
H  33.80000 54.76700 25.82100
H  33.19400 54.95800 24.17900
H  33.60700 55.67400 21.94200
H  34.88500 55.78300 20.73800
H  35.50900 55.80600 22.27300
H  37.29200 49.62200 20.47400
H  36.23600 46.73000 20.71800
H  35.49300 47.87900 18.80300
H  36.13100 49.35900 18.42100
H  34.62800 49.38700 19.26500
H  38.67100 47.51000 19.66100
H  38.62700 46.10200 20.81100
H  39.02600 48.37600 22.30000
H  40.01400 48.60800 20.86600
H  40.29400 47.21000 21.98000
H  38.61800 43.96100 25.16700
H  36.93800 43.66300 24.77100
H  37.41900 43.47100 26.50100
H  36.82500 47.34600 30.20400
H  34.66500 44.87100 32.70100
H  33.76000 44.42200 31.28100
H  33.47000 46.06900 31.98000
Mg 9.62700 48.72600 26.49900
C  7.61500 48.77800 29.35600
C  12.38100 49.50500 28.49000
C  11.48100 48.82300 23.77100
C  6.76500 48.21900 24.53500
N  9.91400 49.10700 28.66200
C  8.96600 49.09900 29.64600
C  9.61900 49.36900 31.02500
C  11.05000 49.95800 30.65600
C  11.18700 49.44100 29.20400
C  11.13900 51.43600 30.86200
C  9.65800 48.08600 32.04200
C  9.05300 48.29500 33.44400
H  9.28500 47.11600 34.44900
N  11.59400 49.13100 26.21300
C  12.59600 49.32300 27.14800
C  13.88200 49.38400 26.49400
C  13.64600 49.08000 25.15500
C  12.17200 49.01900 24.99200
C  15.16700 49.67500 27.18700
C  14.73200 48.87200 24.02100
O  14.37500 48.65000 22.89600
C  16.12600 49.02000 24.29400
N  9.13200 48.76900 24.43000
C  10.07400 48.82500 23.47100
C  9.53100 48.51400 22.04200
C  7.98100 48.35800 22.31400
C  7.93000 48.38800 23.85000
C  9.94600 49.62700 21.06300
C  7.35400 47.02400 21.64200
C  6.06700 47.23700 20.93000
N  7.53500 48.52500 26.81200
C  6.47600 48.30100 25.92800
C  5.26100 48.10700 26.67200
C  5.65500 48.21200 28.03900
C  7.05900 48.50400 28.06300
C  3.87300 47.81000 26.03800
C  5.15400 48.10400 29.36900
O  3.97500 47.94100 29.75500
C  6.40400 48.36500 30.27300
C  6.42000 47.16300 31.11200
O  7.06000 46.16400 30.99200
O  5.76800 47.50800 32.30300
C  5.93100 46.53600 33.36900
H  13.24700 49.72000 29.11900
H  12.10100 48.72600 22.87800
H  5.83600 47.95400 24.02400
H  9.04100 50.14500 31.52600
H  11.92400 49.53000 31.14700
H  10.21300 51.90000 31.20000
H  11.35300 51.87400 29.88700
H  11.99800 51.74000 31.46100
H  10.67700 47.70400 32.09100
H  9.09900 47.32100 31.50400
H  7.98200 48.46400 33.33200
H  9.46600 49.20600 33.87700
H  15.83000 48.81200 27.24500
H  15.01900 49.89800 28.24300
H  15.79200 50.44600 26.73500
H  16.41900 50.01100 24.63900
H  16.78400 48.73300 23.47300
H  16.30600 48.37000 25.15100
H  9.96800 47.59000 21.66300
H  7.39700 49.22800 22.01400
H  10.62300 50.31000 21.57600
H  9.02000 50.11300 20.75600
H  10.29000 49.13600 20.15300
H  7.25800 46.22100 22.37300
H  8.11600 46.58600 20.99800
H  6.20600 46.96100 19.88400
H  5.81100 48.29400 21.00100
H  5.28400 46.63400 21.39000
H  3.75400 46.74100 26.21600
H  3.73300 48.02600 24.97900
H  3.07700 48.36500 26.53500
H  6.10600 49.25700 30.82500
H  4.91200 46.42400 33.74000
H  6.71100 46.71300 34.11000
H  6.03700 45.55000 32.91700

