158

Mg 17.49700 -1.33200 28.47300
C  16.59400 0.81800 31.24800
C  19.81700 -2.86200 30.52100
C  18.83800 -2.87400 25.81600
C  16.03800 1.11300 26.45300
N  18.16000 -1.01600 30.60100
C  17.44400 -0.27600 31.56600
C  18.00600 -0.60700 32.96900
C  19.13800 -1.62300 32.66500
C  19.04800 -1.93700 31.20600
C  20.54800 -1.15800 33.19600
C  16.94200 -1.19600 33.94000
C  16.82700 -0.55300 35.29200
H  17.94700 0.07100 36.00600
N  18.91900 -2.82400 28.23900
C  19.71400 -3.31800 29.21000
C  20.51000 -4.35200 28.61600
C  20.21200 -4.47200 27.25800
C  19.28700 -3.36600 27.06700
C  21.58600 -5.06900 29.42100
C  20.65000 -5.46000 26.26500
O  20.32900 -5.36300 25.12800
C  21.55900 -6.66300 26.59700
N  17.35900 -0.93900 26.39900
C  17.97200 -1.79400 25.48100
C  17.66600 -1.25200 24.02700
C  16.67300 -0.06100 24.32300
C  16.66300 0.06900 25.81300
C  18.99100 -0.70300 23.34000
C  15.26100 -0.16100 23.58000
C  14.16900 -1.05000 24.22200
N  16.43900 0.63600 28.73900
C  15.90200 1.42500 27.79500
C  15.16600 2.52800 28.46700
C  15.35800 2.22300 29.81500
C  16.22800 1.15800 29.88700
C  14.20400 3.43700 27.75900
C  14.92900 2.50200 31.22000
O  13.97800 3.18400 31.59600
C  15.85400 1.71900 32.16400
C  16.68000 2.70700 32.75500
O  17.48700 3.36600 32.17200
O  16.33700 2.82400 34.11000
C  16.99400 3.88900 34.88900
H  20.49500 -3.45300 31.14100
H  19.33000 -3.36000 24.97100
H  15.40400 1.65200 25.74600
H  18.52100 0.21600 33.46600
H  19.05500 -2.53400 33.25800
H  20.43000 -0.25800 33.80000
H  21.15400 -0.99700 32.30400
H  20.90900 -1.96800 33.82800
H  17.20200 -2.25100 34.03000
H  15.95300 -1.25000 33.48500
H  16.38000 -1.21900 36.03000
H  16.05900 0.21400 35.19800
H  22.32500 -5.60200 28.82200
H  21.22300 -5.82700 30.11600
H  22.10400 -4.31400 30.01200
H  21.16200 -7.46300 25.97200
H  21.33100 -7.00300 27.60700
H  22.63600 -6.50300 26.55100
H  17.23800 -1.95500 23.31200
H  17.17200 0.77700 23.83700
H  19.71400 -0.48600 24.12600
H  18.91900 0.35700 23.10000
H  19.27400 -1.36000 22.51700
H  15.48900 -0.51500 22.57400
H  14.86600 0.84700 23.45600
H  13.36500 -0.48800 24.69700
H  14.62100 -1.70700 24.96500
H  13.69600 -1.65300 23.44700
H  13.95000 3.19400 26.72800
H  14.68300 4.40700 27.62300
H  13.33300 3.58900 28.39700
H  15.32100 1.11200 32.89600
H  18.02400 3.65500 35.15900
H  16.35200 4.13200 35.73600
H  17.25100 4.75200 34.27400
Mg 9.28400 48.52600 26.06200
C  6.97100 48.87200 28.70500
C  11.64000 49.97300 28.16800
C  11.56600 48.61500 23.35800
C  6.75600 47.75000 23.83000
N  9.25500 49.35000 28.18600
C  8.31600 49.11500 29.13100
C  8.77600 49.54800 30.54300
C  10.17200 50.23600 30.31300
C  10.38600 49.82300 28.77000
C  10.11300 51.80100 30.40600
C  8.89800 48.27600 31.40400
C  8.62500 48.53300 32.86600
H  8.82200 47.40200 33.90700
N  11.29500 49.05800 25.90600
C  12.09200 49.69500 26.86300
C  13.38200 49.82400 26.29700
C  13.43500 49.38500 24.94600
C  12.05600 49.00200 24.65700
C  14.58900 50.13700 27.16700
C  14.67000 49.10900 23.94400
O  14.51500 48.60400 22.81500
C  16.00800 49.61900 24.24400
N  9.14900 48.29000 23.94200
C  10.22200 48.33600 23.04200
C  9.83400 47.83100 21.61000
C  8.36300 47.45400 21.82800
C  8.02300 47.81600 23.34500
C  9.99200 48.86300 20.45800
C  8.06800 45.99000 21.48200
C  8.67900 44.91600 22.35600
N  7.29200 48.29000 26.16300
C  6.36100 47.96500 25.15300
C  5.05900 47.81500 25.83000
C  5.30300 48.17200 27.16700
C  6.61900 48.53600 27.35700
C  3.82900 47.46800 25.12500
C  4.65000 48.26100 28.40300
O  3.49100 48.05400 28.74900
C  5.73700 48.88900 29.49700
C  5.69800 48.00000 30.61100
O  5.80200 46.79700 30.65800
O  5.18900 48.75100 31.69900
C  4.72500 47.96500 32.87200
H  12.38600 50.31800 28.88700
H  12.18100 48.66700 22.45600
H  6.03400 47.30500 23.14300
H  8.14200 50.31500 30.98800
H  11.01900 49.80100 30.84200
H  10.80100 52.25200 31.12100
H  9.09400 52.13800 30.59200
H  10.38300 52.26500 29.45700
H  9.90900 47.89000 31.26900
H  8.34500 47.38500 31.10800
H  7.55500 48.72600 32.93400
H  9.24700 49.39300 33.11100
H  15.15200 50.97400 26.75400
H  15.36100 49.36800 27.19100
H  14.33600 50.41000 28.19100
H  16.73500 49.34200 23.48200
H  16.39100 49.22500 25.18500
H  15.76400 50.66700 24.42300
H  10.39200 46.91300 21.42800
H  7.63000 47.86000 21.13200
H  9.02700 49.05200 19.98700
H  10.75300 48.52800 19.75300
H  10.25700 49.82400 20.90000
H  8.34400 45.78900 20.44700
H  6.98600 45.89400 21.57000
H  9.22800 45.23100 23.24300
H  9.37700 44.41400 21.68600
H  7.87200 44.22500 22.59800
H  3.38100 46.69000 25.74200
H  4.06400 47.02900 24.15600
H  3.13400 48.26800 24.86700
H  5.41800 49.90300 29.73600
H  5.57400 47.60100 33.45200
H  4.13400 47.12600 32.50500
H  4.07100 48.63600 33.42900

