158

Mg 48.33100 35.29400 27.68800
C  46.10700 33.57700 29.81500
C  48.62800 37.79200 30.10400
C  50.20700 36.94300 25.52300
C  47.97900 32.50800 25.42200
N  47.35500 35.68500 29.71900
C  46.68300 34.71300 30.47300
C  46.84200 35.05800 31.97400
C  47.25600 36.58100 31.92900
C  47.81300 36.74600 30.48700
C  46.08100 37.55800 32.30500
C  47.90600 34.16900 32.59200
C  47.97900 34.08700 34.09000
H  47.07200 34.94800 34.94100
N  49.23600 37.14200 27.77600
C  49.27900 38.05100 28.86500
C  50.16300 39.11000 28.46800
C  50.59400 38.91100 27.10900
C  49.95700 37.62900 26.77400
C  50.39600 40.30700 29.39700
C  51.36100 39.78300 26.25100
O  51.60000 39.49400 25.06800
C  51.78700 41.15200 26.72000
N  48.76300 34.91500 25.58600
C  49.75000 35.72100 25.05800
C  50.19700 35.12500 23.71600
C  49.70000 33.61600 23.81100
C  48.70900 33.64800 24.98200
C  49.68200 35.86400 22.45200
C  50.80700 32.60300 24.12600
C  51.57600 32.14300 22.87600
N  47.28200 33.43300 27.55700
C  47.19000 32.46900 26.56800
C  46.17800 31.53100 26.92300
C  45.67300 31.85200 28.18000
C  46.38000 33.05500 28.48500
C  45.84400 30.24700 26.13100
C  44.78900 31.49200 29.26500
O  43.96100 30.61800 29.42200
C  45.11600 32.52900 30.39700
C  45.56700 31.89800 31.65400
O  46.54500 31.18400 31.73500
O  44.70400 32.23900 32.65200
C  45.07600 31.72500 33.96200
H  48.62100 38.50700 30.93100
H  51.08800 37.34000 25.01500
H  47.99300 31.64600 24.75100
H  45.89200 34.77900 32.42900
H  48.01100 36.78800 32.68700
H  45.20700 36.94800 32.53200
H  45.69300 38.03300 31.40300
H  46.31700 38.27100 33.09500
H  48.90800 34.37600 32.21400
H  47.77000 33.16100 32.20100
H  48.99000 34.39900 34.35500
H  47.96500 33.00500 34.22300
H  49.84600 40.21600 30.33400
H  50.05000 41.19600 28.87000
H  51.45300 40.35700 29.65800
H  50.86200 41.72000 26.81000
H  52.54900 41.68200 26.14800
H  52.14600 40.94700 27.72800
H  51.28400 35.14500 23.78700
H  49.27000 33.31600 22.85500
H  49.21200 35.16300 21.76100
H  50.47600 36.37700 21.91000
H  48.96700 36.64600 22.71000
H  50.50600 31.66700 24.59700
H  51.52400 33.18400 24.70600
H  52.63700 32.34400 23.02400
H  51.16900 32.58900 21.96900
H  51.54600 31.05500 22.81700
H  45.14500 29.68500 26.75000
H  46.68300 29.58300 25.92500
H  45.38600 30.35000 25.14700
H  44.21600 33.05200 30.72000
H  44.60000 30.78300 34.23400
H  44.79000 32.47400 34.69900
H  46.14000 31.59400 34.16200
Mg 17.44600 52.46500 25.58000
C  19.16200 50.89100 28.17600
C  15.32300 53.76600 27.96900
C  15.82700 53.99400 23.12300
C  19.56500 50.94000 23.37900
N  17.20200 52.17400 27.80400
C  18.11700 51.60000 28.62300
C  17.72800 52.04800 30.10300
C  16.36500 52.76600 30.05100
C  16.23600 52.87200 28.49900
C  15.18100 52.08100 30.81100
C  18.92300 52.90700 30.72000
C  19.16000 52.78300 32.25600
H  18.09200 52.07900 33.15500
N  15.67900 53.56500 25.50300
C  15.06100 54.02800 26.62300
C  13.84800 54.74300 26.18500
C  13.92800 54.87900 24.78300
C  15.18300 54.11200 24.42700
C  12.73600 55.05200 27.18400
C  13.03000 55.71700 23.86200
O  13.23400 55.77900 22.63500
C  11.88500 56.56900 24.44300
N  17.46200 52.18900 23.59100
C  16.85500 53.09300 22.77600
C  17.12800 52.94900 21.34600
C  18.53900 52.21800 21.40400
C  18.53200 51.68000 22.86200
C  16.03900 52.12600 20.56000
C  19.78300 52.96300 20.86300
C  20.89600 52.10100 20.39000
N  18.99900 51.13000 25.70200
C  19.84600 50.66100 24.70800
C  20.98300 49.97100 25.24800
C  20.67800 49.95400 26.61500
C  19.47500 50.70400 26.84700
C  22.03000 49.12300 24.40000
C  21.19100 49.59800 27.88500
O  22.18200 49.05900 28.21200
C  20.23400 50.22500 28.99600
C  19.72100 49.19300 29.86500
O  18.95700 48.33900 29.53900
O  20.17600 49.39800 31.14600
C  19.46400 48.43500 32.06400
H  14.77000 54.42400 28.64300
H  15.40500 54.62400 22.33700
H  20.46200 50.83400 22.76500
H  17.58700 51.13700 30.68500
H  16.36000 53.76200 30.49400
H  14.60200 52.71800 31.48100
H  15.62200 51.38000 31.52000
H  14.62300 51.72000 29.94800
H  18.55600 53.92600 30.59400
H  19.78400 52.72300 30.07800
H  19.33300 53.78000 32.66200
H  20.10000 52.34200 32.58600
H  12.98800 55.95400 27.74200
H  12.61800 54.36600 28.02300
H  11.77300 55.17400 26.68800
H  12.28500 57.05100 25.33600
H  11.19100 55.73200 24.50500
H  11.45000 57.31400 23.77700
H  17.34100 53.85800 20.78300
H  18.57700 51.25600 20.89300
H  15.35300 51.77400 21.33100
H  16.55800 51.29900 20.07600
H  15.61000 52.87200 19.89100
H  20.14900 53.52700 21.72100
H  19.38600 53.56900 20.04800
H  20.57500 51.06100 20.32400
H  21.75600 52.27900 21.03600
H  21.02800 52.45100 19.36600
H  21.85100 49.20000 23.32700
H  21.93300 48.07700 24.69100
H  23.06400 49.35800 24.65200
H  20.88900 50.77100 29.67600
H  18.38700 48.60200 32.04500
H  19.82200 48.44400 33.09300
H  19.66900 47.42900 31.69900

