158

Mg 29.25100 58.46000 40.94700
C  26.16000 56.97000 40.00200
C  30.78700 55.79900 39.70900
C  32.03300 60.32800 41.07600
C  27.28700 61.38200 41.75800
N  28.48200 56.65600 39.82200
C  27.23800 56.15300 39.68800
C  27.29000 54.75300 39.15700
C  28.76800 54.34700 39.32000
C  29.40400 55.71200 39.64100
C  29.03400 53.28400 40.40800
C  26.86900 54.63300 37.70800
C  27.77900 55.27200 36.62400
H  27.06200 56.07800 35.58800
N  31.14400 58.08800 40.58800
C  31.60700 56.89800 40.10500
C  33.08300 56.93200 40.12400
C  33.38700 58.32500 40.24800
C  32.14000 59.02400 40.59800
C  34.02500 55.77000 39.83400
C  34.79200 58.90500 40.00100
O  35.72500 58.17600 39.70800
C  35.01900 60.38300 40.00400
N  29.57500 60.53000 41.32900
C  30.86300 61.03500 41.32900
C  30.80000 62.53000 41.72200
C  29.29500 62.84000 42.08200
C  28.66500 61.51100 41.67400
C  31.75700 62.88000 42.89800
C  28.75600 64.09200 41.31100
C  27.92300 65.02700 42.12000
N  27.13100 59.01600 40.99000
C  26.56700 60.22900 41.35300
C  25.13500 60.09100 41.33000
C  24.90500 58.79900 40.84100
C  26.19000 58.25100 40.53900
C  24.12500 61.03300 41.81500
C  23.92500 57.82600 40.59800
O  22.70700 57.85700 40.77100
C  24.68800 56.61500 40.00500
C  24.37800 55.34100 40.84400
O  24.72600 55.15900 42.00700
O  23.76300 54.37900 40.13200
C  23.36600 53.16800 40.76800
H  31.30300 54.87000 39.45500
H  32.92500 60.93200 41.25500
H  26.64900 62.22400 42.03500
H  26.55100 54.20000 39.73600
H  29.24300 53.95600 38.42100
H  28.05800 52.95200 40.76200
H  29.66900 53.70900 41.18500
H  29.50800 52.35200 40.09900
H  25.88600 55.10100 37.66900
H  26.81400 53.56300 37.51000
H  28.42600 54.52400 36.16700
H  28.46800 56.03000 36.99700
H  34.98000 55.88000 40.34700
H  34.19700 55.36500 38.83600
H  33.51700 55.07600 40.50400
H  34.99000 60.79500 41.01300
H  34.28300 60.87000 39.36400
H  36.01700 60.56500 39.60500
H  31.08200 63.11500 40.84600
H  29.09800 62.81600 43.15400
H  31.27900 63.43300 43.70800
H  32.62500 63.45200 42.57100
H  32.18900 61.95900 43.28800
H  28.13400 63.82800 40.45500
H  29.53700 64.72900 40.89700
H  28.52900 65.68200 42.74600
H  27.30900 64.40600 42.77200
H  27.19700 65.60800 41.55300
H  24.52400 61.95100 42.24500
H  23.52700 60.43100 42.49800
H  23.62900 61.36400 40.90200
H  24.49400 56.51200 38.93700
H  22.96200 52.54800 39.96800
H  22.63800 53.43200 41.53400
H  24.23200 52.58000 41.07600
Mg -9.93100 39.55300 39.97600
C  -9.14400 36.15600 39.42700
C  -6.69200 40.33200 38.86000
C  -10.53600 42.77400 40.37200
C  -13.23100 38.72200 40.46100
N  -8.14800 38.44600 39.30000
C  -8.10600 37.06500 39.12700
C  -6.65400 36.57700 38.80600
C  -5.89200 37.90500 38.94400
C  -6.97100 38.99800 39.05800
C  -4.83600 38.12200 40.16400
C  -6.33800 35.84200 37.41100
C  -6.84400 36.59000 36.15000
H  -8.07000 36.11900 35.37200
N  -8.79600 41.31000 39.65400
C  -7.54900 41.40200 39.12900
C  -7.18900 42.77400 38.91200
C  -8.29000 43.55900 39.40700
C  -9.29900 42.58100 39.83400
C  -5.90500 43.34100 38.32500
C  -8.39500 45.10400 39.51500
O  -7.52900 45.75800 38.99300
C  -9.53500 45.87600 40.15000
N  -11.66700 40.54900 40.43600
C  -11.62300 41.88600 40.60000
C  -13.05800 42.46100 40.77100
C  -13.92700 41.13000 40.88200
C  -12.89900 40.10000 40.50800
C  -13.12400 43.45000 42.03500
C  -15.22900 40.96300 40.06200
C  -16.48000 40.71400 40.88600
N  -11.04200 37.82100 40.03300
C  -12.36900 37.62900 40.33500
C  -12.63100 36.20300 40.24900
C  -11.37900 35.60300 39.94800
C  -10.45400 36.60100 39.82900
C  -14.06400 35.70200 40.44000
C  -10.70900 34.31900 39.66800
O  -11.19400 33.15900 39.58800
C  -9.19600 34.65300 39.25300
C  -8.27400 33.85000 40.15900
O  -8.47700 33.58700 41.28600
O  -7.11400 33.54700 39.58800
C  -5.99700 32.91600 40.34200
H  -5.71000 40.68500 38.53700
H  -10.67100 43.82600 40.63200
H  -14.25100 38.39800 40.67900
H  -6.44800 35.96800 39.68600
H  -5.36800 37.88900 37.98900
H  -3.86100 38.31900 39.71800
H  -4.64700 37.20700 40.72500
H  -5.05500 38.91900 40.87400
H  -6.90200 34.91400 37.50500
H  -5.26500 35.67400 37.32000
H  -5.97600 36.41000 35.51600
H  -6.98000 37.64000 36.40700
H  -6.02200 43.57500 37.26700
H  -5.03100 42.70400 38.45900
H  -5.54800 44.25200 38.80600
H  -9.68800 45.55200 41.17900
H  -10.50100 45.65600 39.69400
H  -9.28800 46.93500 40.22200
H  -13.39800 43.11600 39.96900
H  -14.29500 40.91900 41.88500
H  -12.16500 43.66200 42.51000
H  -13.89300 43.17200 42.75600
H  -13.50600 44.39200 41.64100
H  -15.18900 40.21400 39.27100
H  -15.38900 41.93900 39.60200
H  -16.33300 39.80400 41.46700
H  -17.37900 40.45300 40.32600
H  -16.76000 41.53800 41.54200
H  -14.58800 36.13800 41.29000
H  -13.85500 34.64700 40.61900
H  -14.60200 35.88800 39.51100
H  -9.05400 34.22600 38.26100
H  -5.24300 32.70900 39.58200
H  -6.37300 31.94900 40.67500
H  -5.58600 33.49700 41.16800

