158

Mg 26.05400 50.13100 25.85600
C  24.46500 51.67300 28.55400
C  28.59000 49.39300 27.85400
C  27.59300 49.04100 23.15100
C  23.62200 51.70100 23.65600
N  26.39200 50.42500 27.95800
C  25.58300 51.03700 28.90300
C  26.09700 50.85000 30.34800
C  27.53700 50.23100 30.04100
C  27.51000 49.94600 28.55700
C  28.74700 51.11900 30.46100
C  25.26400 49.89600 31.20400
C  24.76200 50.32000 32.64000
H  25.67300 50.99000 33.73600
N  27.79400 49.27700 25.57600
C  28.71800 49.06200 26.50800
C  29.85300 48.35300 25.89900
C  29.54900 48.09800 24.53900
C  28.20200 48.74600 24.36500
C  31.11000 47.92900 26.57400
C  30.34800 47.36600 23.48300
O  29.91000 47.05400 22.40800
C  31.66900 46.74300 23.90100
N  25.51900 50.21900 23.73500
C  26.38500 49.59800 22.84000
C  26.02200 49.98500 21.38100
C  24.60600 50.63900 21.52500
C  24.54100 50.90300 23.06800
C  26.99800 50.95200 20.64200
C  23.52400 49.78100 21.00200
C  22.72600 50.30900 19.75600
N  24.35300 51.42200 25.96800
C  23.51500 51.94200 25.02100
C  22.49200 52.71100 25.70100
C  22.82100 52.61800 27.09200
C  23.94800 51.83500 27.20700
C  21.30200 53.45200 25.12400
C  22.39500 52.98900 28.47500
O  21.45700 53.73300 28.82000
C  23.45100 52.37300 29.47200
C  23.95100 53.42600 30.39400
O  24.86700 54.20000 30.31400
O  23.12900 53.40000 31.50100
C  23.59300 54.05900 32.71900
H  29.39300 49.09500 28.53200
H  28.18800 48.73600 22.28800
H  22.86900 51.99100 22.92000
H  26.12300 51.80800 30.86700
H  27.67600 49.30400 30.59600
H  28.50300 51.87600 31.20600
H  29.24800 51.59200 29.61600
H  29.50600 50.44000 30.85000
H  25.66900 48.89600 31.05100
H  24.34100 49.85400 30.62600
H  24.40600 49.39700 33.09700
H  23.99900 51.09500 32.57400
H  31.20300 48.22800 27.61800
H  31.92100 48.35700 25.98500
H  31.20300 46.84600 26.50100
H  32.01900 46.20800 23.01800
H  31.22200 46.00800 24.57000
H  32.36100 47.54700 24.15100
H  25.94700 49.07500 20.78700
H  24.55700 51.64800 21.11700
H  26.42700 51.65200 20.03200
H  27.61700 50.39200 19.94200
H  27.68900 51.34700 21.38600
H  22.72600 49.64700 21.73300
H  23.89900 48.78100 20.78600
H  22.80000 49.64700 18.89300
H  23.01200 51.30200 19.40900
H  21.71100 50.46700 20.12200
H  20.81200 53.91900 25.97800
H  20.62400 52.88300 24.48800
H  21.69400 54.24800 24.49000
H  22.97700 51.63500 30.11900
H  22.83300 54.13600 33.49500
H  24.03000 55.02900 32.48300
H  24.40700 53.45500 33.12100
Mg -11.39300 37.99200 42.38400
C  -9.04500 35.44000 41.16900
C  -9.42800 40.30800 40.80200
C  -13.91700 39.95100 42.65700
C  -13.22000 35.26500 43.67300
N  -9.52700 37.81700 40.96900
C  -8.78100 36.70800 40.63100
C  -7.58800 37.09900 39.79000
C  -7.67500 38.68300 39.75000
C  -8.93500 38.98500 40.64300
C  -6.37500 39.40600 40.04500
C  -7.61500 36.42000 38.36800
C  -6.26800 35.81100 37.87600
H  -5.55300 36.53000 36.72000
N  -11.58000 39.97100 41.95100
C  -10.69400 40.76600 41.37200
C  -11.20800 42.14100 41.46100
C  -12.52500 42.06900 42.00300
C  -12.75800 40.62000 42.18500
C  -10.56900 43.41600 40.94400
C  -13.45600 43.22800 42.41400
O  -13.19800 44.40400 42.15500
C  -14.75400 42.90200 43.15400
N  -13.27200 37.71000 43.13400
C  -14.14400 38.65100 43.12500
C  -15.52800 38.19200 43.61100
C  -15.35500 36.61100 43.88200
C  -13.87700 36.50500 43.57100
C  -15.96300 39.00000 44.80300
C  -16.18600 35.70800 42.81800
C  -17.27200 34.89800 43.60400
N  -11.21100 35.77700 42.64300
C  -11.94300 34.91200 43.32500
C  -11.19600 33.60900 43.31100
C  -10.15200 33.79100 42.53600
C  -10.14700 35.11400 42.07200
C  -11.69200 32.33200 43.87200
C  -9.02100 33.14800 41.80200
O  -8.61700 32.01700 41.80000
C  -8.17100 34.24200 41.06000
C  -6.87600 34.27100 41.84200
O  -6.01900 33.40000 41.70600
O  -6.77100 35.35300 42.63500
C  -5.56900 35.39500 43.41900
H  -8.81300 41.11600 40.39900
H  -14.83900 40.50800 42.48000
H  -13.88300 34.54300 44.15300
H  -6.66000 36.79400 40.27200
H  -8.02100 39.19900 38.85400
H  -5.65000 38.89900 40.68100
H  -6.59500 40.39700 40.44300
H  -5.85600 39.61700 39.11000
H  -7.92900 37.16900 37.64200
H  -8.45200 35.72200 38.35400
H  -6.56700 34.77800 37.70000
H  -5.47900 35.71800 38.62200
H  -11.23100 43.89800 40.22500
H  -9.65700 43.18200 40.39500
H  -10.30300 44.08300 41.76400
H  -15.19600 43.79600 43.59400
H  -14.50400 42.21300 43.96000
H  -15.48100 42.42500 42.49700
H  -16.29200 38.36000 42.85200
H  -15.55800 36.34100 44.91900
H  -15.13200 38.83000 45.48800
H  -16.87500 38.67300 45.30200
H  -16.12000 40.06900 44.65500
H  -15.42800 35.05000 42.39300
H  -16.72400 36.16500 41.98800
H  -18.18000 34.75800 43.01900
H  -17.59600 35.43700 44.49400
H  -16.84100 33.91500 43.79600
H  -12.61800 32.49100 44.42400
H  -10.96000 31.96100 44.59000
H  -11.79900 31.62300 43.05100
H  -7.94200 33.91400 40.04600
H  -5.63600 36.24300 44.10100
H  -4.71900 35.51100 42.74600
H  -5.39400 34.51400 44.03500

