158

Mg 55.28800 23.95100 44.64600
C  52.67700 26.24300 43.94400
C  53.22600 21.55300 43.39200
C  57.89300 21.91400 44.57200
C  57.42100 26.75600 44.92800
N  53.27200 23.94400 43.78300
C  52.30700 24.93200 43.67200
C  50.96700 24.37200 43.12400
C  51.12100 22.84500 43.36700
C  52.59900 22.76600 43.57800
C  50.20600 22.26800 44.47000
C  50.64000 24.81100 41.66800
C  49.19800 25.28400 41.30900
H  48.63100 24.54800 40.07700
N  55.50600 22.03700 44.02000
C  54.49800 21.17500 43.61300
C  55.02300 19.80200 43.58400
C  56.37800 19.85800 44.09200
C  56.67900 21.27900 44.19900
C  54.12300 18.55000 43.32500
C  57.36600 18.69800 44.50300
O  56.92100 17.57000 44.76300
C  58.74200 18.89700 44.89400
N  57.36000 24.33100 44.70100
C  58.20500 23.23000 44.75000
C  59.64700 23.67200 45.06800
C  59.50500 25.24200 45.07800
C  58.03200 25.50700 44.81700
C  60.27200 23.03800 46.30300
C  60.59900 26.00900 44.28600
C  61.88000 26.28700 45.15100
N  55.08500 26.08800 44.81600
C  56.03500 27.07900 44.83900
C  55.39200 28.34300 44.86200
C  54.04900 28.05900 44.54400
C  53.94200 26.67000 44.42400
C  56.02200 29.64900 45.02400
C  52.74000 28.63500 44.37000
O  52.41900 29.84500 44.36800
C  51.80300 27.46200 43.74900
C  51.72500 27.88600 42.29600
O  52.57500 27.66500 41.43200
O  50.59900 28.57200 42.02500
C  50.29000 28.77800 40.63200
H  52.55400 20.71200 43.20400
H  58.78800 21.30300 44.70400
H  58.05000 27.62700 45.12100
H  50.20100 24.70300 43.82600
H  50.96000 22.13800 42.55300
H  49.26800 21.88900 44.06300
H  49.85900 23.04900 45.14700
H  50.66800 21.49900 45.08900
H  50.91000 23.93700 41.07500
H  51.29900 25.67100 41.55200
H  49.14300 26.35100 41.09400
H  48.57400 25.12700 42.18900
H  54.56300 17.84600 42.61900
H  53.09500 18.86400 43.14200
H  54.10000 17.93200 44.22300
H  59.19400 19.24900 43.96700
H  59.22400 17.96700 45.19300
H  58.70600 19.61800 45.71100
H  60.11800 23.28700 44.16400
H  59.67100 25.70700 46.05000
H  59.43600 22.58600 46.83500
H  60.73200 23.78700 46.94700
H  60.95500 22.22600 46.05000
H  60.20300 26.97200 43.96600
H  60.85700 25.40600 43.41500
H  62.63600 25.68200 44.65100
H  61.78000 25.82200 46.13100
H  62.23900 27.31400 45.07600
H  56.65800 29.76400 45.90200
H  55.17900 30.33800 44.97300
H  56.54900 29.82400 44.08600
H  50.87000 27.59100 44.29600
H  50.66200 27.95300 40.02400
H  50.76700 29.64900 40.18200
H  49.20900 28.84400 40.51500
Mg 47.47200 24.88700 27.85100
C  47.89100 27.31400 30.34900
C  46.87100 22.59100 30.29200
C  46.81700 22.74300 25.43200
C  48.11500 27.54500 25.44400
N  47.13000 25.02200 30.02500
C  47.40900 26.08600 30.81600
C  47.07600 25.74800 32.30200
C  46.88000 24.17900 32.28000
C  47.03900 23.87100 30.71900
C  47.83100 23.20900 33.11200
C  45.95400 26.67600 32.92400
C  45.28500 26.26200 34.18500
H  45.39900 27.18300 35.40100
N  46.97400 22.87500 27.88400
C  46.83200 22.11600 28.99300
C  46.49000 20.72400 28.48400
C  46.36100 20.76000 27.03500
C  46.66500 22.17600 26.70400
C  46.09300 19.54800 29.41800
C  45.90500 19.61800 26.09700
O  45.95100 19.77200 24.89200
C  45.63800 18.13300 26.65800
N  47.44600 25.09200 25.74900
C  47.20200 24.00900 24.98300
C  47.32700 24.42100 23.45100
C  47.55200 25.99500 23.49600
C  47.69900 26.27000 24.99500
C  48.43200 23.66400 22.70400
C  46.40800 26.87700 22.89100
C  46.20200 26.61300 21.42200
N  48.07100 26.93900 27.86900
C  48.37700 27.83600 26.80100
C  48.57900 29.18600 27.36400
C  48.49900 28.96800 28.80300
C  48.18100 27.62100 29.00500
C  48.92800 30.41400 26.51000
C  48.51400 29.63700 30.05300
O  48.82600 30.79100 30.32600
C  48.08300 28.65300 31.14300
C  48.94700 28.62500 32.33100
O  50.06900 28.17100 32.38100
O  48.24800 29.16700 33.36100
C  48.96900 29.03900 34.63100
H  46.67800 21.81300 31.03300
H  46.47000 21.99000 24.72100
H  48.17700 28.34200 24.70000
H  47.95800 25.85700 32.93500
H  45.83300 23.91800 32.43200
H  48.40500 22.55100 32.45900
H  47.14500 22.67100 33.76600
H  48.39800 23.83200 33.80400
H  45.10700 26.80800 32.25100
H  46.46600 27.60000 33.19200
H  45.69500 25.26700 34.35500
H  44.22900 26.15800 33.93900
H  46.84500 18.76200 29.34900
H  45.11100 19.14900 29.16700
H  46.06300 19.80400 30.47700
H  44.57500 18.12800 26.90000
H  46.31600 17.85000 27.46300
H  45.89400 17.54800 25.77400
H  46.40100 24.27200 22.89600
H  48.47500 26.36500 23.04900
H  49.10800 24.37000 22.22000
H  48.01700 23.09500 21.87200
H  49.02000 23.02900 23.36700
H  46.65000 27.91600 23.11600
H  45.38400 26.79700 23.25500
H  45.37800 25.93400 21.20700
H  47.14500 26.22500 21.03600
H  45.99100 27.55500 20.91500
H  47.99300 30.95100 26.34400
H  49.17700 30.19800 25.47100
H  49.59200 31.06500 27.07900
H  47.15200 29.09300 31.50200
H  48.41200 29.74200 35.25100
H  49.89100 29.61400 34.53500
H  49.04700 28.09500 35.17000

