158

Mg 25.85500 -0.66800 29.15100
C  27.88700 -0.69100 32.00800
C  23.19700 -0.38400 31.36600
C  23.95300 -0.07000 26.59900
C  28.58600 -1.40500 27.27000
N  25.63500 -0.56600 31.45800
C  26.61900 -0.52500 32.36200
C  26.09500 -0.18500 33.72000
C  24.57700 -0.47400 33.55300
C  24.44700 -0.42300 32.03100
C  24.03800 -1.78400 34.19000
C  26.51600 1.25400 34.17000
C  26.95900 1.37000 35.68800
H  26.19600 2.45400 36.53800
N  23.84200 -0.40200 29.00100
C  22.94500 -0.26400 29.98200
C  21.65900 -0.07500 29.36700
C  21.83000 -0.06400 27.97000
C  23.28000 -0.19200 27.78300
C  20.41200 0.18900 30.21800
C  20.77000 -0.02600 26.75200
O  21.12700 0.03900 25.55100
C  19.25500 0.04700 27.09600
N  26.16300 -1.03300 27.17800
C  25.27700 -0.46800 26.33300
C  25.83200 -0.53400 24.82500
C  27.33600 -0.64300 25.12700
C  27.36200 -1.18000 26.59700
C  25.24200 -1.62700 23.94600
C  28.12900 0.78200 25.02900
C  29.51600 0.80400 24.33200
N  27.86800 -1.14000 29.51400
C  28.86400 -1.35900 28.66400
C  30.07800 -1.44600 29.30400
C  29.78900 -1.20200 30.66400
C  28.41300 -1.01500 30.73800
C  31.39800 -1.66300 28.59900
C  30.36600 -1.02900 31.89900
O  31.53100 -1.10200 32.23400
C  29.12700 -0.63700 32.87300
C  29.22900 -1.59400 34.03100
O  28.68500 -2.66700 34.05500
O  29.87900 -0.97200 35.01400
C  29.68700 -1.56600 36.31900
H  22.36800 -0.33700 32.07600
H  23.52000 0.16800 25.62500
H  29.49400 -1.53300 26.67700
H  26.48400 -0.85500 34.48700
H  24.04900 0.41200 33.90600
H  24.71600 -2.23800 34.91300
H  23.79300 -2.42400 33.34200
H  23.05300 -1.58400 34.61100
H  25.65300 1.88500 33.95300
H  27.31900 1.71400 33.59400
H  28.01200 1.64800 35.73600
H  26.76300 0.45900 36.25500
H  20.65900 0.47000 31.24100
H  19.90000 -0.77200 30.26200
H  19.73300 0.97800 29.89300
H  18.68500 0.29500 26.20100
H  19.26200 0.84200 27.84200
H  18.94100 -0.92400 27.47900
H  25.66100 0.43100 24.34800
H  27.92500 -1.34300 24.53500
H  24.20500 -1.77100 24.24900
H  25.70200 -2.60800 24.07100
H  25.08100 -1.20100 22.95600
H  28.35300 1.08500 26.05200
H  27.49900 1.61900 24.72700
H  29.73900 1.72900 23.80100
H  29.53700 0.02000 23.57400
H  30.30800 0.58700 25.04700
H  32.03700 -0.85500 28.95600
H  31.42300 -1.51500 27.51900
H  31.92300 -2.58900 28.83600
H  29.27600 0.35500 33.30000
H  29.47900 -2.63100 36.21700
H  28.72700 -1.12300 36.58300
H  30.54000 -1.49100 36.99400
Mg 52.85800 23.54600 43.54200
C  50.02700 25.76700 43.27000
C  50.89200 20.93600 43.23400
C  55.66800 21.79800 43.30900
C  54.80600 26.63700 43.89100
N  50.69000 23.36800 42.97900
C  49.69400 24.39200 43.14300
C  48.33800 23.69400 43.18300
C  48.69500 22.28100 43.74400
C  50.14900 22.17800 43.24200
C  48.58600 22.07300 45.27900
C  47.44300 23.74900 41.93800
C  48.18600 23.96000 40.65500
H  47.54800 23.31200 39.37400
N  53.25800 21.63400 43.08000
C  52.30500 20.65500 43.06300
C  52.93100 19.43700 42.82400
C  54.33000 19.65400 42.93400
C  54.45300 21.10300 43.13800
C  52.18000 18.07200 42.93300
C  55.46700 18.61300 42.83200
O  55.13500 17.43500 42.63600
C  56.97300 18.86200 43.00500
N  54.94600 24.15100 43.42000
C  55.90300 23.19300 43.49600
C  57.25500 23.80800 43.75500
C  57.01200 25.35800 43.64500
C  55.45600 25.38800 43.65600
C  57.84200 23.34400 45.05500
C  57.49700 25.88300 42.27600
C  58.86000 26.62100 42.46500
N  52.48100 25.75800 43.75000
C  53.35800 26.79200 43.91200
C  52.61600 28.01000 44.20100
C  51.30900 27.67900 43.89600
C  51.25900 26.28300 43.51300
C  53.16600 29.32200 44.73600
C  49.94700 28.17000 43.81000
O  49.39900 29.23800 44.02900
C  49.13400 27.00200 43.21900
C  48.78500 27.37500 41.84100
O  49.46800 27.21500 40.85900
O  47.51100 27.90100 41.75000
C  46.96500 28.05400 40.37300
H  50.21900 20.11100 43.47700
H  56.60400 21.23500 43.29300
H  55.33400 27.58400 44.02200
H  47.79000 24.29200 43.91100
H  48.15000 21.49800 43.21700
H  48.33300 23.04400 45.70400
H  49.54800 21.77100 45.69500
H  47.76400 21.40300 45.53100
H  46.71800 24.54800 42.09500
H  46.91600 22.80300 41.82000
H  49.23300 23.65900 40.64600
H  48.17700 25.01900 40.39800
H  51.14900 18.03500 42.58000
H  52.05700 17.78800 43.97800
H  52.69900 17.34700 42.30500
H  57.58800 17.98300 42.81000
H  57.29300 19.35700 43.92100
H  57.21400 19.51100 42.16300
H  57.96800 23.40100 43.03800
H  57.43400 25.85100 44.52200
H  58.41500 22.43200 44.88200
H  57.04200 23.30100 45.79400
H  58.52700 24.08400 45.47000
H  56.74000 26.52400 41.82500
H  57.60400 24.98700 41.66500
H  58.95900 27.21000 43.37700
H  58.95100 27.40000 41.70800
H  59.75900 26.00800 42.40600
H  52.48900 29.65400 45.52400
H  53.09100 30.09900 43.97500
H  54.10200 29.24500 45.29000
H  48.25400 26.89300 43.85200
H  46.27600 27.21100 40.32400
H  47.64900 27.92300 39.53400
H  46.24900 28.86500 40.24100

