158

Mg 34.83700 3.31700 29.81500
C  32.69800 4.24500 32.45200
C  37.49100 3.29500 31.96200
C  36.72800 2.67900 27.20900
C  32.04300 3.78200 27.67300
N  35.03600 3.83100 32.03800
C  33.99900 3.99200 32.93500
C  34.54000 3.97300 34.36600
C  36.09000 3.78800 34.17100
C  36.27800 3.67700 32.60300
C  36.94700 4.98000 34.72100
C  33.89700 2.76900 35.16500
C  33.44800 3.12500 36.65000
H  34.14600 4.23600 37.48000
N  36.82300 2.94300 29.65200
C  37.78900 2.96300 30.62300
C  39.02900 2.50200 30.02100
C  38.84900 2.51200 28.62900
C  37.43600 2.65700 28.47500
C  40.27400 2.26500 30.78000
C  39.86900 2.46700 27.40100
O  39.59000 2.56800 26.26100
C  41.38300 2.44700 27.72700
N  34.40400 3.34700 27.68100
C  35.42000 3.05000 26.79400
C  34.89000 2.96100 25.39700
C  33.41100 3.15100 25.57200
C  33.24600 3.42800 27.05600
C  35.54300 4.02600 24.39600
C  32.56400 1.89500 25.11300
C  31.13100 2.18700 24.66600
N  32.80300 3.99100 29.94900
C  31.81600 4.13500 29.04000
C  30.59400 4.46500 29.64900
C  30.90900 4.52700 30.96100
C  32.27300 4.32300 31.06100
C  29.29700 4.72600 28.90600
C  30.29900 4.75500 32.28300
O  29.17900 5.00900 32.66500
C  31.54000 4.58600 33.29200
C  31.56500 5.92200 33.95100
O  32.16800 6.86100 33.45300
O  31.01300 5.76000 35.20500
C  31.17500 6.85200 36.14700
H  38.34900 3.11700 32.61300
H  37.26300 2.44600 26.28600
H  31.11000 3.79800 27.10600
H  34.23700 4.87700 34.89600
H  36.52600 2.93300 34.68700
H  36.42200 5.57800 35.46600
H  37.25800 5.63500 33.90700
H  37.86100 4.56800 35.15000
H  34.60300 1.95100 35.31100
H  33.06600 2.32300 34.61800
H  33.40500 2.19500 37.21600
H  32.42000 3.41700 36.43200
H  40.84100 1.40000 30.43400
H  39.95000 2.14900 31.81400
H  40.91600 3.12800 30.60500
H  41.90500 2.70300 26.80500
H  41.68700 1.42300 27.94500
H  41.61200 3.11200 28.56000
H  35.04500 1.93800 25.05400
H  33.20500 4.12800 25.13400
H  34.79100 4.55400 23.81000
H  36.03300 3.52400 23.56200
H  36.23700 4.67900 24.92500
H  32.67400 1.14300 25.89400
H  33.10800 1.42100 24.29500
H  30.45600 1.99000 25.49900
H  30.75300 1.46500 23.94100
H  30.91500 3.20400 24.33700
H  28.67600 3.83100 28.94100
H  29.46000 4.89200 27.84100
H  28.73600 5.46400 29.47900
H  31.28900 3.85800 34.06400
H  30.25800 7.43100 36.25800
H  31.96900 7.53800 35.85500
H  31.42200 6.44700 37.12900
Mg 27.13600 50.28300 25.95200
C  25.20900 51.33300 28.84400
C  29.58600 49.23900 28.19700
C  29.16400 49.90100 23.36200
C  24.75200 51.95200 24.00100
N  27.30100 50.26400 28.29800
C  26.38900 50.71200 29.25200
C  26.88000 50.41300 30.68400
C  28.26500 49.79500 30.45200
C  28.41500 49.66700 28.91000
C  29.43500 50.61100 31.05900
C  25.92900 49.56200 31.50600
C  25.61500 50.11100 32.89100
H  26.66600 49.93400 33.98100
N  28.97300 49.48200 25.77600
C  29.82400 49.16600 26.84400
C  31.08100 48.74700 26.24900
C  30.99700 48.91200 24.81100
C  29.69200 49.43700 24.57900
C  32.20700 48.25700 27.11800
C  32.02700 48.57600 23.80000
O  31.74400 48.64800 22.56800
C  33.47100 48.12900 24.14700
N  27.02000 50.95400 24.03400
C  27.90600 50.46800 23.11500
C  27.38600 50.58700 21.69600
C  25.87800 51.03100 21.92000
C  25.85200 51.35000 23.40200
C  28.17100 51.58000 20.77900
C  24.74100 50.07900 21.46700
C  23.60000 50.76400 20.66400
N  25.28200 51.37000 26.30300
C  24.46000 52.04100 25.43000
C  23.30100 52.57800 26.09600
C  23.58400 52.29000 27.42300
C  24.78500 51.60300 27.49300
C  22.17900 53.20000 25.54200
C  23.02500 52.37700 28.82200
O  21.94600 52.83700 29.14600
C  24.08400 51.79500 29.85200
C  24.51900 52.82800 30.88200
O  25.44800 53.57600 30.81000
O  23.56100 52.84400 31.85900
C  23.76200 53.71200 33.07900
H  30.24300 48.77700 28.93700
H  29.80900 49.77000 22.49100
H  23.99300 52.37800 23.34200
H  27.04400 51.31200 31.27800
H  28.39400 48.82200 30.92700
H  29.14000 51.60300 31.40100
H  30.15600 50.69400 30.24500
H  29.88900 50.03600 31.86700
H  26.38100 48.57700 31.62600
H  24.96600 49.42300 31.01500
H  24.67900 49.63000 33.17600
H  25.25200 51.13600 32.82800
H  32.94700 49.04100 27.28100
H  32.64700 47.41000 26.59000
H  31.89400 48.01200 28.13300
H  33.91300 47.72800 23.23500
H  33.43100 47.17600 24.67400
H  33.92100 48.96600 24.68100
H  27.53700 49.69000 21.09600
H  25.83300 51.93500 21.31300
H  28.78800 52.22900 21.40100
H  27.60500 52.26600 20.15000
H  28.81700 50.95200 20.16600
H  24.33300 49.59100 22.35200
H  25.23300 49.30600 20.87600
H  22.64500 50.48300 21.10900
H  23.67200 50.35200 19.65700
H  23.72000 51.84700 20.67500
H  22.47800 54.06400 24.94900
H  21.44200 53.54300 26.26800
H  21.62400 52.50800 24.90800
H  23.66900 50.97100 30.43300
H  24.23200 54.62200 32.70500
H  24.55000 53.23500 33.66200
H  22.85300 53.83400 33.66800

