158

Mg 24.88400 -6.75500 47.75500
C  27.66500 -4.73800 46.90100
C  22.94400 -4.81500 45.87900
C  22.73800 -9.34600 47.83200
C  27.24400 -8.77800 49.63500
N  25.35200 -5.13800 46.21400
C  26.47100 -4.36800 46.17200
C  26.21800 -3.09600 45.39400
C  24.66700 -3.04500 45.29300
C  24.28900 -4.43100 45.85900
C  23.94300 -1.89800 46.03200
C  26.92200 -3.01200 43.99600
C  26.89600 -1.63500 43.22500
H  25.99000 -1.57100 42.02000
N  23.03900 -6.98100 46.99500
C  22.33000 -6.10100 46.21400
C  21.02400 -6.65200 45.86200
C  20.85900 -7.88600 46.58100
C  22.26500 -8.15900 47.16000
C  20.09600 -5.89600 44.98400
C  19.62900 -8.76500 46.59000
O  18.59300 -8.43800 46.03200
C  19.55600 -10.09200 47.25600
N  25.10100 -8.79900 48.44900
C  24.01800 -9.62200 48.50400
C  24.10800 -10.89000 49.33100
C  25.56100 -10.64900 49.95300
C  26.04700 -9.37300 49.32700
C  23.01400 -10.90500 50.43300
C  26.53100 -11.85200 49.80200
C  27.72400 -12.07900 50.76900
N  26.90900 -6.71800 48.33000
C  27.73500 -7.62000 49.13700
C  29.04500 -7.08200 49.23900
C  29.09000 -5.94000 48.40400
C  27.81100 -5.78800 47.86500
C  30.23800 -7.76500 49.78600
C  29.94000 -4.94700 47.86400
O  31.15200 -4.75100 47.94700
C  29.07600 -4.15100 46.87400
C  29.15200 -2.70400 47.24500
O  29.35100 -2.22900 48.29900
O  29.02800 -1.98700 46.09800
C  28.76500 -0.58400 46.26800
H  22.25400 -4.16300 45.33900
H  22.02600 -10.12700 48.10400
H  27.87800 -9.26400 50.37900
H  26.68400 -2.36200 46.05200
H  24.31300 -3.02800 44.26200
H  24.56600 -1.00500 46.01900
H  23.73300 -2.24800 47.04200
H  22.97300 -1.80800 45.54100
H  26.40400 -3.71600 43.34400
H  27.95900 -3.32500 44.11000
H  27.92000 -1.42700 42.91700
H  26.48200 -0.84000 43.84500
H  20.50200 -5.70200 43.99200
H  19.91500 -4.99200 45.56500
H  19.14600 -6.40400 44.81700
H  18.68400 -10.73400 47.13400
H  19.78500 -9.95000 48.31300
H  20.32300 -10.64100 46.71000
H  24.10300 -11.76800 48.68500
H  25.52800 -10.35000 51.00100
H  22.27100 -10.12200 50.28300
H  23.45600 -10.76300 51.41900
H  22.56100 -11.89000 50.55200
H  26.93300 -11.83200 48.78900
H  25.92800 -12.75900 49.85900
H  27.53900 -13.05900 51.20900
H  27.69100 -11.44500 51.65500
H  28.65500 -12.07100 50.20200
H  31.11100 -7.25700 49.37800
H  30.28400 -8.79500 49.43200
H  30.23000 -7.78800 50.87600
H  29.54900 -4.37800 45.91900
H  29.68000 -0.22600 46.74000
H  27.90600 -0.28300 46.86700
H  28.74000 -0.14600 45.27000
Mg 47.64500 34.94700 28.06300
C  45.95500 33.31500 30.64500
C  47.81500 37.75800 30.04700
C  48.69700 36.70500 25.42000
C  46.84800 32.24300 25.87500
N  46.95800 35.38700 30.06100
C  46.47400 34.48600 31.01600
C  46.43200 35.21700 32.42200
C  46.65300 36.68500 31.96100
C  47.17000 36.62600 30.56000
C  45.27100 37.48500 32.11000
C  47.53500 34.45800 33.38100
C  48.75400 35.18200 33.84700
H  48.52600 36.16400 35.05500
N  48.35600 36.85200 27.76000
C  48.31700 37.91200 28.68600
C  48.89900 39.14900 28.15300
C  49.16000 38.80200 26.73500
C  48.75800 37.42500 26.58100
C  48.89100 40.48900 28.84900
C  49.61100 39.77600 25.67700
O  49.54100 39.57200 24.47900
C  50.23300 41.11000 25.96000
N  47.91000 34.43200 26.00000
C  48.18100 35.40100 25.10900
C  48.14700 34.93900 23.62700
C  47.89900 33.40500 23.83600
C  47.44500 33.36900 25.30200
C  47.05200 35.64400 22.79600
C  49.14700 32.55800 23.54300
C  50.25600 32.38800 24.61400
N  46.57400 33.07200 28.17900
C  46.43300 32.10500 27.23000
C  45.61600 31.08000 27.87900
C  45.40500 31.49100 29.21000
C  45.97900 32.72200 29.36700
C  45.13600 29.83700 27.12400
C  44.84600 31.08700 30.48400
O  44.27400 30.10600 30.95000
C  44.99100 32.38800 31.33100
C  45.18900 32.11600 32.86900
O  46.15400 31.49400 33.32000
O  44.19100 32.65900 33.58200
C  44.28700 32.59700 35.05800
H  47.70800 38.60100 30.73300
H  49.11800 37.19900 24.54100
H  46.58100 31.45400 25.16900
H  45.50800 35.04200 32.97500
H  47.47200 37.11100 32.54100
H  44.76500 37.47300 33.07500
H  44.64400 37.21200 31.26100
H  45.52600 38.54000 32.00900
H  47.87600 33.62200 32.77000
H  47.01000 34.10700 34.27000
H  49.30200 35.76500 33.10800
H  49.52300 34.44900 34.08900
H  47.94900 40.98100 28.60300
H  49.77700 41.12200 28.80400
H  49.07100 40.28000 29.90300
H  49.44100 41.84100 26.12300
H  50.62500 41.43600 24.99600
H  51.03100 41.06400 26.70100
H  49.12300 35.29600 23.29700
H  47.07300 32.99200 23.25700
H  47.51300 35.96000 21.86000
H  46.72300 36.57400 23.26100
H  46.17500 35.00700 22.69100
H  49.55900 33.00000 22.63600
H  48.73000 31.60300 23.22300
H  49.99200 32.89800 25.54000
H  51.24300 32.71100 24.28300
H  50.46100 31.33300 24.80000
H  45.97300 29.14600 27.02300
H  44.85300 30.22300 26.14400
H  44.23300 29.37000 27.51700
H  44.00900 32.86200 31.32200
H  45.26800 32.89600 35.42500
H  44.02300 31.61200 35.44500
H  43.55200 33.25600 35.52000

