158

Mg 53.52500 23.09400 44.89500
C  50.95600 25.21500 43.92900
C  51.36400 20.35900 43.98000
C  56.11800 20.87100 44.85000
C  55.55400 25.69100 45.29600
N  51.43000 22.80000 43.84300
C  50.56100 23.86600 43.66700
C  49.16600 23.38400 43.09400
C  49.25900 21.89700 43.59800
C  50.78000 21.63900 43.86900
C  48.56300 21.63000 44.99000
C  49.03400 23.64500 41.63800
C  48.81400 22.46200 40.68600
H  48.45600 22.82500 39.18600
N  53.74000 20.95600 44.45700
C  52.68300 20.03200 44.18200
C  53.28000 18.72400 44.13200
C  54.67600 18.83500 44.25800
C  54.94200 20.28100 44.47900
C  52.44500 17.49600 43.83000
C  55.72700 17.70100 44.04100
O  55.32900 16.60100 43.72400
C  57.23600 17.79700 44.19100
N  55.57900 23.28700 44.80800
C  56.39000 22.19700 45.09500
C  57.71500 22.69300 45.68100
C  57.63100 24.23400 45.68700
C  56.17800 24.44100 45.23000
C  58.09000 22.09500 47.06600
C  58.51300 24.95800 44.67900
C  59.46800 26.10400 45.05900
N  53.34600 25.06800 44.77400
C  54.23300 26.11000 45.04300
C  53.59200 27.43700 45.01800
C  52.26900 27.08200 44.60600
C  52.12800 25.64100 44.46400
C  54.20000 28.85500 45.25900
C  50.99600 27.65900 44.32300
O  50.60600 28.81100 44.50100
C  50.16000 26.54200 43.71500
C  49.93600 26.72800 42.25000
O  50.79200 26.62700 41.40600
O  48.63200 26.99600 41.99100
C  48.26200 27.30500 40.56500
H  50.65800 19.55800 43.75200
H  57.04200 20.32300 45.04400
H  56.16200 26.53100 45.63800
H  48.42700 24.02000 43.58200
H  48.76700 21.17900 42.94200
H  47.50200 21.40100 44.89400
H  48.64400 22.52700 45.60400
H  49.11300 20.79500 45.42400
H  49.90800 24.20900 41.31200
H  48.23500 24.38500 41.59300
H  47.90600 21.93800 40.98500
H  49.67600 21.79600 40.71000
H  51.42700 17.70800 44.15800
H  52.81600 16.60400 44.33500
H  52.34900 17.26100 42.77000
H  57.64100 18.53700 43.50100
H  57.54800 16.82000 43.82300
H  57.51300 17.88100 45.24200
H  58.38000 22.37600 44.87800
H  57.75900 24.67600 46.67500
H  58.01000 22.82600 47.87100
H  59.10900 21.72700 47.18300
H  57.42900 21.25900 47.29400
H  57.93800 25.39500 43.86200
H  59.17900 24.19700 44.27300
H  60.48100 25.85800 44.74000
H  59.44800 26.34300 46.12300
H  59.14100 26.98800 44.51100
H  53.84700 29.53700 44.48500
H  55.28700 28.77000 45.26300
H  53.87800 29.10100 46.27100
H  49.14800 26.51000 44.11800
H  47.20900 27.03100 40.63700
H  48.89200 26.75700 39.86400
H  48.42300 28.36300 40.35700
Mg 48.14700 34.65700 27.16000
C  46.39900 33.00400 29.76000
C  48.31200 37.42600 29.11700
C  49.24800 36.20300 24.48200
C  47.10500 31.98800 25.08600
N  47.56200 35.05400 29.29500
C  46.88200 34.29800 30.17800
C  46.85300 34.98100 31.65100
C  47.24000 36.49300 31.24100
C  47.78500 36.33300 29.83200
C  46.24400 37.62800 31.56100
C  47.83300 34.32600 32.67100
C  47.24800 34.18000 34.05500
H  47.55300 35.20000 35.16500
N  48.73000 36.57400 26.88400
C  48.81500 37.55200 27.82400
C  49.42300 38.73200 27.15000
C  49.70200 38.40000 25.80100
C  49.28600 36.99600 25.70700
C  49.67400 40.05400 27.95700
C  50.41200 39.29200 24.71400
O  50.61400 38.78600 23.66000
C  50.81100 40.65900 24.97600
N  47.98600 34.27000 25.10400
C  48.70700 34.95100 24.19300
C  48.86600 34.30100 22.78700
C  47.94900 33.11100 22.98800
C  47.67300 33.07500 24.44400
C  48.65100 35.16800 21.55200
C  48.71300 31.86000 22.43900
C  49.93200 31.37300 23.25800
N  47.12000 32.75700 27.36300
C  46.76300 31.81200 26.43400
C  46.06200 30.69400 27.00500
C  45.92600 31.14100 28.33900
C  46.48200 32.41700 28.47000
C  45.47600 29.53000 26.26700
C  45.39500 30.67800 29.59600
O  44.90100 29.65900 30.01900
C  45.39900 31.99500 30.52400
C  45.80100 31.61800 31.90200
O  46.86100 31.09100 32.24000
O  44.69800 31.74700 32.67700
C  44.90300 31.49400 34.12000
H  48.12200 38.36600 29.64000
H  49.72100 36.67700 23.61900
H  46.88000 31.06600 24.54600
H  45.84400 34.85700 32.04300
H  48.17300 36.69000 31.76900
H  45.46500 37.23600 32.21400
H  45.87200 38.01600 30.61200
H  46.67300 38.47500 32.09600
H  48.72000 34.95700 32.72300
H  48.13700 33.33400 32.33600
H  47.52800 33.26000 34.56800
H  46.17100 34.25700 33.90400
H  49.30400 40.92400 27.41500
H  50.69600 40.35400 28.18900
H  49.10400 40.17200 28.87800
H  50.00000 41.30900 25.30400
H  51.15600 41.13500 24.05800
H  51.65600 40.82800 25.64300
H  49.90200 33.97200 22.71300
H  47.06700 33.25000 22.36400
H  48.41700 36.17900 21.88400
H  47.81000 34.85700 20.93400
H  49.58700 35.14300 20.99400
H  49.06700 32.01400 21.41900
H  47.94900 31.08600 22.36900
H  49.61200 30.41600 23.67000
H  50.23400 32.09200 24.02000
H  50.83600 31.28300 22.65600
H  44.71500 30.00900 25.65000
H  45.00200 28.79000 26.91100
H  46.27800 29.17300 25.62100
H  44.44500 32.51600 30.60200
H  44.20500 31.94100 34.82800
H  45.93000 31.74700 34.38200
H  44.89500 30.41000 34.24000

