158

Mg 24.77000 -5.06700 45.66500
C  26.87800 -2.42200 44.35300
C  22.33900 -3.90400 43.51100
C  23.14900 -7.89800 46.03700
C  27.59800 -6.41800 47.20500
N  24.68100 -3.38600 44.04500
C  25.58100 -2.40200 43.88900
C  24.99000 -1.28100 42.94300
C  23.52800 -1.78900 42.62500
C  23.46800 -3.07500 43.44400
C  22.33100 -0.72700 42.80100
C  25.83700 -1.03000 41.62900
C  26.41300 -2.20400 40.84400
H  26.06200 -2.44900 39.38300
N  22.96300 -5.74200 44.96600
C  22.07400 -5.12300 44.17700
C  20.89200 -5.91700 44.12400
C  21.09700 -7.11000 44.89700
C  22.45300 -6.96200 45.36500
C  19.72100 -5.41100 43.40300
C  20.07200 -8.25300 45.14000
O  19.04200 -8.28800 44.49500
C  20.35400 -9.41400 46.09800
N  25.30200 -6.89700 46.45300
C  24.43100 -7.91600 46.63800
C  24.99600 -9.18600 47.32200
C  26.36800 -8.55000 47.93100
C  26.45400 -7.23300 47.16600
C  24.09000 -9.83800 48.43100
C  27.58800 -9.54300 47.88400
C  28.13900 -10.11300 49.16200
N  26.77300 -4.56100 45.84800
C  27.80400 -5.17500 46.55400
C  29.02500 -4.40200 46.45900
C  28.60600 -3.28700 45.68900
C  27.27600 -3.45400 45.27300
C  30.39300 -4.91400 46.90800
C  29.12100 -2.03600 45.11000
O  30.13900 -1.48300 45.39400
C  28.03000 -1.49100 44.15100
C  27.67100 -0.07000 44.51300
O  26.97200 0.31600 45.45700
O  28.11400 0.80200 43.56900
C  27.81200 2.25400 43.70000
H  21.42900 -3.59800 42.99000
H  22.70700 -8.86500 46.28500
H  28.46200 -6.86100 47.70500
H  24.89800 -0.45200 43.64500
H  23.50500 -2.21700 41.62300
H  22.09100 -0.53700 43.84800
H  21.39300 -1.11900 42.40700
H  22.44700 0.24100 42.31400
H  26.61900 -0.30400 41.85200
H  25.18000 -0.52900 40.91800
H  26.31300 -3.20200 41.27100
H  27.46400 -1.91700 40.88300
H  19.97900 -5.02600 42.41600
H  19.17100 -4.72500 44.04700
H  18.97900 -6.20100 43.28900
H  19.51800 -10.11100 46.16200
H  20.55100 -8.94300 47.06100
H  21.19300 -9.96500 45.67400
H  25.17000 -9.83400 46.46400
H  26.12000 -8.31100 48.96600
H  23.64400 -10.77400 48.09600
H  23.15800 -9.29900 48.59900
H  24.66200 -9.84800 49.35900
H  28.35000 -9.00800 47.31700
H  27.36500 -10.42400 47.28100
H  28.06500 -11.19500 49.27200
H  27.65600 -9.52600 49.94300
H  29.19100 -9.85100 49.27400
H  30.76300 -5.45400 46.03700
H  30.52400 -5.56700 47.77100
H  30.96500 -4.00600 47.09900
H  28.33800 -1.53000 43.10600
H  27.59300 2.48700 44.74300
H  26.98200 2.59800 43.08200
H  28.58100 2.95700 43.38100
Mg 53.97500 24.21200 45.40400
C  51.36500 26.46500 44.38800
C  51.96600 21.69500 44.05400
C  56.74100 22.42800 45.01300
C  55.77600 26.97000 46.45900
N  51.81500 24.14000 44.43800
C  51.04500 25.14000 44.06900
C  49.68300 24.55100 43.46500
C  49.77500 23.10300 44.03600
C  51.30600 22.96200 44.13300
C  49.07100 22.94800 45.45600
C  49.62000 24.68300 41.90800
C  51.00900 24.60600 41.15900
H  51.80600 23.27200 41.06500
N  54.34700 22.24400 44.65600
C  53.33000 21.40300 44.26500
C  53.99800 20.22300 43.98900
C  55.40800 20.36600 44.14900
C  55.56600 21.68700 44.60000
C  53.32000 19.00400 43.45900
C  56.41900 19.28200 43.97100
O  56.02800 18.18000 43.72400
C  57.91500 19.49900 44.08100
N  56.01500 24.77300 45.36100
C  56.97600 23.80300 45.39100
C  58.30700 24.22900 45.88800
C  57.98900 25.66300 46.34200
C  56.51500 25.78200 46.05900
C  58.83800 23.26700 46.99200
C  58.85300 26.79500 45.79800
C  59.91500 27.40900 46.77300
N  53.57200 26.31000 45.60300
C  54.40700 27.25800 46.13900
C  53.72200 28.52900 46.17300
C  52.53400 28.27400 45.42900
C  52.54300 26.90200 45.00700
C  54.19500 29.87600 46.66400
C  51.32400 28.84600 44.88700
O  50.85400 29.92500 44.98000
C  50.64300 27.73700 44.06100
C  50.62400 28.06200 42.55700
O  51.64300 28.20300 41.91000
O  49.38700 28.33900 42.10500
C  49.18700 28.48700 40.61300
H  51.37100 20.90900 43.58400
H  57.64900 21.82200 44.99400
H  56.34400 27.83100 46.81900
H  49.08400 25.33300 43.93200
H  49.40000 22.35100 43.34100
H  49.77600 22.45000 46.12100
H  48.23800 22.27100 45.26500
H  48.63600 23.81700 45.95000
H  49.15900 25.64300 41.67200
H  48.99900 23.82800 41.64200
H  51.56600 25.49000 41.47000
H  50.71700 24.78400 40.12400
H  53.43800 18.95700 42.37700
H  52.28000 19.08600 43.77600
H  53.58700 18.07400 43.96200
H  58.35200 18.64100 43.57200
H  58.31300 19.61800 45.08900
H  58.15200 20.33400 43.42200
H  59.00100 24.18700 45.04800
H  58.06700 25.64700 47.42900
H  57.97300 23.05700 47.62100
H  59.57800 23.61300 47.71400
H  59.14600 22.24900 46.75400
H  58.27500 27.66400 45.48300
H  59.45000 26.45000 44.95400
H  60.85100 27.60800 46.25100
H  60.18800 26.73200 47.58300
H  59.44400 28.29000 47.20900
H  55.20900 29.85900 47.06300
H  53.48800 30.17500 47.43700
H  54.18300 30.63300 45.88000
H  49.61600 27.61200 44.40300
H  49.00500 27.49400 40.20200
H  50.13700 28.78800 40.17300
H  48.38400 29.20900 40.46800

