158

Mg 25.82000 0.89300 29.44000
C  27.69000 0.39800 32.35800
C  23.16200 1.45300 31.40300
C  24.08700 1.06100 26.63100
C  28.66900 -0.07300 27.62800
N  25.38800 0.70100 31.68800
C  26.35700 0.53700 32.68200
C  25.73500 0.79700 34.07300
C  24.27700 1.14800 33.67000
C  24.28300 1.14100 32.18000
C  23.18300 0.22100 34.30800
C  26.49600 1.91600 34.92200
C  27.04200 1.62700 36.34100
H  26.92500 2.70600 37.47800
N  23.93700 1.22300 29.07500
C  22.92500 1.45000 30.03000
C  21.62000 1.64800 29.35400
C  21.95800 1.67400 27.96700
C  23.38200 1.27900 27.83900
C  20.32000 1.74700 30.18700
C  21.02900 1.77700 26.78900
O  21.34600 1.56000 25.60900
C  19.62900 2.24500 27.02500
N  26.32400 0.44300 27.40300
C  25.41500 0.63000 26.39300
C  26.05200 0.59700 25.03900
C  27.56300 0.31600 25.43300
C  27.54600 0.25700 26.88000
C  25.63700 -0.42700 23.94800
C  28.60100 1.30500 24.89800
C  29.76100 0.61600 24.03900
N  27.73900 0.26600 29.85500
C  28.82300 -0.01100 29.02100
C  30.05900 -0.18100 29.80900
C  29.58800 0.01600 31.13100
C  28.21600 0.20700 31.13400
C  31.26800 -0.67400 29.29600
C  30.07400 -0.08800 32.44400
O  31.23600 -0.37700 32.83600
C  28.86500 0.16900 33.29200
C  28.62100 -1.09200 34.00200
O  27.93000 -1.99600 33.60500
O  29.23100 -0.97100 35.20400
C  28.70400 -1.71900 36.36000
H  22.29400 1.78300 31.97800
H  23.56400 0.99000 25.67600
H  29.53900 -0.36000 27.03400
H  25.77700 -0.19500 34.52300
H  23.93400 2.13400 33.98500
H  22.81400 0.67700 35.22700
H  23.68600 -0.71600 34.54800
H  22.29500 -0.05900 33.74100
H  25.77800 2.73500 34.98000
H  27.19600 2.33000 34.19600
H  28.12300 1.49600 36.28700
H  26.67600 0.64500 36.63800
H  20.36700 1.20600 31.13200
H  19.65600 1.15200 29.56100
H  19.99100 2.75400 30.44500
H  19.12200 1.48500 27.61900
H  19.17600 2.46900 26.05900
H  19.63400 3.21500 27.52400
H  25.96200 1.60600 24.63800
H  27.94600 -0.68500 25.23500
H  24.64600 -0.77400 24.24000
H  26.43300 -1.17100 23.93100
H  25.53000 -0.10200 22.91300
H  29.16000 1.71800 25.73700
H  28.15500 2.14400 24.36300
H  29.42400 0.86800 23.03300
H  29.88800 -0.45000 24.22800
H  30.71500 1.11700 24.20400
H  31.43200 -1.67000 28.88400
H  31.96100 -0.61300 30.13500
H  31.68200 -0.00500 28.54100
H  29.06300 0.98300 33.99000
H  27.77900 -1.25600 36.70500
H  29.43800 -1.83100 37.15800
H  28.56700 -2.77400 36.12200
Mg 47.98200 15.35600 28.79200
C  46.00200 15.17100 31.59400
C  50.23500 17.24600 30.72400
C  50.03300 15.60600 26.07000
C  45.50500 14.27300 26.77800
N  48.18800 16.07600 31.04200
C  47.23400 15.79300 31.95700
C  47.66600 16.26600 33.31700
C  48.93800 17.17900 33.01700
C  49.20700 16.77500 31.53800
C  48.54200 18.68900 33.16400
C  48.07900 15.02100 34.17900
C  48.38300 15.24900 35.65700
H  48.23100 16.66300 36.40900
N  49.89600 16.17400 28.45400
C  50.61000 16.93700 29.36500
C  51.92400 17.27200 28.80100
C  51.86200 16.72800 27.45700
C  50.54900 16.08500 27.26200
C  53.08700 17.97300 29.56800
C  52.97300 16.78400 26.45400
O  52.80500 16.27200 25.33900
C  54.35000 17.40600 26.68400
N  47.80400 15.02800 26.71300
C  48.75300 15.20900 25.73200
C  48.30500 14.75300 24.33600
C  46.82000 14.26800 24.65400
C  46.66300 14.55400 26.12300
C  48.47000 15.87000 23.35200
C  46.54200 12.84500 24.27000
C  47.37800 11.69800 24.88000
N  46.18300 14.76200 29.08600
C  45.29600 14.14400 28.16600
C  44.14900 13.71400 28.92100
C  44.36700 14.12300 30.26600
C  45.61000 14.77400 30.29300
C  42.93800 13.03200 28.39300
C  43.83800 14.20700 31.60500
O  42.79000 13.77200 31.94200
C  44.90900 14.91400 32.49900
C  44.30400 16.01500 33.30400
O  43.70100 16.96400 32.84400
O  44.45500 15.78400 34.64700
C  43.84800 16.78000 35.53200
H  50.99500 17.84200 31.23300
H  50.66000 15.75200 25.18900
H  44.67800 13.97000 26.13300
H  46.84100 16.79700 33.79100
H  49.78500 16.99500 33.67700
H  47.60500 18.81900 33.70600
H  48.37300 19.23100 32.23300
H  49.38400 19.27900 33.52600
H  49.02300 14.64600 33.78400
H  47.25900 14.30400 34.22500
H  49.45200 15.04300 35.71700
H  48.05200 14.37500 36.21900
H  53.90900 17.26400 29.65600
H  52.82100 18.42800 30.52200
H  53.47900 18.83400 29.02700
H  54.84400 16.97900 27.55700
H  54.21600 18.47600 26.84000
H  54.98100 17.25200 25.80900
H  48.90000 13.87500 24.08300
H  46.07800 14.89400 24.15800
H  49.52000 16.11900 23.19800
H  47.94700 16.69400 23.83700
H  47.99400 15.68100 22.39000
H  46.79200 12.72600 23.21500
H  45.49400 12.54500 24.29100
H  48.05900 11.23600 24.16500
H  46.75900 10.83200 25.11500
H  47.86000 12.02900 25.80000
H  43.18100 12.03500 28.02500
H  42.53900 13.50600 27.49700
H  42.15800 13.03900 29.15500
H  45.23800 14.15800 33.21200
H  44.28100 17.77400 35.42200
H  44.06200 16.41300 36.53600
H  42.77100 16.86100 35.38100

