158

Mg 17.34300 -1.56500 28.53600
C  16.73500 0.42800 31.34600
C  19.35800 -3.60800 30.37100
C  18.65000 -2.88500 25.71200
C  15.95300 1.01500 26.48700
N  17.75000 -1.64900 30.66100
C  17.47800 -0.72500 31.62900
C  18.06100 -1.15100 32.93300
C  19.01600 -2.38400 32.62300
C  18.68400 -2.56900 31.12800
C  20.55600 -2.05100 32.86500
C  16.76900 -1.44700 33.71600
C  16.70100 -0.80200 35.09000
H  17.93700 -0.21600 35.76900
N  18.53900 -3.14800 28.12100
C  19.28000 -3.89800 29.00100
C  19.97300 -4.95100 28.30200
C  19.74500 -4.82100 26.92500
C  18.94800 -3.57500 26.86100
C  20.77300 -6.12000 29.04200
C  20.29200 -5.67600 25.73200
O  20.20700 -5.37100 24.55600
C  20.96500 -7.04600 26.00300
N  17.33200 -0.96900 26.37000
C  17.94700 -1.69100 25.46700
C  17.86800 -1.07400 24.07800
C  16.84500 0.11200 24.32000
C  16.62500 0.03700 25.80400
C  19.27800 -0.58800 23.53600
C  15.56500 0.28700 23.32800
C  14.20000 -0.07400 23.89000
N  16.40200 0.30300 28.78500
C  15.86400 1.16000 27.86700
C  15.12300 2.23000 28.54300
C  15.55400 2.03900 29.90700
C  16.24500 0.79800 30.04800
C  14.22300 3.23300 28.00200
C  15.42900 2.62300 31.19900
O  14.81300 3.58300 31.60000
C  16.20000 1.58200 32.25500
C  17.15200 2.43200 32.97500
O  18.23300 2.65700 32.45700
O  16.63400 3.01200 34.06300
C  17.45800 4.02800 34.67000
H  19.90100 -4.31500 31.00200
H  19.06500 -3.39300 24.83900
H  15.66900 1.79700 25.78000
H  18.56900 -0.24100 33.25200
H  18.74200 -3.28600 33.17000
H  21.20700 -2.26200 32.01700
H  20.89000 -2.66000 33.70400
H  20.61600 -0.97800 33.05000
H  16.68400 -2.49500 34.00600
H  15.85200 -1.16000 33.20100
H  16.27700 -1.54000 35.77100
H  16.01900 0.04400 35.00400
H  21.79600 -5.97800 28.69500
H  20.37000 -7.12600 28.92700
H  20.80900 -5.91100 30.11200
H  20.27300 -7.62900 26.61100
H  21.99000 -7.05500 26.37200
H  20.91600 -7.46200 24.99700
H  17.48700 -1.76200 23.32300
H  17.35100 1.04100 24.05600
H  19.13200 0.39700 23.09300
H  19.78000 -1.31400 22.89700
H  19.84300 -0.49200 24.46200
H  15.72100 -0.20900 22.37000
H  15.61300 1.33200 23.02300
H  13.77900 0.71600 24.51200
H  14.22400 -0.87300 24.63200
H  13.55700 -0.42300 23.08300
H  14.65800 4.23200 28.02300
H  13.30100 3.19700 28.58300
H  14.01300 3.03700 26.95000
H  15.52900 1.24300 33.04300
H  18.46400 3.63400 34.81600
H  17.04500 4.37000 35.61900
H  17.56100 4.90500 34.03100
Mg 42.11700 40.50400 27.08200
C  41.21100 42.73000 29.52200
C  42.99600 38.35900 29.44700
C  42.90900 38.34000 24.71000
C  41.19600 42.83300 24.52600
N  41.98100 40.51300 29.21600
C  41.50400 41.49200 29.99800
C  41.55500 41.12400 31.48800
C  42.16400 39.72200 31.37600
C  42.38300 39.53300 29.95800
C  43.48300 39.49900 32.27800
C  40.17700 41.25700 32.23000
C  40.14700 42.10500 33.62000
H  39.54200 41.34400 34.84200
N  42.93700 38.62800 27.09000
C  43.25800 37.94400 28.18300
C  43.81400 36.61800 27.85300
C  43.65200 36.53300 26.42000
C  43.06800 37.79900 26.02500
C  44.26900 35.57500 28.79100
C  44.00000 35.43100 25.47500
O  43.76300 35.43900 24.26100
C  44.66300 34.16900 25.99400
N  42.03800 40.59500 24.93800
C  42.37000 39.51000 24.19600
C  42.18100 39.72900 22.67300
C  41.46700 41.16600 22.63800
C  41.57900 41.57600 24.10400
C  43.44200 39.58500 21.78700
C  40.00900 41.30800 22.06800
C  39.50000 42.72400 21.63500
N  41.35000 42.42100 26.94900
C  41.08800 43.26100 25.88100
C  40.61600 44.49500 26.42600
C  40.65900 44.34600 27.86600
C  41.14800 43.06000 28.08100
C  40.34000 45.66500 25.69500
C  40.50800 45.10400 29.12900
O  40.09600 46.21500 29.36400
C  40.74600 44.03900 30.27400
C  41.66900 44.60900 31.30800
O  42.82200 44.81100 31.07100
O  41.02400 44.97000 32.45700
C  41.74800 45.48700 33.61200
H  43.22800 37.69100 30.27900
H  43.11900 37.65100 23.88900
H  41.09800 43.55900 23.71600
H  42.25400 41.68200 32.11200
H  41.35600 39.11300 31.78200
H  43.62100 38.44500 32.52100
H  43.31100 39.91200 33.27200
H  44.32200 39.92600 31.72800
H  39.82400 40.28300 32.56900
H  39.51200 41.71400 31.49700
H  39.55500 42.98000 33.35000
H  41.14800 42.43400 33.90200
H  43.71900 34.64600 28.64000
H  44.19100 35.91700 29.82300
H  45.28800 35.31700 28.50100
H  43.81500 33.77300 26.55300
H  45.54000 34.51200 26.54300
H  44.92500 33.40000 25.26800
H  41.40600 39.07700 22.27200
H  42.04300 41.92700 22.10900
H  43.46500 40.23200 20.91100
H  43.56100 38.58600 21.36700
H  44.37700 39.86700 22.27000
H  39.27200 40.78300 22.67700
H  40.00600 40.83900 21.08400
H  39.13900 42.65800 20.60800
H  40.36300 43.38700 21.57300
H  38.83900 43.22600 22.34200
H  40.54500 45.57000 24.62900
H  41.05200 46.41900 26.03000
H  39.33000 46.03900 25.86100
H  39.77200 43.91200 30.74700
H  42.75200 45.85200 33.39400
H  41.79500 44.60400 34.24900
H  41.20500 46.30400 34.08700

