158

Mg 42.70500 41.46200 26.79100
C  42.21400 44.08000 29.18300
C  43.33800 39.46800 29.38700
C  43.42300 39.16100 24.56200
C  42.34000 43.91500 24.17800
N  42.83400 41.81800 29.06800
C  42.49100 42.85900 29.80600
C  42.69700 42.71500 31.35100
C  43.14300 41.20100 31.34100
C  43.18500 40.80300 29.83300
C  44.45200 40.83100 32.11300
C  41.36900 43.03300 32.08100
C  41.17600 42.33700 33.39800
H  41.45600 43.23300 34.58800
N  43.29000 39.55000 26.95500
C  43.35300 38.88800 28.11500
C  43.76100 37.51600 27.78200
C  43.90300 37.40100 26.33500
C  43.59400 38.72700 25.84200
C  44.13400 36.50800 28.91300
C  44.14800 36.21300 25.37400
O  44.20300 36.36100 24.10300
C  44.30300 34.86900 25.97100
N  43.06400 41.56800 24.67200
C  43.20200 40.40500 23.96600
C  43.14500 40.63400 22.38300
C  42.48600 42.04200 22.36800
C  42.61200 42.59200 23.82200
C  44.53200 40.53600 21.69800
C  40.98000 41.96000 22.01600
C  40.14600 40.86300 22.74300
N  42.33200 43.59200 26.62900
C  42.18600 44.41900 25.49800
C  41.82200 45.74200 25.95500
C  41.79000 45.62600 27.37400
C  42.15100 44.33000 27.73200
C  41.50000 46.90000 25.07300
C  41.55900 46.37300 28.60500
O  41.06900 47.50500 28.83000
C  41.89600 45.41600 29.78900
C  42.89700 46.13500 30.58100
O  44.11900 46.13700 30.41300
O  42.32900 46.73000 31.71200
C  43.16900 47.24000 32.78500
H  43.50300 38.92900 30.32200
H  43.46600 38.45800 23.72700
H  42.07000 44.61000 23.38000
H  43.45100 43.31800 31.85800
H  42.30000 40.59000 31.66400
H  45.27900 40.50600 31.48200
H  44.20800 39.98300 32.75200
H  44.78800 41.64600 32.75400
H  40.50400 42.94300 31.42400
H  41.40500 44.08700 32.35700
H  41.71400 41.39400 33.50300
H  40.11700 42.12000 33.53900
H  44.10400 36.97900 29.89500
H  45.17100 36.27900 28.66800
H  43.73600 35.49300 28.88200
H  43.31500 34.49100 26.23500
H  45.01400 34.90900 26.79600
H  44.58000 34.15000 25.20000
H  42.50000 39.85000 21.98600
H  43.01800 42.78200 21.77000
H  44.87100 41.39500 21.11900
H  44.34900 39.64500 21.09800
H  45.33200 40.25100 22.38000
H  41.00800 41.78400 20.94000
H  40.41800 42.88800 22.12200
H  39.40900 41.48500 23.25200
H  40.77100 40.29100 23.42900
H  39.64500 40.12700 22.11400
H  41.11100 47.63100 25.78100
H  40.66300 46.68300 24.41000
H  42.34700 47.26100 24.48900
H  41.10400 45.43700 30.53700
H  44.06800 47.72900 32.40800
H  43.52200 46.31900 33.24800
H  42.55900 47.86500 33.43800
Mg 30.64900 58.91000 39.85100
C  27.69600 56.90900 39.27700
C  32.52100 56.10000 38.81200
C  33.25400 60.85100 39.81500
C  28.49600 61.68400 40.05600
N  30.18800 56.75900 39.14800
C  28.90200 56.21000 39.04400
C  29.03700 54.85400 38.36700
C  30.58800 54.43100 38.69000
C  31.14100 55.83400 38.84200
C  30.80500 53.51700 39.85700
C  28.74600 54.87800 36.83900
C  27.65200 53.96900 36.25300
H  26.58200 54.67100 35.34200
N  32.73400 58.48000 39.44000
C  33.28100 57.27800 39.06500
C  34.67700 57.47200 38.94500
C  34.92800 58.85400 39.29600
C  33.63400 59.52200 39.49600
C  35.68000 56.32600 38.65400
C  36.29200 59.45100 39.46400
O  37.31200 58.81900 39.06900
C  36.51200 60.88800 40.01100
N  30.80200 60.98500 40.04000
C  32.04200 61.51200 40.07300
C  32.02300 63.10300 40.02300
C  30.46500 63.33600 40.22500
C  29.87600 61.94500 40.05700
C  32.90700 63.79800 41.10300
C  29.93300 64.54800 39.41400
C  28.71800 65.34900 40.07400
N  28.55100 59.25800 39.92500
C  27.88700 60.42200 39.99700
C  26.42300 60.16800 40.17400
C  26.32300 58.82300 39.70600
C  27.69400 58.28900 39.62400
C  25.31900 61.10700 40.34000
C  25.41300 57.77900 39.43500
O  24.20100 57.75900 39.44500
C  26.19700 56.51200 39.09800
C  25.75700 55.38000 40.00100
O  25.34400 55.52900 41.15400
O  25.78400 54.17400 39.40500
C  25.30400 53.07100 40.28000
H  33.01200 55.15300 38.58000
H  34.01100 61.62700 39.68800
H  27.87100 62.57900 40.02300
H  28.34100 54.15800 38.83500
H  31.17000 54.00300 37.87500
H  31.16700 54.10900 40.69700
H  31.62000 52.87400 39.52500
H  29.89100 52.93600 39.98400
H  29.59300 54.62200 36.20200
H  28.55700 55.93400 36.64600
H  27.13800 53.51600 37.10100
H  28.12200 53.14500 35.71600
H  35.17000 55.37400 38.50900
H  36.44100 56.20300 39.42500
H  36.06100 56.56300 37.66100
H  35.92800 61.01600 40.92200
H  36.20000 61.50300 39.16700
H  37.55100 61.10100 40.26200
H  32.22800 63.46900 39.01700
H  30.28800 63.72500 41.22800
H  33.75500 64.31200 40.65100
H  33.31000 63.13300 41.86700
H  32.38400 64.57900 41.65700
H  29.72800 64.23200 38.39100
H  30.80900 65.19400 39.35000
H  28.22600 64.63600 40.73500
H  27.87800 65.57000 39.41600
H  29.08600 66.18100 40.67400
H  24.47000 60.69500 40.88500
H  25.13200 61.38200 39.30200
H  25.65400 62.02700 40.82000
H  25.88900 56.24400 38.08700
H  25.44000 52.23100 39.59900
H  24.26200 53.11300 40.59600
H  25.97600 52.94000 41.12800

