158

Mg -0.11200 7.18900 26.39300
C  0.67200 9.38300 29.14500
C  -0.70500 4.66400 28.61400
C  -1.04100 5.45200 23.83900
C  0.68200 9.99200 24.29300
N  0.01300 7.01000 28.59200
C  0.33400 8.01200 29.52400
C  0.29400 7.46300 30.99300
C  -0.15000 6.00100 30.83600
C  -0.35800 5.86300 29.24800
C  0.88100 5.03700 31.46400
C  -0.67200 8.14800 32.01300
C  -0.13100 8.63100 33.39300
H  -0.72300 8.17400 34.72700
N  -0.67300 5.31100 26.25200
C  -0.91300 4.33400 27.26400
C  -1.24700 3.10000 26.71700
C  -1.31900 3.28700 25.33500
C  -1.03700 4.73600 25.08300
C  -1.29700 1.89000 27.54400
C  -1.46000 2.29600 24.29000
O  -1.57200 2.60600 23.12800
C  -1.43700 0.81200 24.62300
N  -0.14300 7.70000 24.35500
C  -0.53000 6.72100 23.43100
C  -0.55900 7.26900 21.96600
C  -0.05400 8.69800 22.18500
C  0.16100 8.83000 23.73900
C  0.45300 6.41200 20.97600
C  -0.96300 9.90800 21.60600
C  -2.15500 10.26900 22.54800
N  0.70100 9.17200 26.62200
C  0.97500 10.16000 25.69500
C  1.53300 11.36500 26.32900
C  1.43500 11.06300 27.69500
C  0.90000 9.74900 27.79800
C  1.85400 12.66500 25.62300
C  1.55800 11.62300 29.00200
O  1.94000 12.76000 29.33300
C  1.04200 10.58200 30.01600
C  2.06100 10.39200 31.06400
O  3.10900 9.75900 30.93200
O  1.74400 11.09900 32.22600
C  2.80100 11.17200 33.23900
H  -0.80300 3.94900 29.43300
H  -1.29800 4.84500 22.96800
H  0.81400 10.82100 23.59400
H  1.30600 7.58600 31.37800
H  -1.11900 5.73900 31.26200
H  1.56400 5.52900 32.15700
H  1.55800 4.57400 30.74600
H  0.27000 4.28000 31.95600
H  -1.50200 7.47000 32.21300
H  -1.11600 9.02200 31.53500
H  -0.24000 9.70600 33.53100
H  0.93400 8.42300 33.29400
H  -0.89000 2.06400 28.54000
H  -0.68300 1.12600 27.06700
H  -2.26200 1.39700 27.66700
H  -2.21000 0.59400 25.36000
H  -0.37900 0.66900 24.84300
H  -1.75400 0.24300 23.74800
H  -1.58000 7.17600 21.59500
H  0.95200 8.71800 21.76800
H  0.28500 6.71000 19.94100
H  0.19800 5.35400 21.04000
H  1.49300 6.62500 21.22000
H  -1.40000 9.49100 20.69900
H  -0.35400 10.73000 21.23000
H  -3.04100 9.95800 21.99400
H  -2.25700 11.34300 22.70200
H  -2.22200 9.75400 23.50700
H  2.81200 13.04000 25.98300
H  1.03400 13.37700 25.72600
H  1.95700 12.44100 24.56200
H  0.06000 10.86200 30.39700
H  2.80700 12.11500 33.78600
H  3.77600 11.07100 32.76300
H  2.66500 10.31400 33.89700
Mg 54.20100 24.02700 45.35600
C  51.84100 26.33100 44.30500
C  52.33700 21.41700 44.33900
C  56.86800 22.15100 45.77500
C  56.24000 26.92300 46.23800
N  52.36200 23.86900 44.25500
C  51.49900 24.99200 43.96800
C  50.15600 24.40200 43.42700
C  50.20600 22.90000 43.88100
C  51.73400 22.73400 44.19300
C  49.37900 22.62900 45.12500
C  50.12800 24.53400 41.87800
C  48.78100 24.68700 41.24100
H  48.40400 23.73400 40.09800
N  54.59600 22.08300 44.90400
C  53.66700 21.11900 44.58100
C  54.31700 19.86600 44.63800
C  55.69400 20.06700 45.02300
C  55.81200 21.48800 45.25200
C  53.61300 18.54500 44.43200
C  56.62700 18.94800 45.37800
O  56.31600 17.77800 45.15600
C  57.97200 19.11700 46.05900
N  56.32000 24.45900 45.78600
C  57.21200 23.47000 46.01600
C  58.48400 23.95200 46.63900
C  58.34900 25.52600 46.62300
C  56.89400 25.69600 46.10400
C  58.68200 23.39700 48.10300
C  59.30600 26.28900 45.71000
C  60.63700 26.70500 46.35300
N  53.98300 26.19100 45.48200
C  54.88000 27.20400 45.89500
C  54.20800 28.47500 45.93600
C  52.93700 28.14800 45.29200
C  52.99000 26.79500 44.92400
C  54.59800 29.74400 46.57300
C  51.62700 28.68700 44.82000
O  51.08900 29.81300 44.80700
C  50.90900 27.46000 44.17700
C  50.62700 27.73600 42.78500
O  51.34000 28.18100 41.90500
O  49.28200 27.87400 42.67800
C  48.77800 28.59800 41.46900
H  51.64000 20.57800 44.30000
H  57.74800 21.53900 45.98300
H  56.70100 27.81500 46.66700
H  49.34000 24.99200 43.84400
H  49.84500 22.24700 43.08700
H  48.90200 23.48100 45.60800
H  50.08400 22.20100 45.83800
H  48.57000 21.91500 44.97600
H  50.50300 23.60000 41.45900
H  50.79900 25.30200 41.49400
H  48.65000 25.73400 40.97100
H  48.12100 24.34400 42.03700
H  54.20800 18.06700 43.65400
H  52.54400 18.46000 44.23700
H  53.78000 17.97400 45.34500
H  58.50300 18.19300 46.28700
H  57.82000 19.66100 46.99200
H  58.74100 19.61300 45.46600
H  59.32500 23.66700 46.00800
H  58.61000 25.91100 47.60900
H  59.66100 23.59700 48.53900
H  58.71500 22.30800 48.13200
H  57.86500 23.65200 48.77700
H  58.64200 27.13100 45.51300
H  59.39500 25.69700 44.79900
H  61.44100 26.67600 45.61800
H  60.91100 26.33500 47.34100
H  60.48900 27.75600 46.60100
H  55.64200 30.04500 46.48500
H  54.40800 29.50400 47.61900
H  53.87600 30.52600 46.34000
H  50.10100 27.15800 44.84400
H  47.81300 28.17900 41.18400
H  49.41500 28.62100 40.58500
H  48.64300 29.64600 41.73500

