158

Mg -1.59700 17.46200 27.63200
C  -1.93700 14.89600 29.95300
C  -2.43600 19.76000 30.17800
C  -1.42400 20.07400 25.41700
C  -1.80600 15.22200 25.07300
N  -2.03300 17.35600 29.83100
C  -2.04500 16.17200 30.63200
C  -2.08200 16.59700 32.13400
C  -2.41000 18.08800 32.06200
C  -2.35300 18.42900 30.58600
C  -3.64500 18.65300 32.91300
C  -0.78800 16.20500 32.80200
C  -0.16400 17.07700 33.94000
H  0.20700 16.33200 35.21200
N  -1.86800 19.59100 27.80400
C  -2.26600 20.31300 28.93400
C  -2.45600 21.69700 28.63900
C  -2.03700 21.80300 27.24900
C  -1.64900 20.48600 26.78100
C  -2.97900 22.62900 29.73800
C  -2.00500 23.09100 26.37900
O  -1.50600 23.20700 25.25600
C  -2.50600 24.36900 27.04300
N  -1.51600 17.55600 25.49000
C  -1.40500 18.73300 24.83000
C  -1.28300 18.45600 23.33300
C  -1.14600 16.88900 23.23400
C  -1.62800 16.50000 24.62800
C  -2.38400 19.04500 22.33700
C  0.23900 16.37200 22.89700
C  1.37700 16.75700 23.90100
N  -1.65800 15.39600 27.45500
C  -1.75500 14.66600 26.31800
C  -1.87700 13.32100 26.72900
C  -1.95000 13.32800 28.11500
C  -1.81000 14.66100 28.57700
C  -1.92100 12.07500 25.91800
C  -1.99000 12.50000 29.33200
O  -1.94500 11.27400 29.51200
C  -1.96100 13.51200 30.50500
C  -0.84100 13.09000 31.31200
O  0.28300 13.49500 31.11500
O  -1.28400 12.28900 32.35700
C  -0.24900 11.76400 33.16600
H  -2.46300 20.43700 31.03500
H  -1.18000 20.80400 24.64300
H  -1.69700 14.43700 24.32200
H  -2.96100 16.07500 32.51200
H  -1.67500 18.82100 32.39300
H  -4.45600 18.80100 32.20000
H  -3.53500 19.55600 33.51400
H  -3.95200 17.92200 33.66100
H  0.10300 16.19100 32.17400
H  -0.94400 15.18600 33.15600
H  -0.48200 18.07300 34.24900
H  0.83100 17.25000 33.53100
H  -2.86500 23.66300 29.41100
H  -2.48700 22.54300 30.70700
H  -4.01400 22.37600 29.96600
H  -3.44400 24.27200 27.59000
H  -2.64500 25.23800 26.40000
H  -1.84100 24.49600 27.89700
H  -0.29900 18.84700 23.07200
H  -1.78500 16.44400 22.47100
H  -3.30500 18.58800 22.69600
H  -2.02500 18.71900 21.36000
H  -2.51200 20.12700 22.37200
H  0.53600 16.65500 21.88700
H  -0.02300 15.32000 22.78500
H  1.00000 16.70600 24.92200
H  1.74500 17.75800 23.67900
H  2.26800 16.13200 23.84500
H  -1.50600 12.20100 24.91800
H  -2.96500 11.86800 25.68400
H  -1.40500 11.21700 26.34800
H  -2.88900 13.36100 31.05500
H  0.04600 10.83500 32.67700
H  -0.65100 11.68600 34.17600
H  0.61200 12.41800 33.30300
Mg 26.09100 1.44100 29.15300
C  27.90400 0.86200 31.99400
C  23.30400 1.90700 30.98400
C  24.36700 1.53400 26.17100
C  29.02300 0.41700 27.29200
N  25.75800 1.61000 31.31200
C  26.62700 1.35800 32.29100
C  26.01700 1.52400 33.63900
C  24.51800 1.65600 33.36000
C  24.49100 1.72400 31.74600
C  23.63800 0.46100 33.80400
C  26.49000 2.72100 34.54300
C  27.05300 2.36200 35.93600
H  26.99400 3.42400 37.09300
N  24.12000 1.76800 28.61900
C  23.11100 1.90500 29.54000
C  21.78900 1.94400 28.81800
C  22.11600 1.79500 27.37300
C  23.59700 1.69800 27.31700
C  20.48700 1.99400 29.57400
C  21.09900 1.75500 26.15900
O  21.47800 1.45300 25.04200
C  19.69400 1.90300 26.45800
N  26.58600 1.03500 27.04500
C  25.78800 1.42000 26.06200
C  26.47200 1.39900 24.72700
C  27.92800 1.52500 25.21800
C  27.90900 1.00900 26.58900
C  26.14200 0.14400 23.87700
C  28.59500 2.96300 25.14000
C  29.86400 3.11000 24.41100
N  28.13200 0.69800 29.54100
C  29.14200 0.33700 28.69800
C  30.26800 -0.03600 29.55100
C  29.87400 0.20200 30.91800
C  28.54800 0.61500 30.82300
C  31.50600 -0.51100 28.99700
C  30.24500 0.27400 32.29500
O  31.26400 0.02800 32.87400
C  28.94200 0.54700 33.05200
C  28.50400 -0.63600 33.90500
O  27.89300 -1.63600 33.51700
O  29.11600 -0.53400 35.07100
C  28.92200 -1.51500 36.13900
H  22.47200 2.06800 31.67400
H  23.89000 1.59800 25.19100
H  29.93300 0.13100 26.76000
H  26.33300 0.67000 34.23700
H  24.17700 2.64500 33.66600
H  23.67300 -0.38500 33.11700
H  22.61500 0.82900 33.87500
H  23.98400 0.07300 34.76300
H  25.86200 3.60900 34.61500
H  27.40300 3.05700 34.05100
H  28.12600 2.24600 35.78300
H  26.59700 1.43400 36.28100
H  20.21300 3.04800 29.52800
H  20.72300 1.66900 30.58700
H  19.75700 1.34400 29.09000
H  19.50700 1.07800 27.14500
H  19.13800 1.76800 25.53000
H  19.57800 2.93600 26.78500
H  26.19900 2.30300 24.18200
H  28.46400 0.83100 24.57000
H  25.42800 -0.51200 24.37500
H  27.00200 -0.50900 23.73000
H  25.73100 0.43500 22.90900
H  28.76800 3.33500 26.15000
H  27.94400 3.64800 24.59500
H  29.77200 3.80800 23.57900
H  30.16900 2.19000 23.91200
H  30.68300 3.40400 25.06700
H  31.16800 -1.23300 28.25300
H  32.15700 -0.93500 29.76100
H  32.02600 0.27700 28.45200
H  29.11800 1.42500 33.67500
H  29.64600 -1.31300 36.92900
H  29.00300 -2.51500 35.71300
H  27.99000 -1.29500 36.66000

