158

Mg 17.33500 -0.59100 27.59200
C  16.41200 1.37300 30.55500
C  19.08300 -2.52900 29.78900
C  18.74900 -1.90000 24.89500
C  15.93400 1.94500 25.64700
N  17.87000 -0.45400 29.94900
C  17.24600 0.28200 30.89800
C  17.63500 -0.14600 32.29200
C  18.80200 -1.18800 32.07300
C  18.54500 -1.44300 30.52300
C  20.24700 -0.77000 32.32700
C  16.52100 -0.87000 33.01100
C  16.59500 -0.89000 34.57200
H  17.87400 -0.31500 35.24800
N  18.73200 -2.02300 27.34900
C  19.30300 -2.80000 28.40500
C  20.04900 -3.89500 27.78300
C  19.89900 -3.80100 26.35200
C  19.14700 -2.56100 26.11300
C  20.89600 -4.96100 28.62900
C  20.45700 -4.70100 25.25500
O  20.31500 -4.50100 24.10900
C  21.06500 -5.98300 25.71800
N  17.18800 -0.11000 25.65100
C  18.01000 -0.71300 24.70800
C  18.02700 -0.05200 23.27500
C  16.81600 0.93400 23.48200
C  16.61600 0.97200 24.98700
C  19.38700 0.70000 22.90100
C  15.48100 0.65500 22.72900
C  15.17500 1.43700 21.49300
N  16.22600 1.16000 27.98700
C  15.79000 2.03900 27.02600
C  15.03500 3.03300 27.67300
C  15.16600 2.74600 29.07100
C  15.97600 1.68100 29.24200
C  14.33800 4.15700 27.04400
C  14.85600 3.30800 30.42100
O  14.22400 4.30800 30.71200
C  15.53700 2.37200 31.43900
C  16.33400 3.22400 32.41500
O  17.51500 3.53700 32.40300
O  15.44500 3.69100 33.37000
C  15.85900 4.85300 34.13700
H  19.57900 -3.26200 30.42900
H  19.28800 -2.25000 24.01200
H  15.49000 2.70700 25.00200
H  17.96800 0.75400 32.80900
H  18.75200 -2.16500 32.55300
H  20.35900 0.20400 32.80400
H  20.74600 -0.78000 31.35800
H  20.72900 -1.39600 33.07800
H  16.60100 -1.89400 32.64700
H  15.56000 -0.47700 32.68000
H  16.49900 -1.96300 34.73600
H  15.67000 -0.37700 34.83600
H  21.01600 -4.53600 29.62500
H  21.86200 -5.22500 28.19800
H  20.35100 -5.90100 28.71300
H  21.09200 -6.62600 24.83900
H  20.34100 -6.42600 26.40100
H  22.02800 -5.80800 26.19900
H  17.80900 -0.82800 22.54100
H  17.20000 1.92400 23.23400
H  19.22400 1.76600 22.74100
H  19.88800 0.15400 22.10200
H  19.94800 0.52000 23.81800
H  14.65300 0.76400 23.43000
H  15.48800 -0.40900 22.49300
H  16.01800 2.11300 21.34700
H  14.24000 1.93000 21.75900
H  15.11900 0.76400 20.63700
H  14.90100 4.67500 26.26700
H  13.99300 4.75700 27.88600
H  13.44900 3.79400 26.52900
H  14.80700 1.88100 32.08400
H  16.66900 4.58400 34.81500
H  14.97500 5.22300 34.65700
H  16.39500 5.57100 33.51600
Mg 35.52300 48.65200 25.24900
C  35.74800 46.79800 28.26500
C  34.28300 51.39300 27.03300
C  34.81600 49.99500 22.34600
C  36.37700 45.58400 23.53100
N  34.92400 48.96500 27.33700
C  35.18500 48.10800 28.37600
C  35.16200 48.83100 29.66000
C  34.44100 50.15200 29.29400
C  34.54600 50.20000 27.83900
C  32.97300 50.46900 29.89100
C  36.54500 49.01400 30.36800
C  36.64000 48.61700 31.85500
H  35.44500 48.97300 32.76400
N  34.78300 50.50400 24.69000
C  34.38500 51.57400 25.59300
C  34.07700 52.73400 24.83000
C  34.20700 52.32700 23.46200
C  34.57700 50.85300 23.43800
C  33.70500 54.12000 25.49700
C  33.97000 53.12100 22.17700
O  34.18700 52.63200 21.07900
C  33.48800 54.52700 22.24500
N  35.47200 47.85200 23.20400
C  35.17400 48.62400 22.21400
C  35.39100 47.92000 20.80100
C  35.93900 46.55800 21.16700
C  35.99600 46.72100 22.71700
C  34.03400 47.86900 19.96800
C  37.23200 46.08100 20.47400
C  38.52500 46.82700 20.74500
N  36.02200 46.60800 25.74800
C  36.37000 45.56400 24.93800
C  36.75800 44.35300 25.78600
C  36.59700 44.80200 27.08300
C  36.09100 46.16600 26.99600
C  37.27900 43.00900 25.39100
C  36.70500 44.48400 28.48400
O  36.99700 43.43900 29.09900
C  36.24700 45.75900 29.30100
C  35.14800 45.40000 30.20000
O  33.97000 45.17300 29.92400
O  35.58800 45.23700 31.50900
C  34.65000 44.65000 32.46200
H  33.85900 52.29200 27.48600
H  34.76600 50.40200 21.33400
H  36.67600 44.73800 22.90800
H  34.49500 48.33500 30.36500
H  34.98100 51.04100 29.61900
H  32.21700 50.60100 29.11700
H  32.97300 51.30000 30.59700
H  32.78300 49.54400 30.43500
H  36.84400 50.06000 30.30000
H  37.37400 48.46300 29.92400
H  37.58900 48.86700 32.33000
H  36.60600 47.52800 31.89400
H  33.84000 55.03500 24.92000
H  34.28800 54.23800 26.41100
H  32.66000 54.16700 25.80300
H  32.65900 54.69800 22.93100
H  33.19700 54.88400 21.25700
H  34.32800 55.08800 22.65400
H  36.12400 48.51000 20.25100
H  35.26900 45.71500 20.99400
H  33.99000 46.94700 19.38800
H  33.92700 48.64300 19.20800
H  33.16700 47.94300 20.62500
H  37.03700 46.11100 19.40200
H  37.37700 45.04700 20.78400
H  39.32100 46.22500 21.18400
H  38.39500 47.65100 21.44700
H  39.06200 47.26800 19.90500
H  37.52400 42.92200 24.33200
H  36.51600 42.23500 25.47100
H  38.12300 42.78700 26.04300
H  37.06600 46.04100 29.96300
H  34.17200 43.78500 32.00200
H  33.75700 45.22400 32.71000
H  35.21800 44.46100 33.37300

