158

Mg 1.28300 8.28500 25.32200
C  2.06900 10.12900 28.22600
C  1.61500 5.43800 27.22300
C  0.87600 6.66700 22.60400
C  1.28800 11.34100 23.54100
N  1.79400 7.89100 27.49700
C  1.91100 8.78200 28.57100
C  1.97800 8.13600 29.92100
C  2.09700 6.64400 29.51100
C  1.78100 6.66900 27.97000
C  3.50900 5.96300 29.79500
C  0.65400 8.41600 30.70400
C  0.67000 8.47200 32.23300
H  1.98200 7.93600 32.89100
N  1.23400 6.29900 24.95000
C  1.31300 5.30400 25.81700
C  1.26600 4.01700 25.06200
C  0.98900 4.40200 23.72400
C  1.12100 5.85500 23.66200
C  1.40600 2.62600 25.80000
C  0.64200 3.49100 22.61900
O  0.24300 3.83700 21.50200
C  0.70800 1.98300 22.72600
N  0.97700 8.85800 23.41300
C  0.85100 8.01900 22.40800
C  0.56000 8.66400 21.06900
C  0.40300 10.20700 21.48800
C  0.99900 10.14000 22.89500
C  1.72200 8.57000 19.99100
C  -1.04900 10.78600 21.55300
C  -2.00100 10.50200 20.41400
N  1.74300 10.26300 25.73700
C  1.69800 11.42900 24.90800
C  2.09300 12.57800 25.69200
C  2.23100 12.11900 26.97500
C  1.99700 10.69900 26.96100
C  2.14700 13.93100 25.19800
C  2.50800 12.53700 28.34100
O  2.93700 13.55800 28.74700
C  2.25300 11.32100 29.21400
C  3.35100 11.14200 30.24500
O  4.45200 10.73000 29.99400
O  2.95600 11.63700 31.43100
C  3.99000 11.65400 32.50100
H  1.51300 4.55900 27.86300
H  0.74700 6.18500 21.63300
H  1.26500 12.21400 22.88600
H  2.85400 8.45900 30.48400
H  1.38300 5.98300 30.00200
H  4.31100 6.65300 30.05700
H  3.96300 5.51400 28.91100
H  3.42100 5.15000 30.51600
H  -0.12900 7.70700 30.43400
H  0.36300 9.37200 30.27000
H  -0.20600 8.00900 32.68600
H  0.59100 9.50800 32.56300
H  2.18200 2.04600 25.30000
H  0.41400 2.23600 25.57500
H  1.53500 2.77800 26.87200
H  0.40800 1.59200 21.75400
H  -0.05400 1.64200 23.42700
H  1.74800 1.71500 22.90900
H  -0.43300 8.41700 20.69200
H  1.11300 10.80100 20.91300
H  2.59700 8.53700 20.64100
H  1.85100 9.43500 19.34100
H  1.65900 7.69600 19.34300
H  -0.99100 11.86300 21.71000
H  -1.47100 10.13500 22.31800
H  -1.39600 10.26000 19.54000
H  -2.66800 11.28200 20.04600
H  -2.57600 9.59700 20.60900
H  1.57100 14.43900 25.97100
H  1.78900 14.08900 24.18100
H  3.15200 14.35300 25.19600
H  1.31500 11.35600 29.76700
H  5.02200 11.54400 32.16600
H  3.76200 10.87400 33.22800
H  3.92200 12.54400 33.12600
Mg 52.69900 23.93000 44.79900
C  49.81800 25.69600 44.07800
C  51.35300 21.18800 43.36700
C  55.80000 22.69700 44.70400
C  54.16800 27.02700 46.04600
N  50.74400 23.48900 43.94400
C  49.73500 24.37900 43.67800
C  48.67600 23.65800 42.74700
C  49.08600 22.14500 42.99600
C  50.45100 22.25700 43.51800
C  48.19900 21.36000 43.99800
C  48.97500 24.02100 41.30300
C  47.90300 24.57200 40.39700
H  47.98800 24.04100 38.96900
N  53.42900 22.18600 44.19700
C  52.76500 21.15200 43.68100
C  53.61900 20.02900 43.48200
C  54.86300 20.35700 44.03400
C  54.76900 21.83200 44.37400
C  53.18700 18.71500 42.98100
C  56.03600 19.46700 44.02900
O  56.12500 18.33000 43.41700
C  57.22100 19.83100 44.92600
N  54.75200 24.89800 45.12800
C  55.79900 24.05400 45.11000
C  57.08400 24.76600 45.68800
C  56.50800 26.20900 46.07900
C  55.07800 26.10800 45.65100
C  57.81800 23.93500 46.80900
C  57.29200 27.38500 45.44900
C  57.67900 28.59000 46.34300
N  52.10300 25.98500 45.09800
C  52.81700 27.11000 45.63500
C  51.85700 28.23000 45.73800
C  50.64900 27.67500 45.17100
C  50.88400 26.39100 44.74200
C  52.03600 29.54200 46.40100
C  49.24200 28.03100 44.87600
O  48.50500 29.00500 45.19900
C  48.65600 26.77800 44.16800
C  48.27400 27.37500 42.85600
O  48.99400 27.42200 41.86100
O  46.96700 27.53600 42.75000
C  46.43300 28.13100 41.54800
H  51.02600 20.31900 42.79300
H  56.82700 22.33400 44.63300
H  54.42900 27.91000 46.63300
H  47.65400 23.87400 43.05800
H  49.31000 21.51800 42.13300
H  47.24400 21.85400 44.17200
H  48.68900 21.27700 44.96900
H  48.08800 20.34900 43.60600
H  49.36400 23.13800 40.79600
H  49.78500 24.74200 41.19900
H  48.08600 25.64100 40.29300
H  46.93000 24.32400 40.82200
H  53.67600 18.68200 42.00700
H  52.13300 18.47200 42.85000
H  53.59000 17.93300 43.62400
H  57.96200 20.48700 44.46800
H  57.56800 18.84800 45.24300
H  56.89900 20.36300 45.82100
H  57.85800 24.88200 44.92900
H  56.41000 26.25900 47.16400
H  58.18100 24.60400 47.59000
H  58.71900 23.51000 46.36800
H  57.17100 23.25600 47.36400
H  56.54700 27.84300 44.79800
H  58.07700 27.00600 44.79500
H  58.74400 28.72300 46.53200
H  57.24500 28.56500 47.34300
H  57.24800 29.43500 45.80700
H  52.56600 29.40400 47.34300
H  51.04200 29.97400 46.52300
H  52.56800 30.29200 45.81500
H  47.82300 26.35500 44.73100
H  45.46500 28.55600 41.81300
H  46.34900 27.38200 40.76100
H  47.07100 28.95300 41.22400

