158

Mg 35.86800 2.14100 30.76800
C  33.23500 3.30300 32.85500
C  37.73900 1.84100 33.57100
C  38.44200 1.45600 28.75300
C  33.82400 2.52000 28.07800
N  35.47200 2.64900 32.95400
C  34.39200 3.06900 33.58800
C  34.48800 2.90100 35.08100
C  36.01500 2.82300 35.32400
C  36.44800 2.37600 33.85000
C  36.69000 4.18700 35.83300
C  33.69800 1.70300 35.62000
C  32.73800 2.13800 36.74500
H  33.40600 3.11800 37.68900
N  37.86900 1.83600 31.15200
C  38.37000 1.58700 32.37600
C  39.71600 1.02700 32.23500
C  40.01300 0.97800 30.82200
C  38.75500 1.43800 30.13000
C  40.71000 0.67100 33.32000
C  41.24800 0.61900 30.11900
O  41.42800 0.58400 28.94000
C  42.51000 0.24400 30.95700
N  36.16100 2.20100 28.68200
C  37.33000 1.86900 28.05500
C  37.21300 1.90100 26.45400
C  35.61400 1.98800 26.26500
C  35.16800 2.25700 27.72900
C  37.93200 3.07200 25.75400
C  34.96100 0.67800 25.61700
C  34.05600 0.87800 24.38100
N  33.91800 2.78500 30.44000
C  33.20300 2.80800 29.24300
C  31.87100 3.14700 29.53800
C  31.81200 3.37400 30.95900
C  33.09200 3.10100 31.47700
C  30.75900 3.36200 28.58800
C  30.95800 3.82500 32.09300
O  29.80000 4.24000 32.16400
C  31.91400 3.80700 33.34900
C  31.97400 5.16700 34.01000
O  32.37200 6.19500 33.53000
O  31.53800 5.01100 35.32200
C  31.42500 6.33300 36.11400
H  38.27300 1.48600 34.45500
H  39.36700 1.46200 28.17200
H  33.15600 2.53500 27.21300
H  34.21100 3.85800 35.52200
H  36.29200 1.97400 35.94900
H  37.44200 4.45800 35.09200
H  37.19800 4.10500 36.79400
H  35.90300 4.93700 35.90900
H  34.27600 0.83800 35.94400
H  33.03300 1.31400 34.84800
H  32.48800 1.21700 37.27200
H  31.82500 2.52500 36.29200
H  40.77700 -0.41600 33.28200
H  40.29000 0.96800 34.28100
H  41.60400 1.25200 33.09500
H  42.37900 -0.44400 31.79300
H  42.92500 1.11800 31.45700
H  43.29700 -0.19800 30.34600
H  37.65000 0.94800 26.15300
H  35.28000 2.78700 25.60400
H  38.39100 3.68400 26.53100
H  37.25200 3.72400 25.20600
H  38.71700 2.64100 25.13300
H  34.46900 0.16000 26.44000
H  35.76800 -0.00400 25.34900
H  34.43600 1.79600 23.93200
H  33.02100 0.87400 24.72400
H  34.21500 0.00700 23.74600
H  30.87500 2.82700 27.64600
H  30.64900 4.44400 28.51600
H  29.92700 2.95100 29.16000
H  31.47900 3.15500 34.10500
H  30.71300 6.21300 36.93000
H  31.15900 7.18700 35.49100
H  32.32500 6.58200 36.67700
Mg -0.35700 44.12200 25.12000
C  1.42100 43.56100 28.22000
C  -3.17900 43.25200 26.71800
C  -1.66600 43.67300 22.05400
C  2.96000 44.36300 23.54600
N  -0.80500 43.39300 27.24700
C  0.02300 43.37900 28.36200
C  -0.83500 43.32900 29.64700
C  -2.20600 42.88900 29.06500
C  -2.09600 43.31500 27.56200
C  -2.69100 41.39500 29.25400
C  -0.80700 44.61100 30.59600
C  -0.49100 44.46600 32.08900
H  -0.82500 43.15200 32.82000
N  -2.16800 43.61800 24.43700
C  -3.19700 43.33000 25.29600
C  -4.41800 43.25700 24.48000
C  -4.03800 43.43100 23.14100
C  -2.57800 43.60200 23.14400
C  -5.77800 43.00000 25.20600
C  -4.81500 43.31100 21.90400
O  -4.32300 43.49400 20.83500
C  -6.29400 43.04000 22.04700
N  0.55100 43.82400 23.09200
C  -0.26500 43.79000 22.03800
C  0.49500 43.83500 20.74200
C  1.95300 44.15200 21.19900
C  1.86800 44.08100 22.71200
C  0.30300 42.54900 19.88800
C  2.52300 45.54400 20.74400
C  1.68500 46.74600 21.21000
N  1.70400 44.24100 25.71900
C  2.87700 44.46100 24.98800
C  3.99600 44.60500 25.88700
C  3.44500 44.23100 27.11200
C  2.07500 43.94400 26.98700
C  5.47100 44.83400 25.55300
C  3.85200 44.10100 28.49200
O  4.91000 44.21500 29.13800
C  2.54900 43.65100 29.28400
C  2.86800 42.41400 30.05900
O  3.04900 41.31300 29.61000
O  2.91900 42.71200 31.44600
C  3.03300 41.53600 32.41300
H  -4.15700 43.01000 27.14000
H  -2.09900 43.81400 21.06100
H  3.87400 44.57400 22.98700
H  -0.36400 42.51000 30.19100
H  -2.88600 43.60900 29.52000
H  -1.85800 40.86200 29.71200
H  -2.93600 40.82900 28.35500
H  -3.47700 41.32700 30.00600
H  -1.77900 45.09500 30.49300
H  -0.05700 45.26500 30.15200
H  -1.13500 45.25100 32.48400
H  0.52600 44.78600 32.31800
H  -6.03700 43.78900 25.91200
H  -5.55000 42.10600 25.78500
H  -6.58600 42.71800 24.53100
H  -6.46600 42.00900 22.35500
H  -6.71200 43.19400 21.05200
H  -6.80700 43.87100 22.53000
H  0.12800 44.65400 20.12300
H  2.60900 43.37000 20.81600
H  -0.04600 41.86000 20.65600
H  1.23200 42.20400 19.43200
H  -0.41500 42.72900 19.08800
H  2.33500 45.55800 19.67000
H  3.56800 45.69600 21.01200
H  1.10900 47.13000 20.36800
H  2.47200 47.45600 21.46800
H  1.02300 46.60800 22.06500
H  5.68900 44.44000 24.56100
H  6.12700 44.31700 26.25400
H  5.69300 45.90100 25.54900
H  2.32800 44.43400 30.00900
H  4.04500 41.17300 32.23500
H  2.31900 40.74200 32.19300
H  2.87900 42.00500 33.38500

