158

Mg 35.57600 1.87800 29.21400
C  33.39800 3.06000 31.68300
C  38.09500 2.04400 31.40200
C  37.45400 1.11800 26.64700
C  32.72800 1.92700 27.00400
N  35.77700 2.72900 31.30700
C  34.67200 2.89400 32.14800
C  35.15200 2.86200 33.62800
C  36.74200 2.80600 33.44700
C  36.92200 2.48000 31.98500
C  37.38400 4.13500 33.83600
C  34.39100 1.68300 34.40500
C  33.93300 1.94800 35.87700
H  34.39700 3.27800 36.52300
N  37.50000 1.59100 29.06800
C  38.44800 1.67800 30.09800
C  39.69400 1.17100 29.57200
C  39.54900 1.02200 28.16900
C  38.10700 1.24200 27.88300
C  40.87500 0.89700 30.48500
C  40.57000 0.62700 27.16100
O  40.31400 0.49900 25.96600
C  42.01100 0.46100 27.54600
N  35.09100 1.50200 27.07800
C  36.08500 1.15200 26.24400
C  35.59600 0.94800 24.77000
C  34.06200 0.95800 25.04000
C  33.91200 1.44400 26.44300
C  36.07600 2.01600 23.80000
C  33.32300 -0.41400 24.85100
C  32.73700 -0.61100 23.48800
N  33.51300 2.48700 29.25000
C  32.52800 2.48400 28.31400
C  31.21900 2.96500 28.84700
C  31.56700 3.20800 30.17000
C  32.95200 2.94300 30.36300
C  29.84600 3.14500 28.17100
C  30.96700 3.59900 31.40100
O  29.87100 3.98800 31.80300
C  32.12200 3.44100 32.45300
C  32.23400 4.75700 33.20800
O  32.80000 5.75400 32.75800
O  31.60800 4.64200 34.37600
C  31.32400 5.92900 35.15000
H  38.95400 1.92200 32.06500
H  38.12100 0.86200 25.82100
H  31.83100 1.93900 26.38100
H  34.86600 3.78700 34.13000
H  37.22700 2.08100 34.10100
H  38.13000 4.01100 34.62100
H  36.74600 4.96600 34.13600
H  37.99700 4.55600 33.04000
H  35.09300 0.85300 34.48200
H  33.50200 1.38300 33.85000
H  34.13300 1.10400 36.53700
H  32.84800 1.96800 35.78100
H  41.31000 -0.07500 30.25500
H  40.69300 0.79400 31.55500
H  41.55500 1.72900 30.30300
H  42.67500 0.31000 26.69400
H  42.12500 -0.31800 28.30000
H  42.43200 1.34000 28.03300
H  35.94800 -0.05100 24.51300
H  33.56200 1.68400 24.39900
H  35.22500 2.42100 23.25300
H  36.87900 1.57000 23.21200
H  36.39300 2.84700 24.43000
H  32.57000 -0.62500 25.61000
H  34.06400 -1.20900 24.93700
H  31.65900 -0.48700 23.58200
H  32.95600 -1.63300 23.17900
H  33.09200 0.05600 22.70200
H  29.61700 4.20000 28.02000
H  29.23100 2.65300 28.92400
H  29.79400 2.64500 27.20400
H  31.77300 2.64100 33.10600
H  30.48300 6.47200 34.71900
H  32.08500 6.69900 35.27800
H  31.11400 5.50700 36.13300
Mg 41.70700 42.12700 26.00000
C  40.98700 44.36100 28.77100
C  42.71700 39.94100 28.38800
C  42.67300 40.22600 23.52300
C  40.90500 44.67400 23.84600
N  41.94300 42.19700 28.42400
C  41.49600 43.13200 29.27500
C  41.71000 42.68300 30.76300
C  42.06200 41.19000 30.57600
C  42.17100 41.06100 29.08100
C  43.25700 40.59500 31.44400
C  40.46900 43.15100 31.63700
C  40.13500 42.41100 32.94900
H  41.16800 42.67400 34.08300
N  42.47600 40.25100 25.94000
C  42.92100 39.58000 27.04800
C  43.52700 38.33300 26.62200
C  43.41100 38.35100 25.18900
C  42.83300 39.58200 24.77500
C  44.17500 37.23800 27.52800
C  43.82300 37.32700 24.12500
O  43.56800 37.52300 22.94300
C  44.51200 36.14300 24.56000
N  41.89100 42.50100 23.98900
C  42.07200 41.44400 23.10100
C  42.04600 41.88200 21.56200
C  41.14900 43.14100 21.81800
C  41.35500 43.48000 23.25900
C  43.38200 42.18400 20.84700
C  39.65300 43.03700 21.30300
C  38.85300 41.76700 21.50800
N  41.14200 44.11600 26.24500
C  40.81200 45.03100 25.22400
C  40.34900 46.30600 25.82400
C  40.42400 46.06400 27.20000
C  40.94400 44.73600 27.39300
C  39.98400 47.56000 25.08700
C  40.12600 46.69600 28.47800
O  39.60200 47.81300 28.70100
C  40.47200 45.56700 29.52400
C  41.35700 46.10600 30.57000
O  42.58600 46.24000 30.41800
O  40.64700 46.47700 31.64600
C  41.39300 46.68900 32.86900
H  42.93300 39.11200 29.06600
H  43.03900 39.68100 22.65000
H  40.58000 45.42600 23.12500
H  42.62400 43.22400 31.00600
H  41.13000 40.66600 30.78900
H  43.92700 40.01000 30.81500
H  42.83900 39.86400 32.13600
H  43.77400 41.43000 31.91700
H  39.56000 43.02500 31.04900
H  40.43900 44.19800 31.94100
H  40.00100 41.33000 32.91900
H  39.18000 42.87000 33.20500
H  45.16100 37.12500 27.07600
H  43.71600 36.26700 27.34100
H  44.10400 37.39000 28.60500
H  44.69000 35.53400 23.67400
H  43.88100 35.64800 25.29800
H  45.45100 36.47200 25.00700
H  41.47100 41.16500 20.97700
H  41.52900 44.06800 21.38800
H  43.73700 43.14300 21.22500
H  43.37700 42.12900 19.75900
H  44.14700 41.44700 21.09200
H  39.81400 43.13100 20.22900
H  39.20400 43.97400 21.63300
H  37.85500 42.10700 21.78500
H  39.37000 41.20500 22.28500
H  38.83700 41.28500 20.53000
H  39.31300 47.19300 24.31000
H  40.93900 47.92700 24.71200
H  39.64700 48.26100 25.85100
H  39.56600 45.29000 30.06400
H  41.14200 45.80800 33.45900
H  40.93000 47.50300 33.42700
H  42.45900 46.87500 32.73800

