158

Mg 46.16700 24.99500 28.77400
C  47.11200 27.44100 31.28800
C  45.18100 22.89000 31.19500
C  46.08900 22.64400 26.46200
C  47.38900 27.28000 26.39800
N  46.25500 25.16300 30.99300
C  46.51900 26.25400 31.80900
C  45.92800 26.02400 33.23200
C  45.71000 24.41400 33.22400
C  45.68700 24.11700 31.69100
C  46.66700 23.35500 33.88400
C  44.65800 26.83700 33.57500
C  44.87900 27.92400 34.69500
H  43.93500 27.89000 35.88600
N  45.68200 23.09300 28.80200
C  45.15600 22.40200 29.88000
C  44.75200 21.11100 29.43100
C  45.03000 20.97200 28.04800
C  45.68900 22.24900 27.76300
C  44.23800 20.07600 30.52800
C  44.69700 19.85700 27.06500
O  45.08100 19.86400 25.86500
C  43.96900 18.62400 27.49300
N  46.47200 25.02900 26.68400
C  46.49700 23.88800 26.00000
C  46.96700 24.10700 24.51600
C  46.89100 25.68700 24.43100
C  46.88000 26.06200 25.91500
C  48.29500 23.47400 24.13000
C  45.64600 26.25500 23.68200
C  44.27100 25.91800 24.29600
N  47.11700 26.97100 28.75900
C  47.47400 27.76700 27.68800
C  48.08000 29.05300 28.20500
C  47.92000 28.97400 29.61200
C  47.34800 27.67200 29.91500
C  48.68500 30.08300 27.31300
C  48.09800 29.60900 30.90100
O  48.43700 30.76800 31.06700
C  47.59000 28.66600 31.98900
C  48.65600 28.31700 32.89000
O  49.48500 27.39900 32.65600
O  48.59000 29.02100 34.07400
C  49.62400 28.76100 35.04900
H  44.76600 22.17400 31.90700
H  46.12200 22.00100 25.58000
H  47.74400 28.06000 25.72200
H  46.68800 26.30600 33.96000
H  44.75800 24.15500 33.68800
H  46.98600 22.61500 33.14900
H  46.11600 22.80600 34.64700
H  47.55700 23.73800 34.38500
H  43.75900 26.28900 33.85500
H  44.39100 27.35900 32.65600
H  44.66700 28.85700 34.17200
H  45.90700 27.97800 35.05300
H  43.16500 20.08100 30.72300
H  44.80800 20.23900 31.44200
H  44.54300 19.09700 30.16000
H  43.30700 18.86900 28.32300
H  44.65700 17.81500 27.73900
H  43.37200 18.31000 26.63700
H  46.16600 23.69500 23.90300
H  47.79900 26.06400 23.96000
H  48.38000 22.58800 24.75800
H  49.08800 24.21100 24.25600
H  48.17600 23.11600 23.10700
H  45.69800 25.92500 22.64400
H  45.65900 27.33400 23.53100
H  43.63400 25.39300 23.58400
H  43.67600 26.80500 24.51500
H  44.26000 25.28600 25.18500
H  48.84700 29.70300 26.30400
H  49.59800 30.53700 27.69800
H  48.05100 30.96700 27.24400
H  46.74800 29.07500 32.54700
H  50.63400 28.58400 34.68100
H  49.37400 27.85500 35.60000
H  49.68500 29.62700 35.70900
Mg 25.63400 51.14500 26.52900
C  23.31100 52.16900 28.92000
C  27.79100 50.30000 29.16300
C  27.90400 50.28100 24.24300
C  23.69300 52.67700 24.05100
N  25.65100 51.35600 28.77100
C  24.50800 51.68100 29.53200
C  24.77400 51.51900 31.06000
C  26.33500 51.11100 31.11700
C  26.66300 50.88100 29.60700
C  27.18900 52.29300 31.84300
C  23.89700 50.29900 31.66300
C  23.33000 50.49000 32.99800
H  24.18200 51.44400 33.88100
N  27.45800 50.24700 26.64900
C  28.17300 49.92200 27.78000
C  29.30600 49.16500 27.38700
C  29.31100 49.13100 25.94900
C  28.21500 49.91400 25.55000
C  30.29900 48.54400 28.39800
C  30.39200 48.46700 25.07800
O  30.36100 48.59600 23.83600
C  31.44400 47.65100 25.73700
N  25.81800 51.55400 24.50500
C  26.81300 51.02800 23.74900
C  26.67400 51.26900 22.23400
C  25.26700 52.00400 22.20800
C  24.90600 52.14200 23.70100
C  27.72200 52.16400 21.52900
C  24.20600 51.08900 21.49500
C  23.90500 49.67100 22.12300
N  23.79400 52.23000 26.42300
C  23.11700 52.78900 25.35800
C  21.91800 53.36200 25.79900
C  21.94000 53.13200 27.18300
C  23.10100 52.47700 27.55300
C  20.88300 54.12600 24.96600
C  21.24600 53.43400 28.35800
O  20.17700 53.99200 28.50600
C  22.05300 52.79100 29.58800
C  22.40100 53.85400 30.61100
O  23.39700 54.63400 30.47100
O  21.55900 53.72700 31.67900
C  21.71600 54.68400 32.75000
H  28.38100 49.83800 29.95700
H  28.56200 50.17000 23.37900
H  22.89900 53.07800 23.41700
H  24.61000 52.49100 31.52600
H  26.45800 50.20400 31.70900
H  26.66700 52.67900 32.71900
H  27.47100 52.98800 31.05200
H  28.10300 51.78400 32.14800
H  24.41100 49.34400 31.55700
H  23.05700 50.22200 30.97300
H  23.40200 49.59500 33.61600
H  22.35500 50.97800 32.99000
H  30.57200 47.49500 28.27800
H  29.87500 48.65600 29.39600
H  31.24500 49.08400 28.44400
H  32.19700 48.15800 26.34100
H  31.90400 47.00200 24.99200
H  30.92600 46.82400 26.22100
H  26.55500 50.25800 21.84300
H  25.36200 53.00000 21.77500
H  27.35300 52.70500 20.65800
H  28.27900 51.31700 21.12700
H  28.37200 52.79700 22.13200
H  24.63300 50.77400 20.54300
H  23.19900 51.47300 21.33200
H  24.43200 49.53300 23.06700
H  24.29500 48.79100 21.61100
H  22.84500 49.60300 22.36800
H  19.87200 53.97000 25.34300
H  20.90500 53.78100 23.93300
H  21.28300 55.14000 24.99000
H  21.41600 52.07300 30.10500
H  22.12800 54.30800 33.68700
H  20.72400 55.03100 33.03800
H  22.31300 55.57100 32.53900

