158

Mg 9.33700 3.82000 27.23500
C  10.29200 2.19200 30.31500
C  7.63000 6.07400 29.19600
C  7.88000 4.99000 24.47400
C  10.55200 1.05600 25.43800
N  9.02600 4.03600 29.57000
C  9.56800 3.28100 30.60800
C  9.07600 3.85100 31.94700
C  8.01900 4.90400 31.47800
C  8.23300 5.02900 30.02300
C  6.51900 4.51800 31.82100
C  10.31100 4.41100 32.71700
C  10.71500 3.70200 34.02700
H  11.09700 4.48500 35.34100
N  8.06100 5.43000 26.81600
C  7.59000 6.30100 27.76100
C  6.85600 7.33200 27.07600
C  6.76500 6.99700 25.67700
C  7.59100 5.75700 25.61400
C  6.19700 8.49200 27.76000
C  5.99700 7.62000 24.51600
O  5.91800 7.08100 23.41500
C  5.50000 9.07600 24.66200
N  9.15400 3.05900 25.35100
C  8.52000 3.75000 24.33000
C  8.56500 3.02800 22.98500
C  9.84700 2.01300 23.24800
C  9.85300 2.04600 24.77800
C  7.22100 2.37100 22.59000
C  11.22300 2.46300 22.58800
C  11.22900 2.32800 21.01200
N  10.30600 1.99000 27.76400
C  10.79100 1.07200 26.90700
C  11.36600 -0.05700 27.69300
C  11.21200 0.36500 29.02800
C  10.59800 1.65300 29.05400
C  11.85200 -1.40900 27.26100
C  11.38400 -0.04400 30.45100
O  11.83200 -1.09800 30.88600
C  10.91200 1.14600 31.32900
C  10.09800 0.51400 32.39100
O  8.88400 0.17100 32.26900
O  10.88800 0.33000 33.54600
C  10.18000 -0.30300 34.63200
H  7.08200 6.82700 29.76600
H  7.37800 5.28200 23.54900
H  10.73700 0.17000 24.82800
H  8.68600 3.03500 32.55700
H  8.17700 5.89400 31.90300
H  5.99100 4.32000 30.88700
H  6.12000 5.37300 32.36600
H  6.32700 3.57700 32.33700
H  10.28300 5.46000 33.01100
H  11.15600 4.32300 32.03500
H  11.64500 3.23300 33.70400
H  10.03200 2.92800 34.37700
H  6.18400 8.50600 28.85000
H  5.15900 8.40300 27.43700
H  6.54300 9.46900 27.42300
H  4.48900 9.07200 25.06900
H  5.38700 9.61200 23.72000
H  6.11700 9.59800 25.39400
H  8.82800 3.70500 22.17200
H  9.45800 1.04500 22.93400
H  7.40500 1.31100 22.42000
H  6.92400 2.88700 21.67700
H  6.50000 2.46500 23.40200
H  12.00900 1.77800 22.90500
H  11.41900 3.48700 22.90500
H  11.36000 3.31500 20.56800
H  10.30300 1.76900 20.87300
H  12.08600 1.73400 20.69600
H  12.93100 -1.49200 27.39100
H  11.69700 -1.52700 26.18800
H  11.28700 -2.17900 27.78500
H  11.73000 1.48800 31.96200
H  9.55400 -1.06300 34.16400
H  9.52500 0.36700 35.18900
H  10.88400 -0.84800 35.26000
Mg 36.97900 49.01700 24.99800
C  36.84300 47.18600 28.07800
C  36.22900 51.83800 26.74900
C  36.80500 50.70000 22.12200
C  37.41900 46.00200 23.29300
N  36.44200 49.41200 27.16600
C  36.53800 48.58500 28.19900
C  36.21600 49.26800 29.57000
C  35.73200 50.72800 29.11100
C  36.23800 50.69300 27.56500
C  34.21500 50.91800 29.18400
C  37.36700 49.31900 30.47600
C  37.02900 49.56600 31.98600
H  35.60500 49.63100 32.41200
N  36.57800 51.04500 24.56200
C  36.40000 52.09300 25.41800
C  36.40500 53.33400 24.71900
C  36.59100 52.99900 23.35100
C  36.66300 51.51200 23.28600
C  36.24800 54.67500 25.39500
C  36.56800 53.86100 22.12100
O  36.78600 53.54400 20.99100
C  36.36900 55.31400 22.25200
N  36.81900 48.40900 22.98700
C  36.89700 49.26300 21.95600
C  37.15200 48.64900 20.56400
C  37.42000 47.15300 21.07900
C  37.18300 47.16300 22.55700
C  36.02400 48.69300 19.50100
C  38.90100 46.68800 20.80300
C  39.10800 45.20700 20.32000
N  37.15800 47.03300 25.55300
C  37.32300 45.92600 24.70900
C  37.44700 44.76800 25.52400
C  37.28700 45.26700 26.86300
C  37.08700 46.60700 26.79200
C  37.62300 43.35100 25.04800
C  37.32500 44.84400 28.23800
O  37.47400 43.76400 28.77000
C  37.10500 46.08100 29.11700
C  35.99400 45.99800 30.18900
O  34.83800 45.80800 29.94700
O  36.48200 45.78700 31.50600
C  35.51600 45.24500 32.46000
H  35.95800 52.68200 27.38600
H  36.86800 51.15300 21.13100
H  37.43400 45.04000 22.77800
H  35.38800 48.64300 29.90300
H  36.19900 51.55900 29.64100
H  33.91000 51.79300 29.75700
H  33.68100 50.01400 29.47700
H  33.93900 50.93700 28.13000
H  37.97100 50.17400 30.17100
H  37.97700 48.44900 30.23400
H  37.51300 50.46500 32.36900
H  37.48700 48.74500 32.53800
H  36.26200 54.48700 26.46800
H  35.36500 55.24800 25.11000
H  37.10300 55.29600 25.13100
H  36.96600 55.69800 23.07900
H  35.32700 55.52900 22.49100
H  36.57800 55.79800 21.29800
H  38.10200 48.97500 20.14000
H  36.78700 46.32600 20.75700
H  36.36000 48.99200 18.50800
H  35.31400 49.45400 19.82700
H  35.43200 47.77800 19.52200
H  39.57100 46.83800 21.65000
H  39.24200 47.32300 19.98600
H  38.19900 44.68900 20.01400
H  39.53200 44.62500 21.13800
H  39.83600 45.19500 19.50900
H  37.72100 42.73300 25.94100
H  38.41500 43.33900 24.29800
H  36.64300 43.13900 24.62200
H  38.09900 46.02400 29.56300
H  35.13900 46.09100 33.03500
H  36.11000 44.60200 33.10900
H  34.66100 44.72800 32.02400

