158

Mg 46.50600 24.94600 29.16100
C  47.11000 27.31200 31.63600
C  45.51500 22.74200 31.56700
C  46.46400 22.64400 26.87800
C  48.17300 27.21100 26.87500
N  46.23500 25.10400 31.34200
C  46.55100 26.14400 32.12300
C  46.08700 25.85400 33.52100
C  45.80900 24.30500 33.53600
C  45.96900 23.96100 32.07200
C  46.63900 23.44400 34.45800
C  44.95100 26.78300 34.12600
C  45.17900 27.62500 35.46000
H  45.73400 26.87000 36.66000
N  45.90000 22.98700 29.17900
C  45.47400 22.27200 30.24300
C  45.04000 20.92200 29.83700
C  45.28800 20.85700 28.38500
C  45.96300 22.17400 28.08700
C  44.44500 19.88700 30.66200
C  44.88800 19.77700 27.35500
O  45.16100 19.89000 26.18400
C  44.10600 18.57200 27.75400
N  47.17300 25.01200 27.15800
C  47.10100 23.84900 26.42800
C  47.67900 24.03800 24.96300
C  48.27600 25.46400 25.11000
C  47.81000 25.93000 26.44300
C  48.83100 23.03900 24.69600
C  47.78300 26.34400 23.92300
C  48.73200 26.55400 22.75700
N  47.38500 26.95100 29.18000
C  47.98400 27.68000 28.18900
C  48.34200 28.93300 28.64900
C  48.01500 28.90700 30.05700
C  47.47100 27.61600 30.31300
C  49.16300 29.98800 27.94200
C  48.12300 29.62800 31.31500
O  48.52400 30.80900 31.51300
C  47.57600 28.50700 32.42200
C  48.57800 28.04800 33.45700
O  49.22900 27.00800 33.40700
O  48.70800 29.07600 34.35700
C  49.51400 28.74800 35.52500
H  45.17800 22.04500 32.33700
H  46.37700 21.87500 26.10800
H  48.67300 27.86000 26.15300
H  46.96700 25.97600 34.15200
H  44.76900 24.06300 33.75600
H  47.34100 22.76200 33.97800
H  46.02600 22.83400 35.12200
H  47.20300 24.04500 35.17200
H  44.02800 26.25400 34.36200
H  44.62700 27.46800 33.34300
H  44.17000 27.93600 35.73100
H  45.91100 28.35500 35.11500
H  43.55500 19.45000 30.20900
H  44.11600 20.19200 31.65600
H  45.03900 18.99200 30.84600
H  43.06400 18.86500 27.87900
H  44.52900 18.08200 28.63000
H  44.17100 17.84700 26.94200
H  46.80000 23.81700 24.35700
H  49.36500 25.42800 25.08600
H  49.41300 23.48100 23.88800
H  48.35100 22.10300 24.41100
H  49.46100 22.76000 25.54000
H  47.52500 27.34700 24.26200
H  46.88700 25.87800 23.51400
H  49.26300 27.50500 22.70200
H  48.02600 26.53300 21.92600
H  49.45200 25.74600 22.63500
H  49.48800 29.59700 26.97800
H  49.96100 30.39600 28.56300
H  48.59200 30.89400 27.73600
H  46.81800 28.91900 33.08700
H  48.85200 28.54500 36.36600
H  50.09600 29.57300 35.93600
H  50.22100 27.92600 35.41300
Mg -2.25200 35.44700 26.34300
C  -3.85500 33.42700 28.74900
C  -1.30800 37.57100 29.03700
C  -0.73600 37.49200 24.08600
C  -3.45000 33.50400 23.91200
N  -2.70000 35.53200 28.64700
C  -3.16600 34.48500 29.40600
C  -2.90700 34.73500 30.91800
C  -2.32500 36.20800 30.87400
C  -2.17500 36.53900 29.47000
C  -3.04800 37.24700 31.66300
C  -2.05800 33.62600 31.69600
C  -2.65600 33.03700 33.04100
H  -1.73800 33.07900 34.31500
N  -1.06800 37.22100 26.54400
C  -0.77300 37.83300 27.72400
C  0.04300 38.96700 27.36900
C  0.35500 39.04200 25.95800
C  -0.50200 37.86600 25.43100
C  0.45300 39.84200 28.49100
C  1.18300 39.93500 25.12000
O  1.20500 39.92200 23.89000
C  1.99100 40.97800 25.76300
N  -2.01500 35.38600 24.35000
C  -1.37500 36.35800 23.58000
C  -1.85500 36.17500 22.15900
C  -1.97500 34.62600 22.10600
C  -2.53000 34.44100 23.55400
C  -3.03600 36.97300 21.63000
C  -0.65700 33.87200 21.94300
C  -0.52900 33.12000 20.59900
N  -3.56500 33.94200 26.34300
C  -3.97800 33.24500 25.24600
C  -4.89200 32.15800 25.64500
C  -4.80200 32.19900 27.06600
C  -4.04400 33.37800 27.41800
C  -5.61600 31.14500 24.79000
C  -5.21100 31.53200 28.28000
O  -5.98100 30.56700 28.44800
C  -4.57500 32.28300 29.41600
C  -5.54700 32.64400 30.45000
O  -6.42200 33.55200 30.33100
O  -5.34300 31.89300 31.61400
C  -6.19800 32.13400 32.76100
H  -0.91900 38.14900 29.87800
H  -0.35900 38.15700 23.30700
H  -3.71800 32.82900 23.09800
H  -3.89200 34.83700 31.37400
H  -1.37300 36.21000 31.40400
H  -3.69600 37.81100 30.99200
H  -2.31300 37.83500 32.21300
H  -3.80900 36.91400 32.36800
H  -1.06100 33.97600 31.96600
H  -1.88900 32.78000 31.03000
H  -2.89300 31.98100 32.90500
H  -3.58200 33.55000 33.29700
H  0.56100 39.33200 29.44800
H  -0.36100 40.56300 28.56300
H  1.37100 40.42400 28.40600
H  2.63400 41.54500 25.09000
H  2.59300 40.51500 26.54500
H  1.30500 41.74800 26.11800
H  -0.95400 36.49300 21.63500
H  -2.66600 34.25700 21.34900
H  -3.65700 37.34100 22.44700
H  -3.69400 36.43000 20.95200
H  -2.66800 37.82700 21.06200
H  -0.62400 33.18300 22.78700
H  0.16800 34.57200 22.07400
H  -0.74400 32.05800 20.71700
H  0.53600 33.09000 20.36700
H  -1.01700 33.57400 19.73700
H  -6.64800 31.40700 24.55500
H  -5.70900 30.28100 25.44700
H  -5.08600 30.85500 23.88300
H  -3.83000 31.68600 29.94200
H  -6.15700 31.25300 33.40200
H  -7.24700 32.21100 32.47400
H  -5.82200 32.95900 33.36600

