158

Mg 35.76800 0.49500 29.33200
C  33.53400 1.22500 31.80400
C  38.18300 0.25400 31.65800
C  37.96700 -0.27000 26.90300
C  33.25000 0.74400 26.81200
N  35.85700 0.76700 31.34500
C  34.85000 1.01000 32.24700
C  35.35700 1.19200 33.73000
C  36.87800 1.17300 33.55900
C  37.00400 0.69500 32.07600
C  37.69100 2.53000 33.81500
C  34.88000 -0.06200 34.60400
C  34.74500 0.17600 36.17600
H  35.38300 1.41700 36.67400
N  37.81000 0.02300 29.29600
C  38.61800 -0.07200 30.34400
C  39.93900 -0.56400 29.93100
C  39.85300 -0.64500 28.47100
C  38.53000 -0.28600 28.14200
C  41.00700 -0.97100 30.85400
C  40.86900 -1.20700 27.48500
O  40.62800 -1.42600 26.32300
C  42.27700 -1.82700 28.01700
N  35.56600 0.26800 27.17800
C  36.71100 0.01600 26.40700
C  36.32600 -0.11200 24.92900
C  34.85400 0.37400 24.92200
C  34.44200 0.32500 26.36500
C  37.17100 0.79100 24.02100
C  34.00600 -0.59800 24.12400
C  32.96500 -1.50000 24.72400
N  33.79200 0.96400 29.28600
C  32.91800 1.04100 28.21400
C  31.61000 1.40800 28.75400
C  31.79800 1.45700 30.18700
C  33.15200 1.21300 30.44900
C  30.40200 1.40100 27.96900
C  31.09800 1.54500 31.47700
O  29.95200 1.54300 31.78800
C  32.27900 1.60700 32.56500
C  32.23600 2.98100 33.23500
O  32.43300 4.01200 32.58400
O  32.13700 2.87800 34.55600
C  32.14000 4.06900 35.43200
H  38.90300 0.15300 32.47200
H  38.65800 -0.50000 26.09000
H  32.52000 0.86000 26.00800
H  34.98600 2.13600 34.13000
H  37.34600 0.53100 34.30600
H  37.13700 3.15700 34.51300
H  37.69400 2.93300 32.80300
H  38.67000 2.26100 34.21200
H  35.50900 -0.94400 34.48600
H  33.93500 -0.31300 34.12300
H  35.26900 -0.69500 36.57200
H  33.70000 0.23900 36.47900
H  41.99400 -0.59800 30.57900
H  41.00400 -2.05700 30.76400
H  40.81500 -0.45200 31.79300
H  42.80800 -1.09100 28.62100
H  42.79800 -1.93300 27.06500
H  42.01600 -2.73500 28.56000
H  36.44900 -1.19100 24.84400
H  34.61800 1.33400 24.46400
H  36.48200 1.50600 23.57000
H  37.48100 0.27400 23.11300
H  38.08000 1.14400 24.50800
H  34.72200 -1.04300 23.43400
H  33.37500 -0.08800 23.39600
H  31.92800 -1.22600 24.52800
H  33.18800 -1.76300 25.75800
H  33.05100 -2.41700 24.14100
H  30.26300 0.52400 27.33600
H  30.27600 2.15800 27.19600
H  29.51900 1.52600 28.59600
H  32.09200 0.91500 33.38600
H  32.81700 4.88200 35.16900
H  32.38200 3.77600 36.45300
H  31.12500 4.46500 35.45900
Mg 47.90500 14.34200 28.05700
C  45.89200 14.38400 30.78400
C  50.14900 16.42900 29.71300
C  49.75800 14.47700 25.26600
C  45.38100 12.89400 26.16100
N  47.91800 15.42800 29.94200
C  47.00800 15.21300 30.97200
C  47.43600 15.93900 32.25000
C  48.63400 16.77700 31.73200
C  48.94300 16.19900 30.33100
C  48.40400 18.35500 31.69500
C  47.69900 14.80000 33.29000
C  47.04400 15.04800 34.70900
H  47.91300 14.85100 35.99000
N  49.80200 15.21100 27.62900
C  50.59800 15.94200 28.40000
C  51.81000 16.20700 27.74100
C  51.79000 15.58100 26.53600
C  50.40600 15.06700 26.40500
C  52.96600 17.10400 28.32900
C  52.87300 15.39700 25.47300
O  52.69100 14.80500 24.42400
C  54.21200 15.87500 25.72000
N  47.60400 13.75500 26.06200
C  48.51200 13.92300 25.06900
C  48.20700 13.28400 23.72300
C  46.75400 12.70300 24.05200
C  46.55500 13.13600 25.50900
C  48.12800 14.22100 22.54300
C  46.73900 11.11100 23.80300
C  47.85600 10.13700 24.33900
N  45.98200 13.73500 28.32000
C  45.07200 13.20000 27.50000
C  43.88000 12.79800 28.27400
C  44.15000 13.29100 29.54600
C  45.42700 13.84400 29.49100
C  42.84100 11.92700 27.63100
C  43.70200 13.31100 30.90300
O  42.68900 12.85700 31.42500
C  44.77900 13.98800 31.81600
C  44.03800 15.15300 32.47200
O  43.72800 16.22500 31.92400
O  43.76400 14.85800 33.78300
C  43.31700 15.92700 34.60700
H  50.80900 17.06500 30.30600
H  50.26900 14.49900 24.30100
H  44.54200 12.43000 25.63800
H  46.60000 16.57100 32.55100
H  49.46900 16.48100 32.36600
H  47.48600 18.63200 32.21100
H  48.42400 18.73100 30.67200
H  49.22700 18.89400 32.16500
H  48.77400 14.66900 33.40900
H  47.24300 13.85500 32.99500
H  46.21500 14.34100 34.69500
H  46.62800 16.05500 34.70100
H  53.88900 16.52500 28.34000
H  52.53800 17.45200 29.26900
H  53.09300 17.92400 27.62200
H  54.12000 16.93700 25.95000
H  54.85600 15.86000 24.84100
H  54.76000 15.29000 26.45900
H  48.92700 12.51200 23.45300
H  45.90000 13.14700 23.54200
H  47.41200 15.01700 22.74600
H  47.75300 13.66600 21.68300
H  49.05700 14.69500 22.22600
H  46.73400 11.03600 22.71500
H  45.76200 10.70700 24.06800
H  48.29700 9.58000 23.51300
H  47.45200 9.39800 25.03100
H  48.56500 10.79900 24.83600
H  43.20100 10.94000 27.33900
H  42.32100 12.42000 26.81000
H  42.12700 11.63400 28.40000
H  45.15100 13.25300 32.53000
H  43.27600 15.50400 35.61000
H  42.36100 16.18600 34.15000
H  44.00300 16.77300 34.64700

