158

Mg 48.94400 45.81300 42.77000
C  45.61200 46.22800 41.92600
C  48.60100 42.52700 41.83500
C  52.23900 45.62900 42.72500
C  49.11800 49.29200 43.39700
N  47.36800 44.54000 41.96600
C  46.05500 44.94400 41.79700
C  45.23700 43.73800 41.38600
C  46.06100 42.53900 41.89300
C  47.42800 43.21000 41.80200
C  45.73600 42.06000 43.36800
C  45.12500 43.74500 39.81300
C  43.77100 43.34100 39.24400
H  43.33300 44.21400 38.04000
N  50.32000 44.21100 42.35800
C  49.94100 42.94800 41.96600
C  51.15500 42.22400 41.70800
C  52.32200 43.09900 42.03500
C  51.69500 44.37800 42.36800
C  51.24000 40.84300 41.04500
C  53.79200 42.80800 41.87800
O  54.12000 41.62800 41.60600
C  54.88900 43.84800 41.96400
N  50.51800 47.35100 42.73100
C  51.73400 46.94500 42.97700
C  52.64800 48.14400 43.49000
C  51.61900 49.30800 43.64100
C  50.32300 48.67500 43.25200
C  53.47800 47.85900 44.81300
C  51.90600 50.62400 42.84600
C  52.84600 51.62400 43.63700
N  47.61400 47.42100 42.81300
C  47.82800 48.76800 43.08300
C  46.58900 49.49700 42.94700
C  45.63200 48.52300 42.47000
C  46.34900 47.27800 42.42300
C  46.42800 50.94700 43.21300
C  44.24100 48.29300 42.26500
O  43.22800 48.93200 42.41100
C  44.23900 46.78800 41.87200
C  43.20100 46.10500 42.61700
O  42.21700 45.56200 42.07100
O  43.37200 46.17000 43.96600
C  42.56200 45.21900 44.66100
H  48.41200 41.45800 41.71800
H  53.27500 45.57700 43.06700
H  49.19100 50.37400 43.52700
H  44.25300 43.81800 41.84700
H  46.09100 41.68500 41.21500
H  46.62900 42.24600 43.96500
H  45.41900 41.01700 43.40900
H  44.97200 42.76500 43.69700
H  45.72700 42.91000 39.45300
H  45.45300 44.70900 39.42300
H  43.03800 43.36500 40.05000
H  43.84100 42.28300 38.99400
H  51.33000 39.99300 41.72100
H  52.08000 40.72200 40.36100
H  50.48600 40.76200 40.26100
H  54.88100 44.19900 42.99600
H  54.58000 44.72300 41.39300
H  55.85200 43.38100 41.75900
H  53.39100 48.40900 42.73800
H  51.45200 49.46500 44.70700
H  53.17400 48.46000 45.67000
H  54.53200 47.96500 44.55400
H  53.34000 46.80700 45.06100
H  51.02900 51.21900 42.59000
H  52.42200 50.32400 41.93400
H  53.74300 51.82600 43.05200
H  53.11900 51.26900 44.63100
H  52.29900 52.54900 43.82300
H  45.38900 51.16800 42.97100
H  47.11900 51.56200 42.63600
H  46.70400 51.09600 44.25700
H  43.81700 46.61800 40.88100
H  42.45100 44.30000 44.08700
H  41.58500 45.68500 44.78800
H  42.92800 44.98700 45.66100
Mg 9.96100 48.14300 25.52100
C  7.66900 48.29500 28.09300
C  12.33000 49.63400 27.69000
C  12.24400 48.15100 22.92100
C  7.41900 47.37000 23.36600
N  10.01100 48.77700 27.71900
C  8.93800 48.67000 28.55700
C  9.40600 49.17700 29.97300
C  10.90100 49.69900 29.85800
C  11.14000 49.35000 28.34000
C  11.18400 51.20200 30.21800
C  9.22700 48.05000 31.05500
C  10.08200 48.00500 32.37900
H  9.48600 47.99200 33.74000
N  12.00100 48.67500 25.34600
C  12.77400 49.15400 26.36700
C  14.15100 49.33600 25.87200
C  14.08000 48.88700 24.51600
C  12.74800 48.53300 24.18000
C  15.26900 49.97700 26.61200
C  15.25200 48.86100 23.47000
O  15.05900 48.49100 22.30100
C  16.64500 49.25400 23.90400
N  9.88500 47.59900 23.44900
C  10.89900 47.73600 22.58500
C  10.49300 47.43900 21.15100
C  8.93900 47.28900 21.26800
C  8.69800 47.39500 22.81200
C  10.81100 48.58900 20.11000
C  8.56900 45.92000 20.73100
C  9.10200 44.75900 21.55400
N  7.97200 47.86000 25.58700
C  7.01900 47.48200 24.65600
C  5.72700 47.30200 25.29900
C  5.96500 47.64400 26.61600
C  7.26600 47.99500 26.76000
C  4.40300 46.99700 24.61100
C  5.28800 47.66500 27.88900
O  4.12200 47.43200 28.22100
C  6.42700 48.08000 28.91600
C  6.45200 46.86800 29.79600
O  7.10500 45.86400 29.60600
O  5.75200 47.06300 30.98900
C  6.05200 46.13500 32.10500
H  12.95900 50.27500 28.31100
H  12.89300 48.01100 22.05400
H  6.66300 47.16300 22.60500
H  8.77500 50.04300 30.17600
H  11.59000 49.03900 30.38500
H  10.45000 51.52400 30.95700
H  11.21500 51.81400 29.31700
H  12.14300 51.29600 30.72800
H  9.36100 47.12400 30.49600
H  8.21500 48.18000 31.44000
H  10.85000 48.77400 32.46200
H  10.51300 47.00600 32.30500
H  15.07800 49.94500 27.68500
H  15.40000 50.97700 26.19900
H  16.22600 49.47000 26.48500
H  16.72400 50.21700 24.40800
H  17.28100 49.37300 23.02700
H  16.95800 48.45200 24.57300
H  10.95800 46.49700 20.85800
H  8.38800 48.07000 20.74500
H  11.23300 49.49400 20.54700
H  9.90800 49.02600 19.68400
H  11.60200 48.31200 19.41300
H  9.10200 45.82200 19.78600
H  7.48500 45.83400 20.65000
H  9.70700 44.10600 20.92400
H  8.26000 44.14800 21.87900
H  9.73600 44.94600 22.42000
H  4.28600 45.91600 24.53100
H  4.48700 47.37900 23.59400
H  3.56400 47.43500 25.15100
H  5.99700 48.97600 29.36200
H  5.99000 45.16400 31.61300
H  5.34500 46.16900 32.93400
H  7.08100 46.32400 32.41100

