158

Mg 26.95000 50.42500 26.17800
C  24.96700 51.38100 28.93000
C  29.20500 49.28000 28.43600
C  28.85100 49.90200 23.62200
C  24.38600 51.79900 24.10800
N  26.89200 50.10600 28.41700
C  26.02600 50.65100 29.33600
C  26.50900 50.43800 30.78200
C  27.98100 49.88400 30.56500
C  28.06700 49.64500 29.08100
C  29.16000 50.65000 31.17700
C  25.49000 49.43000 31.56000
C  24.96800 49.85900 32.92200
H  25.88400 50.27500 34.09500
N  28.76200 49.70500 26.04400
C  29.62800 49.32800 27.05300
C  30.91900 48.88200 26.50500
C  30.72600 48.93800 25.11700
C  29.41400 49.53600 24.85900
C  32.14200 48.39100 27.41800
C  31.61700 48.47800 24.00200
O  31.38400 48.48300 22.82000
C  32.99200 48.04800 24.43800
N  26.78400 51.08200 24.24100
C  27.68500 50.59300 23.33900
C  27.23300 50.90700 21.88800
C  25.74400 51.21200 22.09000
C  25.59500 51.30500 23.60000
C  28.04900 52.00500 21.31500
C  24.63900 50.29100 21.45600
C  23.50700 50.99700 20.62400
N  25.06100 51.39500 26.41500
C  24.14800 51.89500 25.46700
C  23.01900 52.45600 26.14600
C  23.26400 52.31200 27.50700
C  24.56300 51.68400 27.62300
C  21.79200 53.10000 25.55900
C  22.79700 52.63700 28.89800
O  21.77700 53.12600 29.30400
C  23.81800 51.95000 29.83100
C  24.22100 53.01400 30.77400
O  25.14800 53.82000 30.56400
O  23.41600 53.06100 31.85000
C  23.74900 54.02100 32.91600
H  30.03100 48.98800 29.08800
H  29.48000 49.73700 22.74500
H  23.52400 51.97400 23.46000
H  26.61100 51.36900 31.33900
H  28.00200 48.93500 31.10100
H  29.76900 51.01500 30.35000
H  29.75600 50.02000 31.83800
H  28.82300 51.50600 31.76200
H  25.76200 48.37400 31.57100
H  24.62100 49.51100 30.90700
H  24.38800 48.97700 33.19300
H  24.20100 50.61900 32.77500
H  31.76800 48.21700 28.42800
H  32.76400 49.28200 27.33600
H  32.71600 47.53600 27.06100
H  32.93300 47.04100 24.85100
H  33.34800 48.79500 25.14700
H  33.63200 47.88200 23.57000
H  27.53200 49.98900 21.38200
H  25.51200 52.24000 21.81200
H  28.76300 52.39200 22.04200
H  27.35100 52.81900 21.11800
H  28.59100 51.60400 20.45900
H  24.21600 49.53200 22.11300
H  25.22400 49.68900 20.76100
H  23.72800 52.05300 20.47000
H  22.51200 50.88700 21.05700
H  23.68800 50.56400 19.64100
H  20.96800 53.09700 26.27300
H  21.53200 52.54800 24.65600
H  21.96400 54.14000 25.28300
H  23.30200 51.11000 30.29500
H  24.15400 53.52100 33.79600
H  22.86300 54.56400 33.24200
H  24.53300 54.69600 32.57500
Mg 17.08700 52.42700 26.47100
C  18.93600 50.81200 28.78800
C  14.86400 53.32600 28.87600
C  15.21700 53.96100 24.06500
C  19.26200 51.28500 24.01000
N  16.98400 52.15900 28.62000
C  17.84000 51.48500 29.37600
C  17.39200 51.42400 30.92600
C  15.86700 51.85400 30.74900
C  15.92300 52.61600 29.33000
C  14.83500 50.77800 30.87400
C  18.36000 52.37500 31.66300
C  18.39300 52.32600 33.20100
H  17.28300 51.52900 33.93400
N  15.21100 53.34700 26.45600
C  14.51600 53.70000 27.60900
C  13.42700 54.50600 27.30600
C  13.49200 54.66000 25.85400
C  14.68300 54.03600 25.39700
C  12.26100 54.84300 28.29400
C  12.46500 55.30400 24.83200
O  12.66100 55.51400 23.66700
C  11.12600 55.89000 25.31800
N  17.13100 52.45400 24.30700
C  16.27300 53.21900 23.53000
C  16.61100 53.10800 22.06700
C  17.87700 52.20000 22.06600
C  18.14800 52.00900 23.59400
C  15.46300 52.64300 21.20900
C  19.02600 52.70200 21.20500
C  19.67800 53.96500 21.80100
N  18.80200 51.31200 26.33600
C  19.56500 50.86200 25.27500
C  20.63900 50.05800 25.74200
C  20.38600 49.93000 27.09500
C  19.30400 50.82000 27.41200
C  21.71800 49.34700 24.93700
C  20.84300 49.33600 28.30600
O  21.71600 48.51900 28.47700
C  20.00700 49.95600 29.46700
C  19.46200 48.86300 30.38500
O  18.65500 48.01100 30.03700
O  19.93800 49.05700 31.61500
C  19.41800 48.06900 32.53800
H  14.10300 53.59000 29.61300
H  14.72000 54.61700 23.34700
H  19.95300 50.97100 23.22500
H  17.48300 50.38900 31.25500
H  15.72300 52.46900 31.63800
H  14.38300 50.80700 31.86600
H  15.38100 49.88000 30.58700
H  14.04800 50.92700 30.13500
H  18.08200 53.41800 31.51400
H  19.38000 52.26800 31.29500
H  18.43600 53.26000 33.76200
H  19.41800 52.06900 33.46600
H  11.57100 54.05400 28.59400
H  11.52800 55.56800 27.94100
H  12.74200 55.27400 29.17200
H  10.69500 55.09000 25.92100
H  10.56400 56.24800 24.45500
H  11.31400 56.69000 26.03300
H  16.78200 54.13200 21.73300
H  17.68000 51.20600 21.66600
H  15.64300 51.76800 20.58500
H  15.23600 53.32400 20.38900
H  14.55800 52.45900 21.78900
H  18.53300 53.04400 20.29500
H  19.71400 51.90200 20.93000
H  19.67900 54.80000 21.09900
H  20.71800 53.65500 21.90600
H  19.28600 54.24300 22.77900
H  21.37100 49.16100 23.92100
H  21.94800 48.42100 25.46500
H  22.62000 49.95900 24.91200
H  20.64800 50.65600 30.00300
H  19.57200 48.48500 33.53400
H  19.92400 47.10500 32.47900
H  18.33500 48.08400 32.41300

