158

Mg 8.86900 3.24900 28.04000
C  10.15500 1.83800 30.95300
C  6.75300 5.17300 30.04900
C  7.51400 4.60100 25.28700
C  10.40400 0.75100 26.20100
N  8.41300 3.39700 30.34700
C  9.18700 2.81000 31.32400
C  8.73100 3.25800 32.72300
C  7.66000 4.32300 32.47400
C  7.55700 4.28900 30.86700
C  6.34500 4.07600 33.23600
C  10.00700 3.90400 33.60200
C  10.11300 3.43700 35.07200
H  10.26000 4.45600 36.19600
N  7.37600 4.65300 27.74400
C  6.69600 5.40300 28.66700
C  5.95600 6.44100 28.04700
C  6.27000 6.40500 26.66900
C  7.08400 5.14600 26.48200
C  5.19600 7.66400 28.77900
C  5.84500 7.39700 25.51700
O  6.26000 7.20800 24.40800
C  4.84300 8.46800 25.79500
N  8.96600 2.78200 26.10000
C  8.39700 3.52000 25.14100
C  8.71500 2.97300 23.74400
C  9.78900 1.88400 24.03600
C  9.72800 1.78100 25.54600
C  7.52600 2.56500 22.88400
C  11.23300 2.20000 23.49500
C  11.54500 1.71400 22.06600
N  10.08700 1.69900 28.46800
C  10.52600 0.64700 27.58500
C  11.34700 -0.26600 28.28200
C  11.25100 0.16600 29.61600
C  10.40100 1.33200 29.65700
C  12.18000 -1.37100 27.64700
C  11.76300 -0.11000 30.93500
O  12.62300 -0.91600 31.33400
C  11.02500 0.96400 31.85900
C  10.27500 0.07700 32.77100
O  9.48400 -0.80300 32.36600
O  10.52400 0.36600 34.11300
C  9.71900 -0.45200 35.07700
H  6.13100 5.85500 30.63300
H  7.13100 5.09800 24.39400
H  10.72600 0.01600 25.45900
H  8.40500 2.44300 33.37000
H  8.10300 5.27200 32.77500
H  5.63800 3.89500 32.42500
H  6.06700 4.81900 33.98300
H  6.35500 3.14800 33.80700
H  10.00200 4.99200 33.66500
H  10.94700 3.70700 33.08600
H  10.89900 2.71400 35.29100
H  9.18600 2.93100 35.33800
H  5.42000 7.60300 29.84400
H  4.14600 7.41000 28.63400
H  5.44800 8.65600 28.40300
H  5.27700 9.33800 26.28700
H  4.05100 8.12600 26.46100
H  4.37200 8.65400 24.82900
H  9.28000 3.82300 23.36000
H  9.32300 0.97600 23.65400
H  6.58300 2.63600 23.42600
H  7.57600 1.51700 22.58800
H  7.46900 3.17000 21.97900
H  11.98200 1.87000 24.21500
H  11.32300 3.27900 23.37300
H  12.40600 1.04900 22.00900
H  11.45400 2.58400 21.41500
H  10.57900 1.24700 21.87200
H  11.59800 -1.91500 26.90300
H  12.46000 -2.04800 28.45400
H  13.00200 -0.79500 27.22000
H  11.67400 1.61800 32.44000
H  10.19800 -0.17200 36.01500
H  9.89500 -1.51300 34.89900
H  8.67200 -0.20800 34.89900
Mg 48.73300 35.77100 29.03800
C  46.28500 33.98400 30.96900
C  48.66500 38.33900 31.21200
C  50.15500 37.57600 26.65300
C  48.14500 33.25800 26.52600
N  47.48500 36.11500 30.79500
C  46.75100 35.25300 31.53700
C  46.44600 35.87200 32.91400
C  46.98700 37.32100 32.80500
C  47.83200 37.23900 31.51000
C  46.05100 38.49500 32.86700
C  47.03700 35.05300 34.17700
C  48.51600 35.14100 34.54500
H  48.83000 35.90200 35.82900
N  49.44100 37.69600 28.98400
C  49.40500 38.52600 29.97900
C  50.06600 39.82900 29.56900
C  50.42900 39.63700 28.20100
C  49.96900 38.26500 27.86900
C  50.38600 40.93200 30.45500
C  51.14000 40.54600 27.23200
O  51.68000 40.11000 26.20600
C  51.23100 42.07000 27.56200
N  49.12100 35.43100 26.91600
C  49.83100 36.30900 26.18200
C  50.02700 35.85400 24.71400
C  49.57100 34.34900 24.78800
C  48.94900 34.32100 26.17500
C  49.27300 36.68000 23.59200
C  50.68200 33.33100 24.57400
C  50.40300 32.26500 23.43100
N  47.68300 33.92500 28.82700
C  47.54400 33.03900 27.77300
C  46.61600 31.96400 28.11500
C  46.11900 32.37100 29.37400
C  46.69200 33.56100 29.74200
C  46.17700 30.65600 27.35900
C  45.20500 31.84900 30.41700
O  44.51700 30.81800 30.53700
C  45.18400 32.98800 31.46300
C  45.40300 32.37400 32.80100
O  46.23200 31.55600 33.08700
O  44.37900 32.82500 33.62500
C  44.13300 32.31400 34.96300
H  48.72600 39.13500 31.95800
H  50.71400 38.10300 25.87600
H  47.82200 32.58600 25.72900
H  45.37200 35.97800 33.06400
H  47.75200 37.51900 33.55500
H  46.48200 39.40800 33.28000
H  45.25600 38.16500 33.53500
H  45.61500 38.75100 31.90100
H  46.95600 34.02300 33.83100
H  46.46000 35.36600 35.04600
H  49.08300 35.54600 33.70700
H  48.93500 34.13700 34.60900
H  51.34500 41.38700 30.20700
H  50.49600 40.58200 31.48100
H  49.58700 41.66100 30.32600
H  50.39600 42.40200 28.17900
H  51.26500 42.57100 26.59500
H  52.23800 42.13200 27.97400
H  51.10000 35.95800 24.55400
H  48.82600 34.12900 24.02300
H  48.54300 37.37900 23.99900
H  48.67000 36.10200 22.89200
H  49.97800 37.28900 23.02600
H  50.76700 32.78300 25.51300
H  51.67700 33.75000 24.43000
H  49.49400 32.45500 22.86100
H  50.30500 31.28400 23.89500
H  51.27200 32.19600 22.77700
H  45.67000 30.08100 28.13400
H  46.96100 30.06300 26.88700
H  45.60900 30.93800 26.47300
H  44.22500 33.50600 31.43600
H  44.03400 33.11300 35.69800
H  44.90800 31.71200 35.43700
H  43.16700 31.80800 34.97200

