158

Mg 6.27000 54.79000 40.87100
C  3.37900 52.96800 39.84100
C  8.25700 52.33100 39.82300
C  8.79100 57.01100 40.98000
C  4.09000 57.41100 41.69400
N  5.79900 53.00400 39.77300
C  4.57000 52.35900 39.56400
C  4.93000 51.01100 38.97100
C  6.38900 50.67500 39.40500
C  6.87700 52.11500 39.74500
C  6.56200 49.77300 40.64200
C  4.74100 50.79400 37.44700
C  4.21800 49.37100 37.10300
H  4.22000 48.81600 35.67000
N  8.23900 54.72000 40.30400
C  8.88500 53.54100 39.91600
C  10.28200 53.89300 39.80500
C  10.39400 55.24500 39.91500
C  9.14600 55.72700 40.42100
C  11.32100 52.81100 39.57000
C  11.65300 56.07000 39.72700
O  12.69900 55.59600 39.26200
C  11.61500 57.59600 39.85800
N  6.36600 56.92500 41.21700
C  7.57200 57.54800 41.32600
C  7.43700 58.91900 42.08100
C  5.86600 59.15400 42.09400
C  5.34100 57.77200 41.61600
C  8.12800 58.96800 43.44200
C  5.41600 60.26800 41.08200
C  4.80200 61.46800 41.73900
N  4.18000 55.08900 40.99800
C  3.47400 56.16300 41.43500
C  2.07000 55.85800 41.41100
C  1.95200 54.58300 40.82300
C  3.27700 54.16800 40.50200
C  0.99500 56.78700 41.83500
C  0.99000 53.48900 40.35000
O  -0.22400 53.44600 40.33100
C  1.97100 52.30500 39.79500
C  1.49200 52.08200 38.39400
O  1.62000 52.93200 37.50800
O  0.98100 50.81600 38.17500
C  0.86500 50.47200 36.75600
H  8.96800 51.52400 39.63400
H  9.59300 57.56300 41.47400
H  3.44600 58.13600 42.19600
H  4.22600 50.29100 39.38700
H  6.88800 50.07800 38.64100
H  7.04000 48.84000 40.34400
H  5.56900 49.42900 40.93100
H  7.11900 50.31500 41.40500
H  5.70900 50.79500 36.94700
H  4.10000 51.57200 37.03200
H  3.20100 49.39100 37.49400
H  4.91000 48.76400 37.68700
H  12.30300 53.09600 39.94800
H  11.30400 52.40300 38.56000
H  11.03300 51.95600 40.18200
H  10.64200 58.00400 39.58500
H  12.34600 58.00000 39.15800
H  11.94300 57.84700 40.86600
H  7.94200 59.66700 41.47000
H  5.52400 59.29700 43.11900
H  8.04000 57.99400 43.92200
H  7.62700 59.78900 43.95500
H  9.17400 59.26900 43.38500
H  4.80300 59.82100 40.30000
H  6.32400 60.63500 40.60400
H  3.81700 61.72100 41.34600
H  5.46700 62.32700 41.64800
H  4.68600 61.33800 42.81400
H  0.07700 56.32800 41.46800
H  1.02700 57.78300 41.39600
H  1.01100 56.84400 42.92400
H  1.84800 51.41400 40.41100
H  0.82500 49.39400 36.59900
H  1.71600 50.86500 36.19900
H  0.03000 51.02500 36.32700
Mg 16.87200 52.70400 26.46900
C  18.88500 51.25000 28.83600
C  14.48000 53.33400 28.96200
C  14.98400 54.09400 24.10500
C  19.36000 52.05200 24.00900
N  16.69800 52.34300 28.67900
C  17.70500 51.83000 29.42200
C  17.33500 51.84700 30.95300
C  15.84200 52.33300 30.92400
C  15.67700 52.80500 29.44200
C  14.80200 51.21100 31.24600
C  18.32000 52.82800 31.70200
C  18.74300 52.38200 33.18000
H  17.67100 51.76600 34.10800
N  14.94700 53.58800 26.53100
C  14.12800 53.71000 27.61900
C  12.88800 54.21300 27.17000
C  12.95200 54.36200 25.77500
C  14.36200 53.96900 25.39100
C  11.70700 54.38900 28.08300
C  11.85600 54.64600 24.76800
O  12.09900 54.74000 23.57200
C  10.53400 54.96000 25.22500
N  17.13200 52.94300 24.30000
C  16.24300 53.75900 23.64000
C  16.72400 53.90700 22.13000
C  18.11900 53.20500 22.16200
C  18.23600 52.81300 23.60100
C  15.79100 53.12900 21.15300
C  19.31900 54.08200 21.65000
C  19.67600 55.37800 22.45500
N  18.73500 51.72000 26.38800
C  19.59900 51.50300 25.33900
C  20.67000 50.64100 25.79100
C  20.41000 50.48600 27.14200
C  19.23200 51.22700 27.48400
C  21.78100 50.17300 24.97400
C  20.90200 49.91200 28.44600
O  21.99900 49.27300 28.55600
C  19.97900 50.46200 29.59200
C  19.54100 49.31500 30.33500
O  18.60900 48.60900 29.98400
O  20.07100 49.32900 31.58000
C  19.63500 48.36300 32.68200
H  13.73500 53.53900 29.73400
H  14.38400 54.58700 23.33800
H  20.14700 52.03200 23.25200
H  17.34700 50.84600 31.38400
H  15.73800 53.20000 31.57700
H  15.13800 50.40800 31.90200
H  14.52900 50.70800 30.31900
H  13.93800 51.82800 31.49000
H  17.92200 53.83800 31.60400
H  19.27400 52.71300 31.18700
H  19.01800 53.35700 33.58200
H  19.68100 51.82600 33.17300
H  11.04400 53.59500 27.73900
H  11.14800 55.31600 27.95000
H  11.84600 54.22900 29.15200
H  10.65800 55.83300 25.86500
H  10.11000 54.18100 25.85900
H  9.87800 55.20600 24.39000
H  16.76900 54.97600 21.92400
H  18.16100 52.28900 21.57300
H  16.42100 52.86500 20.30300
H  14.93300 53.67800 20.76400
H  15.49500 52.18700 21.61500
H  19.07500 54.51700 20.68000
H  20.19900 53.44500 21.56300
H  20.28700 54.97400 23.26300
H  18.72600 55.66800 22.90300
H  20.11900 56.14200 21.81500
H  21.35200 49.41300 24.32100
H  22.41900 49.68600 25.71200
H  22.21800 50.97500 24.38000
H  20.68900 51.07400 30.14800
H  20.50100 47.75600 32.94700
H  18.83400 47.79700 32.20600
H  19.20700 49.00100 33.45600

