158

Mg 1.95500 -1.28200 44.36400
C  5.34400 -0.66400 43.96700
C  1.35000 1.71400 42.73700
C  -1.31500 -2.27800 44.00500
C  2.57400 -4.53700 45.50600
N  3.22100 0.24200 43.23800
C  4.57400 0.33400 43.39500
C  5.13900 1.66500 42.82900
C  3.79900 2.47000 42.51200
C  2.74000 1.49300 42.91100
C  3.62700 3.91100 43.23900
C  5.99000 1.46000 41.50900
C  7.43500 1.80600 41.50400
H  8.27000 2.04900 40.24600
N  0.31400 -0.44200 43.56000
C  0.21000 0.84400 42.92300
C  -1.19400 1.11500 42.58800
C  -1.90300 -0.01300 43.10000
C  -0.94600 -1.00000 43.58800
C  -1.72400 2.36500 41.88000
C  -3.44700 -0.01700 42.91400
O  -4.09200 0.77300 42.24800
C  -4.24000 -1.14000 43.54600
N  0.78000 -3.22400 44.75400
C  -0.53700 -3.30300 44.55600
C  -1.00900 -4.74000 44.69800
C  0.23800 -5.50200 45.32600
C  1.25100 -4.36500 45.21000
C  -2.34300 -5.04200 45.56500
C  0.62500 -6.77100 44.50500
C  1.09400 -7.94600 45.16000
N  3.53000 -2.38600 44.81900
C  3.66500 -3.63400 45.31000
C  5.04000 -3.83700 45.69200
C  5.72900 -2.68800 45.17900
C  4.77800 -1.84200 44.60100
C  5.66300 -5.14700 46.17600
C  7.05900 -2.07000 45.00400
O  8.13500 -2.52700 45.38400
C  6.82900 -0.74300 44.29700
C  7.22700 0.35200 45.21000
O  6.66200 0.58800 46.29800
O  8.23500 1.18100 44.73300
C  8.77600 2.29300 45.46300
H  1.13300 2.73300 42.41100
H  -2.35500 -2.54600 43.80600
H  2.84800 -5.50700 45.92800
H  5.69400 2.18500 43.61000
H  3.61200 2.81300 41.49400
H  2.88700 3.85600 44.03700
H  3.25300 4.74200 42.64100
H  4.56600 4.21700 43.70100
H  5.57900 1.95100 40.62700
H  5.96300 0.39300 41.28600
H  7.91100 1.00200 42.06600
H  7.50800 2.64100 42.20100
H  -0.99100 3.16500 41.77300
H  -2.42900 2.87300 42.53800
H  -2.19800 2.17900 40.91600
H  -5.28300 -0.84700 43.65900
H  -3.98400 -1.16600 44.60500
H  -4.24400 -2.03500 42.92400
H  -1.17500 -5.16400 43.70800
H  0.03700 -5.91400 46.31500
H  -2.33100 -6.05900 45.95600
H  -3.16300 -5.01700 44.84700
H  -2.55900 -4.31500 46.34800
H  1.48200 -6.59400 43.85400
H  -0.22900 -7.12800 43.93000
H  1.49000 -7.58900 46.11000
H  1.95500 -8.44100 44.71000
H  0.47600 -8.82800 45.32500
H  5.26800 -5.44200 47.14800
H  6.74600 -5.04000 46.23700
H  5.40800 -5.98500 45.52600
H  7.52100 -0.59100 43.46900
H  8.58900 3.25000 44.97500
H  9.86200 2.19600 45.43000
H  8.58200 2.34700 46.53400
Mg 9.13300 47.99800 25.15300
C  7.09600 48.62100 27.86900
C  11.88700 48.87000 27.00600
C  10.92200 47.21800 22.40300
C  6.14200 47.77200 23.04200
N  9.42100 48.67900 27.17100
C  8.44100 48.80000 28.16800
C  9.13100 49.08300 29.46200
C  10.58700 49.60700 29.13900
C  10.65400 49.04100 27.64600
C  10.70800 51.15800 29.12200
C  9.05800 47.97100 30.53700
C  9.08100 48.42700 32.08600
H  9.35500 47.17200 33.06000
N  11.18100 47.94400 24.74600
C  12.18600 48.39200 25.67900
C  13.44100 48.29600 24.97900
C  13.17000 47.80500 23.62900
C  11.70000 47.64600 23.52900
C  14.76900 48.71000 25.60600
C  14.16500 47.67300 22.47200
O  13.77600 47.35400 21.33000
C  15.59300 47.71600 22.70500
N  8.58100 47.64400 22.93600
C  9.56500 47.23000 22.07100
C  8.86500 46.55800 20.85800
C  7.49300 47.35200 20.87000
C  7.31600 47.56500 22.35800
C  9.62200 46.63300 19.43500
C  6.28200 46.71800 20.18100
C  5.23800 47.74600 19.86900
N  7.09000 48.07600 25.38700
C  5.96000 47.98500 24.45400
C  4.76900 48.17100 25.19700
C  5.14900 48.35400 26.54700
C  6.58100 48.28800 26.61500
C  3.38700 48.09400 24.64500
C  4.60500 48.68900 27.78300
O  3.43400 49.00300 28.08000
C  5.88900 48.83600 28.72000
C  5.76400 48.07900 29.91100
O  5.55600 46.86700 29.87400
O  5.83700 48.82300 31.10400
C  5.31100 48.06200 32.28600
H  12.74900 49.15300 27.61400
H  11.51900 46.89400 21.54800
H  5.14100 47.65000 22.62400
H  8.53300 49.93200 29.79700
H  11.32800 49.19000 29.82100
H  9.75600 51.67000 29.26400
H  11.29700 51.51800 28.27900
H  11.15600 51.44400 30.07400
H  9.95100 47.34800 30.49100
H  8.20800 47.32400 30.32300
H  8.18400 49.00400 32.31200
H  9.91100 49.11400 32.24900
H  14.67300 48.97900 26.65800
H  15.19600 49.55300 25.06300
H  15.39500 47.82200 25.52000
H  15.95200 46.89900 23.33100
H  15.72600 48.71400 23.12400
H  16.24900 47.68500 21.83400
H  8.73200 45.50300 21.10000
H  7.73900 48.32700 20.44900
H  8.96000 47.08300 18.69500
H  9.89300 45.61900 19.14100
H  10.48300 47.29900 19.39000
H  5.84100 45.86500 20.69600
H  6.70300 46.24700 19.29300
H  5.49300 48.68400 20.36200
H  4.27200 47.43900 20.27100
H  5.21400 48.02400 18.81600
H  2.69300 47.44700 25.18200
H  3.38300 47.76500 23.60500
H  2.90900 49.07100 24.72600
H  5.94000 49.86500 29.07400
H  4.41400 48.55300 32.66400
H  6.08300 48.14800 33.05100
H  5.02700 47.02500 32.10600

