158

Mg 41.24000 40.53300 26.64700
C  40.54900 42.99300 29.06100
C  42.46100 38.47400 29.14000
C  42.23300 38.47200 24.15400
C  40.44600 42.86900 24.20000
N  41.37100 40.70000 28.86800
C  40.99800 41.75900 29.60700
C  41.09200 41.44300 31.09200
C  41.90700 40.07400 31.10600
C  41.92200 39.70700 29.58700
C  43.32100 40.22000 31.77400
C  39.67100 41.45200 31.76700
C  39.49300 42.37400 32.98500
H  38.85000 41.68700 34.19700
N  42.13200 38.72000 26.66800
C  42.62500 38.03400 27.78200
C  43.19000 36.74700 27.27800
C  43.29100 36.74700 25.84400
C  42.53000 38.02500 25.47700
C  43.82300 35.79700 28.27400
C  43.94200 35.86900 24.91700
O  44.21200 36.16600 23.71400
C  44.46600 34.54700 25.44800
N  41.43100 40.72300 24.45800
C  41.71100 39.68400 23.68200
C  41.36300 39.90200 22.18100
C  40.81200 41.39400 22.20800
C  40.87700 41.70400 23.69400
C  42.67200 39.81800 21.32000
C  39.47400 41.66700 21.54400
C  39.36100 43.02600 20.79900
N  40.62600 42.52900 26.55500
C  40.25700 43.32200 25.51300
C  39.90900 44.62600 26.00900
C  39.97300 44.53500 27.37900
C  40.41300 43.18700 27.66200
C  39.58500 45.80600 25.13200
C  39.78700 45.25300 28.59000
O  39.38200 46.38200 28.79500
C  40.10500 44.18700 29.78100
C  41.24600 44.81300 30.54100
O  42.37100 44.93500 30.03500
O  40.79100 45.23400 31.78000
C  41.92900 45.36500 32.68800
H  42.89300 37.81900 29.89900
H  42.51300 37.84600 23.30500
H  40.23600 43.60900 23.42400
H  41.70700 42.21300 31.55700
H  41.25700 39.37200 31.62900
H  43.42800 41.22200 32.18800
H  44.16700 40.19300 31.08700
H  43.44800 39.54900 32.62300
H  39.56300 40.42700 32.12300
H  38.84900 41.56300 31.06000
H  38.76500 43.09500 32.61400
H  40.46000 42.86800 33.09000
H  44.88800 36.00800 28.18300
H  43.72900 34.76000 27.95100
H  43.40200 35.81500 29.27900
H  43.63800 34.07900 25.98200
H  45.34300 34.68700 26.08100
H  44.67800 33.89100 24.60500
H  40.65500 39.17500 21.78300
H  41.54700 42.04600 21.73600
H  43.60000 39.62100 21.85600
H  42.88400 40.61500 20.60800
H  42.64200 38.85300 20.81600
H  38.75500 41.69000 22.36300
H  39.23700 40.86200 20.84800
H  38.69600 42.91400 19.94300
H  40.38700 43.37700 20.69000
H  38.99400 43.79700 21.47700
H  38.96300 45.56700 24.27000
H  40.54900 46.22600 24.84500
H  39.02400 46.49700 25.76200
H  39.20500 43.92600 30.33900
H  41.56800 45.91900 33.55400
H  42.66400 45.98800 32.17900
H  42.32200 44.45500 33.14200
Mg 0.28200 44.03200 26.85100
C  2.46700 43.64100 29.45300
C  -2.31600 43.23300 29.11000
C  -1.83800 43.67400 24.24800
C  2.96900 44.35900 24.64000
N  0.10900 43.42200 29.00500
C  1.15900 43.48400 29.88600
C  0.62700 43.48800 31.34100
C  -0.78900 43.04200 31.10900
C  -1.04800 43.29700 29.63800
C  -1.17500 41.60700 31.56200
C  0.74700 44.90300 31.90300
C  1.07100 45.03100 33.40500
H  0.89300 43.76600 34.26300
N  -1.82300 43.67900 26.71000
C  -2.69600 43.50400 27.78500
C  -4.04900 43.52800 27.26300
C  -3.94700 43.49800 25.83300
C  -2.49600 43.60000 25.53700
C  -5.35600 43.49500 28.15300
C  -5.08800 43.38400 24.88400
O  -4.94400 43.41800 23.62400
C  -6.48100 43.26900 25.38400
N  0.53500 43.70600 24.72800
C  -0.49000 43.80400 23.83300
C  -0.13400 44.07700 22.40100
C  1.32700 44.55100 22.61400
C  1.62200 44.22200 24.09100
C  -0.25600 42.88200 21.35100
C  1.50500 46.04400 22.43400
C  1.45100 46.56800 20.95100
N  2.33700 43.96100 26.99300
C  3.30100 44.19500 25.99900
C  4.57600 44.33400 26.64700
C  4.32000 44.03200 28.04500
C  2.96300 43.85200 28.12900
C  5.87000 44.83900 26.03500
C  4.88300 43.83400 29.36400
O  6.02700 43.95800 29.77800
C  3.70900 43.57300 30.31300
C  3.95300 42.29400 30.94100
O  4.00900 41.18300 30.44200
O  4.26500 42.68900 32.19600
C  4.81600 41.59000 33.05900
H  -3.08200 42.99400 29.85000
H  -2.40700 43.65600 23.31600
H  3.71400 44.63700 23.89200
H  1.17300 42.72000 31.88800
H  -1.46400 43.73200 31.61600
H  -1.72100 41.09300 30.77100
H  -1.80200 41.78700 32.43500
H  -0.25600 41.06100 31.77400
H  -0.11600 45.51600 31.64200
H  1.65500 45.29000 31.44000
H  0.48400 45.82700 33.86300
H  2.10800 45.35700 33.48200
H  -5.89800 42.58400 27.89900
H  -6.11500 44.27300 28.07000
H  -5.16700 43.51700 29.22700
H  -6.50700 42.22500 25.69900
H  -7.12700 43.20900 24.50800
H  -6.85000 44.01300 26.09000
H  -0.74100 44.88300 21.98800
H  1.98300 43.95800 21.97700
H  -1.13100 42.96400 20.70700
H  -0.36200 41.99400 21.97500
H  0.59700 42.75100 20.68500
H  2.43900 46.26400 22.95100
H  0.73700 46.61500 22.95700
H  0.64100 47.29000 20.84100
H  1.21300 45.73800 20.28600
H  2.41900 47.05300 20.82700
H  6.47500 45.35700 26.77900
H  5.79600 45.44200 25.13000
H  6.41400 43.95800 25.69400
H  3.69500 44.39800 31.02500
H  4.06600 40.80400 32.98300
H  4.78300 41.89300 34.10500
H  5.77600 41.21400 32.70400

