158

Mg 16.98000 -2.44000 28.39500
C  16.10100 -0.25900 31.13300
C  18.98600 -4.24100 30.73300
C  18.30600 -4.23400 25.90400
C  15.35900 -0.41000 26.25000
N  17.48700 -2.22300 30.60600
C  16.90100 -1.33700 31.50800
C  17.27400 -1.63600 32.96300
C  18.26100 -2.94100 32.77500
C  18.31100 -3.13300 31.25700
C  19.63400 -2.82800 33.39300
C  16.03900 -1.73400 34.04400
C  16.20300 -0.89800 35.26400
H  17.55500 -0.70100 35.85000
N  18.40500 -4.01600 28.35300
C  19.05600 -4.61800 29.39500
C  19.75500 -5.84900 28.89800
C  19.64200 -5.81300 27.46600
C  18.67400 -4.74900 27.19100
C  20.56900 -6.76700 29.87700
C  20.23900 -6.74100 26.47600
O  19.96700 -6.68800 25.30400
C  21.19100 -7.81400 26.98000
N  16.82000 -2.38100 26.40400
C  17.51000 -3.16700 25.55200
C  17.35300 -2.64300 24.08700
C  16.29700 -1.54300 24.21300
C  16.04000 -1.41800 25.68700
C  18.75000 -2.11100 23.51200
C  15.07000 -1.72700 23.37500
C  14.50000 -0.38800 22.84300
N  15.95200 -0.61200 28.53000
C  15.27100 0.04000 27.58900
C  14.66600 1.16300 28.18100
C  15.02400 1.10900 29.58400
C  15.77800 -0.01600 29.76600
C  13.97000 2.30100 27.53400
C  14.83000 1.80100 30.84800
O  14.35900 2.88300 31.01600
C  15.50100 0.91000 31.90500
C  16.51800 1.71000 32.64900
O  17.72700 1.76800 32.33500
O  16.02800 2.35200 33.81700
C  17.02700 3.10000 34.60800
H  19.54000 -4.83200 31.46500
H  18.70800 -4.72300 25.01400
H  14.68500 0.24800 25.69800
H  17.95100 -0.83100 33.24800
H  17.79600 -3.76400 33.31900
H  19.63900 -3.50000 34.25100
H  19.82500 -1.80500 33.71900
H  20.37700 -3.18200 32.67900
H  16.10500 -2.76100 34.40200
H  15.14500 -1.53400 33.45300
H  15.63000 -1.39400 36.04800
H  15.70600 0.06500 35.14700
H  21.62600 -6.64100 29.63900
H  20.26300 -7.71900 29.44400
H  20.22200 -6.79000 30.91000
H  21.78300 -7.35200 27.76900
H  21.77900 -8.07200 26.09900
H  20.57700 -8.68100 27.22500
H  16.93400 -3.47000 23.51200
H  16.70800 -0.56200 23.97500
H  18.83200 -1.02500 23.57100
H  18.83500 -2.44600 22.47900
H  19.59100 -2.53900 24.05700
H  14.19900 -2.25600 23.76200
H  15.32300 -2.13700 22.39700
H  14.96500 -0.09300 21.90200
H  14.58200 0.45000 23.53600
H  13.41900 -0.51900 22.88700
H  12.93200 2.11000 27.26300
H  14.59200 2.64000 26.70600
H  14.11000 3.12000 28.24000
H  14.75100 0.65100 32.65200
H  16.92700 4.17900 34.48900
H  18.06600 2.89000 34.35500
H  16.98600 2.96800 35.68900
Mg 41.97100 41.15000 26.63300
C  41.04000 43.46000 28.91300
C  42.92600 39.09100 29.07700
C  42.86700 38.81000 24.26400
C  41.74400 43.50700 24.10000
N  41.90400 41.23000 28.73800
C  41.48400 42.27400 29.47300
C  41.59700 42.02600 30.91900
C  42.39100 40.66500 30.97200
C  42.50400 40.32500 29.48100
C  43.71100 40.51000 31.69900
C  40.21100 42.13600 31.65800
C  40.24800 41.48700 33.09000
H  39.70900 42.36700 34.29300
N  42.56700 39.16600 26.65500
C  42.91900 38.51600 27.79700
C  43.39700 37.10300 27.50200
C  43.27900 36.99700 26.05900
C  42.87200 38.35800 25.61700
C  43.64500 36.03300 28.59500
C  43.49100 35.67500 25.23700
O  43.61100 35.71300 24.00100
C  43.52400 34.29700 25.83000
N  42.46800 41.17600 24.42300
C  42.66000 40.05000 23.68300
C  42.49200 40.34200 22.11100
C  42.02600 41.83800 22.14900
C  42.10100 42.22900 23.62200
C  43.76700 39.98700 21.32100
C  40.58000 41.95500 21.60200
C  39.55000 41.25900 22.46000
N  41.45200 43.12400 26.48600
C  41.39200 43.95500 25.38200
C  40.76400 45.19600 25.87400
C  40.66900 45.08500 27.25200
C  41.11000 43.75900 27.58100
C  40.53900 46.45100 25.11900
C  40.42800 45.78600 28.43900
O  40.07000 47.01800 28.46600
C  40.54500 44.81200 29.59800
C  41.59200 45.29600 30.62500
O  42.69200 45.76200 30.43800
O  40.93200 45.41700 31.87900
C  41.74400 45.85100 33.03600
H  43.42300 38.56300 29.89400
H  43.02200 38.07500 23.47100
H  41.47300 44.14800 23.25900
H  42.23600 42.83600 31.26900
H  41.79700 39.87800 31.43800
H  43.96700 39.47700 31.93500
H  43.55800 41.00100 32.66000
H  44.49000 40.98800 31.10500
H  39.42900 41.73400 31.01500
H  39.93600 43.17100 31.86500
H  41.28200 41.23700 33.32500
H  39.71700 40.53500 33.13300
H  43.62200 36.48100 29.58900
H  44.69300 35.74500 28.51100
H  43.13900 35.08300 28.42200
H  44.39500 34.15200 26.46900
H  43.62300 33.51800 25.07300
H  42.50300 34.27200 26.21200
H  41.65200 39.79000 21.68900
H  42.77600 42.52600 21.75900
H  44.47600 39.62300 22.06500
H  44.08600 40.90800 20.83300
H  43.57000 39.29100 20.50600
H  40.52700 41.44100 20.64200
H  40.33900 43.00100 21.41300
H  39.32200 41.93400 23.28600
H  39.86300 40.29800 22.86800
H  38.65800 40.97400 21.90300
H  41.41700 47.08400 24.99200
H  39.88700 46.96600 25.82500
H  40.08000 46.23800 24.15400
H  39.63100 44.72700 30.18600
H  42.79500 45.60400 32.88600
H  41.31400 45.39000 33.92500
H  41.70200 46.93800 33.10900

