158

Mg 0.34400 7.71900 25.66400
C  1.02600 9.59400 28.45700
C  0.33200 4.83100 27.68300
C  0.09900 5.87000 22.87300
C  0.38600 10.68700 23.75000
N  0.84200 7.21800 27.66900
C  1.00800 8.22500 28.69200
C  1.04700 7.57000 30.10100
C  1.07100 6.04700 29.81100
C  0.64300 6.03200 28.36300
C  2.46800 5.40900 30.24300
C  -0.22300 7.93500 30.90400
C  -0.09500 7.84100 32.40900
H  1.18300 7.42800 33.20900
N  0.27100 5.64300 25.28500
C  0.25100 4.68000 26.22800
C  0.16000 3.35000 25.52100
C  0.05800 3.66700 24.13200
C  0.08400 5.12300 24.06100
C  0.24400 1.96600 26.15700
C  0.12500 2.76000 22.96600
O  -0.12600 3.06200 21.79100
C  0.49300 1.24900 23.14200
N  0.34200 8.23100 23.53500
C  0.26300 7.27900 22.60600
C  0.08500 7.84800 21.20000
C  0.11400 9.40300 21.53300
C  0.29000 9.47100 22.99900
C  1.12200 7.39400 20.18100
C  -1.08700 10.22300 20.98800
C  -0.88400 10.78600 19.55900
N  0.48900 9.76600 25.98000
C  0.60000 10.81700 25.12000
C  0.94700 12.04700 25.86600
C  1.15200 11.59300 27.20300
C  0.81900 10.21700 27.20300
C  1.10800 13.42200 25.39500
C  1.54400 12.03100 28.53900
O  1.90300 13.14100 28.90300
C  1.32600 10.76300 29.46900
C  2.59100 10.47500 30.15800
O  3.59500 9.89900 29.72600
O  2.50600 11.03300 31.44300
C  3.71700 10.87000 32.27100
H  0.63900 3.90500 28.17400
H  -0.25100 5.40000 21.95100
H  0.40800 11.65900 23.25200
H  1.94200 7.96100 30.58600
H  0.23200 5.58300 30.33000
H  2.95800 4.78300 29.49700
H  2.37700 4.89500 31.20000
H  3.21900 6.19300 30.34000
H  -1.06300 7.25700 30.75200
H  -0.51600 8.93100 30.57200
H  -0.96300 7.35000 32.85000
H  -0.41100 8.83200 32.73500
H  1.06400 1.42200 25.68900
H  -0.69800 1.50800 25.85600
H  0.42900 1.88100 27.22800
H  -0.23500 0.92300 23.88500
H  1.48700 1.06500 23.55100
H  0.34000 0.64300 22.25000
H  -0.89900 7.63800 20.78100
H  0.95800 9.91500 21.07200
H  1.97300 6.97900 20.72200
H  1.43400 8.25300 19.58700
H  0.72100 6.62000 19.52700
H  -1.22500 11.07500 21.65500
H  -1.94000 9.55800 21.11800
H  -1.85000 10.69800 19.06000
H  -0.27400 10.13800 18.93100
H  -0.68800 11.85800 19.55900
H  0.11500 13.75000 25.70100
H  1.20400 13.50600 24.31200
H  1.86800 13.97700 25.94600
H  0.43500 10.82200 30.09400
H  4.47500 10.18200 31.89500
H  3.56400 10.62000 33.32100
H  4.26400 11.80800 32.36900
Mg 36.36700 1.67000 29.53500
C  34.19200 2.58800 31.91400
C  38.91600 1.65100 31.90700
C  38.60200 1.11300 27.07600
C  33.86600 2.00500 27.13500
N  36.52000 2.12100 31.67100
C  35.48400 2.45300 32.48200
C  35.83300 2.35400 33.93700
C  37.42400 2.33000 33.86900
C  37.65300 1.94100 32.41600
C  38.06500 3.68900 34.28000
C  35.20800 1.07500 34.56400
C  34.75900 1.20700 35.98200
H  35.10900 2.50300 36.74500
N  38.45800 1.40400 29.52900
C  39.32700 1.48900 30.61700
C  40.68300 1.17400 30.14200
C  40.66000 1.01000 28.74100
C  39.20400 1.17900 28.37300
C  41.86300 0.95900 31.16600
C  41.80800 0.72800 27.78800
O  41.64400 0.74000 26.57800
C  43.23900 0.53300 28.26500
N  36.33400 1.81900 27.39300
C  37.34100 1.31100 26.65900
C  36.98900 1.22200 25.18200
C  35.45700 1.46700 25.18100
C  35.17800 1.80700 26.60600
C  37.77400 2.13100 24.23500
C  34.67400 0.30100 24.48300
C  33.80000 -0.68600 25.34700
N  34.41600 2.14800 29.47800
C  33.51900 2.25900 28.45300
C  32.22600 2.65700 28.96000
C  32.43000 2.74300 30.32800
C  33.78900 2.48800 30.50500
C  31.01900 2.81400 28.23900
C  31.75400 2.92500 31.60100
O  30.58600 3.23100 31.89700
C  32.88200 2.88700 32.63700
C  32.95700 4.22100 33.41500
O  33.33700 5.24700 32.87600
O  32.33500 4.10700 34.65700
C  32.12200 5.30700 35.38600
H  39.67800 1.60600 32.68800
H  39.32700 0.92300 26.28100
H  33.06000 2.11100 26.40700
H  35.49100 3.31200 34.32900
H  37.80500 1.48200 34.43700
H  37.33300 4.35100 34.74200
H  38.51500 4.12600 33.38800
H  38.89600 3.65800 34.98500
H  35.93400 0.28000 34.39400
H  34.31100 0.77800 34.02100
H  35.12700 0.36900 36.57500
H  33.66900 1.24400 35.99300
H  42.38400 0.07800 30.79300
H  41.58900 0.72800 32.19600
H  42.48200 1.85600 31.17700
H  43.83200 0.51900 27.35100
H  43.22100 -0.51400 28.56900
H  43.55700 1.30200 28.96800
H  37.30900 0.20300 24.96600
H  35.20700 2.42500 24.72700
H  38.22800 2.86700 24.89900
H  37.08200 2.56600 23.51500
H  38.50100 1.55100 23.66700
H  35.52300 -0.26400 24.09900
H  34.08100 0.73200 23.67700
H  32.75600 -0.49000 25.10100
H  33.89800 -0.76500 26.42900
H  34.06900 -1.73200 25.19900
H  30.97900 3.68400 27.58400
H  30.20900 2.84700 28.96800
H  30.88300 1.99700 27.53000
H  32.56600 2.11500 33.33900
H  31.64200 5.08900 36.34000
H  31.43400 5.94700 34.83300
H  33.05100 5.86600 35.49600

