158

Mg 30.11600 57.94900 40.98500
C  27.11900 56.05200 40.10700
C  31.86000 55.36900 39.64500
C  32.63700 59.93400 41.08100
C  28.01900 60.36500 42.27600
N  29.49700 55.95300 39.97700
C  28.27600 55.35700 39.75800
C  28.45900 54.07200 38.91500
C  29.93700 53.66400 39.21200
C  30.44800 55.10600 39.59000
C  30.21000 52.66700 40.39500
C  27.84300 54.14400 37.49900
C  28.03000 55.49800 36.69300
H  27.30900 55.54700 35.35300
N  32.05300 57.72600 40.49000
C  32.58000 56.57600 39.98500
C  34.01100 56.74700 40.05900
C  34.32800 58.00000 40.59600
C  33.01500 58.61900 40.67300
C  34.91500 55.61600 39.65800
C  35.67900 58.54300 40.86800
O  36.65600 57.98100 40.54100
C  35.81600 59.94300 41.44100
N  30.20400 60.02700 41.33100
C  31.43300 60.53500 41.48700
C  31.35600 62.01200 41.94300
C  29.89300 62.08700 42.47500
C  29.36500 60.73200 42.04600
C  32.43300 62.52400 42.99200
C  29.21500 63.41200 41.95600
C  28.32300 64.17100 42.84700
N  27.99400 58.26200 41.13500
C  27.30500 59.34800 41.61700
C  25.90300 59.17700 41.49200
C  25.77300 57.93600 40.81000
C  27.08200 57.36200 40.71000
C  24.83700 60.09300 41.99300
C  24.83700 56.95000 40.35300
O  23.62900 57.03700 40.24100
C  25.67400 55.70200 39.85800
C  25.21100 54.47300 40.51500
O  25.05000 54.42000 41.72400
O  25.10100 53.36100 39.63300
C  24.58800 52.09600 40.18400
H  32.47400 54.54400 39.27600
H  33.53300 60.55600 41.12900
H  27.47300 61.11400 42.85300
H  27.89300 53.41700 39.57800
H  30.38200 53.35600 38.26600
H  30.40600 53.14400 41.35600
H  31.04100 51.99800 40.17700
H  29.28700 52.08700 40.41200
H  26.77500 53.96200 37.61900
H  28.40900 53.43700 36.89400
H  29.07700 55.77600 36.57200
H  27.57500 56.28700 37.29200
H  35.56800 56.00900 38.87800
H  34.38600 54.76200 39.23600
H  35.52600 55.19600 40.45700
H  35.60100 60.66300 40.65200
H  36.82900 60.07200 41.82200
H  35.20200 60.07800 42.33100
H  31.41500 62.65700 41.06600
H  29.78400 62.05100 43.55900
H  31.95600 62.96300 43.86900
H  32.99600 63.29700 42.46900
H  33.22300 61.80400 43.20600
H  28.51500 63.25100 41.13600
H  29.98000 64.09400 41.58500
H  27.49800 64.53900 42.23600
H  28.94200 64.98300 43.22900
H  27.95400 63.67300 43.74400
H  24.51000 60.61500 41.09400
H  25.33900 60.69800 42.74800
H  23.99600 59.66400 42.53900
H  25.53700 55.69600 38.77700
H  25.43800 51.51500 40.53900
H  23.92000 51.54600 39.52100
H  23.97900 52.33300 41.05700
Mg 16.76800 52.68800 26.71900
C  18.62400 51.00000 29.02600
C  14.28100 53.34200 29.04700
C  14.70500 53.94200 24.29400
C  18.95200 51.70600 24.22100
N  16.44300 52.12100 28.74900
C  17.42900 51.53000 29.55500
C  17.06900 51.73600 31.04000
C  15.56800 52.14400 30.96300
C  15.36400 52.57400 29.45800
C  14.61000 51.07100 31.37300
C  18.00800 52.66600 31.93700
C  18.34400 52.30700 33.36500
H  17.24300 51.69600 34.23400
N  14.75400 53.69400 26.72500
C  13.90000 53.87000 27.77200
C  12.70200 54.59200 27.39600
C  12.86000 54.79700 25.97600
C  14.17600 54.14100 25.55700
C  11.52800 54.82600 28.30500
C  11.96400 55.46800 24.97200
O  12.28900 55.65800 23.83700
C  10.74600 56.09600 25.46400
N  16.94000 53.00300 24.65400
C  15.94200 53.45800 23.84300
C  16.26700 53.29800 22.32600
C  17.72500 52.89200 22.39000
C  17.86100 52.44300 23.81700
C  15.35800 52.15400 21.72300
C  18.84000 53.96500 21.93600
C  19.48800 54.81700 23.00500
N  18.46500 51.59200 26.61200
C  19.21500 51.20200 25.45700
C  20.15500 50.26100 25.87600
C  20.00700 50.12600 27.24900
C  18.99200 51.01300 27.68900
C  21.24100 49.68100 25.02400
C  20.54800 49.59500 28.44800
O  21.55400 48.95300 28.56300
C  19.67000 50.10800 29.69400
C  19.01600 48.85000 30.40000
O  18.34500 48.02300 29.92000
O  19.22800 49.01300 31.76700
C  18.74400 47.91000 32.57200
H  13.64400 53.72300 29.84800
H  14.08200 54.41400 23.53100
H  19.56700 51.26900 23.43100
H  17.05900 50.75100 31.50800
H  15.42400 53.00300 31.61900
H  14.86600 50.81900 32.40200
H  14.79200 50.18500 30.76400
H  13.62900 51.52500 31.22700
H  17.59900 53.67500 31.98200
H  18.92100 52.60600 31.34500
H  18.74500 53.13500 33.94900
H  19.14100 51.56300 33.34500
H  10.77500 54.06000 28.11900
H  11.04200 55.78700 28.14200
H  11.86400 54.94100 29.33500
H  10.33000 56.60500 24.59500
H  10.99000 56.91900 26.13600
H  10.14100 55.27700 25.85200
H  16.08400 54.18300 21.71700
H  17.76700 51.98900 21.78100
H  14.39700 52.66800 21.74700
H  15.33200 51.29300 22.39100
H  15.62800 51.96500 20.68400
H  18.40100 54.62800 21.19100
H  19.54100 53.30400 21.42800
H  19.60300 55.83200 22.62500
H  20.43800 54.35700 23.27800
H  18.85500 54.83000 23.89300
H  20.77800 49.10100 24.22500
H  21.90400 49.00500 25.56300
H  21.71100 50.58200 24.62800
H  20.38300 50.58700 30.36500
H  17.66800 47.73700 32.55900
H  19.05100 48.17700 33.58300
H  19.15900 46.98100 32.18000

