158

Mg 36.25300 49.24200 24.25700
C  36.77600 47.65400 27.33700
C  35.02300 51.95400 25.74700
C  35.60700 50.61100 21.31100
C  37.48900 46.23600 22.62300
N  36.01700 49.70300 26.30700
C  36.28100 48.94900 27.42500
C  36.00500 49.69200 28.74500
C  35.42400 51.11800 28.20600
C  35.45900 50.89800 26.65500
C  33.97700 51.48300 28.73000
C  37.27000 49.83500 29.72100
C  37.04500 49.67700 31.20800
H  35.55300 49.64200 31.70000
N  35.40800 51.04600 23.61700
C  35.02000 52.07000 24.41300
C  34.64900 53.23100 23.60200
C  34.77200 52.81700 22.27100
C  35.28500 51.49400 22.34300
C  34.10100 54.61700 24.18700
C  34.45400 53.52100 20.96300
O  34.85900 53.11500 19.93900
C  33.73100 54.84300 21.02100
N  36.35300 48.44500 22.24000
C  36.05600 49.25100 21.21300
C  36.47400 48.65300 19.87300
C  37.16600 47.27100 20.28500
C  36.95400 47.28100 21.81600
C  35.31800 48.45200 18.89500
C  38.63500 47.05300 19.83300
C  39.69400 47.91800 20.52200
N  36.96400 47.34600 24.79000
C  37.43800 46.25200 24.01900
C  37.97800 45.25600 24.92000
C  37.72200 45.83100 26.20600
C  37.15600 47.06400 26.07200
C  38.60900 43.98200 24.71500
C  37.95800 45.56700 27.67600
O  38.63400 44.71800 28.24900
C  37.30100 46.71700 28.44000
C  36.28000 46.08000 29.29700
O  35.11500 45.76200 29.00000
O  36.80300 45.86900 30.57700
C  35.80100 45.27000 31.51800
H  34.55300 52.78100 26.28300
H  35.53300 51.12900 20.35200
H  38.04000 45.44200 22.11400
H  35.16600 49.20900 29.24600
H  36.00900 52.02200 28.37600
H  34.16000 52.43900 29.22200
H  33.60800 50.76500 29.46200
H  33.23000 51.66700 27.95700
H  37.71100 50.79800 29.46400
H  38.06200 49.12300 29.49100
H  37.65700 50.46400 31.64800
H  37.52900 48.75700 31.53600
H  34.41500 54.59800 25.23100
H  33.02100 54.76000 24.16000
H  34.52800 55.48600 23.68600
H  34.44200 55.61900 21.30500
H  32.97400 54.66200 21.78400
H  33.20100 55.04100 20.08900
H  37.16500 49.34500 19.39100
H  36.59800 46.46200 19.82500
H  34.35900 48.60700 19.38900
H  35.38500 47.46400 18.43900
H  35.36800 49.23200 18.13500
H  38.70500 47.18400 18.75300
H  38.83700 45.98200 19.86000
H  39.43200 48.37100 21.47900
H  40.14700 48.56400 19.77000
H  40.54700 47.27000 20.72600
H  38.20900 43.64600 23.75800
H  38.34200 43.16500 25.38600
H  39.68900 43.98700 24.86200
H  38.00900 47.18800 29.12200
H  35.86400 44.18700 31.41000
H  34.81000 45.70800 31.63900
H  36.31300 45.60100 32.42200
Mg 27.20700 50.24200 26.61500
C  25.17400 51.18900 29.30300
C  29.70400 49.35800 28.94300
C  29.15700 49.37700 23.95700
C  24.55600 51.21000 24.42800
N  27.35900 50.20000 28.90200
C  26.39700 50.56300 29.78800
C  26.84200 50.31900 31.25600
C  28.35100 50.03200 31.08800
C  28.47000 49.89000 29.54500
C  29.31100 50.99800 31.75200
C  25.90400 49.21300 31.97700
C  24.94800 49.71300 33.13800
H  25.00900 48.95100 34.39900
N  29.20200 49.44400 26.48500
C  29.99100 49.14200 27.54000
C  31.18600 48.70200 26.96000
C  31.16800 48.79700 25.54800
C  29.81500 49.22100 25.26100
C  32.31800 48.18100 27.85100
C  32.27200 48.44300 24.52300
O  32.09700 48.59000 23.32300
C  33.57500 47.67200 24.96600
N  26.87300 50.24800 24.45500
C  27.87800 49.89600 23.58500
C  27.30900 49.98000 22.15800
C  25.80900 50.46800 22.31300
C  25.74300 50.64600 23.82700
C  28.15900 50.87500 21.19600
C  24.65500 49.48400 21.87400
C  24.55000 48.16200 22.58500
N  25.28300 51.10500 26.77300
C  24.33800 51.44200 25.81600
C  23.26200 52.05100 26.47900
C  23.49300 51.94200 27.81000
C  24.78600 51.33300 27.96900
C  21.97100 52.57200 25.82100
C  22.99000 52.19900 29.18600
O  21.98600 52.67700 29.62500
C  24.02200 51.65600 30.15500
C  24.29900 52.85400 30.98300
O  25.21800 53.62500 30.83500
O  23.45400 52.77600 32.11100
C  23.48700 53.92000 33.04900
H  30.49500 49.12000 29.65800
H  29.73200 49.20400 23.04500
H  23.86500 51.66200 23.71400
H  26.62900 51.24100 31.79700
H  28.62100 49.07200 31.52800
H  30.12900 50.41000 32.16900
H  28.75800 51.60000 32.47300
H  29.79700 51.56200 30.95500
H  26.49400 48.41600 32.43000
H  25.23700 48.73200 31.26200
H  23.93200 49.68400 32.74500
H  25.14900 50.76700 33.32800
H  32.73100 47.28100 27.39400
H  32.01500 47.83600 28.84000
H  32.97200 49.05200 27.88400
H  34.21200 48.22400 25.65700
H  34.13100 47.35700 24.08300
H  33.24000 46.77400 25.48500
H  27.19600 48.99400 21.70800
H  25.71000 51.30900 21.62800
H  28.78600 50.23300 20.57700
H  28.80700 51.50600 21.80500
H  27.60700 51.52200 20.51400
H  24.82700 49.35200 20.80600
H  23.70600 50.01900 21.89500
H  25.32200 48.03000 23.34400
H  24.52400 47.39100 21.81500
H  23.55800 48.11700 23.03600
H  21.10800 52.16300 26.34500
H  21.85200 52.31100 24.76900
H  21.99200 53.66200 25.83300
H  23.59900 50.87100 30.78100
H  23.66500 54.85400 32.51600
H  24.18600 53.88400 33.88400
H  22.54700 54.09200 33.57300

