158

Mg 41.68500 40.89400 26.74700
C  41.04300 43.11500 29.47700
C  42.41500 38.41200 28.96300
C  42.50000 38.92700 24.02100
C  40.93800 43.52900 24.57100
N  41.63000 40.82600 28.93600
C  41.33400 41.77200 29.86100
C  41.29600 41.24400 31.36300
C  41.92400 39.77900 31.12500
C  41.95700 39.64300 29.60300
C  43.21100 39.44800 31.93100
C  39.91100 41.35600 32.05300
C  39.93300 42.03000 33.43500
H  39.21700 41.41900 34.68300
N  42.40300 38.96100 26.53900
C  42.70000 38.10000 27.57800
C  43.13200 36.85300 26.99800
C  43.16000 37.00500 25.54000
C  42.64700 38.37100 25.30000
C  43.29000 35.58500 27.80700
C  43.53000 36.03100 24.44900
O  43.63800 36.33800 23.22600
C  43.90900 34.58900 24.91000
N  41.82000 41.14400 24.62300
C  42.10200 40.24100 23.66600
C  41.80600 40.68600 22.22500
C  40.95500 42.02500 22.48900
C  41.23400 42.27200 24.02100
C  43.10400 41.03400 21.38500
C  39.43000 41.82300 22.10500
C  38.66400 40.63900 22.82000
N  41.19400 42.97000 26.92300
C  40.96400 43.90300 25.92300
C  40.64600 45.24900 26.55900
C  40.69400 44.94700 27.98100
C  41.02600 43.60100 28.10500
C  40.33300 46.59900 25.90300
C  40.51100 45.56300 29.23600
O  40.32800 46.73600 29.54800
C  40.72200 44.38100 30.27700
C  41.70800 44.82600 31.25500
O  42.84800 45.22000 31.05000
O  41.12600 44.87500 32.47000
C  42.05300 45.32900 33.59400
H  42.76700 37.66800 29.68000
H  42.49100 38.30700 23.12200
H  40.52300 44.30500 23.92500
H  42.06600 41.72400 31.96700
H  41.25400 38.98000 31.44200
H  43.12200 38.56600 32.56500
H  43.49400 40.32000 32.52100
H  44.08000 39.41200 31.27400
H  39.44500 40.37100 32.05600
H  39.25200 41.95000 31.41900
H  39.49700 43.02900 33.44000
H  40.96300 42.20400 33.74800
H  42.73800 34.69200 27.51400
H  42.82000 35.82900 28.76000
H  44.35800 35.51000 28.01200
H  43.11400 33.98900 25.35300
H  44.73200 34.77000 25.60100
H  44.34300 34.07900 24.05000
H  41.18100 39.85000 21.91200
H  41.33100 42.80500 21.82600
H  43.90900 40.39300 21.74400
H  43.47500 42.05700 21.45000
H  42.92100 40.73800 20.35200
H  39.41300 41.58000 21.04200
H  38.89500 42.76700 22.20800
H  38.24700 41.09700 23.71700
H  39.34200 39.81900 23.05500
H  37.85700 40.13400 22.28800
H  41.24900 46.98000 25.45300
H  39.95200 47.25300 26.68700
H  39.61000 46.47700 25.09600
H  39.75900 44.26100 30.77300
H  43.13900 45.33900 33.49600
H  41.77700 44.70200 34.44200
H  41.85500 46.37900 33.80500
Mg 16.94300 52.28800 26.18400
C  18.79400 50.93200 28.80000
C  14.71000 53.48500 28.47900
C  15.36900 53.99100 23.67900
C  19.30200 51.00800 23.91400
N  16.61200 52.01000 28.35600
C  17.61600 51.60600 29.25300
C  17.35000 52.17200 30.65300
C  15.83300 52.57300 30.57000
C  15.69500 52.67500 29.01500
C  14.78200 51.57900 31.14100
C  18.35200 53.17100 31.28900
C  18.65400 52.88200 32.78500
H  17.70300 52.02600 33.63400
N  15.31800 53.54200 26.13900
C  14.50400 53.92500 27.18300
C  13.43300 54.75800 26.68300
C  13.77600 55.09400 25.28100
C  14.89400 54.22500 24.98500
C  12.52000 55.44900 27.72800
C  13.06600 56.06100 24.29700
O  13.53900 56.26800 23.16300
C  11.86100 56.75800 24.75400
N  17.20900 52.44000 24.03500
C  16.43300 53.18100 23.23000
C  16.92200 53.09700 21.72600
C  18.23300 52.24700 21.85000
C  18.25900 51.79900 23.35500
C  15.83100 52.43800 20.85200
C  19.50700 53.11200 21.54000
C  20.55600 52.52500 20.61900
N  18.57300 51.11900 26.27800
C  19.46000 50.67600 25.31100
C  20.53500 49.92200 25.94700
C  20.36900 50.04300 27.28800
C  19.13700 50.73700 27.47700
C  21.69400 49.29100 25.22200
C  20.93200 49.70300 28.53400
O  21.99900 49.14700 28.80500
C  19.97000 50.34500 29.61200
C  19.40900 49.29300 30.50100
O  18.56600 48.48200 30.14300
O  20.03400 49.30300 31.71200
C  19.65200 48.42800 32.84500
H  14.06400 53.92100 29.24400
H  14.90300 54.56400 22.87500
H  20.11600 50.63000 23.29100
H  17.39100 51.29500 31.29800
H  15.55100 53.50100 31.06700
H  14.00800 51.27400 30.43700
H  14.35600 51.95700 32.07100
H  15.22800 50.61500 31.38700
H  17.87200 54.14800 31.23200
H  19.15600 53.08800 30.55700
H  18.61800 53.83000 33.32200
H  19.68800 52.57100 32.93200
H  11.57200 55.82200 27.34100
H  13.10100 56.26400 28.16000
H  12.13500 54.78100 28.49900
H  12.00200 57.54900 25.49000
H  11.09000 56.04400 25.04600
H  11.41700 57.30000 23.91900
H  17.14900 54.10800 21.38400
H  18.06600 51.36300 21.23400
H  15.47300 53.07100 20.03900
H  15.01500 52.11900 21.50100
H  16.16700 51.46700 20.48700
H  19.90900 53.40500 22.50900
H  19.32600 54.08500 21.08300
H  21.56400 52.74700 20.96900
H  20.42900 52.77700 19.56700
H  20.39300 51.44800 20.57100
H  21.26400 48.53000 24.57100
H  22.33400 48.77000 25.93500
H  22.32200 49.95800 24.63200
H  20.43200 51.17200 30.15100
H  18.75100 47.84800 32.64600
H  19.35600 49.06100 33.68200
H  20.39600 47.71000 33.19000

