158

Mg 47.28000 44.48500 43.02800
C  43.97600 43.63500 43.16200
C  48.01900 40.99600 42.82300
C  50.57900 45.38600 42.32200
C  46.30600 47.84800 42.70700
N  46.16200 42.49600 42.86200
C  44.81800 42.43400 43.06600
C  44.32400 40.98600 43.08700
C  45.66300 40.12400 42.94700
C  46.66100 41.24600 42.95000
C  45.77600 39.11600 44.15800
C  43.36300 40.63100 41.90000
C  43.84100 41.08800 40.59500
H  43.75900 40.04900 39.43000
N  49.08100 43.36100 42.69900
C  49.14100 41.95300 42.66000
C  50.45300 41.62000 42.39200
C  51.11000 42.81800 41.99100
C  50.28800 43.93100 42.39800
C  50.94900 40.15700 42.44300
C  52.49400 42.87100 41.49600
O  53.10200 41.84800 41.32000
C  53.13900 44.16400 40.89300
N  48.30400 46.42700 42.39900
C  49.69600 46.51900 42.42200
C  50.08300 47.93700 42.39500
C  48.71900 48.69800 42.50600
C  47.67800 47.65000 42.51900
C  51.21400 48.31000 43.41200
C  48.49700 49.74300 41.39200
C  48.04100 51.15400 41.79800
N  45.53900 45.58300 43.06300
C  45.24400 46.89600 42.91100
C  43.84600 47.12700 43.06900
C  43.31000 45.88700 43.16000
C  44.34500 44.97600 43.11700
C  43.16500 48.42900 43.25200
C  42.07500 45.11100 43.34000
O  40.95700 45.49800 43.49600
C  42.49700 43.62500 43.34400
C  42.16500 42.99900 44.67200
O  42.59700 43.27400 45.79000
O  41.33500 41.86700 44.43600
C  40.98500 41.19200 45.64600
H  48.32800 39.95400 42.92600
H  51.63800 45.65100 42.30800
H  46.16000 48.92900 42.65200
H  43.70100 40.88700 43.97600
H  45.82200 39.62100 41.99300
H  45.96600 39.65800 45.08500
H  46.57800 38.42600 43.89500
H  44.92300 38.45100 44.28700
H  42.38700 41.02900 42.17700
H  43.25200 39.54700 41.88600
H  44.86700 41.45700 40.56700
H  43.20200 41.90000 40.24900
H  52.00000 40.09700 42.72700
H  50.76500 39.48000 41.60800
H  50.48900 39.58900 43.25100
H  52.44000 44.72900 40.27700
H  53.90700 43.83400 40.19300
H  53.56200 44.76300 41.70000
H  50.48400 48.30500 41.45100
H  48.74600 49.09700 43.52000
H  51.63000 47.37100 43.77800
H  50.78400 48.74900 44.31200
H  52.00200 48.95100 43.01800
H  47.74100 49.23200 40.79600
H  49.39800 49.85100 40.78800
H  48.94700 51.75000 41.68500
H  47.60700 51.21600 42.79600
H  47.23900 51.46900 41.13000
H  43.04500 48.59200 44.32300
H  42.15400 48.37400 42.84700
H  43.63000 49.29900 42.78800
H  41.91800 43.17200 42.54000
H  40.12000 40.61500 45.31800
H  40.62300 41.83400 46.44800
H  41.82100 40.64000 46.07700
Mg -11.34100 17.04100 43.34000
C  -7.87300 17.48000 43.39300
C  -11.74100 20.44700 43.30300
C  -14.64600 16.48400 43.23400
C  -10.75000 13.63800 42.55300
N  -9.91500 18.80500 43.24600
C  -8.58900 18.69500 43.35200
C  -7.93400 20.09500 43.41600
C  -9.22000 21.06900 43.58100
C  -10.38400 20.04400 43.36100
C  -9.28600 21.87800 44.85500
C  -7.08100 20.35800 42.08300
C  -5.66600 20.98500 42.22100
H  -5.22800 21.64400 40.93200
N  -12.98500 18.26500 43.21200
C  -12.95000 19.63200 43.16500
C  -14.28700 20.08100 43.11800
C  -15.18900 18.96100 43.03400
C  -14.29100 17.82200 43.11300
C  -14.69800 21.53700 43.32300
C  -16.69200 19.07700 43.01400
O  -17.29700 20.19100 42.98000
C  -17.49900 17.78100 42.84200
N  -12.49200 15.34900 42.83200
C  -13.79400 15.34500 43.06600
C  -14.38000 13.90100 43.09400
C  -13.21700 13.06000 42.53400
C  -12.07700 14.08400 42.51900
C  -14.90900 13.43700 44.48900
C  -13.63000 12.42700 41.09300
C  -12.84000 11.23500 40.58600
N  -9.68100 15.80500 42.99800
C  -9.64300 14.46300 42.70000
C  -8.24800 14.02500 42.76100
C  -7.53900 15.19600 43.07800
C  -8.47100 16.27100 43.14200
C  -7.68600 12.67300 42.68100
C  -6.19800 15.73200 43.28200
O  -5.16500 15.15300 43.22800
C  -6.32600 17.28900 43.58000
C  -5.99300 17.43100 45.07000
O  -6.45000 16.81500 46.00600
O  -5.05200 18.48400 45.17800
C  -4.96500 19.07600 46.56200
H  -11.86500 21.53000 43.36800
H  -15.67300 16.11500 43.25100
H  -10.67600 12.56800 42.34800
H  -7.22300 20.19800 44.23600
H  -9.24200 21.71000 42.69900
H  -9.53200 21.29700 45.74300
H  -9.95100 22.73400 44.73700
H  -8.27600 22.28300 44.93000
H  -7.60500 21.15800 41.55900
H  -6.95300 19.58800 41.32200
H  -4.93300 20.22000 42.47600
H  -5.63600 21.60300 43.11900
H  -13.95400 22.26800 43.00700
H  -15.03800 21.77800 44.33100
H  -15.48600 21.61200 42.57400
H  -17.21100 17.35200 41.88200
H  -18.55600 18.04100 42.79300
H  -17.41600 17.11000 43.69700
H  -15.23500 13.91600 42.41800
H  -13.05100 12.26000 43.25500
H  -15.96800 13.32100 44.25500
H  -14.79700 14.18100 45.27800
H  -14.63300 12.45000 44.86100
H  -13.60700 13.17800 40.30300
H  -14.64600 12.05300 41.21800
H  -12.56300 11.34200 39.53700
H  -13.40500 10.30400 40.62100
H  -11.84500 11.15400 41.02300
H  -8.28800 12.06900 43.36100
H  -6.64000 12.69800 42.98500
H  -7.90600 12.33600 41.66700
H  -5.73700 17.85200 42.85600
H  -5.80800 18.86800 47.22200
H  -5.05300 20.16200 46.54800
H  -4.00700 18.92600 47.05800

