158

Mg 2.15400 -2.12000 43.97500
C  5.37400 -0.87000 43.59500
C  1.04400 0.69900 42.43000
C  -0.93400 -3.57900 43.67700
C  3.51500 -5.20000 44.93000
N  3.08900 -0.36200 43.09600
C  4.40300 -0.07300 43.08600
C  4.64500 1.21600 42.32400
C  3.24100 1.90600 42.30800
C  2.39600 0.70700 42.74500
C  3.19100 3.10900 43.21900
C  5.21600 0.90800 40.90600
C  6.36400 1.86200 40.32700
H  7.09400 1.18700 39.16100
N  0.28900 -1.50600 43.12800
C  0.07200 -0.33000 42.52900
C  -1.29800 -0.25500 42.11800
C  -1.91700 -1.42000 42.55900
C  -0.85000 -2.25400 43.15200
C  -1.89200 1.00700 41.44300
C  -3.38800 -1.77200 42.43300
O  -4.19000 -0.99500 41.94100
C  -3.94400 -2.96600 43.06500
N  1.36900 -4.12000 44.25000
C  0.05700 -4.38700 44.25700
C  -0.14800 -5.83100 44.69700
C  1.29100 -6.35400 45.12800
C  2.09700 -5.20300 44.64700
C  -1.19800 -5.96100 45.80500
C  1.78400 -7.70000 44.46500
C  2.50300 -8.59500 45.55200
N  4.04100 -2.91900 44.33600
C  4.43600 -4.10600 44.84900
C  5.88800 -4.09900 44.98400
C  6.28500 -2.85900 44.50100
C  5.10300 -2.19400 44.07600
C  6.66700 -5.25800 45.50500
C  7.43300 -2.01900 44.25800
O  8.65200 -2.20300 44.34500
C  6.88900 -0.67500 43.68400
C  7.24200 0.36700 44.74500
O  6.65400 0.59700 45.81400
O  8.33100 1.10100 44.25400
C  8.70500 2.38200 44.98300
H  0.70100 1.65200 42.02200
H  -1.85300 -4.14200 43.49500
H  3.93400 -6.13300 45.31200
H  5.37200 1.83800 42.84600
H  3.02800 2.22000 41.28600
H  4.07200 3.31700 43.82700
H  2.45100 2.92400 43.99800
H  3.03500 3.94000 42.53200
H  4.44200 1.11500 40.16600
H  5.46700 -0.15100 40.84800
H  7.13800 2.03800 41.07300
H  5.94400 2.84300 40.10800
H  -1.93600 1.68000 42.29900
H  -2.85400 0.87900 40.94600
H  -1.18700 1.37600 40.69800
H  -3.74300 -3.89000 42.52300
H  -5.01500 -2.76600 43.08800
H  -3.55000 -2.96600 44.08200
H  -0.38900 -6.34400 43.76600
H  1.35300 -6.41200 46.21500
H  -1.51400 -4.96800 46.12300
H  -0.90500 -6.58700 46.64800
H  -2.01100 -6.53900 45.36500
H  2.43600 -7.40800 43.64200
H  0.92800 -8.28500 44.13100
H  2.07200 -8.54700 46.55200
H  3.58900 -8.65500 45.47400
H  2.25600 -9.56700 45.12600
H  7.56600 -4.90700 46.01100
H  6.99500 -5.84000 44.64300
H  6.10000 -5.95200 46.12500
H  7.37500 -0.46200 42.73100
H  7.81400 2.93200 45.28700
H  9.45100 3.00500 44.49000
H  9.11100 2.14300 45.96600
Mg 24.86100 -5.45300 46.22000
C  27.28900 -3.53500 44.48400
C  22.57700 -4.30000 43.88500
C  23.01800 -8.14000 46.90100
C  27.43500 -6.62000 48.25500
N  24.87000 -3.95300 44.48400
C  26.02400 -3.36800 43.95100
C  25.59700 -2.53500 42.73600
C  24.06700 -2.39400 42.86600
C  23.84100 -3.58300 43.77400
C  23.60900 -1.03800 43.45000
C  26.16700 -3.14700 41.51500
C  26.51900 -2.03100 40.39900
H  26.06800 -2.34100 38.96100
N  23.01900 -6.04300 45.53600
C  22.19300 -5.46500 44.65900
C  20.99400 -6.24900 44.44600
C  21.01600 -7.25400 45.38600
C  22.38100 -7.20300 46.00700
C  19.90900 -5.90000 43.39600
C  19.94500 -8.35400 45.56200
O  18.83000 -8.23800 45.01900
C  20.12300 -9.50600 46.54400
N  25.12400 -7.08000 47.39900
C  24.25900 -8.14300 47.48300
C  24.58400 -9.06000 48.71700
C  26.09000 -8.73800 48.87400
C  26.17600 -7.35700 48.22700
C  23.83900 -8.59600 49.90400
C  26.98400 -9.74700 48.08500
C  27.70800 -10.80100 48.91300
N  27.03500 -5.06500 46.43800
C  27.89400 -5.64800 47.31200
C  29.24600 -5.10000 47.08900
C  29.04000 -4.26400 46.00200
C  27.71000 -4.36100 45.60500
C  30.45900 -5.22800 47.91200
C  29.77100 -3.30700 45.09500
O  30.96400 -3.13600 45.02400
C  28.64400 -2.84400 44.08900
C  28.53200 -1.38500 44.14000
O  28.37000 -0.77600 45.17700
O  28.71300 -0.75100 42.91700
C  28.66900 0.77300 42.95200
H  21.88800 -3.84800 43.16800
H  22.37700 -8.97200 47.19800
H  28.13200 -7.14200 48.91500
H  26.02500 -1.56300 42.98100
H  23.51100 -2.63600 41.96000
H  24.35600 -0.27000 43.65000
H  23.01400 -1.31600 44.32000
H  22.91400 -0.46500 42.83600
H  25.40100 -3.88600 41.27800
H  27.05300 -3.72100 41.78600
H  27.60300 -2.13200 40.44200
H  26.16000 -1.04900 40.70700
H  19.97900 -4.94500 42.87600
H  18.92100 -5.87600 43.85600
H  20.01900 -6.68400 42.64700
H  19.24600 -10.09800 46.80400
H  20.38800 -8.96300 47.45100
H  20.93300 -10.15300 46.20700
H  24.39900 -10.11300 48.50300
H  26.47000 -8.72000 49.89500
H  22.76900 -8.55400 49.70100
H  24.17100 -7.59300 50.17400
H  23.94200 -9.30200 50.72800
H  27.73400 -9.21500 47.50000
H  26.41800 -10.37800 47.40000
H  27.74400 -10.45300 49.94600
H  28.71800 -10.96500 48.53800
H  27.13900 -11.72900 48.86600
H  30.78100 -4.21600 48.15700
H  31.17800 -5.82400 47.35000
H  30.30400 -5.80800 48.82200
H  28.92300 -3.07500 43.06100
H  27.81600 1.03700 43.57700
H  28.51200 1.06300 41.91300
H  29.55400 1.26300 43.35800

