158

Mg 1.71400 -2.82700 45.40700
C  5.10900 -2.92700 44.66800
C  1.41700 -0.15500 43.04700
C  -1.62300 -3.24400 45.33300
C  2.14200 -5.90800 47.14300
N  3.09300 -1.63600 44.08400
C  4.45500 -1.90300 43.92700
C  5.09900 -0.90000 42.88000
C  4.00100 0.13700 42.69400
C  2.75600 -0.60900 43.22600
C  4.16100 1.53900 43.28400
C  5.62200 -1.67100 41.56900
C  7.09400 -1.41300 41.10700
H  7.34900 -0.87700 39.70500
N  0.17800 -1.70200 44.54500
C  0.24800 -0.67900 43.61200
C  -1.08900 -0.18400 43.31900
C  -1.96200 -1.08400 43.85700
C  -1.14900 -2.06300 44.66100
C  -1.32200 0.97100 42.38500
C  -3.44900 -1.11200 43.63500
O  -3.85400 -0.20500 42.93800
C  -4.34200 -2.13300 44.24000
N  0.51200 -4.33000 46.08300
C  -0.85500 -4.20800 46.05100
C  -1.54600 -5.44100 46.72900
C  -0.33000 -6.17100 47.31500
C  0.85300 -5.49600 46.78000
C  -2.60400 -5.07500 47.83900
C  -0.33500 -7.67600 47.23800
C  0.40300 -8.40600 46.11500
N  3.28200 -4.15000 45.92600
C  3.33900 -5.28700 46.70100
C  4.68800 -5.74000 46.83000
C  5.41800 -4.79300 46.08900
C  4.48800 -3.84600 45.53600
C  5.24300 -6.91600 47.59600
C  6.74300 -4.49500 45.59700
O  7.86000 -5.04800 45.78800
C  6.60700 -3.22800 44.69500
C  7.37700 -2.14100 45.20600
O  7.36100 -1.71900 46.35000
O  7.96100 -1.40800 44.18300
C  8.58800 -0.09000 44.34400
H  1.30200 0.73900 42.43100
H  -2.69000 -3.46900 45.38800
H  2.05800 -6.72200 47.86600
H  5.94100 -0.43500 43.39400
H  3.79800 0.42700 41.66400
H  4.86700 1.41900 44.10600
H  3.19900 1.89700 43.65200
H  4.61200 2.22700 42.57000
H  4.91400 -1.42000 40.78000
H  5.41900 -2.72600 41.75200
H  7.70000 -2.31300 41.20600
H  7.43500 -0.67000 41.82800
H  -1.66200 0.65700 41.39800
H  -0.42000 1.58200 42.35400
H  -2.12300 1.56000 42.83200
H  -4.14800 -3.09000 43.75600
H  -5.34200 -1.80900 43.95000
H  -4.41500 -2.21300 45.32400
H  -1.97200 -6.09100 45.96500
H  -0.28200 -5.99400 48.39000
H  -2.82800 -4.01100 47.90500
H  -2.18600 -5.43600 48.77900
H  -3.58700 -5.50600 47.65100
H  -1.34100 -8.06800 47.38900
H  0.17700 -7.98800 48.14900
H  -0.30400 -9.08200 45.63400
H  1.22800 -8.99800 46.51000
H  0.85500 -7.74900 45.37100
H  4.77700 -7.84400 47.26300
H  4.84900 -6.83900 48.60900
H  6.31200 -6.70800 47.55900
H  7.00200 -3.43500 43.70100
H  9.26000 -0.07800 45.20200
H  7.80000 0.63200 44.56000
H  9.25700 0.23400 43.54700
Mg 46.97300 16.79400 28.47000
C  45.27200 16.84200 31.44200
C  49.45600 18.67500 30.21700
C  48.72000 17.40500 25.63700
C  44.47200 15.30500 26.79200
N  47.25500 17.63400 30.60800
C  46.51300 17.42000 31.68800
C  47.09500 17.94700 32.97600
C  48.16500 18.97300 32.45900
C  48.28300 18.46500 30.95500
C  47.79200 20.38300 32.61000
C  47.70000 16.78800 33.87900
C  47.32000 16.70400 35.34600
H  46.97400 18.07900 36.02400
N  48.88000 17.75100 28.00000
C  49.68000 18.51000 28.83600
C  50.80100 18.94800 28.09600
C  50.65300 18.52800 26.71900
C  49.42600 17.86100 26.72900
C  51.95200 19.84000 28.66400
C  51.52600 18.86500 25.52900
O  51.35600 18.36400 24.45900
C  52.63800 19.74100 25.72100
N  46.69400 16.27900 26.48500
C  47.49300 16.68800 25.49800
C  46.94100 16.27600 24.12700
C  45.61100 15.56900 24.48700
C  45.59800 15.56300 25.99500
C  46.66800 17.51600 23.17300
C  45.44400 14.11300 23.96500
C  44.47200 13.84100 22.78900
N  45.29600 16.14100 28.94600
C  44.33300 15.47300 28.16600
C  43.23400 15.18300 28.97900
C  43.51100 15.70900 30.26700
C  44.81200 16.20000 30.21600
C  42.05700 14.39300 28.57700
C  43.03700 15.84300 31.59900
O  41.98500 15.41700 32.07300
C  44.19700 16.53100 32.43000
C  43.64000 17.74000 33.17400
O  43.57300 18.91400 32.77800
O  43.03300 17.26500 34.32200
C  42.23100 18.25500 35.01900
H  50.26700 19.16700 30.75700
H  49.15600 17.63600 24.66300
H  43.60100 14.97600 26.22100
H  46.31800 18.43500 33.56500
H  49.16300 18.83800 32.87500
H  48.62000 20.88000 33.11500
H  46.84500 20.42600 33.14800
H  47.78700 21.00900 31.71800
H  48.78200 16.76800 33.74900
H  47.35700 15.87700 33.38900
H  48.30300 16.45300 35.74300
H  46.61100 15.91500 35.59800
H  51.89400 20.82000 28.19100
H  52.91300 19.32500 28.65100
H  51.70600 19.94500 29.72100
H  52.30500 20.77800 25.76800
H  53.17600 19.62200 24.78100
H  53.28700 19.42200 26.53700
H  47.70000 15.64600 23.66300
H  44.67400 16.03400 24.18000
H  45.63800 17.55200 22.81800
H  47.35000 17.42900 22.32700
H  46.81100 18.52600 23.55700
H  45.08200 13.40400 24.71000
H  46.43700 13.74400 23.70800
H  45.04400 13.38800 21.98000
H  43.83300 14.68400 22.52600
H  43.76800 13.09600 23.15900
H  41.61000 14.79800 27.66900
H  41.26900 14.23800 29.31400
H  42.44500 13.45600 28.17900
H  44.65600 15.82300 33.12000
H  41.82000 17.67300 35.84400
H  41.35900 18.48400 34.40700
H  42.75200 19.16700 35.31200

