158

Mg 46.28300 24.27300 28.58400
C  46.68200 26.89200 30.93200
C  45.46600 22.11800 31.10300
C  46.19000 21.91600 26.39300
C  47.95700 26.42100 26.19000
N  46.23100 24.53400 30.68300
C  46.32700 25.69200 31.45600
C  46.03600 25.41700 32.91500
C  46.00400 23.82900 33.01200
C  45.84000 23.44000 31.52100
C  47.09700 23.15200 33.87300
C  44.74000 26.10800 33.41400
C  44.92400 26.86200 34.85700
H  44.09300 26.60000 36.07700
N  45.75100 22.29600 28.69500
C  45.43500 21.57500 29.82600
C  45.09000 20.23200 29.43800
C  45.26400 20.20300 28.07700
C  45.74900 21.48800 27.62100
C  44.68200 19.11000 30.39900
C  44.95100 19.09400 27.15100
O  45.23400 19.10000 25.92400
C  44.12200 17.88900 27.62900
N  47.10700 24.19900 26.61300
C  46.83900 23.05800 25.90300
C  47.39800 23.10700 24.50300
C  47.80600 24.54500 24.33700
C  47.67700 25.11600 25.80900
C  48.45800 22.01700 24.14000
C  47.00200 25.34300 23.28100
C  45.60700 25.94600 23.54500
N  47.00400 26.34300 28.43400
C  47.69800 27.03300 27.42900
C  47.80200 28.41700 27.90600
C  47.59200 28.40300 29.30500
C  47.12000 27.11000 29.59500
C  48.27300 29.61300 27.07100
C  47.68700 29.10700 30.59700
O  47.94900 30.25800 30.69200
C  47.22400 28.08700 31.72100
C  48.43900 27.81600 32.49000
O  49.52400 27.40400 32.00200
O  48.25400 28.02700 33.84600
C  49.39800 27.79300 34.71000
H  45.32600 21.48100 31.97900
H  46.29200 21.10300 25.67100
H  48.48200 27.11800 25.53300
H  46.97500 25.72200 33.37800
H  45.09800 23.51700 33.53200
H  47.37700 22.21200 33.39700
H  46.57800 22.90900 34.80100
H  47.90700 23.85200 34.07600
H  43.92800 25.41900 33.64700
H  44.32600 26.83900 32.71900
H  44.80300 27.90700 34.57200
H  45.89900 26.60300 35.26800
H  43.66900 18.80400 30.13700
H  44.82500 19.34800 31.45400
H  45.24900 18.22800 30.10100
H  44.57300 17.41900 28.50300
H  44.04900 17.19100 26.79500
H  43.06300 18.12600 27.73400
H  46.52200 22.91800 23.88200
H  48.86300 24.58800 24.07400
H  48.69900 21.39700 25.00300
H  49.45500 22.39800 23.92300
H  48.06000 21.41700 23.32200
H  46.82400 24.61000 22.49400
H  47.62400 26.14200 22.87800
H  45.02600 25.33100 24.23200
H  44.98200 25.90200 22.65300
H  45.55000 26.99600 23.83400
H  48.03000 30.59500 27.47700
H  48.00600 29.54600 26.01600
H  49.35200 29.53400 27.20500
H  46.47300 28.59200 32.32800
H  50.25400 27.32000 34.23000
H  49.04100 27.25100 35.58600
H  49.70200 28.76800 35.09300
Mg -10.46600 39.93900 42.15800
C  -9.16700 36.65400 41.22200
C  -7.64100 41.28800 40.47500
C  -11.86500 42.88100 42.22200
C  -13.50100 38.34300 42.78900
N  -8.77900 39.07100 40.85700
C  -8.39700 37.75500 40.79400
C  -6.97800 37.64800 40.20900
C  -6.39700 39.09000 40.34800
C  -7.71100 39.90600 40.56000
C  -5.22300 39.39000 41.41900
C  -6.99600 37.08600 38.72300
C  -5.90600 36.00200 38.39500
H  -4.78400 36.23400 37.36200
N  -9.76300 41.84700 41.58600
C  -8.62400 42.21900 40.96400
C  -8.53300 43.69600 40.96300
C  -9.73200 44.13700 41.67400
C  -10.52900 42.92800 41.82400
C  -7.43800 44.44800 40.28500
C  -10.16300 45.55700 41.96000
O  -9.37800 46.47400 41.63200
C  -11.40100 46.07600 42.66500
N  -12.45000 40.57400 42.39200
C  -12.80500 41.87600 42.40100
C  -14.30400 41.99200 42.72500
C  -14.80500 40.53900 42.93200
C  -13.51800 39.72500 42.68400
C  -14.53200 42.89100 43.93300
C  -16.06900 40.17800 42.10600
C  -17.17800 39.39500 42.84400
N  -11.17700 37.89400 42.21300
C  -12.47000 37.41100 42.49600
C  -12.43800 35.93400 42.46900
C  -11.15900 35.62400 41.99900
C  -10.47600 36.77800 41.76900
C  -13.62800 35.06900 42.63600
C  -10.26900 34.55300 41.67000
O  -10.35800 33.33700 41.67000
C  -9.02000 35.21100 41.07200
C  -7.81700 34.72000 41.78000
O  -7.35000 35.22000 42.82100
O  -7.15700 33.75900 40.97100
C  -5.87400 33.17800 41.34800
H  -6.76200 41.72300 39.99400
H  -12.34800 43.85500 42.32400
H  -14.40900 37.76300 42.96800
H  -6.47900 36.98100 40.91300
H  -5.95200 39.23500 39.36300
H  -5.65700 40.01200 42.20100
H  -4.43700 40.00200 40.97700
H  -4.98100 38.36900 41.71400
H  -6.85800 37.88500 37.99400
H  -7.94000 36.61200 38.45400
H  -6.47400 35.10000 38.16600
H  -5.30300 35.78700 39.27600
H  -7.88900 44.80900 39.36100
H  -6.55400 43.83000 40.12600
H  -7.09300 45.39000 40.71100
H  -12.14100 46.09000 41.86500
H  -11.21300 47.02600 43.16500
H  -11.72300 45.43500 43.48700
H  -14.77100 42.45400 41.85600
H  -14.94200 40.34500 43.99600
H  -14.93000 43.86700 43.65600
H  -13.58000 43.03000 44.44600
H  -15.26800 42.50300 44.63800
H  -15.73700 39.70500 41.18300
H  -16.54100 41.10900 41.79100
H  -16.79200 38.81300 43.68100
H  -17.54400 38.68200 42.10500
H  -17.92900 40.11100 43.17400
H  -14.49300 35.56900 43.07000
H  -13.37500 34.20600 43.25200
H  -13.86000 34.66000 41.65200
H  -8.91200 34.94600 40.02000
H  -5.93700 32.39200 42.10100
H  -5.19800 33.88200 41.83300
H  -5.40400 32.83500 40.42600

