158

Mg 2.34600 -2.34300 45.16700
C  5.65900 -1.62000 44.57900
C  1.43900 -0.21200 42.65300
C  -0.86800 -3.68800 45.37500
C  3.49000 -5.22000 47.04400
N  3.47400 -1.12900 43.71200
C  4.81100 -0.83700 43.77500
C  5.24400 0.19300 42.74800
C  3.84200 0.80400 42.31900
C  2.83600 -0.29700 42.83300
C  3.47400 2.13200 43.08400
C  6.07400 -0.41300 41.59800
C  7.29000 0.39800 41.09200
H  7.48000 0.56500 39.58900
N  0.50500 -1.87700 44.23200
C  0.35400 -1.01400 43.18700
C  -1.11300 -0.85600 42.91700
C  -1.76800 -1.76000 43.83100
C  -0.69700 -2.51600 44.54400
C  -1.59100 0.01700 41.78300
C  -3.21900 -1.87700 43.93000
O  -3.97100 -1.20000 43.26400
C  -3.88100 -2.65700 45.04000
N  1.42800 -4.10700 46.16500
C  0.12900 -4.42200 46.04600
C  -0.19100 -5.77400 46.79200
C  1.15500 -6.19800 47.33600
C  2.08900 -5.10300 46.88900
C  -1.36600 -5.72300 47.87500
C  1.50700 -7.64900 46.90000
C  2.62800 -8.44400 47.66900
N  4.20400 -3.20200 45.83600
C  4.52600 -4.35600 46.61800
C  5.95700 -4.41400 46.75600
C  6.40500 -3.28000 46.08700
C  5.29300 -2.64000 45.45500
C  6.68700 -5.49300 47.61600
C  7.58700 -2.54100 45.71000
O  8.76300 -2.75600 46.03100
C  7.13200 -1.42600 44.73200
C  7.44600 -0.14900 45.41300
O  6.88400 0.32700 46.35700
O  8.45300 0.47800 44.71400
C  8.56600 1.91200 45.21100
H  1.27800 0.47400 41.81900
H  -1.82000 -4.21400 45.28200
H  3.78100 -6.16500 47.50700
H  5.81700 0.96700 43.26000
H  3.70400 0.86000 41.23900
H  2.52100 2.09700 43.61300
H  3.37800 2.86800 42.28500
H  4.19800 2.36000 43.86600
H  5.37700 -0.50900 40.76600
H  6.41400 -1.41600 41.85800
H  8.20800 -0.03500 41.49100
H  7.25300 1.35900 41.60400
H  -1.91800 -0.59700 40.94400
H  -0.75400 0.64800 41.48400
H  -2.41200 0.63200 42.15200
H  -3.82400 -3.69700 44.72100
H  -4.92100 -2.33500 45.10900
H  -3.31700 -2.47200 45.95400
H  -0.50800 -6.53700 46.08200
H  1.01000 -6.23000 48.41500
H  -1.83000 -4.74900 47.71900
H  -0.92000 -5.79000 48.86700
H  -2.13900 -6.46800 47.69100
H  1.82200 -7.65500 45.85700
H  0.66000 -8.33300 46.95900
H  2.93900 -7.85800 48.53300
H  3.50000 -8.61300 47.03800
H  2.17300 -9.40100 47.92800
H  7.74700 -5.47400 47.36000
H  6.22900 -6.43200 47.30400
H  6.50700 -5.14900 48.63400
H  7.62000 -1.48700 43.76000
H  9.20900 2.43100 44.50000
H  9.06300 1.93400 46.18100
H  7.64400 2.49200 45.21900
Mg -12.13200 37.66800 41.76500
C  -9.52300 35.25400 41.24300
C  -10.07600 40.04300 40.51600
C  -14.82200 39.78200 41.15400
C  -14.24000 35.10400 42.60200
N  -10.11600 37.55700 40.80000
C  -9.18100 36.57700 40.76200
C  -7.84200 37.08400 40.16900
C  -7.97400 38.61500 40.18300
C  -9.43000 38.76000 40.61000
C  -6.85300 39.38100 40.99300
C  -7.62700 36.31300 38.81400
C  -6.34800 35.42800 38.65800
H  -5.24500 35.83800 37.70000
N  -12.38200 39.75700 41.11600
C  -11.37300 40.50300 40.64500
C  -11.90100 41.75800 40.20300
C  -13.32900 41.72300 40.25300
C  -13.61600 40.42700 40.88600
C  -11.02600 42.82600 39.67900
C  -14.33900 42.82400 39.75100
O  -13.94500 43.91000 39.21700
C  -15.85700 42.60900 39.87500
N  -14.28100 37.49600 41.82200
C  -15.15100 38.50800 41.58700
C  -16.66300 37.85500 41.61600
C  -16.32800 36.42600 42.10300
C  -14.83900 36.28400 42.12400
C  -17.58500 38.81700 42.45600
C  -16.93200 35.26500 41.15300
C  -18.15900 34.57300 41.83200
N  -11.97800 35.61700 41.87800
C  -12.89100 34.71200 42.35600
C  -12.20900 33.46100 42.68400
C  -10.83300 33.72400 42.28800
C  -10.78600 34.97900 41.74100
C  -12.79800 32.27800 43.33000
C  -9.50400 33.05400 42.27000
O  -9.21700 31.88600 42.64100
C  -8.59400 34.04100 41.50200
C  -7.40800 34.39100 42.37300
O  -6.24200 34.03600 42.15600
O  -7.79600 34.98300 43.56200
C  -6.80600 34.81800 44.67400
H  -9.38300 40.74200 40.04400
H  -15.70400 40.39200 40.95100
H  -14.80000 34.22300 42.92200
H  -7.08200 36.73500 40.86900
H  -7.79500 39.12300 39.23500
H  -6.37600 40.07400 40.30100
H  -6.11300 38.69900 41.41100
H  -7.32100 39.96100 41.78900
H  -7.47500 37.15200 38.13400
H  -8.50000 35.73600 38.51000
H  -6.73300 34.46800 38.31400
H  -5.92200 35.16200 39.62500
H  -11.53800 43.08000 38.75100
H  -10.02900 42.50800 39.37300
H  -11.13700 43.71100 40.30600
H  -16.34000 43.55300 39.62100
H  -16.02800 42.36600 40.92300
H  -16.31700 41.87100 39.21800
H  -17.05800 37.86800 40.60000
H  -16.74900 36.31900 43.10300
H  -17.12500 39.73700 42.81600
H  -18.02000 38.19000 43.23500
H  -18.30000 39.10100 41.68400
H  -16.27600 34.41100 40.97800
H  -17.17600 35.69000 40.17900
H  -18.75400 35.27000 42.42200
H  -17.77100 33.75000 42.43100
H  -18.76400 34.13400 41.03900
H  -12.10700 31.76600 43.99900
H  -13.11100 31.51900 42.61300
H  -13.77600 32.49300 43.75900
H  -8.20800 33.67200 40.55200
H  -6.67500 33.76400 44.91800
H  -7.09800 35.23600 45.63800
H  -5.85400 35.26400 44.38600

