158

Mg -9.56700 18.34700 42.11600
C  -6.20800 17.58900 42.27600
C  -8.73100 21.67100 41.45300
C  -12.80600 18.86100 41.21000
C  -10.16400 14.79500 42.39400
N  -7.72700 19.48000 41.74500
C  -6.49500 18.97000 42.01900
C  -5.44500 19.99100 41.73200
C  -6.20300 21.35500 41.81700
C  -7.70600 20.79300 41.77100
C  -6.00300 22.34900 42.96800
C  -4.60900 19.89500 40.30100
C  -5.34000 19.28200 39.18300
H  -5.07400 19.78700 37.69000
N  -10.68200 20.03700 41.49100
C  -10.12400 21.29800 41.29600
C  -11.21300 22.21700 40.94400
C  -12.46400 21.50200 40.85800
C  -12.03000 20.07900 41.19800
C  -10.98500 23.71200 40.80500
C  -13.80700 22.08000 40.51200
O  -13.90300 23.28900 40.42400
C  -15.00000 21.22300 40.29100
N  -11.14500 17.00400 41.66500
C  -12.41000 17.48600 41.50200
C  -13.48000 16.37800 41.44500
C  -12.56000 15.08400 41.63800
C  -11.16400 15.62900 41.93900
C  -14.59100 16.47600 42.50500
C  -12.65200 14.09100 40.43800
C  -12.57900 12.57900 40.72100
N  -8.47600 16.45000 42.49600
C  -8.77000 15.13500 42.56900
C  -7.53700 14.32200 42.90600
C  -6.57200 15.35800 42.74000
C  -7.15400 16.59700 42.52800
C  -7.39500 12.91400 43.12600
C  -5.13800 15.43000 42.75100
O  -4.26400 14.58500 42.86700
C  -4.83800 16.90100 42.47000
C  -3.99900 17.35400 43.62100
O  -2.95400 17.99400 43.53000
O  -4.51200 16.94700 44.82600
C  -3.76200 17.26800 46.04100
H  -8.43300 22.70300 41.25200
H  -13.83800 19.06800 40.91800
H  -10.34000 13.73400 42.58500
H  -4.76300 19.91100 42.57800
H  -6.13300 21.84200 40.84400
H  -6.87400 22.79100 43.45100
H  -5.41700 23.19800 42.61500
H  -5.55500 21.80000 43.79600
H  -3.72000 19.31600 40.54700
H  -4.27300 20.87200 39.95200
H  -6.37400 19.43500 39.49000
H  -5.03400 18.23600 39.16000
H  -11.51800 24.05600 39.91800
H  -9.94000 24.00900 40.72300
H  -11.35400 24.25700 41.67300
H  -15.28300 20.67400 41.18900
H  -14.84700 20.49600 39.49300
H  -15.86700 21.84100 40.05300
H  -14.04600 16.33100 40.51500
H  -12.77100 14.50100 42.53400
H  -14.72900 17.55600 42.55300
H  -14.18900 16.08800 43.44200
H  -15.55200 16.10500 42.14900
H  -11.74900 14.37600 39.89700
H  -13.52300 14.26100 39.80500
H  -13.27600 12.11300 40.02500
H  -12.91900 12.36100 41.73400
H  -11.62600 12.05400 40.64800
H  -6.56500 12.56900 42.50900
H  -8.32800 12.38700 42.92500
H  -7.11500 12.71200 44.15900
H  -4.33200 16.84700 41.50600
H  -3.66200 16.35400 46.62600
H  -4.35100 18.02900 46.55300
H  -2.77600 17.68700 45.84100
Mg -5.02400 24.80900 26.70700
C  -3.76400 26.81600 29.44700
C  -6.01300 22.56400 29.18300
C  -6.16100 22.88900 24.16200
C  -3.39900 26.84400 24.50400
N  -4.90800 24.75600 29.10800
C  -4.51600 25.77900 29.97900
C  -5.07700 25.52600 31.38100
C  -5.57500 24.00900 31.31000
C  -5.56100 23.77900 29.82400
C  -4.61400 23.01400 32.11700
C  -6.19200 26.57500 31.84900
C  -5.97600 27.22100 33.21500
H  -6.96300 26.80400 34.25600
N  -5.96000 22.97000 26.64400
C  -6.29500 22.24400 27.77000
C  -6.83600 21.02300 27.26500
C  -6.83500 21.04200 25.84900
C  -6.35700 22.35700 25.45000
C  -7.42800 20.07200 28.13700
C  -7.30800 20.07200 24.75100
O  -7.38900 20.34200 23.53200
C  -7.59400 18.64300 25.22400
N  -4.99000 24.85400 24.65400
C  -5.54900 24.06700 23.74100
C  -5.24600 24.35100 22.31700
C  -4.32800 25.66800 22.43600
C  -4.24800 25.80500 23.95700
C  -4.56000 23.17200 21.57000
C  -4.88600 26.96700 21.75300
C  -3.99100 27.71300 20.79800
N  -3.91400 26.53400 26.86300
C  -3.27900 27.20200 25.85700
C  -2.55600 28.26500 26.41000
C  -2.68400 28.13800 27.77400
C  -3.54600 27.08900 28.06900
C  -1.71500 29.26300 25.55200
C  -2.37200 28.77400 29.02000
O  -1.63000 29.72500 29.25100
C  -3.02100 27.92400 30.20600
C  -1.88700 27.37900 31.06500
O  -0.77700 27.08900 30.63200
O  -2.27900 27.21300 32.35400
C  -1.26400 26.72400 33.32000
H  -6.30300 21.81000 29.91800
H  -6.40400 22.26900 23.29700
H  -2.76700 27.38300 23.79400
H  -4.28200 25.49800 32.12700
H  -6.56300 23.71300 31.66200
H  -4.18300 22.20900 31.52100
H  -5.19000 22.58200 32.93500
H  -3.80200 23.59300 32.55800
H  -7.17900 26.11100 31.84900
H  -6.22100 27.36200 31.09500
H  -5.98200 28.29700 33.04100
H  -5.02300 26.89800 33.63400
H  -8.44300 19.89800 27.77900
H  -7.45300 20.30600 29.20100
H  -6.87000 19.14900 27.97900
H  -7.86200 17.88000 24.49300
H  -8.39100 18.71700 25.96300
H  -6.62800 18.43400 25.68400
H  -6.25300 24.47600 21.92000
H  -3.33200 25.36500 22.11500
H  -4.00300 22.55700 22.27700
H  -3.92500 23.41600 20.71900
H  -5.37000 22.49400 21.29900
H  -5.11900 27.69100 22.53400
H  -5.81600 26.81700 21.20500
H  -3.60000 28.61500 21.26900
H  -4.47200 27.90400 19.83900
H  -3.15300 27.07700 20.51600
H  -2.20800 29.81100 24.75000
H  -0.81800 28.74900 25.20600
H  -1.47900 29.91900 26.39000
H  -3.68800 28.51000 30.83800
H  -0.31000 27.25000 33.27700
H  -1.22900 25.66400 33.06900
H  -1.76400 26.85200 34.27900

