158

Mg 23.68400 -5.79100 45.98300
C  25.86100 -3.55700 44.38600
C  21.10900 -4.68800 44.06800
C  21.99000 -8.63500 46.77700
C  26.61800 -7.18200 47.50400
N  23.54900 -4.45000 44.29600
C  24.54800 -3.52300 43.98100
C  24.05300 -2.50800 42.89300
C  22.49200 -2.80200 42.99200
C  22.35600 -4.04300 43.85500
C  21.60800 -1.60400 43.61400
C  24.64000 -2.79400 41.51900
C  25.26200 -1.62300 40.76200
H  25.11000 -1.57600 39.25300
N  21.76500 -6.56500 45.54400
C  20.80300 -5.91600 44.78000
C  19.56900 -6.68900 44.69600
C  19.92000 -7.94800 45.27000
C  21.27400 -7.82000 45.88400
C  18.29200 -6.25800 43.89000
C  19.06800 -9.16000 45.29400
O  17.93100 -9.09700 44.95400
C  19.65400 -10.53300 45.61600
N  24.29500 -7.70700 46.89700
C  23.33400 -8.63900 47.23100
C  23.92800 -9.68300 48.12400
C  25.36000 -9.12500 48.52300
C  25.49200 -7.97300 47.54000
C  23.11100 -10.05800 49.29600
C  26.35800 -10.25800 48.28400
C  27.46500 -10.27800 49.36100
N  25.82600 -5.38500 46.02800
C  26.82100 -6.00400 46.78400
C  28.04400 -5.26500 46.58300
C  27.75600 -4.27800 45.65300
C  26.40000 -4.44500 45.25100
C  29.40800 -5.51500 47.19500
C  28.36500 -3.18900 44.83800
O  29.45100 -2.63900 44.77300
C  27.08300 -2.67400 43.98500
C  26.80500 -1.25600 44.36400
O  26.39000 -0.92900 45.47100
O  27.17200 -0.51600 43.32400
C  27.13100 0.98100 43.56000
H  20.25400 -4.24400 43.55300
H  21.43200 -9.46900 47.20700
H  27.42700 -7.54600 48.14100
H  24.38500 -1.51300 43.18900
H  22.10500 -3.03600 42.00000
H  21.02400 -1.22600 42.77400
H  22.32000 -0.81300 43.84600
H  20.97800 -1.87100 44.46200
H  23.87300 -3.24100 40.88700
H  25.43700 -3.53600 41.52000
H  26.32500 -1.49300 40.96300
H  24.88100 -0.71700 41.23300
H  18.19100 -7.18700 43.32900
H  18.41300 -5.45100 43.16600
H  17.46500 -5.98600 44.54500
H  19.00200 -11.26700 45.14400
H  19.52100 -10.67300 46.68900
H  20.67400 -10.68700 45.26400
H  24.09100 -10.57900 47.52500
H  25.40600 -8.68900 49.52100
H  22.16600 -9.51400 49.30400
H  23.64200 -9.78400 50.20700
H  22.99300 -11.14100 49.31300
H  26.80300 -10.29800 47.29000
H  25.95200 -11.27000 48.31200
H  27.39100 -11.32700 49.64800
H  27.29500 -9.59700 50.19500
H  28.39700 -10.03400 48.85000
H  29.62200 -6.54800 46.92200
H  29.18700 -5.46300 48.26100
H  30.13100 -4.80000 46.80200
H  27.41000 -2.72200 42.94700
H  26.18500 1.23400 44.03800
H  27.21900 1.58000 42.65300
H  27.94900 1.16100 44.25700
Mg 47.11300 16.55500 28.06900
C  45.08800 16.44400 30.90800
C  49.50900 18.30700 30.13700
C  48.89000 17.35900 25.28700
C  44.48300 15.36900 26.18700
N  47.27500 17.29000 30.29700
C  46.29700 17.04700 31.24100
C  46.78500 17.43300 32.64300
C  47.99100 18.38800 32.24700
C  48.27600 18.02600 30.77100
C  47.92100 19.93300 32.55600
C  47.15900 16.11400 33.39000
C  46.82500 16.26900 34.96800
H  46.82000 17.64700 35.63900
N  48.95900 17.46300 27.80600
C  49.85300 18.00000 28.80000
C  51.05200 18.41600 28.12500
C  50.93600 18.15900 26.74100
C  49.54100 17.67400 26.53600
C  52.25100 19.14100 28.85400
C  51.98100 18.28700 25.61600
O  51.67700 18.14400 24.41200
C  53.36500 18.60600 25.91700
N  46.85000 16.27200 26.04300
C  47.71300 16.66200 24.99300
C  47.07900 16.34900 23.64500
C  45.81000 15.48400 24.03000
C  45.63400 15.68400 25.52700
C  46.81400 17.62400 22.84400
C  45.96300 13.93100 23.78100
C  45.56600 13.59700 22.34700
N  45.22400 15.94200 28.42300
C  44.26000 15.39400 27.61800
C  43.11000 14.91800 28.36700
C  43.40300 15.34900 29.65800
C  44.65900 15.96800 29.65900
C  41.85900 14.18200 27.96600
C  42.83700 15.53100 30.94800
O  41.70800 15.25200 31.27600
C  44.03000 16.12600 31.91800
C  43.47900 17.22100 32.66300
O  43.43500 18.30900 32.15800
O  42.89200 16.86400 33.94100
C  42.36400 17.94800 34.73100
H  50.25800 18.82000 30.74500
H  49.26600 17.85200 24.38800
H  43.85400 14.66000 25.64500
H  46.00100 17.93600 33.21000
H  48.87200 17.97400 32.73700
H  47.87100 20.45300 31.60000
H  48.78100 20.33500 33.09100
H  47.08400 20.27300 33.16700
H  48.15800 15.71500 33.21700
H  46.47800 15.29400 33.16300
H  47.67300 15.72500 35.38600
H  45.92000 15.68900 35.14900
H  52.77300 18.49600 29.56100
H  51.82900 19.89100 29.52400
H  52.94200 19.56800 28.12800
H  53.57100 19.67500 25.88200
H  54.01300 18.03100 25.25500
H  53.69600 18.19200 26.86900
H  47.75900 15.64700 23.16100
H  44.93700 15.93200 23.55600
H  47.60900 17.93000 22.16400
H  46.85300 18.46000 23.54300
H  45.88500 17.62200 22.27500
H  45.41700 13.30000 24.48300
H  46.99100 13.63900 23.99400
H  46.43200 13.67000 21.69000
H  44.73600 14.25900 22.09700
H  45.19900 12.57700 22.45500
H  41.16500 14.05600 28.79700
H  42.14800 13.26200 27.45700
H  41.27800 14.84600 27.32800
H  44.32000 15.32200 32.59400
H  42.68000 18.90400 34.31300
H  42.61600 17.90100 35.79100
H  41.28200 18.01900 34.62300

