158

Mg 41.23000 8.64200 29.92300
C  43.07000 9.66100 32.64600
C  39.01300 7.16500 31.99800
C  39.69100 7.24300 27.25800
C  43.85000 9.54600 27.94500
N  41.13600 8.38200 32.09900
C  41.93400 8.90700 33.03300
C  41.34500 8.70100 34.51000
C  40.29200 7.58500 34.20900
C  40.10200 7.74000 32.65600
C  40.53300 6.05300 34.60100
C  40.75500 10.01000 35.21000
C  40.72000 10.04300 36.82000
H  41.27000 11.31300 37.48600
N  39.58800 7.41900 29.68900
C  38.75900 6.95100 30.65800
C  37.64000 6.26300 30.13600
C  37.73500 6.39000 28.72300
C  39.03700 7.07100 28.48300
C  36.68800 5.41600 30.94700
C  36.71600 6.14900 27.62200
O  36.87200 6.44800 26.43900
C  35.31700 5.75600 28.06500
N  41.77600 8.38200 28.00300
C  40.97200 7.80900 27.11600
C  41.44900 7.96100 25.65600
C  42.82500 8.67900 25.81600
C  42.81900 8.94900 27.31300
C  41.58700 6.58500 24.92100
C  43.02600 9.89500 24.95600
C  42.55400 11.28100 25.39100
N  43.01300 9.57100 30.18100
C  43.97600 9.94600 29.25800
C  44.99800 10.75000 29.87400
C  44.69500 10.67200 31.27400
C  43.47300 9.95300 31.35000
C  46.16900 11.46100 29.22800
C  45.15400 11.04900 32.56900
O  46.12300 11.71300 32.87400
C  44.04700 10.47300 33.53200
C  44.85400 9.58100 34.46000
O  45.52800 8.67000 34.07400
O  44.60800 10.00700 35.73000
C  44.92600 8.97900 36.68200
H  38.42500 6.53500 32.66900
H  39.26500 6.96000 26.29300
H  44.69800 9.86100 27.33300
H  42.10300 8.21100 35.12300
H  39.35000 7.97700 34.59400
H  40.40000 5.47700 33.68500
H  39.75400 5.84200 35.33400
H  41.51000 5.84800 35.03900
H  39.73300 10.15600 34.86000
H  41.38900 10.83400 34.88200
H  41.31600 9.21400 37.20100
H  39.66000 9.94600 37.05700
H  36.89500 5.42700 32.01700
H  36.46400 4.39200 30.65000
H  35.70600 5.87500 30.83400
H  35.12100 6.42200 28.90500
H  35.20700 4.80900 28.59400
H  34.49800 6.06500 27.41500
H  40.75700 8.66000 25.18600
H  43.60200 7.98600 25.49200
H  41.27000 5.80500 25.61300
H  42.58000 6.46700 24.48700
H  40.81800 6.68700 24.15600
H  42.56200 9.65500 23.99900
H  44.08800 10.09600 24.81700
H  42.32600 11.99200 24.59700
H  43.17600 11.79300 26.12500
H  41.62300 11.08400 25.92300
H  46.31900 12.43100 29.70300
H  46.01300 11.51900 28.15100
H  47.15900 11.02400 29.35200
H  43.67400 11.28000 34.16300
H  46.00600 8.84500 36.62300
H  44.41300 8.05500 36.41800
H  44.61900 9.32400 37.66900
Mg 47.74700 15.86000 28.47500
C  45.91500 15.97100 31.52400
C  50.21000 17.41300 30.09700
C  49.19800 16.44900 25.50900
C  44.91500 14.72600 26.94100
N  47.97300 16.80500 30.54600
C  47.10500 16.57500 31.61700
C  47.77500 17.14600 32.89100
C  49.10300 17.88400 32.33500
C  49.17100 17.27000 30.93700
C  49.16400 19.44100 32.36200
C  48.03900 15.99400 33.87700
C  47.45300 16.17800 35.29600
H  47.03900 17.56200 35.79200
N  49.51800 16.67000 27.91300
C  50.46100 17.23500 28.72000
C  51.58300 17.57300 27.86300
C  51.34500 17.17300 26.52800
C  49.93500 16.80700 26.60200
C  52.85400 18.13900 28.45100
C  52.20300 17.30300 25.27500
O  51.81100 17.16700 24.11000
C  53.58500 17.79200 25.45300
N  47.04000 15.84400 26.51300
C  47.92100 15.95400 25.42100
C  47.24000 15.61300 24.03700
C  45.84300 15.05900 24.51000
C  45.86200 15.24800 26.06900
C  47.28900 16.71800 22.93800
C  45.53800 13.63300 24.06900
C  46.45400 12.55500 24.55300
N  45.90200 15.28400 29.04800
C  44.90600 14.70600 28.29400
C  43.90700 14.24900 29.16800
C  44.23600 14.70000 30.43200
C  45.42900 15.37800 30.29400
C  42.69000 13.39700 28.80500
C  43.80000 14.81800 31.83100
O  42.78700 14.30600 32.34000
C  44.84000 15.69900 32.60000
C  44.17200 16.89800 33.19300
O  44.12700 18.00600 32.78000
O  43.59200 16.42000 34.32700
C  42.69700 17.40800 34.90500
H  50.99900 17.94200 30.63600
H  49.77000 16.44800 24.57900
H  44.02500 14.21500 26.56600
H  47.04300 17.86400 33.26200
H  49.97000 17.59000 32.92600
H  49.98800 19.78900 32.98400
H  48.22800 19.98000 32.51200
H  49.53400 19.69100 31.36800
H  49.11400 15.82400 33.92700
H  47.69500 15.01000 33.55900
H  48.21000 15.80100 35.98400
H  46.65300 15.44500 35.40100
H  52.85300 18.70600 29.38200
H  53.18700 18.88700 27.73200
H  53.62700 17.38000 28.57100
H  54.18400 17.61700 24.55900
H  54.00900 17.09500 26.17600
H  53.64800 18.85400 25.69300
H  47.90800 14.90600 23.54600
H  45.02900 15.66600 24.11500
H  47.90400 17.55100 23.27800
H  46.30300 17.05500 22.61700
H  47.78200 16.31800 22.05200
H  45.38400 13.64100 22.99000
H  44.52000 13.44500 24.41200
H  46.50000 11.83200 23.73900
H  45.99200 12.04600 25.39900
H  47.44000 12.94600 24.80600
H  42.94100 12.44900 28.32800
H  42.04000 13.88200 28.07800
H  42.14200 13.27400 29.73900
H  45.10900 15.07400 33.45100
H  41.76700 17.55500 34.35600
H  43.13700 18.40400 34.96200
H  42.58400 17.15400 35.95900

