158

Mg 52.74900 23.19700 43.96100
C  49.83100 24.96800 43.17800
C  51.08000 20.38200 44.04500
C  55.68700 21.69000 43.72200
C  54.39900 26.32200 43.64000
N  50.66300 22.69900 43.35800
C  49.65500 23.56300 43.35100
C  48.26900 22.84100 43.42900
C  48.82600 21.47900 44.04300
C  50.28500 21.47400 43.83500
C  48.47600 21.03700 45.51600
C  47.54400 22.71000 42.04900
C  48.12100 22.01800 40.87100
H  47.94600 22.71900 39.49100
N  53.31900 21.32300 43.74900
C  52.47400 20.28500 43.95000
C  53.27000 19.09400 44.04900
C  54.65700 19.40100 44.08900
C  54.62400 20.84000 43.82500
C  52.70300 17.72300 44.06100
C  55.74800 18.34400 44.33000
O  55.49200 17.22700 44.63400
C  57.14900 18.70000 44.04700
N  54.74100 23.94100 43.59100
C  55.81000 23.02400 43.68600
C  57.15100 23.76900 43.97100
C  56.75400 25.28100 43.65000
C  55.18300 25.15500 43.64700
C  57.78900 23.53900 45.41500
C  57.16900 25.89800 42.30200
C  57.81900 27.28600 42.39400
N  52.29700 25.31100 43.72100
C  52.96000 26.45200 43.62700
C  52.14400 27.59900 43.56800
C  50.86400 27.08600 43.29800
C  51.04500 25.67600 43.37800
C  52.61600 29.07500 43.53600
C  49.53900 27.43900 42.98700
O  49.02400 28.51300 42.91800
C  48.86500 26.02100 42.73800
C  48.72100 26.04500 41.23600
O  49.50600 25.63300 40.37900
O  47.48700 26.59600 40.94000
C  47.25000 26.67000 39.50200
H  50.60800 19.40600 44.18200
H  56.60700 21.10400 43.77400
H  54.81700 27.31900 43.48700
H  47.64300 23.39200 44.13000
H  48.40600 20.70100 43.40600
H  49.38700 20.79300 46.06100
H  47.82100 20.16700 45.47400
H  48.01000 21.80300 46.13600
H  47.15800 23.66700 41.69700
H  46.67300 22.16900 42.41800
H  47.74900 20.99500 40.92500
H  49.20400 21.94700 40.98000
H  53.32900 17.02700 43.50400
H  51.67600 17.67900 43.69900
H  52.54200 17.27900 45.04300
H  57.69200 17.75500 44.01100
H  57.45100 19.23000 44.95100
H  57.19500 19.29200 43.13300
H  57.85900 23.36100 43.24900
H  56.98300 25.96800 44.46500
H  58.02000 24.49600 45.88400
H  58.67100 22.89900 45.36800
H  56.91600 23.09500 45.89400
H  56.22100 25.95300 41.76500
H  57.88200 25.18000 41.89700
H  57.24000 28.09700 41.95100
H  58.73700 27.06700 41.85000
H  58.11700 27.56700 43.40400
H  52.02500 29.71500 44.19100
H  52.55600 29.40700 42.50000
H  53.63200 29.17000 43.92000
H  47.90700 25.93600 43.25100
H  46.68400 25.80900 39.14700
H  48.13700 26.75700 38.87500
H  46.57900 27.52800 39.45600
Mg -8.72600 41.05600 42.26500
C  -7.52400 37.73600 41.33500
C  -5.90500 42.28900 40.79900
C  -10.09300 44.04800 42.55000
C  -11.59400 39.51500 43.34700
N  -7.00800 40.06700 41.11800
C  -6.67100 38.72100 40.94900
C  -5.28500 38.61800 40.27400
C  -4.76000 40.09500 40.30900
C  -5.96500 40.89100 40.86000
C  -3.44900 40.33900 41.16800
C  -5.44700 38.00500 38.86300
C  -4.48900 36.94800 38.25900
H  -3.64400 37.44500 37.05600
N  -8.07600 43.00000 41.74900
C  -6.86300 43.30400 41.13400
C  -6.86000 44.73700 40.89100
C  -8.01300 45.28200 41.53100
C  -8.84100 44.13100 41.92000
C  -5.67900 45.41300 40.22000
C  -8.34100 46.79200 41.67000
O  -7.59200 47.67200 41.22300
C  -9.56000 47.26000 42.43700
N  -10.55500 41.62900 42.78600
C  -10.81700 42.94500 42.97800
C  -12.25200 43.16300 43.53800
C  -12.71900 41.75900 43.84200
C  -11.51900 40.86800 43.40900
C  -12.33200 44.14900 44.68500
C  -14.06600 41.39800 43.19200
C  -14.92600 40.44100 44.01300
N  -9.47700 39.04800 42.42200
C  -10.64100 38.58700 42.93800
C  -10.75800 37.12900 42.84400
C  -9.50000 36.78400 42.13500
C  -8.80300 37.98100 41.91700
C  -11.90400 36.30900 43.38200
C  -8.75800 35.67500 41.59400
O  -9.09900 34.50500 41.71500
C  -7.46900 36.21600 41.09000
C  -6.27800 35.50100 41.65200
O  -5.74200 35.87800 42.69900
O  -5.89500 34.41800 40.92700
C  -4.69500 33.62300 41.26800
H  -5.01800 42.81500 40.43800
H  -10.50300 45.03200 42.79100
H  -12.50400 39.01700 43.68900
H  -4.62700 37.93900 40.81700
H  -4.40400 40.41300 39.32900
H  -2.80300 41.16400 40.86700
H  -2.79100 39.47400 41.08200
H  -3.47500 40.31900 42.25800
H  -5.30000 38.82900 38.16500
H  -6.48600 37.70900 38.71400
H  -5.05500 36.03700 38.06400
H  -3.77400 36.85900 39.07600
H  -6.10100 46.31000 39.76700
H  -5.11800 44.73100 39.58100
H  -4.95000 45.75900 40.95300
H  -10.46200 46.99400 41.88500
H  -9.54800 48.34700 42.52000
H  -9.52300 46.95800 43.48300
H  -12.82200 43.53700 42.68800
H  -12.91200 41.70900 44.91300
H  -11.40600 44.60500 45.03400
H  -12.88700 43.75300 45.53600
H  -13.09200 44.88100 44.41100
H  -13.92700 40.77500 42.30900
H  -14.68300 42.26800 42.96700
H  -15.88200 40.90900 44.24900
H  -14.44400 40.25400 44.97300
H  -15.12600 39.46700 43.56700
H  -12.75200 36.64100 42.78300
H  -12.14300 36.60200 44.40500
H  -11.74600 35.23400 43.46600
H  -7.49300 35.91700 40.04200
H  -4.94700 32.65900 41.71100
H  -4.01200 34.24000 41.85100
H  -4.02300 33.38700 40.44200

