158

Mg -2.72600 16.99300 26.15900
C  -3.17200 14.88700 28.85600
C  -2.99500 19.67400 28.31100
C  -2.40000 19.03600 23.47500
C  -2.52600 14.31900 23.97200
N  -3.09900 17.19000 28.28700
C  -3.24200 16.17000 29.23500
C  -3.27900 16.79600 30.65900
C  -3.57800 18.31100 30.37900
C  -3.12000 18.42500 28.91200
C  -5.03900 18.65700 30.66000
C  -2.03200 16.36400 31.62100
C  -1.68100 17.28800 32.77600
H  -1.04800 16.67200 34.06800
N  -2.66900 19.07600 25.96400
C  -2.75600 20.05000 26.97200
C  -2.85200 21.34400 26.31600
C  -2.49200 21.13800 24.95300
C  -2.49400 19.68500 24.74600
C  -3.06200 22.57800 27.21200
C  -2.19200 22.23000 23.95100
O  -1.70800 21.92400 22.87600
C  -2.38600 23.71300 24.34600
N  -2.48500 16.64800 24.07400
C  -2.41200 17.72000 23.20900
C  -2.37700 17.23700 21.72300
C  -2.55300 15.72800 21.86300
C  -2.38600 15.49900 23.39500
C  -3.34800 17.99200 20.83100
C  -1.82300 14.82700 20.83800
C  -2.74800 14.35100 19.64100
N  -2.85100 14.96800 26.29600
C  -2.69600 14.01900 25.34800
C  -2.87100 12.73900 25.95400
C  -3.07000 13.01300 27.32400
C  -3.02300 14.39200 27.47200
C  -2.68300 11.45100 25.24600
C  -3.24800 12.34400 28.59200
O  -3.38600 11.16600 28.81500
C  -3.34700 13.57700 29.65300
C  -2.22400 13.33900 30.64500
O  -1.04900 13.59600 30.50100
O  -2.76400 12.76500 31.76500
C  -1.86100 12.53600 32.95600
H  -2.90600 20.41400 29.10900
H  -2.44400 19.71500 22.62200
H  -2.58500 13.43500 23.33400
H  -4.08400 16.20300 31.09400
H  -2.92000 18.90300 31.01600
H  -5.56400 17.86200 31.18900
H  -5.50100 18.82300 29.68700
H  -5.26100 19.59600 31.16700
H  -1.07900 16.26500 31.10000
H  -2.33700 15.43100 32.09400
H  -2.67300 17.62100 33.08200
H  -1.11600 18.13600 32.39000
H  -2.15700 23.16700 27.36200
H  -3.43900 22.34100 28.20700
H  -3.79000 23.25000 26.76000
H  -2.37400 24.27700 23.41300
H  -1.53300 24.08600 24.91200
H  -3.30300 24.01900 24.85100
H  -1.36600 17.42000 21.35900
H  -3.60700 15.56700 21.63500
H  -3.98900 18.76300 21.26200
H  -3.83300 17.27700 20.16600
H  -2.82000 18.67500 20.16700
H  -1.26000 14.03400 21.33200
H  -1.06700 15.33500 20.24000
H  -2.54600 15.05700 18.83600
H  -3.76900 14.41700 20.01700
H  -2.53500 13.32800 19.33100
H  -3.34100 11.34200 24.38400
H  -2.87300 10.62700 25.93300
H  -1.62400 11.50700 24.99500
H  -4.35300 13.62900 30.06900
H  -1.37700 11.56700 32.83000
H  -2.40800 12.41500 33.89100
H  -1.01500 13.22200 32.97400
Mg 25.51100 1.87600 29.15900
C  27.63800 1.48200 31.85100
C  22.88500 2.17800 31.32000
C  23.35100 1.62500 26.58500
C  28.21800 1.13300 27.09400
N  25.33700 1.87400 31.26800
C  26.34200 1.76700 32.19200
C  25.87800 1.83800 33.66600
C  24.35000 2.09100 33.49600
C  24.17200 1.93700 31.94200
C  23.39800 1.07800 34.28600
C  26.55700 2.89600 34.63200
C  25.67400 3.58200 35.70700
H  26.24100 4.02100 37.07600
N  23.36500 2.06500 28.97300
C  22.41000 2.14900 30.01700
C  21.07900 2.21400 29.48300
C  21.24900 1.86100 28.09300
C  22.72300 1.83400 27.81800
C  19.84700 2.53100 30.38500
C  20.25100 1.58800 27.07800
O  20.42600 1.11200 25.92900
C  18.80000 1.87600 27.41500
N  25.78400 1.53600 27.07100
C  24.70900 1.56700 26.23100
C  25.17700 1.26300 24.77400
C  26.71800 1.27100 24.88900
C  26.92900 1.25300 26.41300
C  24.50600 -0.04000 24.15000
C  27.45200 2.47300 24.37300
C  28.12000 2.17000 22.97800
N  27.55300 1.40500 29.34800
C  28.50800 1.10700 28.46700
C  29.72400 0.86400 29.12900
C  29.43600 1.03700 30.47700
C  28.08900 1.30000 30.55300
C  31.05100 0.37600 28.56000
C  29.99700 0.92600 31.81100
O  31.10500 0.72000 32.21000
C  28.76100 1.24400 32.76500
C  28.62000 0.12500 33.72700
O  27.92900 -0.85300 33.42400
O  29.05200 0.40700 34.98700
C  28.85300 -0.53400 36.04800
H  22.12400 2.22300 32.10200
H  22.70500 1.50200 25.71400
H  29.08000 1.03100 26.43200
H  25.98300 0.81200 34.02100
H  23.98900 3.06100 33.83500
H  23.20000 0.16000 33.73300
H  22.42900 1.57500 34.23600
H  23.76400 0.82100 35.28000
H  27.11600 3.59400 34.01000
H  27.38000 2.46100 35.19900
H  24.86500 2.95900 36.08700
H  25.11700 4.46400 35.38900
H  20.06600 2.55500 31.45200
H  19.09900 1.74300 30.30300
H  19.38400 3.47200 30.08600
H  18.26800 2.16900 26.51000
H  18.80800 2.71200 28.11500
H  18.26800 1.04100 27.87000
H  24.73500 2.12900 24.28200
H  27.13500 0.31900 24.56000
H  25.31500 -0.56600 23.64400
H  23.87600 0.25300 23.31100
H  24.00400 -0.70500 24.85300
H  28.22000 2.76700 25.08800
H  26.81300 3.33800 24.19700
H  27.61100 2.69900 22.17200
H  27.96700 1.14400 22.64200
H  29.18000 2.42200 22.97800
H  30.80100 -0.35300 27.78900
H  31.61200 -0.22500 29.27500
H  31.59500 1.15900 28.03100
H  28.93000 2.15800 33.33500
H  28.96900 -1.57400 35.74100
H  27.89400 -0.33100 36.52400
H  29.62600 -0.45400 36.81300

