158

Mg 1.61000 -0.95100 44.32000
C  4.99900 -0.46000 43.52600
C  0.85400 1.72800 42.45900
C  -1.48500 -2.13100 44.24600
C  2.64500 -3.89400 46.04900
N  2.75900 0.42500 43.07900
C  4.09400 0.36900 42.87200
C  4.58300 1.55400 41.99400
C  3.25700 2.35900 41.74200
C  2.22100 1.51300 42.58600
C  3.25300 3.94800 42.00900
C  5.35400 1.24400 40.69500
C  6.50700 2.29600 40.39400
H  6.38000 3.15600 39.16400
N  -0.09000 -0.21000 43.55300
C  -0.22400 0.95600 42.81500
C  -1.61200 1.25000 42.57500
C  -2.34200 0.16100 43.16600
C  -1.28700 -0.82100 43.69700
C  -2.04900 2.53500 41.97700
C  -3.82700 0.05800 43.30400
O  -4.55600 0.94000 42.87100
C  -4.44700 -0.96600 44.19500
N  0.72000 -2.82000 44.97100
C  -0.58400 -3.02600 44.78400
C  -0.92700 -4.47400 45.26100
C  0.21400 -4.73800 46.22200
C  1.28100 -3.81400 45.72800
C  -2.39400 -4.66900 45.96700
C  0.61700 -6.27300 46.42000
C  0.73200 -6.63100 47.94800
N  3.40400 -1.98400 44.79600
C  3.65600 -3.19100 45.46100
C  5.08400 -3.26300 45.62900
C  5.68500 -2.19000 44.96200
C  4.59600 -1.48600 44.43100
C  5.73800 -4.36200 46.41200
C  6.94200 -1.54800 44.53000
O  8.11200 -1.82700 44.76300
C  6.50500 -0.46400 43.53900
C  7.02600 0.72400 44.08800
O  6.60400 1.36700 45.03400
O  8.16400 1.13500 43.31000
C  8.52700 2.57600 43.70800
H  0.60700 2.60900 41.86300
H  -2.53800 -2.40700 44.33700
H  2.89100 -4.72400 46.71600
H  5.14200 2.26400 42.60300
H  2.89500 2.08800 40.75100
H  2.67600 4.55800 41.31400
H  4.27300 4.31600 42.12000
H  2.72800 4.05000 42.95800
H  4.80800 1.20300 39.75200
H  5.82200 0.27800 40.88000
H  7.39000 1.66400 40.29800
H  6.55700 3.09300 41.13600
H  -3.10100 2.62700 41.70800
H  -1.57300 2.83800 41.04400
H  -1.80200 3.25800 42.75300
H  -5.47100 -0.68400 44.43900
H  -3.87900 -0.99800 45.12500
H  -4.44100 -1.90200 43.63600
H  -0.90300 -5.12800 44.38900
H  -0.13900 -4.32100 47.16500
H  -3.20000 -4.35200 45.30400
H  -2.38400 -4.24500 46.97200
H  -2.69900 -5.70300 46.12600
H  1.58500 -6.61400 46.05300
H  -0.13500 -6.87500 45.91100
H  -0.16600 -7.13500 48.30500
H  0.99700 -5.71600 48.47700
H  1.61800 -7.26200 48.01000
H  6.76300 -4.65200 46.18400
H  5.16400 -5.26100 46.18800
H  5.63300 -4.11800 47.46900
H  6.97300 -0.52100 42.55500
H  9.09500 3.08800 42.93100
H  9.08300 2.46000 44.63800
H  7.71000 3.29200 43.80200
Mg 10.11900 48.30300 25.77100
C  7.80200 48.32300 28.52900
C  12.38500 49.75900 27.91200
C  12.21500 48.27300 23.19200
C  7.49200 47.37900 23.76900
N  9.96800 49.15300 27.98000
C  9.07400 48.83200 28.95700
C  9.56100 49.16900 30.35100
C  10.97900 49.85600 30.04900
C  11.12300 49.61000 28.54100
C  11.07100 51.35700 30.49000
C  9.55100 48.03900 31.41400
C  10.62300 48.07900 32.51000
H  10.41800 47.23000 33.75600
N  12.05500 48.83100 25.63900
C  12.83900 49.41100 26.62300
C  14.12900 49.50300 26.05700
C  14.16800 48.94300 24.75700
C  12.75600 48.61200 24.44900
C  15.27600 50.01700 26.83500
C  15.36000 48.67800 23.77900
O  15.27500 48.37300 22.61700
C  16.72800 48.90800 24.36600
N  9.88500 47.88100 23.65400
C  10.93100 47.91200 22.74400
C  10.49100 47.48000 21.32900
C  8.99900 47.14800 21.54300
C  8.76000 47.46200 23.11700
C  10.86000 48.67600 20.34100
C  8.49700 45.74300 21.08500
C  8.75400 44.55400 22.11400
N  7.97700 48.03400 26.00900
C  7.08000 47.60000 25.07800
C  5.83000 47.39000 25.70300
C  6.08200 47.54700 27.08300
C  7.37900 48.03500 27.19000
C  4.51000 46.98300 25.06500
C  5.52100 47.44000 28.37700
O  4.45600 46.99600 28.74800
C  6.60200 47.92000 29.38300
C  6.70300 46.78500 30.32100
O  7.16500 45.68900 30.04200
O  6.14100 47.10000 31.55300
C  6.63700 46.14200 32.53600
H  13.09900 50.15400 28.63800
H  12.95500 48.30000 22.39000
H  6.70300 47.03300 23.09800
H  8.88700 49.97300 30.64600
H  11.86600 49.40700 30.49500
H  11.76700 51.21900 31.31800
H  10.16500 51.81700 30.88300
H  11.44100 52.02600 29.71300
H  9.55200 47.10800 30.84800
H  8.61400 48.22800 31.93800
H  10.66800 49.12100 32.82700
H  11.52900 47.77600 31.98500
H  15.14500 50.51400 27.79600
H  15.73400 50.80100 26.23200
H  16.01900 49.23100 26.96800
H  16.93200 48.23800 25.20100
H  16.96000 49.96100 24.52900
H  17.45100 48.62100 23.60200
H  11.13800 46.61400 21.18800
H  8.40400 47.85000 20.95900
H  10.96100 49.64300 20.83300
H  10.11700 48.70700 19.54400
H  11.77800 48.57700 19.76200
H  9.06900 45.60800 20.16700
H  7.44500 45.88400 20.83700
H  9.33100 44.82100 22.99900
H  9.07900 43.65000 21.60000
H  7.76600 44.28000 22.48500
H  4.38600 45.90000 25.06900
H  4.44500 47.21800 24.00300
H  3.78100 47.49600 25.69300
H  6.17100 48.71100 29.99800
H  6.33800 45.11500 32.33000
H  6.13400 46.37800 33.47400
H  7.72400 46.21500 32.57300

