158

Mg 24.93000 1.75500 29.38100
C  26.97800 1.60500 32.21200
C  22.14200 2.09400 31.57500
C  22.97500 1.80800 26.65000
C  27.78700 1.16500 27.37600
N  24.59700 1.67900 31.64200
C  25.63000 1.81400 32.57000
C  25.04500 2.04300 33.98900
C  23.52700 2.25700 33.72200
C  23.37800 2.01200 32.21500
C  22.60600 1.35000 34.58700
C  25.77700 3.11200 34.89800
C  25.92300 2.71000 36.39700
H  25.82600 3.91100 37.40100
N  22.80500 1.72900 29.17000
C  21.86000 1.89100 30.15200
C  20.54600 1.81900 29.51700
C  20.82200 1.76200 28.07400
C  22.24800 1.71800 27.91100
C  19.27100 1.77600 30.30700
C  19.87500 1.60500 26.91200
O  20.15700 1.70800 25.70700
C  18.42900 1.34900 27.23700
N  25.24500 1.43300 27.35400
C  24.31100 1.79500 26.38000
C  24.96400 1.76700 24.93700
C  26.48900 1.66900 25.31200
C  26.52900 1.41400 26.76700
C  24.51800 0.60500 24.04700
C  27.33000 2.95500 24.82600
C  27.23600 4.19200 25.62500
N  26.95600 1.39000 29.67100
C  28.00500 1.12700 28.78300
C  29.17800 0.86700 29.54300
C  28.79700 1.01400 30.91400
C  27.46000 1.27900 30.92000
C  30.51300 0.62000 29.02600
C  29.39100 0.96400 32.23500
O  30.53300 0.81900 32.62000
C  28.20100 1.42900 33.12100
C  27.96700 0.41000 34.19600
O  27.12900 -0.48300 34.08400
O  28.72600 0.66500 35.30200
C  28.50400 -0.25900 36.42500
H  21.24600 2.15300 32.19700
H  22.43200 1.95900 25.71500
H  28.59200 0.94600 26.67200
H  25.16000 1.12100 34.55900
H  23.32400 3.29900 33.96800
H  22.17900 0.53400 34.00300
H  21.81900 1.93900 35.05800
H  23.21100 0.97000 35.41000
H  25.25000 4.06500 34.87000
H  26.72500 3.30200 34.39400
H  26.95900 2.45200 36.61900
H  25.16200 1.97000 36.64100
H  18.69700 2.67900 30.09600
H  19.26500 1.83200 31.39600
H  18.82900 0.83500 29.98000
H  18.34600 0.49100 27.90500
H  17.84500 1.02500 26.37600
H  17.91300 2.21900 27.64200
H  24.80100 2.76000 24.51700
H  26.92600 0.77700 24.86200
H  25.23300 -0.19500 23.85300
H  24.27600 1.03200 23.07400
H  23.55500 0.21300 24.37600
H  26.99500 3.12100 23.80200
H  28.38900 2.72800 24.70100
H  26.98000 4.01100 26.66900
H  26.49100 4.82700 25.14700
H  28.18800 4.71900 25.54900
H  30.89400 1.41300 28.38200
H  30.48400 -0.26000 28.38400
H  31.15700 0.53300 29.90100
H  28.42200 2.42000 33.51800
H  29.04800 -1.16800 36.17200
H  27.45300 -0.54500 36.46600
H  28.78600 0.19800 37.37400
Mg 47.63400 25.16000 28.08000
C  48.17200 27.43500 30.69600
C  46.53900 22.86600 30.46900
C  47.46400 22.93800 25.60700
C  48.88700 27.47700 25.86700
N  47.39100 25.16300 30.27600
C  47.64400 26.26400 31.17400
C  47.32700 25.93500 32.65600
C  46.93900 24.41900 32.49000
C  46.90200 24.12800 30.98900
C  47.92000 23.44100 33.20900
C  46.24100 26.88900 33.18200
C  46.35900 27.32600 34.63100
H  45.11300 27.27700 35.59000
N  47.03800 23.12100 28.00500
C  46.64000 22.37500 29.10500
C  46.07200 21.16100 28.55100
C  46.45800 21.13000 27.13200
C  46.98100 22.41000 26.80800
C  45.38700 20.01400 29.33200
C  46.25000 19.98700 26.16400
O  46.75100 20.01300 25.07200
C  45.37700 18.84200 26.40000
N  48.19000 25.19400 26.08400
C  47.98500 24.15400 25.21000
C  48.32100 24.48700 23.77800
C  48.52100 25.96700 23.85700
C  48.48400 26.21500 25.35200
C  49.39200 23.65300 23.15300
C  47.48900 26.81500 23.10800
C  46.44400 27.64300 23.87400
N  48.25500 27.16100 28.22000
C  48.80700 27.96100 27.20100
C  49.23900 29.23900 27.76900
C  49.01300 29.08000 29.18500
C  48.50800 27.74600 29.38200
C  50.04100 30.32300 27.06600
C  49.14100 29.73400 30.42100
O  49.55700 30.87000 30.68100
C  48.46300 28.75500 31.46100
C  49.38500 28.69500 32.63000
O  50.39800 27.97800 32.79700
O  49.08000 29.70500 33.44300
C  49.84900 29.69600 34.72600
H  46.14900 22.16500 31.20900
H  47.42800 22.23700 24.77000
H  49.20600 28.20200 25.11500
H  48.21300 26.10700 33.26800
H  45.92900 24.26100 32.86600
H  48.31700 22.63100 32.59800
H  47.20900 23.04000 33.93100
H  48.63900 24.07800 33.72500
H  45.29400 26.40700 32.93600
H  46.15600 27.71300 32.47400
H  46.61600 28.38500 34.62800
H  47.09100 26.71400 35.15800
H  45.94500 19.07700 29.31500
H  44.39300 19.85000 28.91500
H  45.20700 20.33200 30.35800
H  45.96300 18.30300 27.14400
H  45.27700 18.22300 25.50900
H  44.42900 19.20900 26.79300
H  47.41500 24.18600 23.25100
H  49.42900 26.26600 23.33300
H  48.87500 23.16300 22.32800
H  49.65900 22.89500 23.89000
H  50.19700 24.23400 22.70400
H  46.96400 26.20200 22.37700
H  47.95000 27.48200 22.37900
H  46.49200 27.55700 24.96000
H  45.48200 27.34500 23.45800
H  46.60200 28.71200 23.73400
H  50.34000 29.89600 26.10800
H  50.80800 30.34800 27.84000
H  49.52900 31.28600 27.06700
H  47.55900 29.24300 31.82800
H  49.68900 30.51400 35.42800
H  50.92400 29.55900 34.61400
H  49.50500 28.76000 35.16600

