158

Mg 24.80600 -5.23500 46.18800
C  26.71600 -2.81800 44.74500
C  22.20000 -4.44300 44.08200
C  23.24500 -8.13900 47.03600
C  27.75800 -6.38400 47.97900
N  24.55800 -3.85900 44.56700
C  25.43800 -2.92800 44.16400
C  24.82400 -1.96000 43.12700
C  23.33100 -2.44800 43.03500
C  23.35000 -3.67800 43.91500
C  22.24100 -1.31900 43.24500
C  25.75000 -2.27600 41.84200
C  25.89000 -1.13700 40.85000
H  25.35900 -1.30600 39.44700
N  22.83900 -6.08900 45.84000
C  21.90300 -5.50700 44.95400
C  20.73200 -6.22800 45.04700
C  21.04700 -7.46600 45.76900
C  22.42000 -7.29600 46.22700
C  19.34400 -5.84300 44.45100
C  20.06500 -8.62100 45.96200
O  18.97100 -8.73900 45.40200
C  20.53200 -9.76700 46.76600
N  25.41000 -7.06000 47.23700
C  24.56600 -8.06300 47.59400
C  25.21300 -9.10800 48.51100
C  26.67100 -8.56600 48.81400
C  26.61300 -7.21300 47.96800
C  24.47500 -9.53400 49.75900
C  27.74800 -9.64400 48.38400
C  29.00900 -9.89700 49.27100
N  26.80600 -4.70400 46.37800
C  27.81300 -5.18400 47.18200
C  29.00500 -4.39200 47.02300
C  28.63800 -3.46100 46.04600
C  27.25800 -3.72000 45.71600
C  30.33500 -4.42300 47.80400
C  29.05700 -2.23100 45.32800
O  30.12300 -1.65300 45.31700
C  27.89700 -1.79100 44.37100
C  27.65500 -0.38300 44.50700
O  27.27000 0.16600 45.54000
O  27.88900 0.15700 43.30600
C  27.95000 1.67500 43.29600
H  21.46200 -4.07400 43.36700
H  22.86500 -9.15900 47.11500
H  28.55700 -6.67700 48.66200
H  25.01300 -0.94500 43.47500
H  23.26700 -2.79700 42.00500
H  22.81500 -0.50700 43.69000
H  21.50000 -1.68400 43.95600
H  21.81800 -1.06200 42.27400
H  25.14400 -3.01900 41.32300
H  26.67000 -2.77800 42.14100
H  26.93100 -0.88200 40.65200
H  25.43900 -0.25700 41.30900
H  19.37500 -5.14200 43.61700
H  18.77900 -5.28200 45.19500
H  18.66800 -6.63600 44.13100
H  19.76500 -10.54200 46.78000
H  20.80100 -9.57100 47.80400
H  21.32800 -10.33500 46.28500
H  25.27300 -9.98200 47.86300
H  26.70100 -8.29500 49.87000
H  23.43500 -9.22500 49.64500
H  24.93200 -9.10100 50.64800
H  24.48800 -10.61900 49.86200
H  28.01800 -9.42100 47.35200
H  27.35500 -10.66100 48.38400
H  29.05800 -10.89300 49.71000
H  28.96700 -9.20600 50.11300
H  29.91300 -9.62000 48.72900
H  30.98600 -5.16400 47.33900
H  30.16100 -4.82000 48.80400
H  30.71600 -3.40500 47.72700
H  28.32200 -2.04600 43.40000
H  27.58700 2.11700 44.22300
H  27.28700 2.01000 42.49900
H  28.95800 2.04200 43.10100
Mg 1.10700 43.60400 25.17700
C  2.85000 43.34600 28.26600
C  -1.58900 42.31700 26.71000
C  -0.14500 43.38600 22.17500
C  4.42700 44.21700 23.65000
N  0.65800 43.00800 27.28600
C  1.45000 43.16900 28.34500
C  0.62400 42.94600 29.62000
C  -0.80000 42.42400 29.11400
C  -0.62000 42.59500 27.64300
C  -1.40200 41.09100 29.58700
C  0.57200 44.16800 30.53700
C  0.90800 43.98400 32.02600
H  0.51300 42.61400 32.68100
N  -0.70600 43.05100 24.56600
C  -1.67100 42.39600 25.31200
C  -2.74200 42.05300 24.48600
C  -2.41400 42.42800 23.18800
C  -1.06500 43.05100 23.24300
C  -3.96600 41.22300 25.05200
C  -3.14700 42.06700 21.88900
O  -2.69900 42.26100 20.76100
C  -4.43300 41.43800 21.95400
N  2.00700 43.83900 23.28500
C  1.19900 43.59500 22.14700
C  1.97000 43.65000 20.86600
C  3.19500 44.43800 21.36300
C  3.27300 44.11500 22.85700
C  2.20700 42.19800 20.42600
C  3.03100 45.95400 21.19200
C  4.19800 46.72200 20.58700
N  3.26600 43.85500 25.77200
C  4.44000 44.08500 25.04400
C  5.53100 44.15400 25.98600
C  4.97300 43.70400 27.20000
C  3.59500 43.70500 27.04300
C  6.96900 44.29500 25.68100
C  5.27400 43.47300 28.56800
O  6.37300 43.49500 29.06400
C  3.97700 43.29900 29.31100
C  4.03100 42.07700 30.18200
O  4.01600 40.90300 29.80200
O  4.13700 42.40700 31.46400
C  4.14400 41.36300 32.50100
H  -2.39600 41.82400 27.25700
H  -0.59200 43.41100 21.17900
H  5.42800 44.43000 23.27000
H  1.13700 42.13500 30.13700
H  -1.61100 43.13400 29.27500
H  -0.79100 40.22900 29.31700
H  -2.44100 40.97600 29.28100
H  -1.55600 41.16500 30.66400
H  -0.46500 44.43100 30.74300
H  1.13600 45.03100 30.18200
H  0.60900 44.70500 32.78800
H  1.96000 44.26700 32.05800
H  -4.86400 41.83400 24.96000
H  -3.84700 40.91600 26.09100
H  -4.03600 40.30200 24.47300
H  -5.03100 41.71500 22.82200
H  -4.35800 40.35000 21.94700
H  -5.04000 41.57200 21.05900
H  1.34200 44.13900 20.12100
H  4.10100 44.05200 20.89600
H  2.70900 41.63600 21.21300
H  2.85400 42.14300 19.55000
H  1.29300 41.63900 20.22200
H  2.86000 46.38200 22.18000
H  2.09400 46.15000 20.67000
H  4.97800 45.98600 20.39300
H  4.48000 47.45400 21.34400
H  3.92800 47.17200 19.63100
H  7.56100 43.84500 26.47800
H  7.17300 45.36500 25.70100
H  7.12600 43.82000 24.71200
H  3.91800 44.12800 30.01700
H  3.36300 40.60800 32.40700
H  4.05200 41.98400 33.39200
H  5.12200 40.88200 32.52500

