158

Mg 47.27400 15.24100 29.06900
C  45.33200 15.39700 31.81500
C  49.67800 17.21900 30.69600
C  48.99600 15.47700 26.20300
C  44.55000 13.71900 27.26300
N  47.48100 16.06900 30.99500
C  46.49300 16.02500 32.00800
C  47.05000 16.63500 33.39000
C  48.23200 17.49500 32.76500
C  48.47900 16.83200 31.40700
C  48.05300 19.06700 32.74800
C  47.39800 15.52900 34.36600
C  46.94200 15.81900 35.78800
H  46.84200 17.28200 36.19000
N  49.11800 16.10200 28.59000
C  49.95100 16.82400 29.38100
C  51.24700 16.99300 28.73000
C  51.07200 16.42800 27.39400
C  49.67300 15.95600 27.38300
C  52.50000 17.49100 29.43100
C  52.07800 16.26500 26.18000
O  51.82600 15.59600 25.17300
C  53.38900 16.95800 26.32500
N  46.71000 14.99800 26.95600
C  47.72800 14.95000 26.04300
C  47.26600 14.23900 24.74700
C  45.87200 13.63700 25.15000
C  45.69700 14.13200 26.56800
C  47.22900 15.27000 23.61600
C  45.84900 12.11300 24.92000
C  46.28500 11.29100 26.16100
N  45.20800 14.78700 29.39200
C  44.27200 14.12500 28.61100
C  43.05200 13.96700 29.40200
C  43.41400 14.42100 30.72500
C  44.76800 14.87400 30.61600
C  41.85700 13.19700 28.98900
C  42.98100 14.47800 32.11000
O  42.01800 13.89300 32.57700
C  44.16100 15.24400 32.81000
C  43.53100 16.36200 33.38300
O  43.16000 17.38000 32.81500
O  43.39000 16.19700 34.73600
C  42.84500 17.30700 35.57400
H  50.36800 17.88600 31.21700
H  49.68700 15.38200 25.36300
H  43.79900 13.22100 26.64700
H  46.21500 17.25600 33.71300
H  49.17200 17.37100 33.30300
H  47.98600 19.28600 31.68300
H  48.92800 19.59300 33.13200
H  47.14900 19.36700 33.27800
H  48.47300 15.59600 34.20300
H  47.10600 14.51900 34.07700
H  47.64700 15.37600 36.49200
H  45.93700 15.41000 35.89100
H  52.36100 17.96800 30.40200
H  53.11600 18.18200 28.85600
H  53.11100 16.62200 29.67500
H  53.32700 17.96500 26.73600
H  53.95700 17.15200 25.41500
H  54.03700 16.39900 27.00100
H  47.88100 13.38800 24.45700
H  45.15500 14.06800 24.45200
H  48.02500 15.09400 22.89300
H  47.51700 16.28000 23.90600
H  46.31100 15.26600 23.02800
H  46.50500 11.85600 24.08800
H  44.81200 11.83100 24.73400
H  47.05800 11.90000 26.62900
H  46.80300 10.34700 25.98900
H  45.41400 10.94700 26.72000
H  41.89400 12.16000 29.32200
H  41.78400 13.12700 27.90400
H  40.99700 13.69300 29.43800
H  44.43400 14.59700 33.64400
H  41.82600 17.55900 35.27800
H  43.50700 18.16900 35.50600
H  42.64100 16.91300 36.56900
Mg 48.09100 45.07100 42.81600
C  44.68900 44.77100 42.84600
C  48.40100 41.80300 42.32300
C  51.43400 45.46900 42.69900
C  47.76900 48.58800 42.92500
N  46.72300 43.46000 42.62000
C  45.34800 43.53100 42.64100
C  44.68200 42.22900 42.55100
C  45.87200 41.22700 42.31500
C  47.10500 42.21900 42.49600
C  45.75600 39.92300 43.24300
C  43.57000 41.95000 41.56200
C  43.89800 42.15700 40.12600
H  44.24700 41.01600 39.20400
N  49.71500 43.84500 42.49100
C  49.64600 42.54700 42.40400
C  50.93600 41.96900 42.35200
C  51.88200 43.00800 42.38300
C  51.03600 44.18300 42.47900
C  51.18100 40.51400 42.02400
C  53.39800 42.85900 42.20500
O  53.98000 41.78200 42.37700
C  54.34300 44.05100 41.98500
N  49.43500 46.81200 42.54600
C  50.78000 46.67100 42.72200
C  51.41000 48.04500 42.88200
C  50.21600 49.04300 42.66800
C  49.04500 48.08500 42.73400
C  52.20800 48.24400 44.32600
C  50.34400 49.78600 41.33900
C  50.92600 51.16500 41.36500
N  46.56600 46.46200 42.74200
C  46.60500 47.77800 42.99000
C  45.26200 48.29800 43.18300
C  44.41000 47.19000 43.00900
C  45.27200 46.08600 42.89100
C  44.90000 49.77300 43.43600
C  43.05100 46.64000 43.11000
O  41.97500 47.22700 43.31900
C  43.22300 45.09000 42.91800
C  42.50900 44.38600 44.08400
O  41.71200 43.48400 43.86100
O  42.71400 45.00600 45.30500
C  42.07100 44.39700 46.45700
H  48.44100 40.73300 42.11000
H  52.48600 45.75000 42.61700
H  47.71200 49.65900 43.12900
H  44.15400 41.99000 43.47400
H  46.02800 40.92300 41.28000
H  44.76800 39.78400 43.68000
H  46.45500 39.81200 44.07200
H  45.81300 39.07400 42.56200
H  42.65300 42.51700 41.72600
H  43.19500 40.93700 41.70600
H  44.74800 42.83800 40.07700
H  43.15400 42.72600 39.56800
H  52.01000 40.24200 42.67700
H  51.50300 40.32100 41.00000
H  50.32800 39.92200 42.35500
H  53.91600 44.61600 41.15700
H  55.33000 43.68400 41.70100
H  54.44100 44.72700 42.83500
H  52.16900 48.06900 42.09900
H  50.20900 49.70400 43.53500
H  52.13800 47.29400 44.85600
H  51.70200 48.87300 45.05800
H  53.24400 48.54600 44.17600
H  49.32800 49.79300 40.94400
H  50.96000 49.15900 40.69500
H  50.15700 51.93500 41.29800
H  51.78800 51.21200 40.70000
H  51.55600 51.37100 42.23000
H  44.72500 50.16500 42.43400
H  45.63400 50.40600 43.93300
H  44.02000 49.72600 44.07800
H  42.73200 44.84300 41.97600
H  41.11900 44.92100 46.53900
H  42.73200 44.68300 47.27500
H  42.00600 43.30900 46.49000

