158

Mg 6.41700 55.56000 42.13000
C  5.90500 52.13800 42.06100
C  9.33200 55.15600 40.32800
C  6.31500 58.85500 41.54800
C  3.13300 55.83800 43.65600
N  7.38700 53.85200 41.26700
C  6.98500 52.55400 41.25900
C  7.91900 51.67100 40.35700
C  9.21500 52.58500 40.25900
C  8.59500 53.96600 40.58700
C  10.24700 52.33100 41.37200
C  7.16200 51.53200 38.98300
C  7.62100 50.20500 38.21700
H  6.83500 49.85900 36.98900
N  7.63600 56.86100 41.07700
C  8.86900 56.50100 40.49500
C  9.46300 57.66700 39.95500
C  8.58000 58.79800 40.22500
C  7.40300 58.24400 40.93400
C  10.78300 57.68200 39.19100
C  8.77700 60.26300 39.93600
O  9.76000 60.66100 39.36800
C  7.74500 61.31400 40.00900
N  4.77500 57.11500 42.29800
C  5.10400 58.39700 42.13500
C  3.97100 59.33700 42.57400
C  2.98000 58.34400 43.13900
C  3.65600 56.96700 42.97400
C  4.37700 60.44000 43.70100
C  1.56800 58.26700 42.46500
C  0.42000 57.89600 43.38800
N  4.90900 54.24800 42.99000
C  3.65200 54.47500 43.59300
C  3.10900 53.27400 44.14200
C  3.88400 52.30900 43.47600
C  4.95700 52.99200 42.79600
C  1.79900 53.14800 44.84200
C  4.06500 50.91900 43.21800
O  3.42400 49.91600 43.57000
C  5.27500 50.75700 42.28800
C  4.91800 49.97600 41.04000
O  3.83400 50.09200 40.39200
O  5.79500 48.95100 40.93500
C  5.30800 47.79800 40.23000
H  10.29600 54.88500 39.89100
H  6.47800 59.92400 41.70000
H  2.14800 55.84900 44.12800
H  8.10900 50.72100 40.85800
H  9.59400 52.54900 39.23700
H  11.13600 51.91600 40.89700
H  9.94300 51.66600 42.18100
H  10.61400 53.27100 41.78200
H  7.24300 52.50300 38.49500
H  6.12500 51.42300 39.29900
H  7.83600 49.35500 38.86600
H  8.58000 50.42400 37.74700
H  10.64600 57.76000 38.11200
H  11.46800 56.89300 39.50200
H  11.34300 58.57300 39.47500
H  6.76300 60.85400 39.90200
H  7.84200 62.01700 39.18100
H  7.82900 61.83100 40.96500
H  3.48000 59.79300 41.71400
H  2.75500 58.38300 44.20500
H  5.36300 60.14700 44.06000
H  3.63800 60.34900 44.49800
H  4.41800 61.45900 43.31700
H  1.56000 57.63400 41.57800
H  1.36100 59.27600 42.10600
H  -0.25100 58.73100 43.58700
H  0.79500 57.55000 44.35100
H  -0.12200 57.12300 42.84300
H  1.29000 54.08600 45.06400
H  1.81600 52.59500 45.78100
H  1.06900 52.60500 44.24200
H  5.96000 50.14400 42.87400
H  5.81700 47.73100 39.26800
H  4.23000 47.87200 40.09000
H  5.54700 46.96500 40.89100
Mg -5.02400 24.80900 26.70700
C  -3.76400 26.81600 29.44700
C  -6.01300 22.56400 29.18300
C  -6.16100 22.88900 24.16200
C  -3.39900 26.84400 24.50400
N  -4.90800 24.75600 29.10800
C  -4.51600 25.77900 29.97900
C  -5.07700 25.52600 31.38100
C  -5.57500 24.00900 31.31000
C  -5.56100 23.77900 29.82400
C  -4.61400 23.01400 32.11700
C  -6.19200 26.57500 31.84900
C  -5.97600 27.22100 33.21500
H  -6.96300 26.80400 34.25600
N  -5.96000 22.97000 26.64400
C  -6.29500 22.24400 27.77000
C  -6.83600 21.02300 27.26500
C  -6.83500 21.04200 25.84900
C  -6.35700 22.35700 25.45000
C  -7.42800 20.07200 28.13700
C  -7.30800 20.07200 24.75100
O  -7.38900 20.34200 23.53200
C  -7.59400 18.64300 25.22400
N  -4.99000 24.85400 24.65400
C  -5.54900 24.06700 23.74100
C  -5.24600 24.35100 22.31700
C  -4.32800 25.66800 22.43600
C  -4.24800 25.80500 23.95700
C  -4.56000 23.17200 21.57000
C  -4.88600 26.96700 21.75300
C  -3.99100 27.71300 20.79800
N  -3.91400 26.53400 26.86300
C  -3.27900 27.20200 25.85700
C  -2.55600 28.26500 26.41000
C  -2.68400 28.13800 27.77400
C  -3.54600 27.08900 28.06900
C  -1.71500 29.26300 25.55200
C  -2.37200 28.77400 29.02000
O  -1.63000 29.72500 29.25100
C  -3.02100 27.92400 30.20600
C  -1.88700 27.37900 31.06500
O  -0.77700 27.08900 30.63200
O  -2.27900 27.21300 32.35400
C  -1.26400 26.72400 33.32000
H  -6.30300 21.81000 29.91800
H  -6.40400 22.26900 23.29700
H  -2.76700 27.38300 23.79400
H  -4.28200 25.49800 32.12700
H  -6.56300 23.71300 31.66200
H  -4.18300 22.20900 31.52100
H  -5.19000 22.58200 32.93500
H  -3.80200 23.59300 32.55800
H  -7.17900 26.11100 31.84900
H  -6.22100 27.36200 31.09500
H  -5.98200 28.29700 33.04100
H  -5.02300 26.89800 33.63400
H  -8.44300 19.89800 27.77900
H  -7.45300 20.30600 29.20100
H  -6.87000 19.14900 27.97900
H  -7.86200 17.88000 24.49300
H  -8.39100 18.71700 25.96300
H  -6.62800 18.43400 25.68400
H  -6.25300 24.47600 21.92000
H  -3.33200 25.36500 22.11500
H  -4.00300 22.55700 22.27700
H  -3.92500 23.41600 20.71900
H  -5.37000 22.49400 21.29900
H  -5.11900 27.69100 22.53400
H  -5.81600 26.81700 21.20500
H  -3.60000 28.61500 21.26900
H  -4.47200 27.90400 19.83900
H  -3.15300 27.07700 20.51600
H  -2.20800 29.81100 24.75000
H  -0.81800 28.74900 25.20600
H  -1.47900 29.91900 26.39000
H  -3.68800 28.51000 30.83800
H  -0.31000 27.25000 33.27700
H  -1.22900 25.66400 33.06900
H  -1.76400 26.85200 34.27900

