158

Mg 8.60200 48.62600 25.21200
C  6.79800 48.75000 28.15900
C  11.36800 50.07000 26.94400
C  10.45400 48.23500 22.54000
C  5.73000 47.67700 23.52300
N  8.96100 49.52600 27.26200
C  8.05200 49.36700 28.29400
C  8.65400 50.01100 29.55600
C  9.91700 50.66700 28.98800
C  10.14200 50.07900 27.66000
C  9.79800 52.23400 28.99600
C  8.96200 48.86700 30.62100
C  10.08000 49.07300 31.63700
H  9.87800 48.52200 33.07700
N  10.61200 49.09200 24.80900
C  11.52300 49.70700 25.55300
C  12.81000 49.77900 24.85400
C  12.66300 49.11800 23.61800
C  11.20200 48.73500 23.65800
C  13.98700 50.44500 25.46600
C  13.65300 48.78900 22.56600
O  13.38500 48.16100 21.55600
C  15.09900 49.15900 22.70500
N  8.13600 48.05900 23.36700
C  9.10000 47.86000 22.38400
C  8.53800 47.30300 21.13400
C  7.08500 46.98200 21.49500
C  6.97200 47.60900 22.84900
C  8.84000 48.15900 19.92100
C  6.80800 45.43100 21.60800
C  7.94200 44.54100 22.15400
N  6.66400 48.20700 25.64800
C  5.61300 47.89000 24.88000
C  4.43000 47.76300 25.67600
C  4.87900 47.94800 26.97700
C  6.23200 48.32600 26.90400
C  3.10800 47.24600 25.21200
C  4.39000 47.96400 28.38500
O  3.33000 47.62200 28.89000
C  5.72300 48.38200 29.16200
C  6.16200 47.14800 29.93200
O  6.75900 46.22600 29.43900
O  5.92800 47.25400 31.26100
C  6.44100 46.18100 32.08800
H  12.25800 50.42300 27.46900
H  11.03100 47.97400 21.65000
H  4.85000 47.36700 22.95600
H  8.00700 50.75400 30.02300
H  10.87900 50.64400 29.49900
H  9.85800 52.54200 27.95200
H  10.59300 52.72700 29.55500
H  8.84300 52.65200 29.31500
H  8.91200 47.89700 30.12600
H  8.07300 48.86500 31.25200
H  10.63700 50.01000 31.65500
H  10.83200 48.35700 31.30500
H  14.57400 50.92900 24.68600
H  14.74000 49.78100 25.89100
H  13.80400 51.21900 26.21200
H  15.08600 50.22600 22.48000
H  15.66100 48.63000 21.93500
H  15.59200 48.94000 23.65200
H  9.15800 46.40900 21.06500
H  6.49100 47.58300 20.80700
H  7.83800 48.41600 19.57800
H  9.39800 47.48200 19.27500
H  9.38500 49.08300 20.11600
H  6.56500 45.16800 20.57900
H  5.91900 45.23800 22.20800
H  8.52200 45.07200 22.91000
H  8.47800 44.06200 21.33500
H  7.45800 43.72400 22.69000
H  2.98300 47.51200 24.16200
H  2.42100 47.71000 25.91900
H  3.05200 46.15800 25.23100
H  5.58700 49.25100 29.80600
H  5.96100 46.49800 33.01400
H  7.52500 46.10500 32.17300
H  6.04500 45.20000 31.82600
Mg -12.12500 16.27100 42.43900
C  -9.29300 14.32500 42.30700
C  -10.50300 18.88900 40.92700
C  -15.04000 17.82500 42.19300
C  -13.91400 13.40000 43.63700
N  -10.17800 16.47400 41.58200
C  -9.12000 15.61900 41.70500
C  -7.94400 16.04400 40.97700
C  -8.26300 17.55700 40.69400
C  -9.79400 17.64400 40.99700
C  -7.41600 18.68200 41.33100
C  -7.79300 15.20400 39.65600
C  -6.44100 14.67100 39.23200
H  -5.93200 15.04000 37.82400
N  -12.71900 18.10800 41.71800
C  -11.93200 19.03900 41.16200
C  -12.70300 20.24800 40.82300
C  -14.03600 19.95600 41.28900
C  -13.99900 18.54400 41.75600
C  -12.09600 21.46500 40.17700
C  -15.23600 20.89900 41.17800
O  -15.04700 21.99100 40.68700
C  -16.55000 20.47900 41.57700
N  -14.25300 15.59300 42.74900
C  -15.24500 16.51300 42.65800
C  -16.53200 15.92400 43.19000
C  -16.21200 14.44800 43.64200
C  -14.77000 14.43800 43.28200
C  -17.18700 16.78700 44.33100
C  -17.05600 13.30300 43.02200
C  -17.37500 12.10600 43.91300
N  -11.70400 14.24800 42.90800
C  -12.50800 13.28200 43.43200
C  -11.73500 12.09100 43.72300
C  -10.43200 12.47500 43.32900
C  -10.53100 13.76800 42.79700
C  -12.29000 10.84700 44.29400
C  -9.06100 11.92800 43.15700
O  -8.49800 10.87200 43.34800
C  -8.33600 13.15800 42.48200
C  -7.14400 13.50700 43.28000
O  -7.17300 13.90100 44.43500
O  -6.04600 13.40900 42.45400
C  -4.74700 13.91600 42.98400
H  -9.99800 19.69400 40.38900
H  -16.02500 18.27400 42.05400
H  -14.44700 12.53900 44.04600
H  -7.01000 16.01200 41.53700
H  -8.26000 17.78600 39.62800
H  -8.07900 19.18700 42.03400
H  -6.96800 19.31900 40.56900
H  -6.53500 18.28000 41.83100
H  -8.11300 15.79700 38.79900
H  -8.48600 14.36600 39.58100
H  -6.40500 13.59000 39.37100
H  -5.63600 15.06500 39.85300
H  -12.80700 21.91800 39.48500
H  -11.11600 21.28800 39.73300
H  -11.89500 22.30600 40.84100
H  -16.44200 20.28300 42.64400
H  -16.93900 19.71900 40.89900
H  -17.28400 21.26400 41.39700
H  -17.27300 15.87800 42.39200
H  -16.20500 14.33000 44.72600
H  -18.16400 17.09500 43.96100
H  -16.51600 17.63900 44.44700
H  -17.40200 16.14400 45.18400
H  -16.66200 13.02000 42.04600
H  -17.96000 13.89200 42.86600
H  -18.43200 12.22200 44.15000
H  -16.82000 12.12200 44.85100
H  -17.16200 11.23700 43.29100
H  -12.25900 11.10700 45.35200
H  -11.73400 9.96100 43.98600
H  -13.32100 10.77200 43.94800
H  -7.98100 12.73000 41.54500
H  -4.77300 14.93300 43.37700
H  -4.05500 13.88700 42.14200
H  -4.36300 13.26900 43.77200

