158

Mg 16.99100 52.63600 26.43000
C  18.86000 51.05700 28.90000
C  14.63800 53.33500 28.87900
C  14.94900 53.89600 24.11600
C  19.15400 51.42500 24.00800
N  16.85900 52.38300 28.66800
C  17.72900 51.72400 29.46100
C  17.50100 52.06800 30.93000
C  16.00200 52.48900 30.90200
C  15.77900 52.81200 29.35700
C  15.04800 51.30500 31.37100
C  18.45800 53.11800 31.60600
C  19.01700 52.78700 33.04400
H  17.87400 52.33200 33.93400
N  15.08100 53.49700 26.49200
C  14.26600 53.71800 27.54400
C  13.05400 54.34800 27.14800
C  13.18900 54.64800 25.77500
C  14.48800 54.05400 25.39600
C  11.96200 54.74000 28.13900
C  12.22900 55.36700 24.84900
O  12.45000 55.56800 23.64800
C  10.92500 55.91700 25.36600
N  16.97300 52.47800 24.33100
C  16.13000 53.23300 23.63600
C  16.67500 53.42600 22.14500
C  17.96900 52.69300 22.18800
C  18.07500 52.16600 23.63400
C  15.77600 52.83900 21.01100
C  19.23700 53.54500 21.68600
C  20.22500 54.00100 22.83200
N  18.64600 51.38200 26.36700
C  19.43400 50.94900 25.32400
C  20.49700 50.13500 25.81400
C  20.31900 50.11700 27.22700
C  19.16000 50.89100 27.54100
C  21.57400 49.36800 24.94100
C  20.88200 49.70200 28.47000
O  21.82400 48.97800 28.70600
C  19.96600 50.34200 29.63300
C  19.44900 49.21700 30.45200
O  18.59300 48.42200 30.08200
O  20.18800 49.16700 31.63700
C  19.72200 48.08600 32.47900
H  13.98200 53.54600 29.72700
H  14.40100 54.35600 23.29100
H  19.99000 51.21000 23.33900
H  17.61300 51.15100 31.50900
H  15.79000 53.39900 31.46400
H  15.58500 50.39600 31.64400
H  14.39300 50.95700 30.57200
H  14.50300 51.61700 32.26100
H  17.89900 54.05300 31.61500
H  19.25700 53.25700 30.87700
H  19.53000 53.69400 33.36400
H  19.79200 52.03400 32.90100
H  10.96300 54.53400 27.75600
H  11.98900 55.82500 28.23600
H  12.12600 54.19900 29.07100
H  10.52700 56.51900 24.54900
H  11.13400 56.51200 26.25500
H  10.35200 55.02500 25.61700
H  16.83400 54.50400 22.12400
H  17.89800 51.80100 21.56600
H  14.77000 53.25700 21.02600
H  15.57800 51.81600 21.32900
H  16.18100 52.94800 20.00400
H  18.86800 54.41100 21.13700
H  19.65100 52.79600 21.01100
H  19.68200 54.05000 23.77600
H  20.58400 55.01900 22.68400
H  21.13000 53.39400 22.82900
H  21.03200 48.96000 24.08800
H  22.02400 48.46000 25.34300
H  22.34600 50.09600 24.69200
H  20.55000 51.03200 30.24200
H  18.63700 48.01000 32.55100
H  20.08800 48.22100 33.49600
H  20.08500 47.10900 32.16000
Mg -4.54200 25.24500 26.28300
C  -3.21500 26.66600 29.23100
C  -6.50000 23.16200 28.24600
C  -5.56100 23.85300 23.50000
C  -2.30200 27.31400 24.47500
N  -4.68000 24.92500 28.48900
C  -4.18700 25.68800 29.48600
C  -4.72700 25.25600 30.84400
C  -5.62700 23.99900 30.51100
C  -5.69300 24.04400 28.97700
C  -5.28200 22.66200 31.10400
C  -5.47200 26.42800 31.54900
C  -5.48000 26.43700 33.13700
H  -4.89800 25.17200 33.95000
N  -5.78100 23.61400 25.90500
C  -6.48800 22.88800 26.84000
C  -7.33500 21.89600 26.15200
C  -7.08600 22.10200 24.77100
C  -6.12500 23.21800 24.64700
C  -8.29900 20.95100 26.86700
C  -7.71400 21.33700 23.56600
O  -7.24600 21.46000 22.45600
C  -8.79700 20.34700 23.72900
N  -4.01400 25.50500 24.31500
C  -4.52900 24.78000 23.27000
C  -3.92700 25.16400 21.91200
C  -3.00700 26.36900 22.34100
C  -3.15800 26.50900 23.82700
C  -3.16300 24.04000 21.24600
C  -3.26200 27.68200 21.61500
C  -2.21800 28.02300 20.52400
N  -3.10800 26.75500 26.68500
C  -2.27700 27.47200 25.86300
C  -1.49100 28.38900 26.60000
C  -1.80700 28.07300 27.95600
C  -2.84200 27.08600 27.96600
C  -0.38500 29.30000 26.01900
C  -1.48900 28.44200 29.33700
O  -0.68900 29.28200 29.76000
C  -2.39800 27.48700 30.24800
C  -1.47900 26.58300 30.91600
O  -0.69500 25.76400 30.34500
O  -1.69000 26.60500 32.26900
C  -0.68500 25.99300 33.15800
H  -7.12800 22.45900 28.79700
H  -5.92700 23.44200 22.55700
H  -1.66300 27.93800 23.84700
H  -3.96900 25.01600 31.59000
H  -6.65700 24.22000 30.79500
H  -5.20600 21.90100 30.32800
H  -6.02000 22.36100 31.84800
H  -4.39100 22.70900 31.73100
H  -6.52000 26.35500 31.26100
H  -5.17500 27.35900 31.06700
H  -6.49900 26.58500 33.49300
H  -4.87700 27.29400 33.44000
H  -9.25300 20.96300 26.33900
H  -8.50200 21.14300 27.92100
H  -7.82400 19.97200 26.80000
H  -8.77000 19.82100 22.77500
H  -9.72200 20.92200 23.78200
H  -8.66900 19.66000 24.56600
H  -4.79900 25.43000 21.31500
H  -1.97600 26.13600 22.07100
H  -3.54400 23.69100 20.28700
H  -2.91100 23.22300 21.92200
H  -2.20900 24.37600 20.83800
H  -3.18200 28.54000 22.28200
H  -4.24300 27.74300 21.14400
H  -2.32300 27.32900 19.69000
H  -1.18700 27.86700 20.84300
H  -2.26200 29.08900 20.29700
H  -0.59800 29.42500 24.95700
H  0.55900 28.77500 26.16600
H  -0.48700 30.30400 26.42900
H  -3.01200 28.04100 30.95900
H  -1.00100 25.05800 33.62200
H  -0.29300 26.66500 33.92100
H  0.22400 25.68900 32.64000

