158

Mg 41.43900 42.29900 27.20200
C  40.31600 44.23100 29.81800
C  42.50300 39.93900 29.57500
C  42.77500 40.29700 24.76300
C  40.50200 44.63200 24.92800
N  41.31000 42.07300 29.46300
C  40.79800 43.00700 30.29600
C  40.83700 42.52900 31.79900
C  41.62400 41.18500 31.60500
C  41.85100 41.02600 30.11600
C  42.86500 40.97300 32.47800
C  39.44100 42.46800 32.48400
C  39.39500 41.81400 33.85700
H  39.30200 42.76100 35.06900
N  42.47700 40.41300 27.12100
C  42.74500 39.58100 28.21500
C  43.52900 38.46300 27.75800
C  43.52400 38.53000 26.34900
C  42.91000 39.79600 26.02600
C  43.94900 37.29500 28.70700
C  43.95800 37.39700 25.30900
O  43.83500 37.46500 24.08600
C  44.39900 36.14500 25.94300
N  41.58800 42.37400 25.09800
C  42.20700 41.48000 24.30300
C  42.18200 41.96500 22.85200
C  41.36700 43.32100 22.91700
C  41.09800 43.47700 24.41300
C  43.50600 42.05300 22.03100
C  40.11200 43.29800 21.95600
C  38.93700 42.55700 22.44200
N  40.58500 44.13600 27.25600
C  40.22900 44.99400 26.27100
C  39.64900 46.17400 26.82900
C  39.60500 45.95400 28.21300
C  40.22200 44.67600 28.43000
C  39.10800 47.34100 26.13300
C  39.19800 46.46800 29.51500
O  38.56200 47.44300 29.79600
C  39.60700 45.32600 30.51800
C  40.20800 45.94100 31.70700
O  41.42200 46.11300 31.80900
O  39.22800 46.26200 32.63900
C  39.71000 47.03500 33.80600
H  42.89800 39.18400 30.25700
H  43.46800 39.78600 24.09200
H  40.10900 45.37800 24.23300
H  41.48000 43.23200 32.32800
H  40.92400 40.38800 31.85500
H  43.69500 41.05800 31.77700
H  42.85300 39.99200 32.95200
H  42.96800 41.82800 33.14600
H  38.76300 41.91400 31.83500
H  39.10000 43.49800 32.58800
H  40.21000 41.11000 34.02400
H  38.50100 41.19600 33.92500
H  44.02900 37.66400 29.73000
H  44.96500 36.96100 28.49400
H  43.31900 36.40800 28.77100
H  43.51600 35.78300 26.47000
H  45.28400 36.41600 26.51900
H  44.70200 35.35800 25.25300
H  41.65000 41.15700 22.34900
H  41.99500 44.16900 22.64400
H  43.60300 41.37600 21.18200
H  44.28700 41.76000 22.73400
H  43.70100 43.04700 21.62900
H  40.24400 42.99400 20.91700
H  39.93100 44.36500 21.82300
H  38.18000 43.25700 22.79400
H  39.09900 41.90600 23.30200
H  38.51100 42.00600 21.60400
H  39.98500 47.82700 25.70500
H  38.62800 48.05500 26.80200
H  38.43700 47.17700 25.28900
H  38.60300 45.01400 30.80600
H  38.94100 47.69700 34.20300
H  40.52900 47.66600 33.46000
H  40.02400 46.45800 34.67500
Mg -10.07100 40.65500 42.97700
C  -8.64100 37.59300 42.13200
C  -7.44000 42.21700 41.30900
C  -11.75500 43.55700 43.23400
C  -12.78600 38.95600 44.39900
N  -8.33700 39.99800 41.67300
C  -7.97200 38.64600 41.44800
C  -6.66400 38.58700 40.67300
C  -6.19700 40.09500 40.68500
C  -7.44300 40.81500 41.13800
C  -4.98200 40.40900 41.49600
C  -7.00400 38.10500 39.24100
C  -6.39800 36.79900 38.66600
H  -5.23300 37.10600 37.59100
N  -9.61300 42.59100 42.46400
C  -8.47900 43.04200 41.82900
C  -8.53500 44.44400 41.56100
C  -9.81900 44.87600 42.16200
C  -10.48800 43.66800 42.67200
C  -7.53200 45.26300 40.70200
C  -10.29000 46.33900 41.97000
O  -9.50500 47.20700 41.60700
C  -11.75000 46.68900 42.28400
N  -12.05300 41.20200 43.48500
C  -12.52400 42.43400 43.59500
C  -13.88300 42.50200 44.24600
C  -14.18300 41.02000 44.52700
C  -12.92000 40.32300 44.14900
C  -13.86800 43.29700 45.52700
C  -15.33400 40.40700 43.80400
C  -16.60800 40.18200 44.67300
N  -10.60100 38.66100 43.34200
C  -11.66300 38.16500 44.00400
C  -11.54500 36.72000 44.04500
C  -10.32400 36.43300 43.35800
C  -9.82400 37.66100 42.88300
C  -12.40700 35.73700 44.77500
C  -9.37400 35.44800 42.86400
O  -9.32200 34.22800 42.89500
C  -8.27000 36.16600 42.07800
C  -6.92600 35.89100 42.72200
O  -6.46100 36.44600 43.63900
O  -6.27700 34.92600 41.92700
C  -4.86500 34.82700 41.93400
H  -6.46900 42.63700 41.03800
H  -12.39500 44.43900 43.30600
H  -13.61000 38.45500 44.91200
H  -6.02200 37.87600 41.19300
H  -6.06100 40.44800 39.66300
H  -4.40400 41.17700 40.98300
H  -4.30000 39.55900 41.53000
H  -5.29600 40.73000 42.48900
H  -6.72200 38.86500 38.51100
H  -8.08300 37.96000 39.18600
H  -7.20300 36.23300 38.19700
H  -5.96200 36.20600 39.47000
H  -6.77400 44.68600 40.17200
H  -7.04000 45.96500 41.37500
H  -8.14100 45.61700 39.87000
H  -11.84800 46.86000 43.35600
H  -12.36500 45.85200 41.95500
H  -12.01400 47.45400 41.55400
H  -14.54100 43.08900 43.60500
H  -14.18800 40.82000 45.59900
H  -14.76800 42.94000 46.02800
H  -13.97700 44.38100 45.48000
H  -12.94300 43.18800 46.09300
H  -15.07400 39.45700 43.33600
H  -15.54600 40.94800 42.88300
H  -16.59000 40.91000 45.48500
H  -16.51900 39.16500 45.05500
H  -17.54300 40.28800 44.12300
H  -13.39200 35.66300 44.31400
H  -12.54200 35.97100 45.83100
H  -11.91500 34.76500 44.73600
H  -8.27200 35.75000 41.07100
H  -4.57100 34.14300 41.13800
H  -4.43900 34.30500 42.79000
H  -4.35900 35.78600 41.82500

