158

Mg 47.91500 16.53900 28.66000
C  45.89100 16.48800 31.38700
C  50.24400 18.46200 30.34200
C  49.82700 16.74800 25.84100
C  45.40600 14.75400 26.83700
N  47.94500 17.48200 30.57400
C  47.06700 17.21800 31.56900
C  47.54500 17.89300 32.91800
C  48.83800 18.71400 32.46200
C  49.05100 18.12500 31.06600
C  48.84600 20.30000 32.52900
C  47.77700 16.88000 34.07800
C  47.27500 17.21700 35.45800
H  47.26000 18.71500 35.75200
N  49.82800 17.44900 28.15700
C  50.57200 18.16300 29.01900
C  51.83000 18.50400 28.43100
C  51.80600 17.90200 27.06000
C  50.49700 17.34100 26.97100
C  52.95600 19.16700 29.18900
C  52.82200 17.99900 25.83400
O  52.47800 17.54600 24.72200
C  54.08700 18.83800 25.96000
N  47.67600 15.84400 26.66900
C  48.61200 16.04400 25.69900
C  48.17100 15.33400 24.38500
C  46.92600 14.56700 24.81100
C  46.59300 15.04700 26.18700
C  47.75200 16.35300 23.23700
C  47.11500 12.96000 24.80800
C  46.22600 12.15300 23.93100
N  45.93300 15.83700 28.94300
C  45.03900 15.15400 28.13200
C  43.84900 14.85700 28.97700
C  44.17000 15.35800 30.28500
C  45.40100 15.93500 30.18700
C  42.56100 14.25200 28.49000
C  43.64500 15.51300 31.63700
O  42.56400 15.17700 32.10000
C  44.82000 16.23600 32.51000
C  44.29200 17.40700 33.24400
O  44.20100 18.49400 32.71200
O  43.80700 17.03700 34.44800
C  43.15300 18.14200 35.23800
H  50.98800 19.12900 30.78200
H  50.37000 16.60600 24.90400
H  44.71500 14.16600 26.22900
H  46.85600 18.62300 33.34300
H  49.67200 18.36500 33.07000
H  48.13300 20.72000 33.23800
H  48.71000 20.75400 31.54700
H  49.81100 20.58300 32.95100
H  48.80100 16.50800 34.07000
H  47.18200 15.99100 33.86700
H  47.97000 16.71700 36.13200
H  46.30900 16.71300 35.51000
H  53.87200 18.62100 28.96500
H  53.00000 18.98100 30.26200
H  53.07200 20.21000 28.89500
H  54.85400 18.44900 26.63100
H  53.88800 19.79900 26.43400
H  54.48200 18.78000 24.94600
H  48.96900 14.69600 24.00400
H  46.03300 14.76100 24.21700
H  48.24000 17.31400 23.39700
H  46.69300 16.61000 23.26300
H  48.02000 15.98000 22.24800
H  47.02400 12.70800 25.86400
H  48.15900 12.73400 24.59100
H  46.81100 11.25500 23.73200
H  45.89600 12.58900 22.98900
H  45.35800 11.84000 24.51100
H  42.47100 13.21700 28.81800
H  42.59000 14.30500 27.40200
H  41.76100 14.95000 28.73600
H  45.19500 15.53300 33.25400
H  42.13000 17.81500 35.41900
H  43.05200 19.04900 34.64100
H  43.71300 18.22100 36.17100
Mg -5.19800 25.14200 26.66300
C  -3.99300 26.43700 29.63100
C  -6.91400 22.77500 28.55300
C  -6.05800 23.72500 23.73300
C  -2.92000 27.25000 24.85700
N  -5.34000 24.65000 28.82900
C  -4.82800 25.35300 29.82500
C  -5.27100 24.84300 31.23300
C  -6.01300 23.46400 30.85000
C  -6.13700 23.64000 29.29900
C  -5.19800 22.18600 31.26500
C  -6.16500 26.02400 31.87400
C  -5.98500 26.19100 33.41500
H  -5.39400 24.98000 34.19500
N  -6.19200 23.51300 26.21600
C  -6.99900 22.74200 27.12900
C  -7.81500 21.80900 26.38600
C  -7.63100 22.13400 25.02300
C  -6.58400 23.17800 24.93500
C  -8.66300 20.75300 27.08200
C  -8.33500 21.44600 23.92400
O  -8.08200 21.77600 22.77200
C  -9.38900 20.33000 24.12800
N  -4.57400 25.45200 24.53900
C  -5.07000 24.71700 23.56900
C  -4.43000 25.07700 22.20600
C  -3.45900 26.21100 22.59400
C  -3.59900 26.32400 24.12300
C  -3.77900 23.89800 21.47600
C  -3.62500 27.51800 21.78200
C  -2.43000 28.00300 20.92400
N  -3.93100 26.63000 27.10000
C  -3.06000 27.40000 26.26200
C  -2.23600 28.22900 27.02900
C  -2.54700 28.02300 28.33500
C  -3.52400 26.91100 28.39800
C  -1.31600 29.26900 26.45600
C  -2.35100 28.41800 29.75300
O  -1.71300 29.36300 30.31900
C  -3.25800 27.33200 30.56400
C  -2.38800 26.50600 31.53300
O  -1.80700 25.47500 31.20600
O  -2.20600 27.03100 32.82200
C  -1.17400 26.27100 33.56300
H  -7.49900 22.05400 29.12800
H  -6.23900 23.20100 22.79100
H  -2.15500 27.77500 24.28000
H  -4.37300 24.63700 31.81500
H  -6.95500 23.48800 31.39900
H  -4.27500 22.53300 31.72900
H  -4.87900 21.60800 30.39700
H  -5.74800 21.56600 31.97400
H  -7.19700 25.73200 31.68100
H  -6.00300 26.95800 31.33700
H  -7.02400 26.33800 33.71200
H  -5.45700 27.12700 33.59800
H  -9.74000 20.86000 26.95500
H  -8.27400 20.56600 28.08300
H  -8.43500 19.83200 26.54600
H  -9.76500 19.99900 23.16000
H  -10.14700 20.75000 24.78800
H  -9.00400 19.44000 24.62600
H  -5.32500 25.30700 21.62800
H  -2.46100 25.79800 22.44400
H  -3.00500 24.24000 20.78900
H  -4.58300 23.39900 20.93600
H  -3.25700 23.23900 22.17000
H  -3.94700 28.35200 22.40500
H  -4.56800 27.40700 21.24700
H  -2.05900 28.91900 21.38500
H  -2.84100 28.12200 19.92100
H  -1.72100 27.17900 21.00600
H  -1.95500 30.11400 26.20200
H  -0.77100 28.94700 25.56900
H  -0.58100 29.54600 27.21200
H  -4.02000 27.89600 31.10200
H  -0.72100 26.96800 34.26800
H  -0.32700 26.02200 32.92400
H  -1.52900 25.37800 34.07800

