158

Mg -2.40400 17.19800 27.04200
C  -2.64600 14.68100 29.65100
C  -2.71500 19.58400 29.30000
C  -2.51500 19.37900 24.52100
C  -2.57800 14.48700 24.72600
N  -2.59500 17.03600 29.18500
C  -2.65000 15.97400 30.15400
C  -2.88400 16.61200 31.51000
C  -2.92600 18.17400 31.33400
C  -2.72000 18.25800 29.81100
C  -4.17700 18.88300 31.99100
C  -1.83300 16.15000 32.51400
C  -1.44000 16.94100 33.65300
H  -0.88600 16.17000 34.83400
N  -2.45600 19.22900 26.87800
C  -2.50900 20.06900 27.96100
C  -2.39500 21.43900 27.60200
C  -2.42600 21.43600 26.17600
C  -2.47200 19.98000 25.78400
C  -2.37600 22.56000 28.61600
C  -2.34500 22.55400 25.12200
O  -2.38900 22.39400 23.94600
C  -2.25200 23.94200 25.64500
N  -2.70800 16.91000 24.91200
C  -2.58700 18.01200 24.15000
C  -2.41600 17.63200 22.61300
C  -2.52600 16.10200 22.70200
C  -2.58600 15.76700 24.18300
C  -3.57600 18.15100 21.70500
C  -1.40000 15.33200 21.96400
C  -0.01000 15.34400 22.56400
N  -2.49500 15.06700 27.11000
C  -2.53800 14.14800 26.08000
C  -2.41600 12.77900 26.57800
C  -2.46300 12.96500 27.99800
C  -2.61200 14.35100 28.27300
C  -2.27000 11.49600 25.83300
C  -2.47300 12.21200 29.30000
O  -2.58900 11.03800 29.55400
C  -2.54300 13.37700 30.41100
C  -1.20000 13.23100 31.12300
O  -0.14100 13.45900 30.62500
O  -1.30000 12.61900 32.35400
C  -0.02000 12.48300 33.02500
H  -2.99300 20.32000 30.05700
H  -2.41900 20.11300 23.71800
H  -2.49400 13.63800 24.04300
H  -3.79400 16.12800 31.86400
H  -2.06500 18.70400 31.74000
H  -4.77000 19.45800 31.28100
H  -3.75600 19.72900 32.53500
H  -4.75000 18.27800 32.69400
H  -0.89700 16.09700 31.95700
H  -2.14600 15.13700 32.76500
H  -2.43500 17.33000 33.87200
H  -0.76000 17.76200 33.42700
H  -1.57900 23.26600 28.38300
H  -2.17100 22.26700 29.64500
H  -3.35600 23.03500 28.57100
H  -2.51200 24.57700 24.79700
H  -1.30900 24.29500 26.06000
H  -2.97800 23.84200 26.45200
H  -1.41800 18.00100 22.37600
H  -3.48700 15.82000 22.27100
H  -4.40400 18.44300 22.35000
H  -3.84100 17.38100 20.98000
H  -3.17100 18.91600 21.04300
H  -1.46600 15.65700 20.92600
H  -1.70000 14.28800 22.05800
H  0.31400 14.33200 22.80700
H  0.02200 15.87400 23.51600
H  0.69700 15.81400 21.87900
H  -3.25600 11.32900 25.39800
H  -2.01900 10.71600 26.55000
H  -1.50100 11.52500 25.06000
H  -3.28800 13.26000 31.19800
H  0.51900 13.42800 32.95800
H  0.61300 11.67000 32.66900
H  -0.30700 12.23900 34.04800
Mg 42.53700 41.50600 26.40600
C  41.72900 43.93200 28.68700
C  43.59100 39.42500 29.19400
C  43.60800 39.08900 24.31100
C  42.09100 43.76600 23.87100
N  42.65400 41.71600 28.67700
C  42.21900 42.77900 29.32100
C  42.15500 42.45700 30.86400
C  43.01900 41.17800 31.03600
C  43.12600 40.71700 29.53600
C  44.35500 41.50800 31.68300
C  40.69600 42.37300 31.51600
C  40.27400 43.50400 32.47100
H  39.58900 43.04000 33.76300
N  43.34900 39.45700 26.70000
C  43.74000 38.86600 27.90700
C  44.13700 37.55800 27.60200
C  44.01300 37.38000 26.21800
C  43.66100 38.67800 25.66400
C  44.56000 36.53700 28.61200
C  44.13500 36.07000 25.41000
O  44.07200 36.02400 24.19800
C  44.48300 34.84100 26.08700
N  42.91200 41.48400 24.45100
C  43.19100 40.32900 23.72300
C  43.16900 40.60300 22.21500
C  42.69300 42.09600 22.04300
C  42.55300 42.51200 23.51300
C  44.56400 40.31000 21.54400
C  41.40500 42.36100 21.32500
C  41.36700 43.65600 20.37700
N  41.89600 43.44000 26.22500
C  41.85500 44.26300 25.16100
C  41.25200 45.54400 25.63600
C  41.25900 45.46400 26.97300
C  41.66000 44.19000 27.31200
C  40.96000 46.71500 24.77700
C  40.99400 46.20300 28.20200
O  40.73200 47.37000 28.33500
C  41.23500 45.19200 29.39600
C  42.12800 45.90800 30.32700
O  43.32600 46.06800 30.21200
O  41.40600 46.40200 31.38200
C  42.20900 47.01600 32.44200
H  43.95400 38.88400 30.07000
H  43.89600 38.37400 23.53800
H  41.91200 44.47700 23.06100
H  42.66700 43.29300 31.33800
H  42.49400 40.43000 31.63000
H  44.46800 42.57300 31.88800
H  45.24600 41.10300 31.20300
H  44.44900 41.11200 32.69500
H  40.63200 41.39500 31.99200
H  40.01900 42.30100 30.66500
H  39.55400 44.24500 32.12300
H  41.19200 44.05300 32.68100
H  44.53800 36.87000 29.65000
H  45.57500 36.20600 28.39300
H  43.90900 35.67000 28.73300
H  43.74900 34.68400 26.87800
H  45.40600 34.88500 26.66500
H  44.61600 33.95100 25.47200
H  42.46300 39.99000 21.65500
H  43.54700 42.68900 21.71600
H  45.26800 39.88700 22.26000
H  44.91300 41.19600 21.01300
H  44.44600 39.50000 20.82400
H  40.61500 42.29900 22.07300
H  41.16300 41.46000 20.76100
H  41.13100 43.37300 19.35200
H  42.32300 44.16700 20.48800
H  40.63000 44.38200 20.72000
H  41.65900 47.50400 25.05400
H  39.95900 47.02300 25.07900
H  41.10500 46.54200 23.71100
H  40.26800 44.93900 29.83000
H  43.29600 47.05600 32.38100
H  42.01300 46.41200 33.32800
H  41.97300 48.07600 32.53500

