158

Mg 16.10300 -1.43700 28.18000
C  15.30000 0.60400 30.92500
C  18.39600 -3.05400 30.08200
C  16.94600 -3.18400 25.39500
C  14.54900 0.86700 26.12000
N  16.81800 -1.12900 30.30400
C  16.22200 -0.38100 31.27600
C  16.92700 -0.64400 32.60300
C  18.04700 -1.66400 32.24800
C  17.73000 -2.03300 30.81100
C  19.57400 -1.27500 32.41800
C  15.99000 -1.11300 33.77300
C  16.53700 -1.62800 35.01500
H  17.72100 -0.87600 35.74700
N  17.37400 -2.95300 27.84800
C  18.24200 -3.48000 28.72900
C  18.96000 -4.54500 28.08600
C  18.44200 -4.72100 26.82900
C  17.55300 -3.58600 26.62300
C  19.94100 -5.34100 28.86000
C  18.77200 -5.75200 25.71400
O  18.31600 -5.73800 24.60800
C  19.71500 -6.81300 25.99900
N  15.95300 -1.10000 26.01800
C  16.37100 -1.96700 25.10000
C  15.93300 -1.65700 23.71600
C  14.97700 -0.45400 23.92400
C  15.14100 -0.23600 25.43900
C  17.15900 -1.34500 22.75600
C  13.48000 -0.71400 23.53400
C  12.88900 0.05200 22.38100
N  15.11300 0.38800 28.47300
C  14.46800 1.16300 27.49300
C  13.77100 2.20300 28.11700
C  14.11500 2.03300 29.48600
C  14.83200 0.91100 29.61900
C  13.22200 3.35400 27.46400
C  13.99900 2.64600 30.76500
O  13.49700 3.62900 31.23100
C  14.71300 1.65200 31.77800
C  15.71500 2.34300 32.50800
O  16.69300 2.89300 31.97100
O  15.45300 2.32600 33.81600
C  16.32000 3.12600 34.69300
H  19.20200 -3.54100 30.63400
H  17.25200 -3.64700 24.45400
H  14.08000 1.60100 25.46200
H  17.32200 0.25600 33.07400
H  17.81700 -2.61300 32.73200
H  20.10900 -2.03400 32.98900
H  19.44800 -0.26900 32.81800
H  20.03700 -1.22100 31.43200
H  15.47800 -1.93300 33.26800
H  15.19700 -0.40000 34.00100
H  16.78300 -2.68500 34.91000
H  15.69500 -1.57500 35.70600
H  19.59300 -6.26900 29.31500
H  20.38000 -4.76900 29.67700
H  20.76600 -5.51300 28.17000
H  20.75800 -6.54300 26.16800
H  19.75300 -7.67800 25.33800
H  19.26800 -7.20400 26.91300
H  15.32800 -2.49100 23.36100
H  15.25300 0.48800 23.45000
H  17.21400 -0.26600 22.61700
H  17.13200 -1.80200 21.76700
H  18.11800 -1.52900 23.24000
H  12.89700 -0.75400 24.45400
H  13.46200 -1.73200 23.14500
H  12.49900 1.01300 22.71500
H  12.06200 -0.44900 21.87800
H  13.66500 0.15300 21.62100
H  13.11500 4.15300 28.19800
H  12.21600 3.11600 27.11800
H  13.75600 3.65300 26.56200
H  14.01000 1.21600 32.48800
H  15.94200 3.19300 35.71300
H  16.43000 4.10200 34.21900
H  17.27200 2.59800 34.72700
Mg 35.08400 3.02500 29.64700
C  32.80100 4.02100 32.21500
C  37.52200 3.34200 31.82300
C  37.13300 2.58100 27.02500
C  32.38700 3.58300 27.35000
N  35.13300 3.55900 31.80500
C  34.13400 3.77700 32.65300
C  34.59800 3.82900 34.15200
C  36.19300 3.72600 33.92800
C  36.32600 3.57100 32.44400
C  37.00700 4.95900 34.52700
C  34.01900 2.60000 34.94600
C  33.93000 2.79800 36.51200
H  34.56700 3.98000 37.19500
N  36.98000 2.80400 29.48500
C  37.89600 2.93700 30.52300
C  39.23000 2.58700 30.05000
C  39.10800 2.30500 28.70000
C  37.69700 2.59700 28.32400
C  40.44500 2.30500 31.00800
C  40.15700 1.76500 27.76400
O  39.88700 1.43600 26.61900
C  41.57700 1.68500 28.21700
N  34.76200 3.01000 27.46800
C  35.78600 2.72400 26.64400
C  35.34500 2.62900 25.19900
C  33.86600 3.05600 25.30200
C  33.61600 3.24700 26.79300
C  36.16000 3.41200 24.14500
C  32.83200 2.05500 24.67700
C  32.52300 0.80800 25.56200
N  33.05800 3.63000 29.68300
C  32.14100 3.81000 28.71500
C  30.80900 4.11900 29.28600
C  31.03800 4.15500 30.67800
C  32.41900 3.95200 30.85800
C  29.50600 4.19400 28.53800
C  30.41300 4.45900 31.96900
O  29.29200 4.90100 32.17300
C  31.57100 4.37300 33.00300
C  31.61500 5.59400 33.79000
O  32.26100 6.56500 33.44500
O  31.10500 5.33100 35.06700
C  31.40300 6.44100 36.01300
H  38.32500 3.40300 32.56100
H  37.84200 2.47200 26.20200
H  31.53100 3.77400 26.69900
H  34.20500 4.74300 34.59700
H  36.46800 2.80700 34.44600
H  37.52700 5.52900 33.75700
H  37.70000 4.64300 35.30700
H  36.24200 5.60500 34.95800
H  34.49400 1.63700 34.75600
H  33.01200 2.51900 34.53900
H  34.34300 1.94700 37.05400
H  32.87300 2.84000 36.77600
H  40.46400 1.24200 31.24900
H  40.43800 2.90000 31.92100
H  41.41700 2.59700 30.61000
H  41.72600 0.90300 28.96200
H  41.99200 2.67000 28.42900
H  42.19200 1.43400 27.35300
H  35.49000 1.57200 24.97400
H  33.76400 4.04800 24.86400
H  36.47500 2.70000 23.38200
H  37.04500 3.85300 24.60300
H  35.57100 4.22700 23.72500
H  33.31200 1.78600 23.73600
H  31.94100 2.56700 24.31300
H  32.70800 1.05600 26.60700
H  33.22100 0.01800 25.28600
H  31.46600 0.64000 25.35300
H  28.78600 4.28000 29.35200
H  29.17600 3.35800 27.92000
H  29.40000 5.15300 28.03200
H  31.28200 3.63600 33.75200
H  30.72000 7.28400 35.90600
H  32.46500 6.68300 36.04200
H  31.21200 6.17200 37.05200

