158

Mg -1.73100 17.00400 26.79400
C  -2.33600 14.91500 29.57800
C  -2.13900 19.67900 28.86800
C  -1.15900 19.01100 24.10200
C  -2.28500 14.29100 24.82500
N  -2.31300 17.26300 28.97900
C  -2.40400 16.29000 29.95400
C  -2.51300 16.90000 31.34000
C  -2.55300 18.44100 31.11300
C  -2.32700 18.50700 29.56000
C  -3.91500 19.11800 31.65200
C  -1.38400 16.31600 32.35400
C  -0.89800 17.25200 33.48900
H  -0.38300 16.58700 34.76900
N  -1.56100 19.02400 26.52400
C  -1.81000 20.02100 27.53600
C  -1.52500 21.32600 26.97600
C  -1.21800 21.11900 25.58800
C  -1.26800 19.63100 25.34200
C  -1.74400 22.60400 27.76300
C  -0.94900 22.20800 24.55600
O  -0.79700 22.05100 23.37200
C  -0.82800 23.58700 24.99800
N  -1.84600 16.74100 24.78000
C  -1.52200 17.63700 23.85000
C  -1.67500 17.13200 22.44300
C  -2.16300 15.70400 22.74000
C  -2.01900 15.50900 24.16100
C  -2.72600 17.98800 21.63000
C  -1.64900 14.57800 21.78700
C  -0.40500 13.75700 22.05200
N  -1.99000 14.91900 27.10800
C  -2.18200 13.94800 26.17500
C  -2.44000 12.64200 26.74700
C  -2.39200 12.97500 28.10900
C  -2.25000 14.38400 28.26500
C  -2.93100 11.33200 26.11400
C  -2.63100 12.52700 29.52500
O  -2.96100 11.41900 29.90500
C  -2.41200 13.70000 30.52300
C  -1.16200 13.41000 31.32100
O  -0.00700 13.60000 30.99900
O  -1.52100 12.75300 32.46800
C  -0.51700 12.24200 33.37500
H  -2.27200 20.53300 29.53600
H  -0.98900 19.62400 23.21500
H  -2.54300 13.45800 24.16700
H  -3.39600 16.44300 31.78800
H  -1.64600 18.94600 31.44700
H  -4.46200 19.50800 30.79400
H  -3.68000 19.97700 32.28000
H  -4.57900 18.42100 32.16500
H  -0.46400 16.13800 31.79700
H  -1.69600 15.41800 32.88600
H  -1.73800 17.91900 33.68400
H  -0.05000 17.75800 33.02700
H  -1.93300 22.44700 28.82500
H  -2.63200 23.14900 27.44400
H  -0.82000 23.17500 27.67800
H  -0.09700 23.76800 25.78700
H  -1.81100 23.95600 25.29200
H  -0.56000 24.23900 24.16600
H  -0.65100 17.09500 22.07100
H  -3.21700 15.59100 22.48400
H  -3.01000 18.88500 22.18000
H  -3.68700 17.47100 21.63200
H  -2.49600 18.21500 20.59000
H  -1.53100 15.03900 20.80600
H  -2.46800 13.85900 21.77100
H  -0.24200 13.58700 23.11700
H  0.44900 14.18600 21.52800
H  -0.60300 12.81600 21.53900
H  -3.76800 11.60700 25.47100
H  -3.16700 10.64800 26.92900
H  -2.14400 10.91200 25.48700
H  -3.30000 13.78200 31.15000
H  -0.38300 11.21700 33.02900
H  -0.94600 12.14500 34.37300
H  0.42200 12.79100 33.29600
Mg 7.61200 1.72900 28.60800
C  9.25600 0.28100 31.27200
C  6.09300 4.01200 30.70100
C  6.03700 3.10900 25.97800
C  9.35400 -0.51600 26.35200
N  7.62200 1.98700 30.68400
C  8.42200 1.33300 31.65200
C  8.31200 1.99900 32.99900
C  7.13600 3.06400 32.78200
C  6.93000 3.03900 31.27400
C  5.75200 2.68500 33.48700
C  9.62300 2.66400 33.47600
C  9.47500 3.44900 34.77700
H  10.49400 3.01600 35.80700
N  6.17100 3.27500 28.36300
C  5.66300 4.07700 29.31100
C  4.72700 5.03100 28.73600
C  4.59100 4.67300 27.36400
C  5.61500 3.65300 27.17800
C  4.04400 6.18800 29.51100
C  3.69800 5.17100 26.29000
O  3.88800 4.78000 25.16900
C  2.73200 6.34200 26.58600
N  7.79200 1.34200 26.52100
C  6.90700 2.06900 25.67600
C  7.06000 1.48500 24.21400
C  8.19600 0.37900 24.29600
C  8.48300 0.45300 25.78700
C  5.78100 0.96600 23.53400
C  9.50900 0.53000 23.41300
C  10.01300 -0.78700 22.72400
N  8.99900 0.12700 28.70600
C  9.59600 -0.71500 27.76100
C  10.45300 -1.64200 28.44700
C  10.37700 -1.27700 29.83300
C  9.55000 -0.18000 29.93100
C  11.30000 -2.74000 27.87200
C  10.80200 -1.59100 31.19700
O  11.67000 -2.36000 31.66600
C  10.19900 -0.57300 32.12000
C  9.55600 -1.23600 33.25500
O  8.59700 -1.97700 33.19200
O  10.13000 -0.96900 34.44200
C  9.50400 -1.55700 35.67700
H  5.76600 4.83900 31.33500
H  5.65900 3.44700 25.01100
H  10.09600 -0.97200 25.69500
H  8.02700 1.31000 33.79400
H  7.34700 4.05700 33.17900
H  5.97000 2.50200 34.53900
H  5.40000 1.75700 33.03600
H  4.98000 3.43600 33.31600
H  9.97700 3.42600 32.78100
H  10.33600 1.84100 33.52700
H  8.44300 3.30700 35.09600
H  9.77000 4.48400 34.60000
H  4.46900 7.17400 29.32000
H  4.19600 5.96300 30.56700
H  2.98300 6.30900 29.29400
H  2.13600 6.43600 25.67800
H  3.24200 7.22900 26.96100
H  2.13400 5.94800 27.40700
H  7.53800 2.26500 23.62200
H  7.66700 -0.53300 24.01800
H  5.01300 0.85900 24.30000
H  5.92900 0.11700 22.86700
H  5.27200 1.81000 23.06900
H  10.38600 0.82800 23.98900
H  9.31500 1.34200 22.71300
H  9.31300 -1.60400 22.90000
H  11.04500 -0.96200 23.02900
H  10.12100 -0.73600 21.64000
H  11.34500 -2.57800 26.79500
H  10.87100 -3.69700 28.16900
H  12.30700 -2.60600 28.26900
H  11.05300 -0.01200 32.49900
H  8.55800 -2.09500 35.60700
H  9.31200 -0.70600 36.33100
H  10.31100 -2.21200 36.00200

