158

Mg 54.69600 24.55100 44.63700
C  51.95900 26.69000 43.71300
C  53.07700 22.00500 43.04800
C  57.66300 22.91900 44.41300
C  56.24800 27.39900 45.99500
N  52.77200 24.46400 43.53800
C  51.88400 25.41300 43.11600
C  50.84700 24.93400 42.17600
C  50.98500 23.33400 42.37300
C  52.38000 23.22600 43.04000
C  49.81300 22.68700 43.27400
C  51.14800 25.28000 40.62100
C  50.08200 25.97200 39.60900
H  49.70000 25.29000 38.26400
N  55.26100 22.54700 44.08800
C  54.40900 21.65500 43.42100
C  55.24200 20.41400 43.19200
C  56.61100 20.73600 43.55500
C  56.56000 22.12700 44.05600
C  54.62300 19.15800 42.63000
C  57.78300 19.81200 43.45300
O  57.65400 18.73500 42.88000
C  59.13200 20.10500 43.99200
N  56.71400 25.11600 45.15500
C  57.74200 24.25900 44.92600
C  59.06000 24.90600 45.35100
C  58.62300 26.33600 45.79800
C  57.11600 26.28000 45.71400
C  59.87600 24.08500 46.38400
C  59.25700 27.46400 44.94400
C  59.63900 28.61700 45.85100
N  54.22000 26.61500 44.90000
C  54.92900 27.57300 45.58200
C  54.12600 28.78600 45.65200
C  52.97000 28.52900 44.89700
C  53.02700 27.16100 44.50400
C  54.41000 30.02400 46.42900
C  51.78100 29.04200 44.26400
O  51.36100 30.22000 44.14200
C  51.13500 27.86500 43.55800
C  50.76800 28.22900 42.18700
O  51.44400 28.80100 41.32200
O  49.43600 28.14600 42.11700
C  48.68900 28.78500 41.01100
H  52.48100 21.18900 42.63500
H  58.71600 22.63200 44.43300
H  56.72900 28.34000 46.27100
H  49.84400 25.30400 42.38600
H  51.07100 22.79700 41.42800
H  50.14600 22.39300 44.27000
H  49.45800 21.74400 42.85700
H  48.99300 23.40200 43.34200
H  51.44200 24.38900 40.06600
H  52.00800 25.94300 40.71600
H  50.52900 26.95700 39.47700
H  49.17600 26.08000 40.20400
H  53.69600 19.45600 42.14000
H  54.50200 18.40700 43.41100
H  55.28300 18.73500 41.87300
H  59.76200 19.22600 43.85100
H  59.10300 20.48100 45.01400
H  59.46100 20.96400 43.40600
H  59.66900 25.13100 44.47600
H  58.83500 26.49800 46.85500
H  59.27400 23.22900 46.69100
H  60.05700 24.68700 47.27500
H  60.76500 23.65700 45.92000
H  58.58300 27.91600 44.21700
H  60.12400 27.04400 44.43400
H  59.12100 29.53900 45.58600
H  60.70500 28.73300 45.65800
H  59.30700 28.54700 46.88700
H  55.11800 30.61300 45.84700
H  54.85100 29.84000 47.40900
H  53.46700 30.56800 46.47400
H  50.23800 27.92800 44.17400
H  47.94400 28.09100 40.62200
H  49.28900 29.06200 40.14500
H  48.28200 29.69400 41.45500
Mg -5.68600 25.17000 26.04700
C  -4.23400 26.65200 28.84800
C  -7.35600 23.07200 28.08300
C  -6.67600 23.44000 23.27900
C  -3.40300 26.99500 24.03700
N  -5.55400 24.74300 28.21000
C  -5.09800 25.57200 29.20400
C  -5.66300 25.22600 30.62100
C  -6.18200 23.78600 30.26900
C  -6.37000 23.80000 28.74400
C  -5.22700 22.58700 30.68200
C  -6.71800 26.25200 31.26700
C  -6.88400 26.16600 32.80800
H  -6.11200 25.08500 33.56500
N  -7.00600 23.58700 25.71800
C  -7.65600 22.90200 26.69200
C  -8.63400 21.97700 26.12100
C  -8.47400 22.11900 24.67200
C  -7.37600 23.16200 24.47600
C  -9.53300 21.12800 26.99300
C  -9.26200 21.43900 23.52900
O  -8.95700 21.63100 22.31000
C  -10.45800 20.62200 23.76400
N  -5.28100 25.44900 23.84500
C  -5.71100 24.51400 22.98200
C  -4.90900 24.54400 21.58000
C  -3.95200 25.79900 21.84000
C  -4.28500 26.16400 23.28300
C  -4.19600 23.09900 21.28700
C  -4.19900 26.99500 20.85000
C  -5.17800 28.07200 21.28500
N  -4.30300 26.67800 26.31300
C  -3.42400 27.33200 25.43800
C  -2.56400 28.24800 26.20700
C  -2.92900 28.10900 27.52000
C  -3.82100 27.00500 27.57700
C  -1.63800 29.22500 25.68100
C  -2.62100 28.53000 28.82200
O  -1.90200 29.37400 29.25100
C  -3.48700 27.57400 29.75000
C  -2.67800 26.88700 30.73100
O  -2.13100 25.82700 30.45100
O  -2.64600 27.51500 31.93400
C  -2.14300 26.71800 33.10200
H  -7.92300 22.34600 28.66900
H  -6.84000 22.80000 22.41000
H  -2.61600 27.38100 23.38500
H  -4.86300 25.18300 31.36000
H  -7.12300 23.48300 30.72800
H  -5.83100 21.84500 31.20500
H  -4.38300 22.96200 31.26100
H  -4.69600 22.19000 29.81700
H  -7.61000 26.09400 30.66000
H  -6.51200 27.27800 30.96100
H  -7.93900 26.07800 33.06900
H  -6.58000 27.12900 33.21800
H  -10.39600 21.62100 27.43900
H  -8.91400 20.61900 27.73300
H  -9.83300 20.25900 26.40700
H  -10.13300 19.59500 23.92900
H  -10.93400 20.62400 22.78300
H  -11.10200 21.06400 24.52400
H  -5.61300 24.77000 20.77900
H  -2.93900 25.41200 21.95800
H  -3.17900 23.22600 20.91700
H  -4.77000 22.64800 20.47700
H  -4.23900 22.34800 22.07500
H  -4.45200 26.58900 19.87100
H  -3.19500 27.39400 20.70400
H  -5.66000 28.29600 20.33400
H  -4.65800 28.89900 21.76900
H  -6.02100 27.68500 21.85800
H  -1.21500 28.82800 24.75800
H  -0.74100 29.30400 26.29500
H  -2.03300 30.22600 25.50900
H  -4.21700 28.23000 30.22300
H  -1.28700 26.10000 32.83100
H  -2.91500 26.03500 33.45800
H  -1.85400 27.34100 33.94800

