158

Mg 41.17000 8.65800 29.56800
C  43.14000 10.15600 32.05300
C  39.04100 7.50300 31.71800
C  39.75600 6.96800 26.93100
C  43.66600 9.62800 27.26200
N  41.16700 8.81000 31.59100
C  41.95100 9.50200 32.49200
C  41.39700 9.56300 33.97100
C  40.10500 8.69500 33.80900
C  40.09400 8.27100 32.29000
C  40.06900 7.35200 34.67400
C  41.23800 10.91300 34.59700
C  40.47100 11.09000 35.95100
H  41.32300 11.33100 37.17800
N  39.54400 7.42400 29.38300
C  38.71900 7.11200 30.44100
C  37.55000 6.40000 29.94700
C  37.72900 6.28600 28.50700
C  39.04900 6.93800 28.20500
C  36.38800 5.91100 30.88900
C  36.77200 5.73100 27.48700
O  36.97500 5.75000 26.31400
C  35.53300 5.06500 27.98800
N  41.76500 8.26200 27.41600
C  40.91900 7.67000 26.56000
C  41.46600 7.60800 25.10800
C  42.46300 8.77800 25.19200
C  42.65400 8.89100 26.69000
C  41.87600 6.22500 24.57600
C  42.02200 10.09700 24.36700
C  40.97400 10.99700 25.01100
N  42.98500 9.71200 29.61000
C  43.92200 10.05500 28.59800
C  45.02900 10.73400 29.20800
C  44.74300 10.89400 30.55600
C  43.51300 10.18700 30.76000
C  46.06700 11.40700 28.40500
C  45.23000 11.39800 31.79800
O  46.19100 12.11400 32.09600
C  44.16100 10.95800 32.85800
C  44.79200 10.09200 33.91300
O  45.20100 8.93200 33.72400
O  44.59300 10.64100 35.18200
C  45.13900 9.87900 36.30600
H  38.24200 7.19900 32.39800
H  39.25900 6.47600 26.09200
H  44.40300 9.93900 26.51800
H  42.00700 9.03600 34.70400
H  39.29000 9.36700 34.07900
H  39.15300 7.34100 35.26600
H  40.87100 7.23000 35.40200
H  40.12500 6.55300 33.93500
H  40.70600 11.52800 33.87100
H  42.20700 11.37800 34.78000
H  39.81800 10.24600 36.17300
H  39.92800 12.03300 35.87300
H  35.42700 6.28200 30.53100
H  36.50500 6.20500 31.93300
H  36.25300 4.83100 30.93300
H  35.77400 4.30500 28.73100
H  35.10400 4.52300 27.14400
H  34.80900 5.80400 28.33100
H  40.59100 7.90400 24.53000
H  43.44000 8.51600 24.78400
H  42.89400 6.18700 24.18700
H  41.16500 5.98700 23.78500
H  41.68600 5.50300 25.37000
H  41.64400 9.63500 23.45400
H  42.86500 10.72600 24.08000
H  40.72800 10.66600 26.02000
H  40.08400 11.10000 24.38900
H  41.48300 11.95700 25.09800
H  45.62300 11.64400 27.43800
H  47.00300 10.86100 28.28900
H  46.33500 12.26700 29.01800
H  43.67300 11.80900 33.33300
H  44.39100 9.86400 37.09900
H  45.96500 10.42200 36.76600
H  45.53300 8.89800 36.04100
Mg 46.95200 25.36300 28.37600
C  47.34400 27.52400 31.05300
C  46.17900 22.77100 30.71400
C  47.31200 23.25300 25.98300
C  48.40600 27.88000 26.42100
N  46.50300 25.25600 30.58300
C  46.69900 26.28500 31.44800
C  46.53000 25.75900 32.91200
C  46.12100 24.27300 32.72200
C  46.31800 24.03900 31.29100
C  46.92200 23.27200 33.50500
C  45.61500 26.66000 33.80900
C  46.03100 26.69400 35.29800
H  44.91600 26.61800 36.37000
N  46.43700 23.28400 28.29200
C  46.12800 22.40100 29.29600
C  45.96500 21.10300 28.68800
C  46.31300 21.22400 27.32400
C  46.65400 22.64000 27.12100
C  45.51700 19.88400 29.52200
C  46.58700 20.02500 26.31700
O  46.88600 20.23200 25.16800
C  46.22100 18.63500 26.63900
N  47.82800 25.48300 26.50400
C  47.75800 24.50300 25.58100
C  48.45500 24.88300 24.27400
C  48.42800 26.42700 24.36000
C  48.25200 26.65600 25.84600
C  49.86500 24.21500 24.04700
C  47.34300 27.12600 23.55800
C  47.79900 28.27500 22.68000
N  47.74100 27.38200 28.61200
C  48.25700 28.24000 27.73500
C  48.53200 29.49900 28.36900
C  48.23700 29.17800 29.72400
C  47.71000 27.94000 29.81600
C  49.16300 30.63100 27.74100
C  48.28000 29.82400 30.98700
O  48.85700 30.89600 31.27500
C  47.68400 28.70100 31.95600
C  48.66100 28.50000 33.00500
O  49.68300 27.96100 32.89700
O  48.24200 29.13100 34.17200
C  49.14000 29.16100 35.27100
H  45.85300 22.03100 31.44800
H  47.44100 22.47600 25.22700
H  48.66000 28.70400 25.75000
H  47.56900 25.84200 33.23300
H  45.05200 24.10300 32.85200
H  47.47700 22.64900 32.80300
H  46.27400 22.60800 34.07600
H  47.64100 23.68700 34.21100
H  44.60500 26.25000 33.80200
H  45.50600 27.66700 33.40600
H  46.46000 27.67800 35.48900
H  46.86900 26.00500 35.39800
H  44.83900 19.19000 29.02500
H  45.02500 20.24700 30.42500
H  46.46700 19.38500 29.70900
H  46.69200 18.26500 27.55000
H  46.58900 17.95100 25.87500
H  45.13700 18.64600 26.75600
H  47.78500 24.62900 23.45200
H  49.40600 26.80000 24.05800
H  49.86800 23.34100 23.39600
H  50.27500 23.85400 24.99000
H  50.64700 24.88700 23.69500
H  46.56200 27.47600 24.23200
H  46.86800 26.47700 22.82200
H  47.63500 27.93600 21.65700
H  48.84100 28.57900 22.78100
H  47.11300 29.08000 22.94500
H  48.40000 31.08900 27.11200
H  49.94400 30.40700 27.01400
H  49.58800 31.40300 28.38300
H  46.79300 29.12300 32.42100
H  48.95300 28.16900 35.68300
H  48.86200 29.98200 35.93200
H  50.20000 29.24000 35.03300

