158

Mg 49.52300 45.48700 42.22500
C  46.27900 46.23900 41.07800
C  49.24600 42.49800 40.68400
C  52.86900 45.28500 42.47700
C  49.69600 48.66300 43.53400
N  47.89600 44.50100 41.03500
C  46.66000 44.98300 40.66100
C  45.86200 43.92900 39.84300
C  46.69100 42.69400 40.16700
C  48.03900 43.24800 40.60800
C  46.14100 41.65900 41.22900
C  45.70500 44.38900 38.27400
C  44.35400 44.10400 37.62500
H  44.34400 43.14600 36.42400
N  50.83900 44.06400 41.69000
C  50.54700 42.87700 41.10800
C  51.74400 42.08200 41.08700
C  52.84000 42.87500 41.54900
C  52.20200 44.17200 41.96600
C  51.71600 40.64000 40.61600
C  54.28500 42.36400 41.70400
O  54.63200 41.16300 41.48900
C  55.44200 43.24900 42.12100
N  51.09600 46.85600 42.90100
C  52.38000 46.54400 42.87100
C  53.24900 47.65700 43.35000
C  52.23700 48.68700 43.84400
C  50.92200 48.06600 43.35500
C  54.32800 47.21600 44.36400
C  52.61000 50.12200 43.38000
C  52.84600 51.27400 44.38900
N  48.22600 47.05300 42.51600
C  48.41700 48.27000 43.09400
C  47.17700 49.01200 43.13100
C  46.31300 48.24400 42.31000
C  46.99200 47.05000 41.98500
C  46.88300 50.42400 43.70500
C  44.98600 48.18200 41.75200
O  44.04200 48.90700 41.80800
C  44.94900 46.90100 40.81900
C  43.75200 46.02900 41.21000
O  42.99100 45.47300 40.41100
O  43.79700 45.71100 42.56100
C  42.89300 44.65700 43.04200
H  49.22400 41.47700 40.29500
H  53.95500 45.18800 42.54200
H  49.67300 49.72400 43.79100
H  44.87300 43.71000 40.24500
H  46.72100 42.12200 39.23900
H  45.99500 40.63900 40.87400
H  45.14000 41.96000 41.53700
H  46.74800 41.53000 42.12500
H  46.52900 43.89000 37.76300
H  45.91000 45.45000 38.12700
H  43.94700 45.06400 37.30800
H  43.67700 43.58700 38.30600
H  51.72100 40.73900 39.53000
H  50.86700 40.13600 41.07600
H  52.58600 40.09600 40.98400
H  55.28700 43.59400 43.14400
H  55.47100 44.10400 41.44600
H  56.36800 42.67700 42.18400
H  53.61300 48.04400 42.39800
H  52.20100 48.69400 44.93400
H  54.31000 46.13500 44.50100
H  54.10200 47.57100 45.36900
H  55.25100 47.69500 44.03800
H  51.77700 50.49500 42.78300
H  53.56300 50.07000 42.85500
H  52.07800 52.04700 44.37300
H  53.80200 51.79900 44.37300
H  52.89900 50.81600 45.37700
H  47.78600 50.68700 44.25500
H  45.99000 50.28700 44.31500
H  46.66700 51.16800 42.93700
H  44.76700 47.13000 39.76900
H  42.08900 45.25700 43.46700
H  43.45500 44.07900 43.77600
H  42.46500 43.94700 42.33400
Mg -11.44600 39.79300 39.32400
C  -10.38400 36.56800 38.15300
C  -8.44400 41.02700 38.29800
C  -12.74300 42.84300 39.54300
C  -14.62800 38.46000 39.61400
N  -9.65500 38.89600 38.26800
C  -9.40400 37.57300 38.02400
C  -7.99500 37.40500 37.43600
C  -7.36900 38.81400 37.80000
C  -8.56800 39.65200 38.11800
C  -6.26900 38.74500 38.93400
C  -8.03300 37.10600 35.92000
C  -7.17400 35.93100 35.40100
H  -7.97600 35.09000 34.33300
N  -10.69300 41.72300 39.01900
C  -9.45900 42.02700 38.61200
C  -9.26600 43.47800 38.51800
C  -10.55100 44.04000 38.85800
C  -11.39000 42.88900 39.23100
C  -8.02400 44.24700 38.24200
C  -11.00100 45.51300 38.69300
O  -10.16500 46.34500 38.44300
C  -12.42700 46.02400 38.91600
N  -13.43400 40.50600 39.73500
C  -13.69300 41.85400 39.72000
C  -15.18300 42.13700 39.89600
C  -15.79600 40.68600 39.91500
C  -14.57000 39.84500 39.76000
C  -15.47200 43.07200 41.02300
C  -16.88200 40.39200 38.75600
C  -18.24600 39.98100 39.30600
N  -12.33000 37.85200 39.12400
C  -13.61600 37.52400 39.32300
C  -13.75600 36.11900 39.04500
C  -12.50100 35.65200 38.63800
C  -11.65800 36.80300 38.71900
C  -14.94600 35.24200 39.04200
C  -11.74400 34.47600 38.17900
O  -12.07900 33.31300 38.09400
C  -10.28000 35.00600 37.91900
C  -9.34500 34.49900 38.87500
O  -9.56100 34.51200 40.06700
O  -8.21500 34.06800 38.20700
C  -7.13400 33.56900 38.94300
H  -7.45200 41.42600 38.07200
H  -13.12600 43.85300 39.70300
H  -15.60600 37.97400 39.61200
H  -7.45000 36.67400 38.03300
H  -6.81600 39.17900 36.93400
H  -5.36800 39.17600 38.49700
H  -6.09300 37.70000 39.19200
H  -6.59700 39.26200 39.83500
H  -7.56600 37.86900 35.29700
H  -9.05800 37.07400 35.55200
H  -6.92400 35.27000 36.23100
H  -6.28600 36.34800 34.92500
H  -7.90600 44.99900 39.02200
H  -8.18400 44.76000 37.29300
H  -7.03200 43.81200 38.11600
H  -12.99700 45.66800 38.05800
H  -12.39100 47.10500 38.77800
H  -12.82500 45.88100 39.92000
H  -15.52000 42.68000 39.01300
H  -16.06400 40.63700 40.97000
H  -15.66900 44.06100 40.60700
H  -14.67500 43.23000 41.74900
H  -16.37800 42.81000 41.56900
H  -16.42300 39.56600 38.21200
H  -17.06900 41.24200 38.10000
H  -18.22800 38.91200 39.52000
H  -19.02800 40.25800 38.59800
H  -18.31000 40.39500 40.31200
H  -15.68900 35.07800 39.82200
H  -14.57200 34.24800 38.79800
H  -15.54100 35.46500 38.15700
H  -10.01900 34.75200 36.89100
H  -6.48000 33.22900 38.14000
H  -7.42000 32.81500 39.67600
H  -6.62200 34.36300 39.48600

