158

Mg 8.08800 3.36700 27.51200
C  8.99100 1.58500 30.36000
C  6.19900 5.43900 29.47200
C  7.10500 5.02400 24.67600
C  9.72500 1.10300 25.53700
N  7.51100 3.45100 29.73100
C  8.17400 2.72300 30.68600
C  7.84000 3.31800 32.09800
C  7.06400 4.57200 31.72400
C  6.90300 4.48400 30.21700
C  5.66600 4.73800 32.49400
C  9.11100 3.60900 32.99600
C  8.93200 4.71600 34.15100
H  9.55600 4.52200 35.49600
N  6.83300 4.99900 27.18300
C  6.07500 5.61300 28.09600
C  5.15600 6.52600 27.45700
C  5.54000 6.55100 26.04300
C  6.53100 5.54300 25.91300
C  4.00500 7.34900 28.13300
C  4.97900 7.48500 24.99700
O  5.56400 7.51700 23.92100
C  3.83900 8.42400 25.21000
N  8.47000 3.15200 25.30600
C  7.93900 3.93800 24.39000
C  8.12600 3.36100 22.95000
C  9.18300 2.23500 23.26800
C  9.09200 2.10800 24.80900
C  6.75200 2.88700 22.28200
C  10.59300 2.47100 22.68100
C  11.22600 1.15200 22.20400
N  9.21900 1.75600 27.86600
C  9.89200 0.95700 26.93200
C  10.63500 -0.12700 27.68100
C  10.42700 0.20300 29.00900
C  9.35400 1.22500 29.03500
C  11.65500 -1.09300 27.15200
C  10.89100 -0.09100 30.41900
O  11.67500 -0.90800 30.93300
C  9.92500 0.72700 31.29800
C  9.24300 -0.28600 32.21400
O  8.24800 -0.92600 31.87900
O  9.82100 -0.30100 33.40400
C  9.32800 -1.46100 34.26800
H  5.80000 6.26600 30.06300
H  6.80000 5.59000 23.79400
H  10.24700 0.36800 24.92200
H  7.26100 2.49800 32.52100
H  7.69900 5.43900 31.90500
H  5.61500 5.69800 33.00900
H  5.38900 4.00300 33.25000
H  4.90800 4.62400 31.72000
H  9.96200 3.80200 32.34300
H  9.40200 2.68900 33.50300
H  7.86600 4.68500 34.37700
H  9.18800 5.67500 33.70200
H  4.27200 8.40500 28.09000
H  3.96400 7.16400 29.20600
H  3.05400 7.03300 27.70600
H  3.70900 9.00300 24.29600
H  3.96700 9.12600 26.03400
H  2.92700 7.82600 25.20800
H  8.54300 4.05800 22.22400
H  8.77000 1.27900 22.94800
H  5.93500 3.49900 22.66500
H  6.57500 1.82200 22.42800
H  6.91300 3.17500 21.24300
H  11.25400 2.84700 23.46200
H  10.61300 3.26500 21.93400
H  10.62000 0.32100 22.56500
H  12.23100 0.95400 22.57500
H  11.27900 0.90200 21.14400
H  12.14200 -1.73600 27.88600
H  12.35500 -0.53400 26.53100
H  11.15100 -1.83700 26.53500
H  10.64200 1.26400 31.91800
H  10.12500 -1.54800 35.00600
H  9.30300 -2.37000 33.66700
H  8.37400 -1.28700 34.76600
Mg 46.86700 17.05000 28.46600
C  45.05200 16.95400 31.44700
C  49.30600 18.44400 30.21800
C  48.10400 17.98100 25.57600
C  43.96000 15.83400 26.71200
N  47.05600 17.68700 30.60900
C  46.25500 17.49700 31.70000
C  46.82300 17.86900 33.03400
C  48.12300 18.58400 32.48100
C  48.28900 18.04600 31.03400
C  48.22000 20.13000 32.74800
C  47.05400 16.61700 33.87200
C  46.60400 16.70600 35.38400
H  46.04900 17.97000 36.08500
N  48.59000 17.95100 27.93000
C  49.47400 18.44600 28.80800
C  50.54000 19.01800 28.09600
C  50.35200 18.80000 26.69800
C  48.98900 18.26000 26.62300
C  51.62500 19.81800 28.80800
C  51.27500 19.12200 25.53100
O  50.84900 18.91900 24.41400
C  52.76900 19.56600 25.66400
N  46.10600 16.81700 26.41800
C  46.87300 17.31800 25.40200
C  46.21400 17.18700 24.06800
C  45.06500 16.27100 24.40900
C  45.01100 16.18900 25.97200
C  45.72800 18.54100 23.48000
C  45.00700 14.95400 23.57900
C  45.57700 13.62800 24.17400
N  44.87500 16.31500 28.92200
C  43.86900 15.82800 28.14000
C  42.76300 15.47500 29.01800
C  43.16000 15.89500 30.32300
C  44.48800 16.41400 30.19700
C  41.32300 15.07300 28.69900
C  42.74200 15.97900 31.72600
O  41.69400 15.60000 32.27800
C  43.98600 16.63600 32.43800
C  43.40900 17.89200 32.95800
O  43.32900 18.96500 32.37700
O  42.77500 17.60800 34.18400
C  41.77900 18.61800 34.68300
H  50.12100 18.81200 30.84500
H  48.52500 18.54700 24.74300
H  43.10500 15.41500 26.17800
H  46.16800 18.56300 33.56200
H  48.95200 18.13900 33.03100
H  47.24600 20.55600 32.99100
H  48.65900 20.69600 31.92600
H  48.87800 20.35800 33.58600
H  48.13000 16.47000 33.96100
H  46.58600 15.75200 33.40100
H  47.44000 16.40100 36.01300
H  45.96200 15.82500 35.41800
H  52.57500 19.42700 28.44400
H  51.79800 19.61800 29.86500
H  51.56300 20.88500 28.59700
H  52.66200 20.65000 25.69700
H  53.25100 19.22600 24.74700
H  53.28700 19.13900 26.52300
H  46.94500 16.69400 23.42700
H  44.09800 16.71200 24.16600
H  45.68600 19.16900 24.37000
H  44.72600 18.48200 23.05500
H  46.48400 18.83700 22.75300
H  45.46600 15.13500 22.60700
H  43.95100 14.70900 23.46800
H  44.74200 12.95900 24.38000
H  46.16700 13.79000 25.07700
H  46.14400 13.02200 23.46800
H  41.06100 15.44300 27.70800
H  40.70500 15.64200 29.39400
H  41.15000 13.99700 28.69100
H  44.22600 16.12100 33.36800
H  40.86900 18.52900 34.08900
H  42.17800 19.62600 34.56600
H  41.65000 18.43000 35.74900

