158

Mg 3.54600 -0.05600 44.43100
C  6.91900 0.12800 43.96700
C  3.21400 2.72800 42.25300
C  0.16700 -0.62700 43.96200
C  3.81500 -2.97100 46.17000
N  4.95000 1.20000 43.18200
C  6.31900 1.09300 43.14200
C  6.98600 2.09200 42.25300
C  5.76300 3.07600 42.03400
C  4.54200 2.29900 42.54800
C  5.87600 4.47100 42.80000
C  7.64500 1.44400 40.96900
C  8.29700 2.45100 39.99500
H  7.62200 2.72700 38.73800
N  1.93300 1.03900 43.44600
C  2.01200 2.13200 42.62800
C  0.69300 2.48800 42.03800
C  -0.18800 1.53100 42.50200
C  0.63300 0.61800 43.38700
C  0.47800 3.71500 41.20400
C  -1.65700 1.45000 42.18600
O  -2.18900 2.23600 41.41000
C  -2.57800 0.33800 42.74000
N  2.17200 -1.59500 44.98900
C  0.81800 -1.52200 44.71700
C  0.16900 -2.86600 45.18300
C  1.25900 -3.55500 45.96200
C  2.51600 -2.68000 45.70900
C  -1.14200 -2.61000 46.10400
C  1.58500 -5.07000 45.66700
C  0.37400 -5.91500 45.22300
N  5.00400 -1.18100 45.05800
C  4.98900 -2.34800 45.81700
C  6.37200 -2.70200 46.06000
C  7.14700 -1.71300 45.41600
C  6.27000 -0.83600 44.76100
C  6.76700 -3.89700 46.83100
C  8.50300 -1.23900 45.07500
O  9.59400 -1.66600 45.43600
C  8.43400 -0.07400 44.11800
C  9.02300 1.13500 44.84200
O  8.73400 1.56300 45.91600
O  9.86200 1.66500 43.91600
C  10.31000 3.00000 44.29500
H  3.29200 3.67300 41.71100
H  -0.88400 -0.91100 43.87500
H  3.86300 -3.83600 46.83500
H  7.81000 2.55700 42.79500
H  5.64800 3.31800 40.97800
H  6.69600 4.51200 43.51700
H  4.96300 4.65600 43.36500
H  6.05000 5.24900 42.05600
H  6.84400 0.86200 40.51200
H  8.51000 0.83200 41.22300
H  9.34000 2.20400 39.79700
H  8.32700 3.44500 40.44100
H  1.03800 3.59400 40.27700
H  0.97400 4.62700 41.53600
H  -0.53500 3.94500 40.87500
H  -3.60500 0.36800 42.37600
H  -2.63200 0.38600 43.82800
H  -2.24300 -0.67100 42.50000
H  -0.07100 -3.36100 44.24200
H  1.08000 -3.51200 47.03600
H  -1.84500 -3.35000 45.72100
H  -1.49000 -1.58100 46.18600
H  -0.95800 -2.92800 47.13100
H  2.04200 -5.54100 46.53700
H  2.35300 -5.05700 44.89400
H  0.61000 -6.53800 44.36100
H  -0.57400 -5.39300 45.09600
H  0.22300 -6.66300 46.00200
H  7.69200 -3.78900 47.39700
H  6.99300 -4.78300 46.23700
H  5.99100 -4.25600 47.50700
H  8.94800 -0.44600 43.23100
H  10.57400 3.47600 43.35100
H  11.16100 3.11400 44.96700
H  9.58600 3.68500 44.73800
Mg 17.03000 -1.77400 28.05100
C  16.04100 0.57400 30.63800
C  18.30800 -3.65500 30.51000
C  18.40600 -3.64300 25.74400
C  16.22500 0.67900 25.74000
N  17.23100 -1.48400 30.19800
C  16.72600 -0.55700 31.07800
C  17.13500 -0.86100 32.51600
C  18.17400 -2.06500 32.39000
C  17.92200 -2.40600 30.91700
C  19.64600 -1.66900 32.69100
C  15.96700 -1.17200 33.40000
C  15.97300 -0.67500 34.84000
H  17.29500 -0.07100 35.28000
N  18.03300 -3.50600 28.11500
C  18.42800 -4.16600 29.21200
C  18.84900 -5.49300 28.77300
C  18.90000 -5.49200 27.38500
C  18.45200 -4.15700 27.04200
C  19.30700 -6.50600 29.74100
C  19.35400 -6.56300 26.41500
O  19.41100 -6.38700 25.20800
C  19.72400 -7.86300 27.06600
N  17.19800 -1.48800 26.06700
C  17.86500 -2.44200 25.29900
C  18.04000 -1.89300 23.86400
C  17.28800 -0.53000 23.83600
C  16.89900 -0.41300 25.35600
C  19.52900 -1.77500 23.38400
C  16.03900 -0.50100 22.85800
C  15.76600 0.86800 22.11600
N  16.02500 0.10700 28.13300
C  15.79100 0.97900 27.07300
C  15.20900 2.20700 27.56700
C  15.31000 2.07100 28.93500
C  15.81100 0.82100 29.24700
C  14.74400 3.37600 26.71100
C  15.02500 2.70700 30.24000
O  14.41000 3.71900 30.53700
C  15.68300 1.84200 31.41500
C  16.80400 2.60800 31.99200
O  17.94600 2.74300 31.52700
O  16.38900 3.33000 33.13500
C  17.52600 3.93800 33.79300
H  18.59600 -4.19800 31.41200
H  18.79900 -4.13400 24.85100
H  16.14000 1.50300 25.02800
H  17.73900 0.01200 32.76200
H  17.82800 -2.90300 32.99500
H  19.75000 -0.64300 33.04300
H  20.20800 -1.62600 31.75800
H  20.10800 -2.45200 33.29200
H  15.63400 -2.20800 33.47400
H  15.11600 -0.73100 32.88200
H  15.54800 -1.40300 35.53200
H  15.23900 0.11100 35.01900
H  18.69200 -7.40500 29.77800
H  19.32400 -5.95300 30.68100
H  20.36100 -6.70900 29.55300
H  19.85300 -8.55500 26.23400
H  18.94100 -8.31400 27.67500
H  20.72500 -7.72100 27.47300
H  17.52500 -2.68800 23.32600
H  17.86900 0.35700 23.58200
H  20.13700 -1.95400 24.27100
H  19.87800 -0.84000 22.94600
H  19.72400 -2.53700 22.63000
H  15.17700 -0.93100 23.36800
H  16.16900 -1.19000 22.02300
H  14.87700 1.28700 22.58700
H  15.54400 0.84500 21.04900
H  16.68000 1.46200 22.11700
H  13.80900 3.24700 26.16700
H  15.36900 3.80600 25.93000
H  14.55100 4.17500 27.42700
H  14.92000 1.59500 32.15300
H  17.76300 4.95400 33.47900
H  18.49500 3.46400 33.95100
H  17.20500 4.02100 34.83100

