158

Mg 24.96600 2.01800 30.43700
C  27.39900 1.56900 32.99300
C  22.55500 2.08900 32.86200
C  22.66000 1.88600 28.05000
C  27.41900 1.26100 28.05400
N  24.99700 1.74900 32.67100
C  26.11000 1.76000 33.51800
C  25.63400 2.13500 34.98100
C  24.10500 2.09400 34.84600
C  23.83600 1.97800 33.37800
C  23.41000 0.97200 35.69100
C  26.32400 3.47900 35.34100
C  27.25800 3.54900 36.57200
H  26.62900 4.40100 37.74700
N  22.90800 1.93700 30.49000
C  22.07400 1.94800 31.55700
C  20.70600 1.97100 31.14300
C  20.69400 1.82400 29.73000
C  22.13200 1.85800 29.34300
C  19.61400 2.08800 32.18300
C  19.56600 1.67300 28.76200
O  19.69700 1.56600 27.56100
C  18.07900 1.77800 29.15500
N  25.10600 1.61300 28.32000
C  23.97500 1.76200 27.57000
C  24.27200 1.86900 26.14100
C  25.85000 1.55600 26.07000
C  26.17600 1.47800 27.51600
C  23.53900 0.95200 25.12300
C  26.63800 2.59000 25.28300
C  27.45100 2.15300 24.00900
N  26.97200 1.63200 30.47800
C  27.86200 1.26000 29.37700
C  29.15800 0.91500 29.99700
C  28.98700 1.11600 31.39600
C  27.71600 1.46400 31.59400
C  30.39100 0.51600 29.28700
C  29.81700 1.14800 32.58600
O  31.00300 1.02600 32.75400
C  28.70400 1.40000 33.72300
C  28.62500 0.39800 34.73000
O  28.30100 -0.75700 34.54600
O  28.98600 0.89800 35.96300
C  28.76600 0.08900 37.07400
H  21.75800 2.17800 33.60300
H  22.07300 1.94100 27.13100
H  28.31700 1.13200 27.44500
H  25.94900 1.36800 35.68800
H  23.61800 2.99800 35.21100
H  23.17700 0.17100 34.98900
H  22.56200 1.40400 36.22100
H  24.07600 0.60900 36.47400
H  25.53200 4.20200 35.53700
H  26.95900 3.86900 34.54600
H  28.19700 4.00100 36.25300
H  27.46900 2.56800 36.99700
H  19.83500 2.25400 33.23700
H  19.01900 1.18500 32.04900
H  19.02400 2.92900 31.82100
H  17.72900 0.93100 29.74500
H  17.40600 1.91300 28.30900
H  18.00600 2.62500 29.83700
H  24.17400 2.94900 26.02400
H  26.19200 0.57500 25.74000
H  22.47000 1.10300 25.27800
H  23.94000 -0.03100 25.37000
H  23.77600 1.24600 24.10000
H  27.23500 3.06300 26.06300
H  25.97400 3.33500 24.84500
H  27.01500 2.65300 23.14400
H  27.38900 1.07800 23.84300
H  28.50900 2.38500 24.13200
H  30.34600 0.59700 28.20100
H  30.67000 -0.51800 29.49300
H  31.11400 1.24200 29.66000
H  28.85700 2.35200 34.23200
H  29.71000 0.20900 37.60400
H  28.76100 -0.96600 36.79800
H  27.88800 0.33700 37.67000
Mg 27.47000 51.23200 25.95900
C  25.31700 52.37200 28.66700
C  29.54600 50.11700 28.31500
C  29.44700 50.52400 23.46500
C  25.24800 52.86100 23.83100
N  27.42500 51.33500 28.23700
C  26.40400 51.62200 29.08600
C  26.83600 51.42600 30.53400
C  28.33500 51.05600 30.42600
C  28.49800 50.84100 28.89400
C  29.29600 52.08900 31.06800
C  25.92300 50.39200 31.19000
C  25.00300 50.90800 32.36000
H  25.22000 50.16800 33.60800
N  29.30500 50.52300 25.96400
C  29.97300 49.95900 26.98900
C  31.23100 49.33500 26.51400
C  31.12600 49.39900 25.09500
C  29.89900 50.21200 24.75900
C  32.25000 48.67600 27.33000
C  32.14100 48.79700 24.12900
O  32.06200 49.08500 22.92500
C  33.22000 47.86900 24.51100
N  27.20100 51.50300 23.96700
C  28.19000 51.14400 23.11800
C  27.93800 51.49400 21.66700
C  26.49300 52.07400 21.73600
C  26.27800 52.18500 23.25800
C  28.92300 52.53000 20.91700
C  25.38100 51.14200 21.19300
C  24.32600 51.87900 20.47600
N  25.66900 52.35100 26.14300
C  24.98900 53.01400 25.15900
C  23.71500 53.63500 25.65900
C  23.88600 53.52000 27.12000
C  25.03100 52.64900 27.28900
C  22.65000 54.37300 24.83300
C  23.29800 53.83000 28.44900
O  22.35000 54.49700 28.80400
C  24.17600 53.06800 29.52300
C  24.70100 54.04300 30.52500
O  25.68900 54.79500 30.36400
O  24.03900 53.95800 31.68100
C  24.59700 54.84000 32.78700
H  30.16500 49.66900 29.09500
H  30.10700 50.22200 22.64800
H  24.52200 53.21000 23.09400
H  26.75400 52.38800 31.04100
H  28.41300 50.08800 30.92200
H  28.83100 52.78300 31.76800
H  29.59300 52.83600 30.33200
H  30.17700 51.60600 31.49000
H  26.53700 49.54900 31.50800
H  25.27700 49.87900 30.47700
H  23.97500 50.85000 32.00400
H  25.30300 51.94200 32.53200
H  32.29700 47.58900 27.27800
H  32.10400 48.95400 28.37400
H  33.24400 49.10800 27.21500
H  34.04100 48.40600 24.98700
H  33.58600 47.54600 23.53600
H  32.88600 46.96500 25.02100
H  27.91300 50.56300 21.10100
H  26.46200 53.09000 21.34100
H  28.42700 53.41400 20.51600
H  29.43800 51.89000 20.20200
H  29.66000 53.00500 21.56500
H  24.81700 50.74600 22.03800
H  25.79700 50.33700 20.58700
H  24.57100 51.82100 19.41500
H  24.25700 52.90300 20.84300
H  23.40700 51.30100 20.58000
H  22.98800 55.23600 24.25900
H  21.79500 54.63900 25.45500
H  22.21000 53.59900 24.20500
H  23.60900 52.28200 30.02100
H  24.18700 54.34400 33.66600
H  24.24800 55.87100 32.73200
H  25.66700 55.04800 32.80400

