158

Mg 47.71500 16.43400 28.63100
C  45.76500 15.98700 31.47300
C  49.74300 18.64700 30.49300
C  49.32100 17.07900 25.92200
C  45.04700 15.09400 26.74500
N  47.79900 17.19000 30.73500
C  46.94200 16.74700 31.74200
C  47.48200 17.23800 33.11100
C  48.56800 18.23200 32.67300
C  48.71800 18.02800 31.16500
C  48.19700 19.74100 32.96600
C  48.05200 16.02300 33.86500
C  48.06200 16.10100 35.38100
H  47.88800 17.38600 36.11900
N  49.43600 17.53400 28.32500
C  50.11000 18.45700 29.14200
C  51.21600 19.02700 28.45000
C  51.13900 18.43700 27.12900
C  49.94600 17.65200 27.09300
C  52.33400 19.73100 29.15900
C  51.96500 18.79600 25.96000
O  51.92600 18.24400 24.86800
C  52.86200 19.88500 25.93700
N  47.12400 16.26800 26.58100
C  48.11200 16.50700 25.67400
C  47.64900 16.15500 24.25000
C  46.40700 15.20600 24.50400
C  46.12200 15.62000 26.02600
C  47.30200 17.36700 23.32900
C  46.65000 13.69300 24.48600
C  45.89800 12.92200 23.35700
N  45.82000 15.68600 28.99400
C  44.88400 15.10500 28.11300
C  43.79600 14.58900 28.88300
C  44.12400 14.97700 30.21500
C  45.31200 15.59700 30.20600
C  42.58800 13.75900 28.33600
C  43.65100 14.95800 31.57600
O  42.60900 14.54500 32.08400
C  44.69200 15.64600 32.44300
C  43.97200 16.76900 33.10500
O  43.34300 17.65700 32.54100
O  44.06700 16.59300 34.48300
C  43.31100 17.46800 35.36500
H  50.44500 19.22800 31.09500
H  49.94900 17.23500 25.04200
H  44.26600 14.72900 26.07400
H  46.74700 17.82700 33.65800
H  49.53200 18.09000 33.16200
H  47.12600 19.83600 33.14300
H  48.47500 20.32800 32.09100
H  48.74800 20.12100 33.82700
H  49.09300 15.90400 33.56200
H  47.60400 15.08300 33.54100
H  48.95900 15.59600 35.74100
H  47.24900 15.48400 35.76300
H  53.33800 19.60400 28.75200
H  52.55200 19.24500 30.11000
H  52.13400 20.79400 29.29000
H  52.85700 20.48100 26.85000
H  52.75200 20.48400 25.03300
H  53.88900 19.53200 25.85000
H  48.39600 15.49900 23.80200
H  45.71800 15.47300 23.70300
H  46.47300 16.99400 22.72700
H  48.19300 17.51400 22.71800
H  47.11800 18.30100 23.85900
H  46.39100 13.31500 25.47500
H  47.72500 13.52600 24.41500
H  46.42800 11.99700 23.13100
H  45.89000 13.50700 22.43700
H  44.88700 12.74800 23.72600
H  42.64000 12.71200 28.63400
H  42.66000 13.97900 27.27100
H  41.63600 14.24300 28.55600
H  44.98100 14.89300 33.17600
H  43.22500 16.97900 36.33500
H  42.30000 17.42700 34.95800
H  43.58400 18.50900 35.53900
Mg 48.99900 46.69300 43.45700
C  45.75000 46.96200 42.03500
C  49.21900 43.70000 41.80200
C  52.28200 46.81400 44.01500
C  48.66200 49.96800 44.61000
N  47.67000 45.48900 41.99900
C  46.37000 45.77700 41.54300
C  45.79000 44.74000 40.58100
C  46.91300 43.66200 40.72600
C  48.02900 44.33700 41.58500
C  46.43200 42.15300 41.15700
C  45.29900 45.25400 39.17400
C  44.09000 44.64400 38.43000
H  44.30900 43.78900 37.14600
N  50.52100 45.38200 43.06200
C  50.37500 44.13400 42.45300
C  51.74500 43.49900 42.49000
C  52.57000 44.36800 43.25300
C  51.80800 45.60500 43.47400
C  51.95200 42.06100 42.04100
C  53.97200 43.91600 43.68900
O  54.48500 42.84600 43.35800
C  54.85000 44.91500 44.57000
N  50.21700 48.15800 44.36400
C  51.58200 47.96300 44.42200
C  52.32900 49.27500 44.98100
C  51.09700 50.16800 45.37600
C  49.86100 49.39400 44.71700
C  53.36300 48.96300 46.02400
C  51.20300 51.66300 44.85800
C  50.97100 52.72300 45.93000
N  47.58300 48.24000 43.27100
C  47.55500 49.42900 43.96200
C  46.19600 49.92900 44.02000
C  45.42000 49.00900 43.18700
C  46.35100 48.05400 42.75500
C  45.70500 51.17100 44.69200
C  44.10600 48.67300 42.72500
O  43.03500 49.17400 42.98600
C  44.41800 47.55700 41.66000
C  43.30700 46.54700 41.59100
O  43.09100 45.78700 42.46500
O  42.40800 46.78500 40.63100
C  41.15900 46.01500 40.57300
H  49.32500 42.69000 41.40100
H  53.36700 46.94000 44.03900
H  48.55000 50.96900 45.03100
H  44.83700 44.45400 41.02600
H  47.37200 43.54800 39.74400
H  47.00900 41.86400 42.03600
H  46.76800 41.52200 40.33400
H  45.38100 41.89200 41.27700
H  46.12300 44.98900 38.51200
H  45.26400 46.34400 39.15300
H  43.58700 45.53800 38.06000
H  43.36200 44.17200 39.08900
H  52.47800 42.09300 41.08700
H  51.07700 41.41000 42.03900
H  52.52200 41.51300 42.79100
H  54.18000 45.33400 45.32100
H  55.42300 45.55000 43.89400
H  55.49200 44.29500 45.19500
H  52.80100 49.69200 44.09100
H  51.02400 50.13000 46.46300
H  53.63200 47.90700 46.02200
H  53.02600 49.09400 47.05200
H  54.28200 49.50300 45.79400
H  50.38800 51.68700 44.13300
H  52.06600 51.87600 44.22700
H  49.90000 52.91400 45.86000
H  51.50400 53.67100 46.00600
H  51.08600 52.14100 46.84500
H  44.63600 51.17800 44.90600
H  46.01000 52.00000 44.05300
H  46.26100 51.25500 45.62600
H  44.43300 47.87300 40.61700
H  40.87500 45.60500 41.54200
H  41.11600 45.17000 39.88500
H  40.37000 46.70400 40.27300

