158

Mg 17.87300 51.34900 25.87700
C  19.58000 49.94900 28.67700
C  15.26200 52.08400 28.12100
C  15.90400 52.15900 23.30400
C  20.00500 49.77200 23.79900
N  17.56300 51.22400 28.22000
C  18.33500 50.55600 29.04400
C  17.80400 50.65100 30.56200
C  16.34100 51.07700 30.22600
C  16.42000 51.55100 28.73900
C  15.22600 49.99300 30.53800
C  18.63000 51.56100 31.50000
C  18.61900 51.26400 33.01200
H  17.48800 50.30700 33.57900
N  15.96700 52.19700 25.74100
C  15.03900 52.30600 26.76800
C  13.77800 52.83800 26.25800
C  14.03200 53.06900 24.83900
C  15.38700 52.54000 24.60100
C  12.63600 53.25400 27.05800
C  13.14400 53.74200 23.79400
O  13.41500 53.73900 22.61300
C  11.73400 54.33400 24.23800
N  17.82000 50.81500 23.71000
C  17.04300 51.42900 22.88600
C  17.41300 51.21800 21.42300
C  18.80400 50.36100 21.53900
C  18.88500 50.27300 23.06300
C  16.35000 50.65000 20.52100
C  20.04900 51.08200 20.97900
C  20.90800 50.20100 20.07300
N  19.44600 50.23400 26.08900
C  20.28700 49.60800 25.16800
C  21.32800 48.82500 25.81200
C  21.12300 48.99000 27.21200
C  19.96500 49.88600 27.31100
C  22.36300 48.03000 25.18400
C  21.68100 48.64900 28.52000
O  22.63100 47.95100 28.85300
C  20.65400 49.32100 29.56400
C  20.11200 48.21300 30.33500
O  19.23600 47.45000 29.96300
O  20.72000 48.13800 31.57300
C  20.31800 47.06500 32.40600
H  14.48100 52.14500 28.88200
H  15.28200 52.32400 22.42100
H  20.73100 49.44900 23.05000
H  17.91200 49.63800 30.95000
H  16.15400 52.00600 30.76500
H  14.72200 49.55500 29.67600
H  14.50000 50.42400 31.22600
H  15.60200 49.16300 31.13600
H  18.23800 52.55800 31.29900
H  19.64700 51.36300 31.16200
H  18.58100 52.23000 33.51700
H  19.52100 50.74000 33.32700
H  12.79000 54.18300 27.60700
H  12.52500 52.42600 27.75800
H  11.73600 53.41400 26.46400
H  11.86700 55.07000 25.03100
H  11.02200 53.56700 24.54300
H  11.26000 54.83000 23.39100
H  17.63900 52.22300 21.06800
H  18.70700 49.40300 21.02800
H  15.38000 50.58300 21.01400
H  16.62200 49.65100 20.18100
H  16.13500 51.22100 19.61800
H  20.71600 51.40000 21.78000
H  19.62200 51.95100 20.47900
H  21.01000 49.17100 20.41400
H  21.91500 50.59700 19.94300
H  20.31600 50.20600 19.15800
H  22.84600 48.62600 24.40900
H  21.94400 47.10000 24.79900
H  22.99800 47.77400 26.03100
H  21.22100 50.03200 30.16500
H  20.52600 46.17400 31.81400
H  19.25400 47.11200 32.63800
H  20.87500 46.98600 33.34000
Mg -2.51600 33.85700 25.80900
C  -4.06500 32.54500 28.68900
C  -0.90600 36.08100 27.52300
C  -1.66900 35.20700 22.78700
C  -4.61500 31.63700 23.99000
N  -2.59700 34.26000 27.90200
C  -3.29500 33.64900 28.92600
C  -2.92600 34.20000 30.27900
C  -1.95000 35.40800 29.83700
C  -1.79400 35.25300 28.30600
C  -2.57100 36.80800 30.26900
C  -2.07500 33.26600 31.18300
C  -1.71500 33.67300 32.63300
H  -2.27200 32.85000 33.74100
N  -1.35100 35.31700 25.22900
C  -0.73100 36.20700 26.11000
C  0.17300 37.05000 25.42400
C  -0.04800 36.83500 24.02700
C  -1.04600 35.71500 23.90500
C  1.03500 38.02400 26.18600
C  0.58200 37.60100 22.86600
O  0.31700 37.37600 21.68700
C  1.68500 38.52900 23.12700
N  -3.07100 33.51000 23.57300
C  -2.61000 34.21600 22.57000
C  -3.21400 33.84600 21.24700
C  -3.70700 32.38600 21.65300
C  -3.87900 32.55200 23.17100
C  -4.33900 34.77900 20.76000
C  -2.60600 31.24600 21.48700
C  -3.14300 29.91900 21.01900
N  -3.95900 32.34800 26.17800
C  -4.56000 31.44800 25.37200
C  -5.28000 30.47600 26.16300
C  -5.08000 30.88800 27.48100
C  -4.30300 32.03000 27.39700
C  -6.20000 29.46400 25.64900
C  -5.49400 30.61800 28.85900
O  -6.25100 29.80700 29.33300
C  -4.82100 31.69300 29.68200
C  -5.92700 32.47900 30.30900
O  -6.94300 32.89100 29.82000
O  -5.76700 32.36500 31.67500
C  -6.99400 32.78000 32.37800
H  -0.30100 36.73200 28.15800
H  -1.27700 35.67000 21.87900
H  -5.16400 30.86200 23.45000
H  -3.76900 34.54900 30.87500
H  -0.94900 35.37200 30.26600
H  -2.85600 37.40000 29.39900
H  -1.83400 37.40700 30.80400
H  -3.49200 36.71500 30.84300
H  -1.17800 32.86900 30.70800
H  -2.69300 32.43400 31.52300
H  -2.10600 34.66100 32.87600
H  -0.63400 33.76900 32.73900
H  0.61000 38.20000 27.17400
H  1.11200 39.00300 25.71300
H  2.04300 37.61800 26.27900
H  2.18200 38.72400 22.17700
H  2.38100 38.05100 23.81600
H  1.34900 39.39900 23.69300
H  -2.49800 33.60200 20.46100
H  -4.61600 32.19900 21.08100
H  -4.53900 35.57300 21.48000
H  -5.25600 34.23600 20.53500
H  -4.11800 35.24200 19.79800
H  -2.11600 31.03300 22.43800
H  -1.87100 31.55300 20.74300
H  -2.97500 29.83500 19.94500
H  -4.21100 29.76000 21.16800
H  -2.59900 29.15700 21.57600
H  -5.73000 28.87200 24.86400
H  -6.91500 30.10800 25.13700
H  -6.70700 28.83700 26.38300
H  -4.28000 31.21200 30.49700
H  -7.89300 32.23800 32.08500
H  -7.18000 33.83300 32.16400
H  -6.90600 32.79800 33.46400

