158

Mg 35.31100 3.07000 30.43800
C  33.11700 3.88900 33.05600
C  37.76200 2.90300 32.88400
C  37.44900 2.14500 27.97600
C  32.80000 3.27000 28.14200
N  35.42600 3.46700 32.74200
C  34.35000 3.65900 33.55300
C  34.78400 3.59400 35.03000
C  36.35200 3.47200 34.97300
C  36.51200 3.21900 33.46400
C  36.97800 4.75800 35.55500
C  34.21400 2.39800 35.78800
C  33.77500 2.63200 37.26100
H  34.75900 3.24600 38.30900
N  37.27500 2.56200 30.50500
C  38.18800 2.54500 31.57300
C  39.50000 2.15500 31.14500
C  39.35700 1.74700 29.77300
C  37.97700 2.14000 29.34400
C  40.77100 2.16700 31.99800
C  40.43200 1.14200 28.83900
O  40.21700 0.95300 27.66500
C  41.86100 0.91400 29.32500
N  35.20900 2.76800 28.33000
C  36.15700 2.33300 27.53400
C  35.71100 2.12800 26.12500
C  34.18500 2.56300 26.24100
C  34.01700 2.85700 27.68600
C  36.35500 2.99800 25.03600
C  33.14500 1.61100 25.62400
C  32.99900 0.30800 26.39600
N  33.41900 3.52100 30.52900
C  32.47400 3.61400 29.51900
C  31.20200 3.93200 30.01100
C  31.39600 3.98400 31.37700
C  32.74100 3.76200 31.67900
C  29.91200 4.09300 29.26000
C  30.74600 4.30700 32.64500
O  29.61000 4.73400 32.89500
C  31.86000 4.08700 33.80400
C  31.72300 5.21100 34.76700
O  32.11700 6.33400 34.61800
O  31.14500 4.72000 35.93700
C  30.79500 5.76900 36.90600
H  38.63100 2.92300 33.54600
H  38.06900 1.77000 27.15900
H  31.94400 3.43500 27.48400
H  34.60000 4.51900 35.57600
H  36.81400 2.66500 35.54100
H  36.29600 5.34300 36.17200
H  37.25500 5.40000 34.71800
H  37.78100 4.42800 36.21400
H  34.99500 1.65400 35.94100
H  33.39200 1.86000 35.31600
H  33.50800 1.61100 37.53100
H  32.86700 3.23500 37.27600
H  41.30400 1.22600 32.13600
H  40.52900 2.58700 32.97400
H  41.53900 2.72700 31.46500
H  42.37900 0.11700 28.79200
H  41.76500 0.36200 30.26000
H  42.52600 1.77500 29.38200
H  35.89500 1.13700 25.71200
H  34.02500 3.55000 25.80700
H  36.68100 3.93800 25.48200
H  35.62400 3.26100 24.27200
H  37.24800 2.49700 24.66100
H  33.53800 1.25200 24.67200
H  32.20500 2.13900 25.46600
H  32.57700 -0.44300 25.72900
H  32.20000 0.35500 27.13600
H  33.94100 -0.01700 26.83800
H  29.90900 5.00000 28.65600
H  29.02800 4.13700 29.89600
H  29.81300 3.30200 28.51700
H  31.70700 3.12200 34.28700
H  31.23100 5.31400 37.79500
H  29.71100 5.76600 37.01800
H  31.12900 6.80300 36.82700
Mg -5.88400 25.33100 25.52800
C  -4.13200 26.88700 28.27900
C  -7.21100 23.21300 27.67700
C  -6.73800 23.53500 22.82100
C  -3.55600 27.22500 23.42400
N  -5.61300 25.03600 27.85800
C  -5.05900 25.91600 28.73600
C  -5.55600 25.73700 30.12200
C  -6.35000 24.39200 29.95100
C  -6.42100 24.18400 28.40800
C  -5.75800 23.25700 30.85400
C  -6.38500 26.92200 30.70000
C  -6.36400 27.10900 32.22100
H  -5.76200 25.99500 33.11000
N  -7.07700 23.74300 25.26500
C  -7.39300 22.86800 26.32600
C  -8.14600 21.81700 25.72800
C  -8.09900 21.86400 24.33800
C  -7.28500 23.05400 24.04800
C  -8.83700 20.76900 26.53700
C  -8.61000 20.99600 23.24700
O  -8.59100 21.26700 22.07600
C  -9.28100 19.68800 23.70400
N  -5.25500 25.40700 23.45300
C  -5.91000 24.61300 22.54100
C  -5.33000 24.88300 21.12600
C  -4.42000 26.15800 21.26100
C  -4.43000 26.29000 22.80500
C  -4.80800 23.69700 20.30600
C  -4.81900 27.36600 20.39100
C  -4.09200 27.53400 19.05500
N  -4.27000 26.89900 25.69200
C  -3.47300 27.55800 24.77900
C  -2.57600 28.45200 25.48300
C  -2.82100 28.22700 26.84000
C  -3.79800 27.31700 26.91700
C  -1.56600 29.42200 24.94400
C  -2.39000 28.54800 28.18600
O  -1.52900 29.36000 28.50400
C  -3.27100 27.64700 29.17300
C  -2.31700 26.75400 29.93600
O  -1.61000 25.85300 29.45600
O  -2.34000 27.09900 31.30400
C  -1.48500 26.33700 32.14100
H  -7.59700 22.58300 28.48000
H  -7.04200 22.94800 21.95100
H  -2.88300 27.70700 22.71300
H  -4.71800 25.56400 30.79700
H  -7.42100 24.54500 30.07700
H  -5.50800 22.42100 30.20100
H  -6.55000 23.07100 31.57900
H  -4.82100 23.54100 31.33400
H  -7.46500 26.78300 30.64200
H  -6.11000 27.85600 30.21000
H  -7.42100 27.14500 32.48400
H  -5.88900 28.07400 32.39600
H  -9.88200 20.87500 26.24400
H  -8.97600 21.01400 27.59000
H  -8.35500 19.80100 26.40000
H  -9.42600 19.12200 22.78400
H  -10.24400 19.92600 24.15600
H  -8.65400 19.23300 24.47100
H  -6.23700 25.10900 20.56600
H  -3.41000 25.81100 21.04400
H  -4.96700 22.74000 20.80300
H  -3.76200 23.70300 20.00200
H  -5.34500 23.71600 19.35800
H  -4.62800 28.32000 20.88300
H  -5.90000 27.42200 20.26400
H  -4.81500 27.67300 18.25100
H  -3.44000 26.67700 18.88400
H  -3.51700 28.43600 19.26500
H  -2.14200 30.22400 24.48200
H  -0.86100 28.83800 24.35200
H  -1.05000 29.85900 25.79900
H  -3.77700 28.34700 29.83700
H  -0.51700 26.43900 31.65000
H  -1.71800 25.27400 32.20200
H  -1.33900 26.78300 33.12500

