158

Mg 0.77400 8.70200 26.38200
C  1.34400 10.49000 29.48900
C  0.39700 5.94800 28.28400
C  0.25700 7.12600 23.52100
C  1.08900 11.72900 24.73900
N  1.03600 8.18200 28.62600
C  1.09900 9.11300 29.72100
C  0.96400 8.33800 31.00300
C  0.98500 6.84200 30.69100
C  0.80100 6.96600 29.12100
C  2.29300 6.12100 31.18900
C  -0.30600 8.73900 31.83400
C  -0.27500 8.56700 33.40700
H  0.98400 8.04000 34.12300
N  0.49300 6.77900 25.89500
C  0.26900 5.80400 26.80100
C  -0.00100 4.57200 26.10700
C  0.00200 4.81900 24.71700
C  0.28700 6.29900 24.64300
C  -0.21900 3.19800 26.84900
C  -0.21200 3.90800 23.56500
O  -0.15700 4.26800 22.39300
C  -0.28900 2.47700 23.75400
N  0.70700 9.31100 24.42300
C  0.52300 8.51700 23.41600
C  0.58600 9.26600 22.10800
C  0.36200 10.80200 22.55900
C  0.75200 10.61200 24.01000
C  1.87500 8.98600 21.47200
C  -1.11200 11.31600 22.48300
C  -1.42200 12.67100 21.81700
N  1.12000 10.70800 26.89400
C  1.30000 11.77000 26.07000
C  1.61000 12.98000 26.86000
C  1.68500 12.53300 28.21000
C  1.28700 11.13000 28.15400
C  1.96200 14.31600 26.29600
C  2.02000 12.93500 29.56200
O  2.39500 14.01200 29.95000
C  1.58100 11.63300 30.54800
C  2.66600 11.49400 31.56700
O  3.66900 10.71700 31.43200
O  2.43700 12.34800 32.60900
C  3.29700 12.20900 33.71900
H  0.17900 5.09800 28.93200
H  -0.00700 6.73500 22.53600
H  1.23600 12.66500 24.19500
H  1.81000 8.62100 31.62900
H  0.19600 6.29200 31.20300
H  2.04400 5.32900 31.89600
H  3.02400 6.71200 31.74100
H  2.86700 5.64500 30.39400
H  -1.08900 8.10700 31.41500
H  -0.52500 9.77200 31.56300
H  -1.09600 7.90000 33.66900
H  -0.56600 9.55900 33.75400
H  -0.14500 2.30100 26.23400
H  -1.26300 3.28800 27.15000
H  0.30000 2.97900 27.78200
H  -1.18100 2.29800 24.35500
H  0.71500 2.22700 24.09600
H  -0.40700 2.08300 22.74500
H  -0.28700 8.88800 21.57500
H  1.08200 11.47500 22.09400
H  2.45700 8.22000 21.98500
H  2.56600 9.81800 21.33900
H  1.72600 8.57300 20.47500
H  -1.53800 11.41900 23.48100
H  -1.73900 10.52700 22.06800
H  -1.81800 12.47600 20.82000
H  -0.65500 13.44000 21.91400
H  -2.23600 13.15800 22.35500
H  2.87300 14.25200 25.70100
H  2.08500 14.97800 27.15300
H  1.08100 14.50700 25.68400
H  0.64800 11.92600 31.03000
H  4.25500 12.71400 33.59600
H  3.55500 11.17100 33.93200
H  2.82700 12.54900 34.64200
Mg 41.63100 8.93700 30.14500
C  43.50100 10.09100 32.81400
C  39.17700 7.93700 32.33200
C  39.96000 7.92900 27.44800
C  44.43400 9.48800 28.06500
N  41.34200 9.02900 32.33400
C  42.26600 9.50900 33.23900
C  41.71100 9.49600 34.70200
C  40.31300 8.51600 34.51900
C  40.25100 8.48000 32.96400
C  40.48400 7.08100 35.05400
C  41.49300 10.91600 35.26000
C  42.19400 11.29800 36.60300
H  41.41200 12.04000 37.70700
N  39.84300 8.00000 29.94600
C  38.91400 7.73700 30.93300
C  37.71600 7.25100 30.30800
C  37.95100 7.28100 28.88800
C  39.30300 7.78000 28.72300
C  36.58700 6.67500 31.07500
C  36.91600 7.07200 27.76200
O  37.22900 7.17800 26.54600
C  35.55900 6.73500 28.08800
N  42.12400 8.76800 28.07900
C  41.24400 8.36400 27.13300
C  41.81900 8.49600 25.66600
C  43.29300 8.92000 25.92600
C  43.37000 8.94100 27.45400
C  41.66000 7.21500 24.83400
C  43.76300 10.15800 25.14000
C  43.19700 11.50200 25.53900
N  43.53800 9.71600 30.34900
C  44.48600 9.98900 29.38000
C  45.59100 10.61500 30.05300
C  45.18700 10.74000 31.39000
C  44.03700 10.13500 31.50200
C  46.89500 10.88400 29.43500
C  45.69300 11.13100 32.67900
O  46.78900 11.55500 32.96800
C  44.57700 10.75800 33.72500
C  45.11500 9.76700 34.75400
O  45.28500 8.55300 34.59100
O  45.36200 10.47900 35.83600
C  46.13200 9.73700 36.90900
H  38.32700 7.63700 32.94800
H  39.33700 7.67400 26.58800
H  45.31700 9.68800 27.45400
H  42.41100 8.95000 35.33400
H  39.52000 9.01700 35.07400
H  41.51400 6.99100 35.40000
H  40.37300 6.29300 34.30900
H  39.80800 6.82800 35.87100
H  40.43800 10.88800 35.53200
H  41.57800 11.68100 34.48800
H  42.99400 12.00200 36.37600
H  42.70500 10.40600 36.96400
H  35.74400 7.36400 31.03300
H  36.81700 6.41900 32.10900
H  36.27700 5.71700 30.65700
H  34.96400 6.92000 27.19400
H  35.20600 7.44500 28.83700
H  35.56400 5.69300 28.40700
H  41.30000 9.30900 25.15800
H  43.99100 8.11600 25.69100
H  41.44100 6.32100 25.41600
H  42.51100 7.02700 24.17900
H  40.76300 7.29200 24.21800
H  43.50700 9.97900 24.09600
H  44.84500 10.10500 25.26000
H  42.38200 11.46100 26.26100
H  42.85200 11.93900 24.60200
H  43.96700 12.05800 26.07500
H  47.04600 11.90700 29.09000
H  46.89700 10.41900 28.44900
H  47.68800 10.49900 30.07700
H  44.25700 11.67500 34.21900
H  46.80900 8.94800 36.58100
H  45.43000 9.32500 37.63400
H  46.81300 10.38200 37.46400

