158

Mg -2.14200 17.23200 25.94100
C  -2.46200 15.00800 28.86100
C  -3.49400 19.76900 28.03800
C  -2.20300 19.09800 23.37800
C  -1.73300 14.34000 24.04300
N  -3.07000 17.24900 28.18000
C  -2.90200 16.34200 29.15000
C  -3.37300 16.91700 30.52800
C  -3.96300 18.31000 30.15500
C  -3.44600 18.50300 28.72600
C  -5.47100 18.33000 30.23100
C  -2.20800 17.03200 31.50900
C  -2.25300 16.06100 32.67300
H  -2.73300 16.52700 34.05900
N  -2.52800 19.17600 25.69800
C  -3.07300 20.06300 26.68800
C  -3.19400 21.39000 26.12500
C  -2.86600 21.24500 24.69200
C  -2.52700 19.81400 24.49500
C  -3.37000 22.62200 26.94100
C  -2.86000 22.35900 23.60600
O  -2.68100 22.04700 22.43800
C  -3.06500 23.77100 23.93100
N  -1.89600 16.80000 24.02900
C  -1.95500 17.76900 23.08800
C  -1.65000 17.15900 21.71300
C  -1.32500 15.68200 21.94500
C  -1.65400 15.56900 23.38300
C  -2.81400 17.43600 20.64700
C  0.11000 15.32600 21.61900
C  1.24500 15.86300 22.55100
N  -2.00100 15.12900 26.32500
C  -1.82900 14.11500 25.39900
C  -1.77600 12.85300 26.08300
C  -1.94100 13.18500 27.44900
C  -2.15500 14.53100 27.55900
C  -1.68200 11.50700 25.47200
C  -2.09900 12.60100 28.77600
O  -1.98600 11.45400 29.21400
C  -2.44400 13.72000 29.65700
C  -1.38300 13.76800 30.66200
O  -0.31100 14.38500 30.59300
O  -1.67100 13.00200 31.74900
C  -0.76200 12.79600 32.86600
H  -3.81400 20.62000 28.64300
H  -2.07900 19.64400 22.44000
H  -1.59400 13.46200 23.40800
H  -4.14000 16.23200 30.89000
H  -3.46300 19.11200 30.69700
H  -5.96400 17.42400 30.58400
H  -6.07800 18.46400 29.33600
H  -5.85800 19.12000 30.87500
H  -2.14500 18.02100 31.96400
H  -1.25300 16.91200 30.99800
H  -1.22800 15.73500 32.84500
H  -2.87100 15.18600 32.47500
H  -3.60900 22.47700 27.99400
H  -4.21900 23.18000 26.54500
H  -2.42900 23.16500 26.85300
H  -2.17200 24.35900 24.14200
H  -3.89800 24.00900 24.59300
H  -3.24700 24.25900 22.97300
H  -0.84600 17.78200 21.32100
H  -1.96500 15.02000 21.36100
H  -2.51900 18.08200 19.82100
H  -3.71000 17.82300 21.13300
H  -3.09900 16.46000 20.25400
H  0.32000 15.84300 20.68300
H  0.17900 14.24800 21.47800
H  0.82400 16.46500 23.35600
H  1.95100 16.44300 21.95600
H  1.69100 14.96600 22.98100
H  -1.09700 11.68600 24.57000
H  -2.61900 10.97600 25.30700
H  -1.01400 10.97000 26.14500
H  -3.37300 13.48600 30.17700
H  0.26000 13.04500 32.57900
H  -0.78400 11.79200 33.29000
H  -1.11500 13.53400 33.58600
Mg -8.73100 40.10800 43.19400
C  -8.07200 36.79900 42.29200
C  -5.91200 40.99700 41.32800
C  -9.64400 43.40400 43.30100
C  -11.79600 39.26500 44.33900
N  -7.16200 38.99800 42.07200
C  -7.07500 37.66500 41.90000
C  -5.90600 37.31300 40.99800
C  -5.05900 38.61400 40.94900
C  -6.09700 39.63800 41.41900
C  -3.81800 38.74000 41.82400
C  -6.49400 36.75100 39.68400
C  -5.59100 35.58500 38.99100
H  -4.74600 36.08900 37.77800
N  -7.87000 41.95800 42.43000
C  -6.72500 42.09000 41.73600
C  -6.46500 43.53300 41.41200
C  -7.56100 44.26700 41.99900
C  -8.43700 43.24300 42.61700
C  -5.34900 44.09400 40.55100
C  -7.64800 45.79700 42.05800
O  -6.88000 46.52800 41.44300
C  -8.79700 46.50700 42.85000
N  -10.49800 41.26200 43.62100
C  -10.63100 42.56400 43.77200
C  -11.97000 43.06600 44.30100
C  -12.61400 41.70700 44.71700
C  -11.55600 40.65300 44.15400
C  -11.87600 44.25300 45.33900
C  -14.14800 41.46000 44.44400
C  -14.48400 41.35800 42.92300
N  -9.69700 38.32200 43.52300
C  -11.00800 38.14200 43.94200
C  -11.28800 36.66200 43.88800
C  -10.12500 36.14900 43.29300
C  -9.21200 37.16800 43.06000
C  -12.52600 35.89800 44.42500
C  -9.50300 34.93500 42.95400
O  -9.98500 33.77700 43.02100
C  -8.19500 35.29600 42.14700
C  -7.08300 34.57800 42.69700
O  -6.44500 34.86400 43.69800
O  -6.57800 33.71200 41.73200
C  -5.29600 33.03500 42.00000
H  -5.00900 41.24900 40.76800
H  -9.88800 44.43500 43.56600
H  -12.72600 38.98800 44.83800
H  -5.35100 36.54200 41.53200
H  -4.96600 38.81300 39.88100
H  -3.88600 39.44600 42.65100
H  -2.92800 39.14000 41.33700
H  -3.62000 37.73200 42.19100
H  -6.48900 37.55200 38.94500
H  -7.52900 36.41100 39.69900
H  -6.27000 34.77600 38.72500
H  -4.87200 35.05300 39.61400
H  -5.63300 44.94100 39.92600
H  -4.95600 43.34200 39.86600
H  -4.60900 44.35900 41.30600
H  -8.74600 47.56900 42.61300
H  -8.70500 46.33000 43.92200
H  -9.75400 46.16500 42.45600
H  -12.53300 43.34400 43.41000
H  -12.44500 41.57600 45.78600
H  -10.82800 44.44000 45.57300
H  -12.37000 44.07600 46.29500
H  -12.27800 45.16800 44.90500
H  -14.69000 42.34800 44.76800
H  -14.42800 40.58300 45.02800
H  -14.82100 40.35100 42.67700
H  -13.59100 41.59000 42.34200
H  -15.17900 42.10500 42.53900
H  -12.68500 36.22200 45.45400
H  -12.28700 34.83500 44.43100
H  -13.43300 36.06500 43.84400
H  -8.37700 35.07700 41.09500
H  -4.51500 33.73300 42.30300
H  -4.89700 32.55200 41.10800
H  -5.34900 32.31200 42.81400

