158

Mg 43.07400 42.10700 26.57100
C  42.42300 44.42200 29.17700
C  44.28200 39.82100 28.96300
C  43.87900 40.00000 24.10400
C  42.02200 44.52600 24.36200
N  43.34600 42.17100 28.75900
C  42.90100 43.18200 29.58700
C  42.78700 42.64000 31.01800
C  43.68500 41.31800 31.08200
C  43.84000 41.09900 29.51300
C  45.05400 41.44900 31.73300
C  41.35600 42.46000 31.42000
C  41.10500 42.99000 32.85600
H  41.91300 42.63200 34.11500
N  43.96600 40.16000 26.52300
C  44.41400 39.40900 27.62100
C  44.92300 38.13400 27.08800
C  44.67400 38.11000 25.66800
C  44.15600 39.44300 25.38500
C  45.61200 37.13900 28.01600
C  44.85000 36.96000 24.65500
O  44.52100 37.10500 23.52300
C  45.38800 35.72100 25.18600
N  43.12800 42.36000 24.54400
C  43.47300 41.32600 23.73500
C  43.33700 41.58600 22.26000
C  42.53300 42.94800 22.33800
C  42.58800 43.35000 23.78400
C  44.61200 41.69900 21.37200
C  41.09500 42.91300 21.70500
C  40.23400 41.84200 22.36100
N  42.43900 44.06600 26.67900
C  41.93700 44.88300 25.69100
C  41.42600 46.10800 26.28400
C  41.48900 45.95500 27.71900
C  42.17800 44.71600 27.86600
C  40.79100 47.25600 25.44400
C  41.21600 46.66600 28.91600
O  40.83500 47.81300 29.11800
C  41.84200 45.64500 29.95500
C  42.78900 46.34800 30.90900
O  44.00900 46.38400 30.89900
O  41.99900 46.99800 31.81000
C  42.81700 47.43800 32.98600
H  44.38900 39.00200 29.67800
H  44.29900 39.50100 23.22800
H  41.55500 45.20400 23.64500
H  43.28300 43.36400 31.66500
H  43.09400 40.46800 31.42400
H  45.81200 40.91000 31.16400
H  44.95100 40.94900 32.69600
H  45.28600 42.50300 31.88300
H  40.99800 41.43100 31.37300
H  40.71100 43.04700 30.76500
H  40.11500 42.60800 33.10400
H  41.08500 44.08000 32.82800
H  45.80100 37.69300 28.93500
H  46.55500 36.80800 27.58000
H  44.92500 36.29700 28.11200
H  44.70500 35.37700 25.96200
H  46.41300 35.58800 25.53300
H  45.30700 34.92600 24.44400
H  42.71600 40.76300 21.90500
H  43.10900 43.73900 21.85900
H  45.43400 41.10500 21.77100
H  44.90600 42.74100 21.23900
H  44.35700 41.35300 20.37000
H  40.98300 42.85400 20.62300
H  40.62000 43.86800 21.93000
H  39.83700 41.13500 21.63200
H  39.37700 42.34100 22.81400
H  40.74600 41.35900 23.19400
H  40.04600 46.86000 24.75400
H  41.52800 47.68400 24.76500
H  40.20700 47.92900 26.07200
H  41.08300 45.33900 30.67400
H  43.60900 48.13300 32.70500
H  43.39200 46.65200 33.47700
H  42.14000 47.98000 33.64500
Mg -2.26500 34.25700 25.51800
C  -4.04000 32.79200 28.14900
C  -0.67100 36.28400 27.74400
C  -0.77300 35.80800 22.92200
C  -4.12700 32.28600 23.27500
N  -2.50400 34.67900 27.68800
C  -3.16900 33.80600 28.54700
C  -2.74400 34.05400 30.04500
C  -1.93700 35.44100 29.96000
C  -1.68600 35.49300 28.44500
C  -2.46400 36.74100 30.55100
C  -1.97700 32.83600 30.76000
C  -2.77100 32.14400 31.92000
H  -2.04500 31.89700 33.27300
N  -0.97000 35.80400 25.32700
C  -0.35200 36.44400 26.38700
C  0.66500 37.39800 25.89600
C  0.69600 37.13900 24.51700
C  -0.34800 36.20100 24.17200
C  1.55300 38.20200 26.76100
C  1.71600 37.60300 23.53500
O  1.75800 37.26500 22.33900
C  2.82000 38.50800 23.91000
N  -2.47100 34.11200 23.39500
C  -1.67000 34.80500 22.54500
C  -1.94500 34.37700 21.05500
C  -2.88400 33.21000 21.17600
C  -3.21900 33.22300 22.65200
C  -2.37400 35.50200 20.07600
C  -2.37800 31.76600 20.70100
C  -1.54600 30.86900 21.56700
N  -3.82000 32.89600 25.62100
C  -4.36500 32.08700 24.64600
C  -5.34300 31.17000 25.32400
C  -5.21000 31.45500 26.73000
C  -4.33200 32.44800 26.84400
C  -6.24700 30.15600 24.60400
C  -5.71600 31.11800 27.98800
O  -6.52200 30.28900 28.33700
C  -4.91900 31.93300 28.98800
C  -5.87800 32.67700 29.82000
O  -6.18200 33.79200 29.56400
O  -6.08800 32.03400 30.98500
C  -6.83900 32.80100 32.03600
H  -0.05300 36.66500 28.56000
H  -0.25700 36.23200 22.05800
H  -4.80200 31.75600 22.60000
H  -3.64000 34.14400 30.65900
H  -0.93500 35.33800 30.37600
H  -3.34400 36.56900 31.17000
H  -2.67100 37.44300 29.74300
H  -1.69400 37.18300 31.18400
H  -1.01400 33.23200 31.08400
H  -1.65900 32.22300 29.91700
H  -3.05600 31.15200 31.56800
H  -3.69300 32.69000 32.11600
H  2.55500 37.78500 26.66200
H  1.26400 38.20400 27.81200
H  1.62800 39.28000 26.62200
H  2.44900 39.28000 24.58500
H  3.13200 39.11700 23.06100
H  3.75700 38.05800 24.23700
H  -1.05200 33.90000 20.65000
H  -3.81800 33.42600 20.65700
H  -1.58800 35.99300 19.50300
H  -2.85600 36.31900 20.61300
H  -3.18000 35.24900 19.38800
H  -1.76200 31.99900 19.83200
H  -3.23700 31.27100 20.24800
H  -0.67600 30.64200 20.95100
H  -2.04500 29.93100 21.81000
H  -1.27500 31.37600 22.49300
H  -5.79000 30.01600 23.62500
H  -7.20700 30.59200 24.32800
H  -6.28500 29.26200 25.22700
H  -4.27300 31.24900 29.53800
H  -6.49400 33.81000 32.26000
H  -6.72500 32.32800 33.01200
H  -7.88300 32.83300 31.72400

