158

Mg 47.20400 24.89800 28.76400
C  48.02600 27.41600 31.25800
C  46.55000 22.78200 31.27200
C  46.97200 22.51500 26.45400
C  48.32400 27.15100 26.42300
N  47.37900 25.13100 31.06200
C  47.63500 26.19300 31.83700
C  47.37700 25.85200 33.33700
C  47.16400 24.32300 33.33500
C  47.03900 24.02200 31.82200
C  48.40700 23.51800 33.91500
C  46.19300 26.71600 33.91000
C  46.42300 27.28200 35.32900
H  45.36800 26.89400 36.42300
N  46.84400 22.91200 28.83500
C  46.50000 22.25100 29.97100
C  46.22300 20.80300 29.57100
C  46.39800 20.71000 28.14500
C  46.72600 22.04000 27.74700
C  45.79800 19.78300 30.59300
C  46.15300 19.58200 27.20100
O  46.14800 19.69000 25.98600
C  45.84200 18.23900 27.79700
N  47.89000 24.76800 26.69800
C  47.41800 23.71800 25.95400
C  47.52300 24.04000 24.46400
C  47.67300 25.61000 24.51400
C  48.03400 25.85400 25.92200
C  48.63400 23.20300 23.70800
C  46.35000 26.27800 23.93200
C  45.23200 26.56900 24.94500
N  47.85100 26.91100 28.80100
C  48.27500 27.72400 27.72900
C  48.57100 29.05500 28.10000
C  48.49500 28.95200 29.48300
C  48.09000 27.65900 29.86900
C  49.03000 30.25700 27.32000
C  48.71500 29.71400 30.71100
O  49.15400 30.85400 30.84300
C  48.33400 28.70500 31.96000
C  49.46000 28.74900 32.84300
O  50.61000 28.39400 32.63900
O  48.99900 29.20100 34.08400
C  49.98700 29.21000 35.18400
H  46.02800 22.12700 31.97200
H  46.93300 21.85200 25.58700
H  48.53000 27.74200 25.52800
H  48.34100 26.10200 33.77900
H  46.16600 24.06500 33.68900
H  49.03400 24.17000 34.52200
H  49.02500 23.04400 33.15300
H  47.93800 22.81400 34.60200
H  45.27900 26.13200 33.79800
H  45.89000 27.57100 33.30500
H  46.37600 28.36400 35.20600
H  47.38600 26.99700 35.75400
H  45.48800 20.18800 31.55600
H  46.54800 18.99200 30.61100
H  44.91500 19.31400 30.15800
H  46.74700 18.00700 28.36000
H  45.69900 17.47900 27.02900
H  45.03200 18.21000 28.52600
H  46.56200 23.87500 23.97700
H  48.63800 25.89700 24.09700
H  49.20900 22.67000 24.46400
H  49.34500 23.81000 23.14800
H  48.16200 22.47000 23.05400
H  45.83300 25.62700 23.22700
H  46.57000 27.22800 23.44400
H  44.41400 25.88400 24.72100
H  44.79000 27.56000 24.84800
H  45.45000 26.38700 25.99800
H  48.78300 31.06300 28.01100
H  48.43200 30.36500 26.41600
H  50.10800 30.19000 27.16900
H  47.50800 29.18900 32.48100
H  50.89200 28.63900 34.97200
H  49.52300 28.90100 36.12100
H  50.34700 30.21900 35.38300
Mg 30.00700 57.91300 41.51900
C  27.05100 56.22500 40.81300
C  31.76300 55.47400 40.03700
C  32.59200 60.13700 41.37200
C  28.02900 60.57200 42.95100
N  29.45100 56.19900 40.37400
C  28.20200 55.59900 40.36700
C  28.27500 54.33200 39.38700
C  29.84600 53.90900 39.53500
C  30.38400 55.31800 39.85000
C  30.23500 52.80200 40.55300
C  27.77800 54.63900 37.98400
C  27.19300 53.47700 37.10300
H  26.61000 53.85100 35.76700
N  31.97500 57.79900 40.95700
C  32.55000 56.62600 40.41800
C  33.99700 56.79000 40.38600
C  34.24300 58.15900 40.76000
C  32.90200 58.77500 41.06900
C  34.95800 55.71500 39.86900
C  35.66900 58.73800 40.92500
O  36.69800 58.09600 40.88400
C  35.81800 60.27100 41.12000
N  30.23000 60.08400 41.91800
C  31.40500 60.75500 41.79800
C  31.31500 62.22600 42.30200
C  29.85900 62.27500 42.77200
C  29.32400 60.89400 42.53400
C  32.34500 62.55800 43.31300
C  29.10500 63.39600 41.98700
C  27.87000 64.02600 42.71600
N  27.99500 58.38000 41.93900
C  27.31400 59.38700 42.52700
C  25.86700 59.04700 42.68000
C  25.70600 57.84000 41.99200
C  26.97800 57.45900 41.52200
C  24.74300 59.93200 43.20200
C  24.81100 56.77800 41.53300
O  23.57800 56.76400 41.77300
C  25.54300 55.74400 40.74300
C  25.47600 54.41700 41.41600
O  26.09600 54.20000 42.41400
O  24.67100 53.51700 40.76200
C  24.62800 52.33400 41.51600
H  32.39000 54.64200 39.71100
H  33.39000 60.88300 41.39100
H  27.61800 61.42900 43.48800
H  27.67900 53.55800 39.87000
H  30.13300 53.61200 38.52600
H  31.30800 52.72600 40.72700
H  29.90600 51.85200 40.13300
H  29.71600 53.06500 41.47500
H  28.67600 54.92700 37.43800
H  27.03400 55.42900 37.88600
H  26.35100 53.10500 37.68700
H  27.96900 52.75700 36.84200
H  35.84300 56.09500 39.35800
H  34.49100 54.92600 39.28000
H  35.48400 55.27700 40.71800
H  35.30700 60.70000 41.98200
H  35.45400 60.64100 40.16200
H  36.87600 60.52400 41.04600
H  31.41900 62.85400 41.41800
H  29.71200 62.53600 43.82000
H  33.05200 61.74200 43.45600
H  31.98300 62.83700 44.30300
H  32.86900 63.45900 42.99400
H  28.67300 63.03300 41.05400
H  29.68500 64.28700 41.75000
H  27.89900 65.11400 42.66000
H  27.87000 63.66800 43.74600
H  26.94000 63.76400 42.21000
H  24.38600 60.57700 42.39900
H  25.16900 60.64400 43.90900
H  23.98300 59.30600 43.67100
H  25.22400 55.76700 39.70100
H  25.63200 51.90900 41.50800
H  23.97700 51.68700 40.92800
H  24.21400 52.46100 42.51600

