158

Mg 16.22900 -1.66700 27.78100
C  15.20700 0.54400 30.23000
C  18.18000 -3.34400 29.98500
C  17.73200 -3.13700 25.13000
C  14.43700 0.30900 25.38900
N  16.76700 -1.30300 29.81300
C  16.12400 -0.42700 30.70100
C  16.59600 -0.62800 32.13900
C  17.51700 -1.89600 32.10000
C  17.49400 -2.24000 30.55200
C  18.93300 -1.76200 32.57300
C  15.46700 -0.80800 33.25700
C  15.71000 -0.29400 34.65400
H  17.13700 0.28100 34.96000
N  17.66600 -2.98800 27.53100
C  18.27700 -3.68600 28.60000
C  19.21100 -4.64100 28.05500
C  19.07100 -4.62800 26.66200
C  18.14400 -3.54800 26.38000
C  20.04800 -5.49700 28.97300
C  19.77300 -5.43000 25.62400
O  19.56500 -5.32800 24.40600
C  20.84800 -6.42300 26.02300
N  16.13400 -1.42000 25.51500
C  16.85600 -2.16900 24.65100
C  16.51600 -1.88600 23.12100
C  15.36900 -0.78000 23.40000
C  15.21200 -0.71900 24.87000
C  17.66700 -1.27900 22.30400
C  13.96000 -1.00200 22.65100
C  13.52300 -0.07300 21.52200
N  14.95000 -0.03800 27.75100
C  14.23900 0.54400 26.77500
C  13.34400 1.49300 27.31900
C  13.63100 1.50000 28.64600
C  14.66200 0.63500 28.89900
C  12.39300 2.45400 26.55400
C  13.28600 2.21300 29.84700
O  12.47300 3.10600 30.06800
C  14.26200 1.55300 30.97000
C  14.97800 2.65200 31.61600
O  15.71300 3.44300 31.10000
O  14.48300 2.85700 32.90000
C  14.79100 4.14600 33.47900
H  18.53600 -3.98600 30.79400
H  18.16700 -3.62900 24.25800
H  13.77400 0.77000 24.65400
H  17.24100 0.22900 32.33400
H  17.16900 -2.75600 32.67400
H  19.50000 -1.07700 31.94400
H  19.43800 -2.71700 32.71900
H  18.68100 -1.40700 33.57200
H  15.22100 -1.86900 33.30200
H  14.57600 -0.27600 32.92500
H  15.49500 -1.02800 35.43100
H  14.98200 0.51700 34.68600
H  19.60500 -5.52400 29.96800
H  21.04900 -5.06900 29.02200
H  20.06000 -6.51700 28.58900
H  20.51100 -7.23900 26.66200
H  21.65300 -5.89200 26.53100
H  21.18600 -6.81700 25.06400
H  15.98800 -2.65800 22.56200
H  15.71700 0.19300 23.05300
H  18.56300 -1.42000 22.90900
H  17.63400 -0.21000 22.09200
H  17.82100 -1.79600 21.35800
H  13.20600 -1.02100 23.43800
H  14.00100 -2.00200 22.21800
H  14.31100 0.67800 21.45100
H  12.60500 0.45900 21.77100
H  13.34100 -0.65700 20.62000
H  11.58200 1.84500 26.15400
H  12.96100 2.94000 25.76200
H  11.98200 3.24500 27.18200
H  13.58700 1.08900 31.68800
H  14.31300 4.95500 32.92600
H  15.86800 4.27300 33.37600
H  14.43700 4.22800 34.50700
Mg -6.19100 24.96400 26.18200
C  -4.60700 26.59600 28.96200
C  -7.73900 23.01100 28.42300
C  -7.24300 23.04100 23.70300
C  -3.97000 26.61100 24.11300
N  -6.05000 24.85600 28.36800
C  -5.45600 25.58100 29.26800
C  -5.80800 25.26100 30.74800
C  -6.52000 23.93100 30.50100
C  -6.78500 23.90300 29.01200
C  -5.87400 22.58400 31.05800
C  -6.50400 26.38000 31.46600
C  -5.93900 26.78100 32.86600
H  -5.14200 25.75200 33.67600
N  -7.46500 23.36700 26.08500
C  -8.06900 22.75700 27.10700
C  -8.98900 21.81300 26.63900
C  -8.92100 21.82600 25.28300
C  -7.85700 22.78600 24.94600
C  -9.80300 20.91400 27.54000
C  -9.67700 20.99500 24.25400
O  -9.43000 21.03700 23.00900
C  -10.76300 20.13000 24.65000
N  -5.81000 24.96000 24.14600
C  -6.22700 23.91000 23.37500
C  -5.51100 23.87500 22.02100
C  -4.56400 25.19100 22.10000
C  -4.75000 25.60600 23.55300
C  -4.82600 22.50400 21.78000
C  -4.84200 26.29600 21.02700
C  -3.71700 26.59100 20.04500
N  -4.66000 26.48300 26.41300
C  -3.90100 26.98100 25.47900
C  -3.02800 27.96900 25.97100
C  -3.26100 27.87400 27.39600
C  -4.24800 26.92600 27.61600
C  -2.13100 28.92400 25.22300
C  -2.95000 28.38600 28.74100
O  -2.19000 29.29200 29.08100
C  -3.73600 27.49100 29.81100
C  -2.55500 26.86700 30.53600
O  -2.12000 25.69700 30.41200
O  -2.20600 27.63900 31.53500
C  -1.25800 27.09400 32.55000
H  -8.28900 22.41700 29.15600
H  -7.66500 22.68700 22.76000
H  -3.22300 27.12800 23.50800
H  -4.94100 24.93100 31.32000
H  -7.47900 23.95200 31.01800
H  -5.56700 21.91600 30.25400
H  -6.61300 22.03400 31.64200
H  -5.00200 22.78900 31.67900
H  -7.55200 26.13900 31.64500
H  -6.58500 27.26200 30.83000
H  -6.88000 26.91400 33.40000
H  -5.31100 27.66800 32.93800
H  -10.85300 20.94000 27.24700
H  -9.69400 21.09000 28.61000
H  -9.50300 19.88500 27.34200
H  -10.44900 19.34400 25.33700
H  -11.11100 19.60700 23.75900
H  -11.50200 20.83000 25.03900
H  -6.22400 23.90500 21.19700
H  -3.52100 24.87600 22.11900
H  -3.80700 22.81800 21.55200
H  -5.32500 21.97200 20.97000
H  -4.86100 22.01000 22.75000
H  -5.16100 27.13500 21.64600
H  -5.73700 25.88600 20.55800
H  -2.84000 25.94900 20.12900
H  -3.41000 27.63500 19.99400
H  -4.13500 26.41400 19.05400
H  -2.81900 29.65900 24.80400
H  -1.62100 28.42600 24.39900
H  -1.33600 29.32500 25.85200
H  -4.39700 28.08800 30.43900
H  -0.28600 26.98900 32.06800
H  -1.55000 26.10900 32.91300
H  -1.26200 27.82300 33.36000

