158

Mg 7.86600 2.06400 28.25300
C  9.34400 0.66800 31.06000
C  5.64100 3.80100 30.29600
C  6.45000 3.37600 25.54700
C  9.56500 -0.23600 26.30800
N  7.67200 2.27200 30.40900
C  8.34200 1.58800 31.37800
C  8.14700 2.27500 32.75800
C  6.81400 3.05100 32.53900
C  6.69900 3.09700 30.99600
C  5.54100 2.35200 33.16500
C  9.38900 3.10700 33.26100
C  9.91000 2.90500 34.69300
H  9.09400 2.20400 35.75400
N  6.33900 3.46200 27.95600
C  5.53900 4.02800 28.95100
C  4.50100 4.86100 28.30000
C  4.75100 4.80700 26.88900
C  5.87300 3.87500 26.76600
C  3.40800 5.59600 29.04700
C  4.00200 5.50000 25.80700
O  4.13300 5.24600 24.59100
C  2.91100 6.54000 26.16900
N  7.84400 1.54600 26.19800
C  7.36400 2.36700 25.31100
C  7.88800 2.03600 23.87800
C  8.87100 0.87000 24.16800
C  8.72600 0.66600 25.66100
C  6.65800 1.75400 22.95000
C  10.31300 0.99100 23.62500
C  11.42000 1.70500 24.48900
N  9.16900 0.43400 28.55500
C  9.81900 -0.34000 27.65300
C  10.77700 -1.14600 28.41300
C  10.65100 -0.77000 29.76600
C  9.63900 0.22000 29.80000
C  11.66300 -2.17400 27.83100
C  11.22700 -0.93100 31.09100
O  12.10200 -1.63300 31.50900
C  10.41900 -0.01900 31.98200
C  9.89600 -0.93500 33.05800
O  9.17400 -1.87500 32.82400
O  10.50500 -0.62300 34.23000
C  10.36400 -1.70600 35.17600
H  4.92800 4.27000 30.97800
H  5.98600 3.89100 24.70300
H  10.16100 -0.91700 25.69800
H  7.89900 1.39200 33.34800
H  6.96400 4.02000 33.01500
H  5.23700 2.95300 34.02200
H  5.75000 1.33700 33.50300
H  4.65200 2.28900 32.53700
H  9.23600 4.18400 33.19700
H  10.22200 3.03800 32.56100
H  10.02600 3.88700 35.15300
H  10.91200 2.48000 34.74300
H  3.48500 6.66600 29.23900
H  3.34400 5.10700 30.01800
H  2.43200 5.35100 28.62700
H  2.09300 6.17900 26.79200
H  2.46000 6.74000 25.19700
H  3.19800 7.54300 26.48600
H  8.45400 2.94400 23.67100
H  8.35200 -0.05900 23.93300
H  6.65000 2.57500 22.23400
H  5.67600 1.77500 23.42200
H  6.73300 0.80200 22.42400
H  10.22600 1.54500 22.69100
H  10.79400 0.05000 23.35700
H  11.12000 2.06400 25.47300
H  11.80100 2.50700 23.85600
H  12.25400 1.00800 24.57400
H  11.84200 -2.95300 28.57200
H  12.58300 -1.62400 27.63000
H  11.21700 -2.56900 26.91800
H  11.14400 0.75000 32.24600
H  9.73600 -2.52600 34.82800
H  9.94100 -1.38000 36.12600
H  11.31000 -2.06000 35.58700
Mg 1.85800 42.52000 26.02600
C  2.96300 43.03400 29.34200
C  -1.07800 41.22500 27.18800
C  0.92600 42.06500 22.74400
C  4.89600 43.76900 24.87600
N  1.00100 42.30000 28.03600
C  1.62800 42.62300 29.23900
C  0.64600 42.43500 30.38900
C  -0.64900 41.78100 29.67500
C  -0.23400 41.69600 28.19400
C  -1.07800 40.41300 30.35000
C  0.30300 43.64800 31.22000
C  0.69200 43.47700 32.78400
H  -0.41400 43.12200 33.75300
N  0.15500 41.80100 25.08200
C  -0.91200 41.22600 25.75400
C  -1.86100 40.67600 24.80600
C  -1.41100 41.06900 23.50400
C  -0.03700 41.73600 23.73100
C  -3.08500 39.93300 25.28600
C  -2.03900 40.84300 22.13800
O  -1.48200 41.14000 21.08400
C  -3.41800 40.11300 22.01400
N  2.86100 42.68000 24.06400
C  2.19000 42.53000 22.89000
C  3.06200 43.06300 21.73800
C  4.39600 43.70100 22.39100
C  4.07500 43.36500 23.85400
C  3.47800 41.91500 20.80800
C  4.50700 45.26600 22.17700
C  5.00000 45.69700 20.76900
N  3.64300 43.13500 26.85800
C  4.76500 43.65300 26.28900
C  5.73200 44.05000 27.28700
C  5.06700 43.72800 28.49500
C  3.78800 43.28000 28.17400
C  7.07700 44.68100 27.04200
C  5.11800 43.74000 29.96600
O  6.09700 44.07000 30.66200
C  3.81200 43.33900 30.60500
C  4.11200 42.15200 31.45400
O  4.45300 41.08800 31.02200
O  3.92900 42.43100 32.77300
C  4.20400 41.35100 33.68400
H  -1.95700 40.83300 27.70500
H  0.62200 41.82200 21.72400
H  5.84400 44.28000 24.69800
H  1.10500 41.69900 31.04800
H  -1.44200 42.52800 29.72400
H  -1.96100 40.60400 30.95900
H  -0.33800 39.81200 30.88000
H  -1.38300 39.80200 29.50000
H  -0.78200 43.74600 31.25800
H  0.79800 44.50100 30.75500
H  1.08500 44.43200 33.13400
H  1.35900 42.65300 33.03700
H  -4.00600 40.33100 24.85800
H  -3.32700 40.12700 26.33100
H  -3.06600 38.86400 25.07600
H  -4.19200 40.87500 22.09900
H  -3.49300 39.42900 22.86000
H  -3.53700 39.55000 21.08800
H  2.56000 43.87300 21.20900
H  5.28000 43.23200 21.95800
H  2.83500 41.03900 20.89300
H  4.41200 41.42200 21.07400
H  3.63100 42.30000 19.79900
H  4.99500 45.71500 23.04200
H  3.51100 45.63500 22.42200
H  4.16600 46.05500 20.16500
H  5.43200 44.87300 20.20100
H  5.72600 46.46100 21.04900
H  7.71700 44.54100 27.91300
H  6.91100 45.71600 26.74200
H  7.50200 44.19800 26.16200
H  3.49100 44.23100 31.14300
H  3.84300 40.38800 33.32200
H  3.69400 41.63700 34.60400
H  5.27900 41.22500 33.80500

