158

Mg 47.63400 35.12100 26.14300
C  45.85300 33.74300 28.76700
C  48.09300 38.03900 27.99000
C  48.97600 36.49500 23.50700
C  46.56300 32.30400 24.16500
N  47.07200 35.70900 28.07700
C  46.53000 34.94100 29.07100
C  46.64900 35.71000 30.40200
C  46.81600 37.14500 29.98700
C  47.36800 36.97700 28.56400
C  45.53800 38.00100 30.10200
C  47.85400 35.10500 31.17000
C  47.70000 35.11800 32.68200
H  46.68500 36.02600 33.31700
N  48.54800 36.97200 25.82200
C  48.55500 38.07100 26.64900
C  49.11000 39.17800 25.93700
C  49.55300 38.67100 24.70100
C  49.05200 37.33200 24.65300
C  49.11000 40.64200 26.40000
C  50.38100 39.40700 23.59800
O  50.73600 38.81600 22.53600
C  50.68600 40.90100 23.72400
N  47.72900 34.49900 24.08500
C  48.29400 35.29200 23.20500
C  48.30000 34.71700 21.84400
C  47.88700 33.20800 22.03800
C  47.37900 33.32500 23.49700
C  47.35100 35.56000 20.85100
C  49.02900 32.28300 21.67200
C  50.31200 32.32000 22.52400
N  46.45000 33.33600 26.36700
C  46.14700 32.31800 25.46700
C  45.32900 31.30900 26.13000
C  45.11500 31.85200 27.42900
C  45.88800 33.06400 27.49900
C  44.83300 29.98600 25.46700
C  44.43200 31.70200 28.66100
O  43.63500 30.84700 29.06900
C  44.85900 32.87100 29.55000
C  45.35200 32.42500 30.89400
O  46.51800 31.97600 31.14100
O  44.32800 32.32000 31.84200
C  44.61300 32.33200 33.28900
H  48.38300 38.87300 28.63200
H  49.53500 36.88700 22.65500
H  46.16800 31.43600 23.63300
H  45.73000 35.61000 30.97900
H  47.46200 37.71400 30.65500
H  44.65800 37.54200 30.55400
H  45.30400 38.23700 29.06400
H  45.78500 38.84400 30.74900
H  48.72100 35.68400 30.85400
H  48.13200 34.09600 30.86500
H  48.72400 35.35900 32.96800
H  47.65300 34.08500 33.02900
H  48.61400 41.23100 25.62800
H  50.10700 41.01300 26.64100
H  48.60400 40.74200 27.36000
H  51.10200 41.22600 24.67800
H  49.65600 41.24900 23.79400
H  51.24800 41.33600 22.89700
H  49.30100 34.77500 21.41700
H  47.01500 32.98500 21.42200
H  46.76000 34.87100 20.24800
H  48.06300 36.18100 20.30700
H  46.61200 36.16000 21.38200
H  49.41300 32.65000 20.72000
H  48.58900 31.29000 21.57200
H  50.61000 31.28700 22.70400
H  50.09900 32.72800 23.51200
H  51.11400 32.87700 22.04000
H  45.58200 29.45100 24.88400
H  44.08400 30.31000 24.74400
H  44.42000 29.29700 26.20400
H  43.99400 33.49600 29.77100
H  45.69400 32.26200 33.40200
H  44.16500 31.45600 33.75900
H  44.29600 33.31000 33.65000
Mg 0.57400 43.47200 26.04400
C  2.87100 43.70300 28.66100
C  -1.94500 43.41000 28.16300
C  -1.42400 42.93500 23.35400
C  3.33000 43.39800 23.81200
N  0.48300 43.48600 28.20000
C  1.49700 43.78600 29.07600
C  0.94700 43.89800 30.48400
C  -0.64100 43.74300 30.27800
C  -0.71600 43.45600 28.78000
C  -1.23300 42.45700 30.95900
C  1.34300 45.20600 31.26800
C  1.62600 45.06300 32.75900
H  0.96500 43.84600 33.37100
N  -1.38800 43.25800 25.85600
C  -2.30500 43.22400 26.82900
C  -3.61400 42.90400 26.33800
C  -3.55100 42.80700 24.93500
C  -2.04300 43.00400 24.63800
C  -4.91200 42.91600 27.22900
C  -4.61600 42.39400 23.85300
O  -4.43300 42.33400 22.62500
C  -6.01600 41.93900 24.32900
N  0.92400 43.36500 23.87700
C  -0.14300 43.17300 22.99200
C  0.37300 43.07900 21.57600
C  1.89300 43.35700 21.70100
C  2.09600 43.43200 23.22200
C  0.05400 41.77900 20.83200
C  2.40400 44.62100 21.03700
C  3.64300 44.49200 20.19600
N  2.72900 43.53000 26.11100
C  3.69700 43.51500 25.13900
C  4.99100 43.47300 25.78400
C  4.71400 43.62300 27.15600
C  3.30600 43.58400 27.31600
C  6.28000 43.50400 25.14800
C  5.35000 43.78900 28.45000
O  6.48200 43.87800 28.85800
C  4.12900 43.71100 29.46900
C  4.35900 42.66700 30.45800
O  4.37800 41.44100 30.31800
O  4.66100 43.24700 31.67300
C  4.91600 42.29300 32.72100
H  -2.76000 43.71000 28.82400
H  -2.15800 42.87100 22.54800
H  4.17600 43.24300 23.13900
H  1.46000 43.09100 31.00800
H  -1.15700 44.66000 30.56300
H  -0.44100 41.78900 31.29800
H  -1.91600 41.81900 30.39800
H  -1.73500 42.76400 31.87700
H  0.53000 45.92900 31.19800
H  2.15100 45.67800 30.70800
H  1.28500 45.98200 33.23600
H  2.66900 44.89800 33.02700
H  -5.71700 43.52700 26.82200
H  -4.76200 43.35800 28.21400
H  -5.23000 41.88300 27.37200
H  -5.88300 41.33400 25.22500
H  -6.58100 41.44100 23.54000
H  -6.47800 42.87500 24.64200
H  -0.13500 43.93800 21.13700
H  2.48800 42.48800 21.42200
H  -0.81100 42.03800 20.22100
H  -0.41500 41.02800 21.46700
H  0.85700 41.40500 20.19600
H  2.68600 45.34900 21.79800
H  1.60700 45.05100 20.43000
H  3.80000 43.46400 19.86900
H  4.50500 44.60100 20.85400
H  3.73600 45.26300 19.43200
H  6.59100 44.47300 24.75800
H  6.15400 42.79700 24.32800
H  7.07600 43.20800 25.83200
H  4.07900 44.68200 29.96100
H  5.43200 42.86200 33.49400
H  5.47200 41.37600 32.52700
H  3.98400 41.81200 33.01700

