158

Mg 8.95000 2.92200 27.57500
C  10.59400 1.47700 30.29400
C  7.61400 5.14900 29.68400
C  7.41900 4.21000 24.91300
C  10.29800 0.47800 25.54500
N  8.92000 3.14400 29.79900
C  9.73600 2.54900 30.70800
C  9.52800 3.15000 32.14700
C  8.53600 4.30900 31.89500
C  8.25000 4.14300 30.41800
C  7.26800 4.39600 32.76700
C  10.78100 3.72000 32.82600
C  10.53400 4.52600 34.09400
H  11.40100 4.22900 35.31900
N  7.77400 4.45900 27.28400
C  7.41200 5.32800 28.31100
C  6.58200 6.35600 27.75600
C  6.52400 6.17400 26.35900
C  7.17000 4.89200 26.10500
C  6.05900 7.55300 28.61100
C  5.90100 7.04600 25.28300
O  6.05100 6.81500 24.13200
C  5.14300 8.24200 25.72100
N  8.86200 2.49000 25.50600
C  8.05700 3.07700 24.58000
C  8.25100 2.51000 23.22400
C  9.33200 1.42000 23.40900
C  9.62100 1.50900 24.93000
C  6.99100 2.09000 22.56400
C  10.61500 1.45400 22.44400
C  10.75000 0.40500 21.32900
N  10.20500 1.29900 27.83100
C  10.61100 0.40700 26.90400
C  11.38500 -0.59200 27.47300
C  11.47200 -0.21300 28.83100
C  10.72800 0.95500 28.96300
C  12.03000 -1.74600 26.81800
C  11.94800 -0.53100 30.16100
O  12.57900 -1.42700 30.71200
C  11.36700 0.58100 31.11400
C  10.45100 -0.07600 32.14000
O  9.44700 -0.71800 31.93400
O  10.90000 0.31300 33.36400
C  10.20300 -0.27400 34.49500
H  7.14100 5.91000 30.30700
H  6.98700 4.71000 24.04400
H  10.48400 -0.42700 24.96200
H  9.16200 2.37800 32.82400
H  9.03200 5.27900 31.87000
H  6.33100 4.34100 32.21200
H  7.25800 5.37800 33.23900
H  7.23500 3.68100 33.58800
H  11.31800 4.28800 32.06700
H  11.53500 2.97800 33.08800
H  9.47600 4.39700 34.32100
H  10.50600 5.60300 33.92700
H  6.50200 8.52800 28.40700
H  5.86700 7.30100 29.65300
H  5.01100 7.70900 28.35600
H  5.90100 8.74400 26.32200
H  4.25800 7.96800 26.29500
H  4.66500 8.74300 24.88000
H  8.64800 3.34900 22.65300
H  8.84800 0.45200 23.27700
H  7.01200 1.08200 22.15100
H  6.78400 2.77100 21.73800
H  6.18000 2.20100 23.28400
H  11.49800 1.36100 23.07600
H  10.80500 2.43500 22.00900
H  9.79000 -0.05900 21.10800
H  11.42600 -0.38700 21.65300
H  11.19300 0.68500 20.37300
H  12.85900 -1.33500 26.24200
H  11.45200 -2.34000 26.11000
H  12.32600 -2.30800 27.70400
H  12.15000 1.14200 31.62600
H  9.28700 -0.82500 34.27800
H  9.93100 0.40200 35.30600
H  10.85700 -0.99100 34.99300
Mg 26.05400 -0.50000 28.93500
C  28.04000 -1.12500 31.87800
C  23.27800 -0.24300 31.07200
C  24.32000 -0.47400 26.25400
C  29.03000 -1.09900 27.05200
N  25.67600 -0.81500 31.22200
C  26.68900 -0.78600 32.16800
C  26.06100 -0.58300 33.57000
C  24.57200 -0.31600 33.31300
C  24.49300 -0.38700 31.77900
C  23.52700 -1.18900 33.98300
C  26.77300 0.62300 34.37200
C  27.37800 0.20700 35.74700
H  27.19400 1.08800 36.94700
N  24.05900 -0.41100 28.71200
C  23.09000 -0.31700 29.66800
C  21.81800 -0.25200 28.96400
C  22.07100 -0.29800 27.54600
C  23.56300 -0.36100 27.45400
C  20.52900 -0.08700 29.71300
C  21.01400 -0.27300 26.38600
O  21.27500 -0.23800 25.19200
C  19.67000 -0.61800 26.79400
N  26.58600 -0.88400 26.99100
C  25.66300 -0.72400 25.97400
C  26.20300 -0.93200 24.53600
C  27.69200 -1.04900 24.79400
C  27.78900 -1.03300 26.35200
C  25.65600 -2.04900 23.59000
C  28.57800 0.05400 24.07400
C  29.79500 -0.48700 23.34200
N  28.17000 -1.00500 29.28400
C  29.24200 -1.17000 28.45900
C  30.43500 -1.42600 29.23200
C  30.01100 -1.47300 30.56200
C  28.60700 -1.23100 30.53500
C  31.77400 -1.61700 28.65300
C  30.44600 -1.64500 31.91900
O  31.57800 -1.99600 32.31000
C  29.21900 -1.37500 32.79100
C  28.95900 -2.52800 33.73500
O  28.19600 -3.46200 33.54000
O  29.74700 -2.31400 34.89900
C  29.42900 -3.27400 35.97000
H  22.40900 0.04800 31.66600
H  23.72500 -0.52300 25.33900
H  29.89800 -1.02300 26.39300
H  26.17700 -1.53600 34.08800
H  24.23900 0.65200 33.68700
H  23.76800 -2.19200 33.62900
H  22.49600 -0.84200 33.91300
H  23.84600 -1.19700 35.02600
H  25.95500 1.34000 34.43900
H  27.48200 1.01600 33.64400
H  28.46100 0.24300 35.62400
H  27.15700 -0.82000 36.03700
H  20.67900 0.17700 30.76000
H  20.14600 -1.10800 29.71800
H  19.92100 0.68500 29.24200
H  19.16500 -1.04800 25.92900
H  19.13900 0.24400 27.19900
H  19.71600 -1.31300 27.63200
H  25.91600 -0.01900 24.01500
H  28.05100 -2.05300 24.56600
H  25.05300 -1.56800 22.82100
H  25.00700 -2.75100 24.11300
H  26.45900 -2.53600 23.03600
H  28.94900 0.74000 24.83600
H  27.93600 0.59200 23.37600
H  29.75300 -1.57600 23.36100
H  30.63800 -0.14400 23.94100
H  29.90200 -0.00500 22.37000
H  32.54000 -1.38500 29.39300
H  31.86700 -0.88900 27.84700
H  31.94100 -2.60100 28.21500
H  29.43100 -0.42900 33.28900
H  28.41600 -3.12700 36.34400
H  30.17500 -3.09300 36.74400
H  29.49400 -4.32200 35.67600

