158

Mg 16.76500 -2.34100 28.97800
C  15.60300 -0.20600 31.53200
C  19.06100 -3.67600 31.10800
C  17.98800 -4.10900 26.41300
C  14.61700 -0.63900 26.77300
N  17.13600 -2.01400 31.12200
C  16.57100 -1.08800 31.98700
C  17.13700 -1.32500 33.36600
C  18.40100 -2.12400 33.15300
C  18.16100 -2.69800 31.69800
C  19.78000 -1.40500 33.31200
C  15.99300 -2.05200 34.17400
C  15.63000 -1.45500 35.48900
H  16.69900 -0.52600 36.17800
N  18.19700 -3.83700 28.83200
C  19.03700 -4.27000 29.82700
C  19.80100 -5.40600 29.37400
C  19.54000 -5.52900 27.91000
C  18.52300 -4.45500 27.62200
C  20.66900 -6.23100 30.22600
C  20.02300 -6.56000 26.83000
O  19.79000 -6.59700 25.59400
C  20.93400 -7.70800 27.29200
N  16.41600 -2.32200 26.85700
C  16.97100 -3.22200 26.02900
C  16.44100 -3.00200 24.62000
C  15.32700 -1.97700 24.75400
C  15.44100 -1.60800 26.24200
C  17.55000 -2.65400 23.53600
C  13.87000 -2.53500 24.48200
C  13.33700 -2.04200 23.11600
N  15.48800 -0.76100 29.10200
C  14.61500 -0.17200 28.15000
C  13.76700 0.87200 28.72400
C  14.07000 0.80400 30.07700
C  15.10300 -0.18200 30.23600
C  12.86600 1.78000 27.93200
C  13.83500 1.48600 31.38200
O  13.01400 2.36300 31.64400
C  14.81700 0.77400 32.39100
C  15.58500 1.88500 32.99000
O  16.67300 2.28400 32.60500
O  14.93800 2.34500 34.07500
C  15.58900 3.44600 34.88900
H  19.78000 -4.09700 31.81400
H  18.38000 -4.61700 25.52800
H  13.80800 -0.19700 26.18700
H  17.33800 -0.30900 33.70700
H  18.52700 -2.99600 33.79400
H  20.46900 -1.91900 33.98200
H  19.52100 -0.41400 33.68500
H  20.31100 -1.16700 32.39000
H  16.38600 -3.05500 34.34100
H  15.05600 -2.11200 33.62000
H  15.56500 -2.14400 36.33100
H  14.80400 -0.75000 35.39600
H  21.72800 -6.01800 30.07800
H  20.38600 -7.26300 30.01700
H  20.37900 -6.06100 31.26300
H  21.89100 -7.31400 27.63300
H  21.06900 -8.33400 26.41100
H  20.45400 -8.35700 28.02500
H  16.14600 -3.93100 24.13200
H  15.57400 -1.03800 24.25800
H  17.72100 -1.57800 23.54400
H  17.40900 -2.78000 22.46300
H  18.49700 -3.06400 23.88700
H  13.17300 -2.32600 25.29300
H  13.87400 -3.62000 24.38200
H  12.29000 -1.75100 23.20200
H  13.42900 -2.85900 22.40000
H  13.85000 -1.16200 22.73000
H  12.84200 2.73100 28.46500
H  11.92800 1.22600 27.93400
H  13.24300 1.85000 26.91200
H  14.14700 0.30300 33.11000
H  15.92600 3.07900 35.85800
H  14.89500 4.28500 34.94000
H  16.43000 3.92600 34.38900
Mg 54.30700 23.65700 43.73800
C  51.48300 25.72600 43.26900
C  52.33700 20.98800 42.73400
C  57.16200 22.10100 43.25600
C  56.20400 26.71100 44.23000
N  52.16000 23.40000 42.91800
C  51.16500 24.44800 42.91400
C  49.88100 23.87500 42.38000
C  50.19800 22.33400 42.60500
C  51.66300 22.20200 42.78000
C  49.52600 21.73100 43.80100
C  49.67900 24.18800 40.83500
C  48.24100 24.22500 40.31300
H  47.84400 24.79000 38.91900
N  54.73100 21.79700 43.23700
C  53.77300 20.77800 42.92500
C  54.48900 19.51400 42.68300
C  55.88700 19.76300 42.89500
C  56.03500 21.28400 43.15900
C  53.83700 18.24900 42.17000
C  57.00000 18.70800 42.78200
O  56.81100 17.52000 42.54800
C  58.44600 19.06800 43.08400
N  56.37700 24.29900 43.80700
C  57.39200 23.38600 43.57600
C  58.81800 23.98300 43.89200
C  58.50700 25.48000 44.06400
C  56.95200 25.55400 44.04600
C  59.43500 23.42800 45.12600
C  58.97700 26.35700 42.86800
C  58.74500 25.99200 41.39500
N  53.91000 25.73000 43.89100
C  54.74600 26.78600 44.21200
C  53.97000 27.97700 44.43100
C  52.67000 27.54100 44.08500
C  52.74000 26.22500 43.69400
C  54.39500 29.29100 45.02800
C  51.25100 28.04700 44.09000
O  50.73200 29.11100 44.51200
C  50.46600 26.96100 43.42700
C  50.07900 27.52200 42.12600
O  50.85300 27.93400 41.26200
O  48.67600 27.51300 41.92300
C  48.22900 28.00500 40.60800
H  51.75600 20.07800 42.56900
H  58.00000 21.44900 43.00100
H  56.72500 27.59300 44.60700
H  49.02000 24.18400 42.97300
H  49.96400 21.81200 41.67700
H  48.79600 22.43100 44.20700
H  50.27300 21.48700 44.55700
H  48.99500 20.79300 43.64200
H  50.12500 23.43500 40.18500
H  50.05700 25.20100 40.69700
H  47.70700 24.70600 41.13300
H  47.87500 23.20600 40.43900
H  53.04100 18.31300 41.42800
H  53.42000 17.71800 43.02600
H  54.37500 17.42000 41.71000
H  58.92300 19.74800 42.37800
H  59.09600 18.19800 43.16600
H  58.43200 19.56800 44.05200
H  59.47000 23.74100 43.05300
H  58.68400 25.77600 45.09800
H  60.47500 23.18600 44.90500
H  58.99400 22.45500 45.34300
H  59.28100 24.05400 46.00500
H  60.03900 26.43900 43.10200
H  58.60600 27.36000 43.08000
H  57.93700 25.27300 41.26300
H  59.70700 25.68000 40.99100
H  58.41800 26.90400 40.89500
H  55.22000 29.05200 45.69800
H  53.53300 29.68200 45.56900
H  54.74400 30.09400 44.37800
H  49.56500 26.73300 43.99700
H  48.39700 29.07400 40.48000
H  47.14400 27.90800 40.60600
H  48.69900 27.46600 39.78400

