158

Mg 16.51300 53.27200 26.50300
C  18.65500 51.81900 28.87700
C  14.27100 53.94600 29.09400
C  14.63800 54.90600 24.28800
C  18.87300 52.44300 24.03800
N  16.49500 52.98200 28.71600
C  17.52800 52.38400 29.51100
C  17.27400 52.40200 31.02700
C  15.77100 52.80900 30.96400
C  15.50600 53.32900 29.50600
C  14.74700 51.80300 31.41500
C  18.13800 53.43000 31.79300
C  18.37400 53.13700 33.31600
H  17.33400 52.36600 34.08200
N  14.71400 54.21200 26.63300
C  13.90100 54.29200 27.76200
C  12.70900 54.97800 27.45300
C  12.88300 55.46800 26.13000
C  14.10200 54.87600 25.61100
C  11.73000 55.36600 28.48600
C  12.03800 56.48100 25.35400
O  12.21300 56.68200 24.19600
C  10.75700 56.93700 25.93800
N  16.70100 53.59700 24.52100
C  15.77100 54.30300 23.77000
C  16.08700 54.23600 22.24600
C  17.49800 53.64700 22.21100
C  17.72300 53.17600 23.68200
C  15.15200 53.24500 21.52700
C  18.72100 54.56300 21.66900
C  19.63700 55.26100 22.78000
N  18.37700 52.30600 26.38200
C  19.22100 52.04200 25.30800
C  20.45700 51.45000 25.84700
C  20.22200 51.29800 27.19500
C  18.98600 51.88900 27.51400
C  21.64400 50.90900 25.16700
C  20.82800 50.78700 28.41300
O  21.92400 50.29800 28.63000
C  19.84100 51.19700 29.56500
C  19.48300 50.09600 30.49000
O  18.63500 49.21900 30.32900
O  20.32700 50.10400 31.63800
C  19.97700 49.08100 32.61800
H  13.62500 54.21200 29.93400
H  14.12300 55.54400 23.56600
H  19.66400 52.29700 23.29900
H  17.38400 51.43500 31.51800
H  15.60200 53.65900 31.62500
H  13.79200 52.21400 31.74300
H  15.10800 51.28600 32.30400
H  14.57200 51.07500 30.62300
H  17.59300 54.37400 31.79300
H  19.11100 53.54400 31.31600
H  18.50700 54.06700 33.86800
H  19.26000 52.50500 33.38000
H  10.71800 55.17400 28.12900
H  11.85700 56.42000 28.73300
H  11.71500 54.81900 29.42800
H  10.26700 57.61100 25.23500
H  10.77000 57.61800 26.78900
H  10.12200 56.06600 26.10100
H  16.09600 55.24100 21.82500
H  17.58800 52.84300 21.48100
H  14.77100 53.71700 20.62100
H  14.36800 52.79900 22.13900
H  15.65400 52.36400 21.12700
H  18.25300 55.38900 21.13300
H  19.29300 54.09500 20.86800
H  20.61200 54.77800 22.72600
H  19.24400 55.11700 23.78700
H  19.59500 56.33200 22.58300
H  21.49500 50.10600 24.44400
H  22.43700 50.58300 25.84000
H  22.18500 51.65500 24.58500
H  20.44200 51.90900 30.13100
H  20.26100 48.05000 32.40800
H  18.90200 49.09500 32.79700
H  20.48900 49.40600 33.52400
Mg 1.58900 43.14000 25.54100
C  3.24000 43.12700 28.62300
C  -1.21400 41.94200 27.24700
C  0.29900 42.54900 22.53100
C  4.58000 43.96700 24.01600
N  1.03100 42.77500 27.74800
C  1.83100 42.88500 28.84800
C  1.05600 42.55800 30.10200
C  -0.24800 41.95000 29.54900
C  -0.19100 42.27400 28.09900
C  -0.40900 40.40300 29.83200
C  1.00000 43.80800 30.96800
C  1.54300 43.69100 32.39800
H  0.58100 43.03800 33.42200
N  -0.20600 42.32600 24.93100
C  -1.26100 41.90100 25.80400
C  -2.43700 41.54800 24.93400
C  -2.02800 41.70800 23.54200
C  -0.59100 42.19700 23.61300
C  -3.66700 41.13400 25.60500
C  -2.82600 41.59200 22.20200
O  -2.42200 41.68000 21.05600
C  -4.29700 41.39700 22.28000
N  2.37300 43.17400 23.55300
C  1.60200 43.01700 22.49300
C  2.38100 43.32400 21.14100
C  3.64100 44.06500 21.70400
C  3.51600 43.74000 23.20900
C  2.57200 42.11700 20.15600
C  3.63700 45.62400 21.26400
C  4.67200 45.97900 20.22100
N  3.48300 43.55000 26.10000
C  4.63300 43.78200 25.38600
C  5.77600 43.98000 26.27900
C  5.24700 43.68100 27.52400
C  3.87000 43.43700 27.41300
C  7.23300 44.28300 25.88500
C  5.72300 43.35400 28.83700
O  6.88000 43.21200 29.30400
C  4.35800 43.16400 29.66800
C  4.50300 41.85600 30.46100
O  4.52100 40.70400 30.01700
O  4.69600 42.21500 31.83400
C  4.67300 41.23000 32.88100
H  -2.05300 41.56800 27.83700
H  -0.17200 42.54200 21.54600
H  5.41700 44.32200 23.41200
H  1.75100 41.88900 30.60800
H  -1.04900 42.52800 30.01000
H  0.48900 40.08900 30.36500
H  -0.41700 39.89000 28.87000
H  -1.29500 40.11200 30.39500
H  -0.04500 44.07300 31.13100
H  1.46500 44.66600 30.48300
H  1.78900 44.72700 32.63000
H  2.43900 43.08000 32.29200
H  -3.45700 40.79000 26.61800
H  -4.06200 40.25100 25.10200
H  -4.49100 41.82500 25.78600
H  -4.77700 41.58200 21.31900
H  -4.77500 42.11000 22.95100
H  -4.46600 40.42700 22.74600
H  1.75500 43.99100 20.54800
H  4.63900 43.70600 21.45500
H  3.60900 41.86500 20.37400
H  2.65100 42.48800 19.13400
H  1.86600 41.30300 20.32100
H  3.81400 46.15700 22.19800
H  2.68800 45.95700 20.84500
H  4.11400 46.29100 19.33800
H  5.34900 45.13900 20.06800
H  5.27000 46.82000 20.57100
H  7.44600 45.33600 25.70200
H  7.43900 43.78200 24.93900
H  7.87700 43.97400 26.70900
H  4.16400 44.00200 30.33700
H  5.13400 41.55900 33.81300
H  5.21600 40.36400 32.50300
H  3.67800 40.80900 33.02900

