158

Mg 9.79900 47.36900 26.29200
C  7.60700 47.71900 28.92100
C  12.33300 48.35300 28.43000
C  11.86400 47.43500 23.68400
C  7.07000 47.27800 24.03900
N  9.85600 48.16500 28.32600
C  8.87200 48.06700 29.24900
C  9.41800 48.23400 30.70300
C  10.81200 48.87400 30.43600
C  11.04700 48.43700 28.97800
C  10.77200 50.42600 30.57400
C  9.47400 46.93400 31.53600
C  10.47800 46.96200 32.75800
H  10.08400 46.08100 34.00800
N  11.89000 47.64500 26.10000
C  12.75600 47.98500 27.10500
C  14.08300 48.11300 26.58200
C  13.95900 47.71200 25.18700
C  12.53400 47.60700 24.94300
C  15.34400 48.56000 27.35800
C  15.06300 47.47500 24.23200
O  14.87500 47.01300 23.13800
C  16.49300 47.50900 24.69100
N  9.47800 47.40000 24.19200
C  10.51600 47.39700 23.31800
C  10.14500 47.38000 21.87000
C  8.60200 47.12600 21.97500
C  8.35200 47.22000 23.46600
C  10.47000 48.61200 21.06100
C  8.13800 45.79200 21.27300
C  7.48500 45.92600 19.86100
N  7.72300 47.49700 26.35100
C  6.66800 47.51000 25.40300
C  5.41500 47.39800 26.09300
C  5.72200 47.34900 27.47900
C  7.16200 47.51500 27.58400
C  4.18200 47.43300 25.35600
C  5.18700 47.27000 28.76600
O  4.03400 47.24300 29.19800
C  6.37700 47.39400 29.78500
C  6.61700 46.04900 30.42200
O  7.11200 45.10000 29.81300
O  6.18300 46.01100 31.80600
C  6.49700 44.71400 32.51300
H  13.17100 48.54100 29.10400
H  12.57700 47.44200 22.85800
H  6.17300 47.07200 23.45100
H  8.85000 48.96800 31.27500
H  11.60000 48.42200 31.03800
H  10.10200 50.72000 31.38200
H  10.46500 51.00100 29.70000
H  11.76600 50.72600 30.90400
H  9.63400 46.05500 30.91200
H  8.49200 46.67200 31.93100
H  10.47400 47.99600 33.10400
H  11.42200 46.65200 32.31000
H  15.13800 48.82600 28.39500
H  15.75900 49.44000 26.86600
H  16.12100 47.80300 27.25300
H  16.65700 48.51000 25.09000
H  17.01200 47.30000 23.75500
H  16.73000 46.67500 25.35100
H  10.57900 46.46400 21.46900
H  7.97500 47.93400 21.59900
H  9.58000 49.22000 20.89900
H  11.04300 48.46000 20.14600
H  11.05800 49.25200 21.71900
H  7.35300 45.42200 21.93300
H  8.94600 45.06400 21.34800
H  7.44800 46.97600 19.57000
H  6.50700 45.45300 19.76900
H  8.13300 45.49400 19.09900
H  3.75100 46.43300 25.31000
H  4.31900 47.66200 24.29900
H  3.46000 48.01800 25.92600
H  6.14000 48.24700 30.42100
H  6.45300 44.75900 33.60100
H  7.50500 44.31800 32.39100
H  5.72900 43.98800 32.24600
Mg -2.15000 34.14800 26.35900
C  -3.68900 32.42000 28.95500
C  -0.85300 36.41300 28.64400
C  -1.16700 36.09000 23.78700
C  -4.02300 32.20300 24.09000
N  -2.17100 34.29900 28.48500
C  -2.85800 33.47300 29.36500
C  -2.53200 33.80900 30.84300
C  -1.84900 35.26400 30.66700
C  -1.62900 35.36500 29.16500
C  -2.68400 36.51200 31.19100
C  -1.52300 32.79800 31.52500
C  -1.13000 33.08400 32.97400
H  -1.64900 32.25600 34.20300
N  -0.94500 35.95400 26.21800
C  -0.45100 36.70600 27.23900
C  0.38700 37.75700 26.63700
C  0.31600 37.65300 25.23500
C  -0.61200 36.47200 24.98900
C  1.22300 38.71100 27.43300
C  1.04700 38.54300 24.15700
O  0.72700 38.38300 22.97200
C  1.94500 39.70100 24.48600
N  -2.71200 34.30000 24.30700
C  -2.09200 35.09800 23.46100
C  -2.53900 34.83600 22.02300
C  -3.10900 33.40600 22.08800
C  -3.32900 33.30100 23.60100
C  -3.63300 35.85400 21.52700
C  -2.10600 32.20500 21.52900
C  -1.03700 31.69200 22.44800
N  -3.54400 32.55100 26.42100
C  -4.19300 31.89100 25.46000
C  -4.98600 30.89700 26.06800
C  -4.86200 31.04100 27.42300
C  -3.94700 32.08900 27.59800
C  -5.82700 29.89000 25.29100
C  -5.28200 30.53800 28.70000
O  -6.04300 29.59700 28.97300
C  -4.49000 31.44100 29.74200
C  -5.28100 32.03500 30.75500
O  -6.15200 32.93500 30.59300
O  -4.90400 31.54100 31.91200
C  -5.53700 32.11600 33.13100
H  -0.47300 37.13300 29.37200
H  -0.80500 36.70100 22.95700
H  -4.53700 31.51600 23.41500
H  -3.43600 33.89400 31.44600
H  -0.87900 35.31600 31.16100
H  -3.37500 36.09500 31.92300
H  -3.32300 37.01700 30.46700
H  -2.09200 37.22600 31.76400
H  -0.60200 32.61400 30.97300
H  -2.05500 31.85400 31.64500
H  -1.42300 34.12800 33.08900
H  -0.04500 33.10600 33.07600
H  2.28100 38.59000 27.20400
H  1.10600 38.65300 28.51500
H  0.78900 39.63800 27.05600
H  2.36900 40.02800 23.53600
H  2.75400 39.26900 25.07600
H  1.44200 40.53600 24.97300
H  -1.71000 34.94100 21.32400
H  -4.04800 33.37600 21.53600
H  -3.90800 36.52400 22.34200
H  -4.57200 35.46100 21.13700
H  -3.20600 36.34500 20.65300
H  -1.59600 32.63800 20.66800
H  -2.87200 31.48000 21.25700
H  -1.30100 30.78100 22.98400
H  -0.97800 32.51400 23.16200
H  -0.09900 31.53500 21.91600
H  -6.65200 30.40500 24.79900
H  -6.12400 29.13500 26.01800
H  -5.06500 29.49200 24.62100
H  -3.73800 30.83900 30.25300
H  -4.73400 32.34400 33.83200
H  -6.10200 31.24800 33.47200
H  -6.11500 33.03900 33.08900

