158

Mg -9.37000 39.98300 43.33900
C  -8.24000 36.91300 42.20000
C  -6.71600 41.52900 41.90800
C  -10.94900 42.90800 43.85400
C  -12.57600 38.32400 43.98900
N  -7.71300 39.27100 42.23200
C  -7.45900 37.97300 41.78600
C  -6.22600 37.95200 40.93200
C  -5.71100 39.45900 40.82700
C  -6.69400 40.14200 41.81700
C  -4.21600 39.73500 41.09600
C  -6.33300 37.29400 39.51700
C  -5.28300 36.12100 39.28200
H  -4.30700 36.40900 38.07900
N  -8.84700 41.97000 42.93000
C  -7.65500 42.38500 42.45600
C  -7.61300 43.89900 42.46700
C  -8.84800 44.32400 43.08800
C  -9.60600 43.04500 43.32200
C  -6.42500 44.73500 41.92700
C  -9.14200 45.69200 43.37000
O  -8.28200 46.53000 43.23100
C  -10.41300 46.11000 43.96700
N  -11.46900 40.52300 43.87400
C  -11.84300 41.81400 44.00500
C  -13.18200 41.97100 44.66600
C  -13.73300 40.52600 44.55400
C  -12.51700 39.73200 44.08200
C  -13.08800 42.39200 46.16100
C  -14.90000 40.30600 43.55100
C  -16.12000 39.71600 44.27400
N  -10.16900 38.02600 43.33100
C  -11.45800 37.52900 43.65800
C  -11.45800 36.06200 43.65000
C  -10.23100 35.75000 42.97500
C  -9.49900 36.99100 42.88800
C  -12.58600 35.16600 43.90100
C  -9.33600 34.73600 42.49600
O  -9.50200 33.52000 42.55800
C  -8.02100 35.38900 41.93000
C  -6.90300 34.88800 42.75300
O  -6.51200 35.23500 43.88300
O  -6.26200 33.98800 41.93300
C  -5.17900 33.13800 42.57400
H  -5.99100 42.03400 41.26600
H  -11.40300 43.88500 44.03700
H  -13.51600 37.88600 44.32900
H  -5.60200 37.42700 41.65600
H  -6.03800 39.80100 39.84500
H  -3.64700 38.83200 41.32100
H  -4.15500 40.29500 42.02900
H  -3.76800 40.19400 40.21400
H  -6.18400 37.99800 38.69900
H  -7.31400 36.85500 39.33200
H  -5.84100 35.22700 39.00400
H  -4.74100 35.88000 40.19700
H  -6.71300 45.28800 41.03400
H  -5.65000 44.02200 41.64500
H  -6.15500 45.39000 42.75600
H  -10.44600 47.19800 43.90900
H  -10.67400 45.76500 44.96700
H  -11.23500 45.77100 43.33700
H  -13.71300 42.74000 44.10500
H  -14.12500 40.19300 45.51500
H  -12.11100 42.82100 46.38600
H  -13.20200 41.56200 46.85800
H  -13.87900 43.08000 46.45600
H  -14.53800 39.66500 42.74700
H  -15.18500 41.19600 42.98900
H  -16.92300 40.22200 43.73700
H  -16.24400 39.94000 45.33400
H  -16.27400 38.65400 44.08500
H  -13.25300 34.91100 43.07700
H  -13.25100 35.61700 44.63700
H  -12.12500 34.26300 44.30000
H  -7.75100 35.17300 40.89700
H  -4.80000 32.25500 42.06000
H  -5.58800 32.78600 43.52100
H  -4.29500 33.72000 42.83700
Mg -2.00500 34.02500 27.23200
C  -3.42400 32.13900 29.83200
C  -0.31300 35.85100 29.39100
C  -0.92000 35.93700 24.51300
C  -3.73600 32.07400 24.96400
N  -1.86700 33.92400 29.44200
C  -2.48800 33.13600 30.29700
C  -1.91900 33.31800 31.76100
C  -1.00200 34.59300 31.55700
C  -1.04900 34.85200 30.02300
C  -1.23400 35.88700 32.51600
C  -1.30400 32.03700 32.41200
C  -1.88500 31.56200 33.73100
H  -0.98700 31.69100 34.97600
N  -0.86200 35.63200 26.93300
C  -0.21200 36.23100 27.99900
C  0.67800 37.28000 27.49100
C  0.50300 37.26900 26.09400
C  -0.45400 36.22100 25.76900
C  1.56900 38.14200 28.38600
C  1.21200 38.20900 25.06900
O  0.97200 38.18400 23.85900
C  2.05600 39.34500 25.49700
N  -2.29100 34.00500 25.04400
C  -1.75100 34.88800 24.14200
C  -2.30200 34.79000 22.73400
C  -2.77700 33.31700 22.75500
C  -2.96800 33.07400 24.34600
C  -3.34800 35.97200 22.49500
C  -1.83000 32.27600 22.14200
C  -0.22000 32.32200 22.30900
N  -3.35200 32.55800 27.31400
C  -3.97300 31.82900 26.28700
C  -4.82700 30.81300 26.82500
C  -4.56600 30.90800 28.16700
C  -3.72100 31.96400 28.41700
C  -5.61500 29.76800 26.07000
C  -4.98000 30.31100 29.43500
O  -5.77300 29.39100 29.61200
C  -4.27400 31.14600 30.61000
C  -5.33100 31.80000 31.46400
O  -5.95900 32.82900 31.21800
O  -5.47400 31.12800 32.69200
C  -6.27700 31.77300 33.69600
H  0.41500 36.27100 30.08700
H  -0.64600 36.59700 23.68800
H  -4.16900 31.39900 24.22200
H  -2.88300 33.52800 32.22500
H  -0.00300 34.20600 31.75500
H  -0.34700 36.47300 32.75700
H  -1.61500 35.56500 33.48500
H  -1.84600 36.55700 31.91300
H  -0.23900 32.25500 32.50100
H  -1.49300 31.20100 31.74000
H  -2.27300 30.54300 33.73200
H  -2.71600 32.24800 33.89100
H  2.58500 38.22500 28.00200
H  1.75900 37.70800 29.36800
H  1.13200 39.13700 28.47500
H  1.54200 39.95600 26.23800
H  2.24500 40.04100 24.67900
H  2.98300 38.89100 25.84800
H  -1.39200 34.96400 22.16000
H  -3.75500 33.26200 22.27700
H  -2.92800 36.94800 22.73600
H  -4.19400 35.86600 23.17400
H  -3.64600 35.86400 21.45200
H  -2.07000 32.17000 21.08400
H  -2.13100 31.26600 22.41800
H  0.25300 32.50500 21.34400
H  0.15600 31.36400 22.66700
H  0.18200 33.12100 22.93300
H  -5.27500 29.80600 25.03500
H  -6.68600 29.87900 26.23500
H  -5.37600 28.75900 26.40600
H  -3.77700 30.44700 31.28300
H  -6.90700 31.05700 34.22400
H  -6.92500 32.60100 33.40900
H  -5.71100 32.25200 34.49400

