158

Mg 47.35600 16.44700 28.29200
C  45.32500 16.00100 31.04700
C  49.65000 18.05700 30.18700
C  49.48600 16.85000 25.51300
C  44.82200 15.13800 26.25300
N  47.40500 17.05200 30.42300
C  46.51000 16.61500 31.37700
C  46.95900 17.02300 32.78300
C  48.19000 17.98700 32.46400
C  48.43300 17.70000 30.89900
C  48.02300 19.50900 32.82600
C  47.38400 15.74000 33.63000
C  47.87700 15.90700 35.04400
H  47.39300 17.14300 35.78100
N  49.26700 17.30000 27.89100
C  50.00300 17.96300 28.78900
C  51.21500 18.42300 28.21400
C  51.23600 18.03200 26.86400
C  49.94400 17.46400 26.69700
C  52.17700 19.39000 29.00700
C  52.33400 18.30300 25.77100
O  52.12800 18.11500 24.61200
C  53.68600 18.73700 26.10800
N  47.14400 16.24400 26.14400
C  48.14700 16.46900 25.23300
C  47.52700 16.12600 23.87200
C  46.20900 15.36300 24.12800
C  46.00500 15.56800 25.59800
C  47.21200 17.38700 23.02400
C  46.24200 13.83300 23.68500
C  44.94200 13.40200 22.89200
N  45.51800 15.60400 28.54300
C  44.62100 15.08900 27.63000
C  43.54900 14.46500 28.36900
C  43.78400 14.81500 29.74600
C  44.96800 15.57600 29.73500
C  42.41100 13.75800 27.76600
C  43.22500 14.67400 31.06500
O  42.22400 14.10200 31.47700
C  44.22300 15.46500 32.03900
C  43.55300 16.46500 32.96800
O  43.17800 17.58900 32.73400
O  43.47300 15.89200 34.20600
C  43.15100 16.66500 35.37100
H  50.32700 18.46700 30.94000
H  50.01900 17.03200 24.57700
H  44.06200 14.60100 25.68200
H  46.10400 17.49800 33.26500
H  49.01400 17.66500 33.10100
H  48.68100 19.59800 33.69000
H  47.02400 19.87900 33.05600
H  48.36800 20.15700 32.02000
H  48.24100 15.30000 33.12000
H  46.64300 14.94100 33.59400
H  48.96600 15.90000 35.02000
H  47.38700 15.06400 35.53200
H  53.19100 18.99700 28.93700
H  51.91000 19.51100 30.05700
H  52.23600 20.37900 28.55300
H  54.35900 18.98800 25.28800
H  54.21000 18.05400 26.77700
H  53.61900 19.69800 26.61800
H  48.19600 15.43100 23.36400
H  45.33800 15.71600 23.57500
H  47.84800 18.21800 23.32800
H  46.16900 17.63600 22.82700
H  47.54000 17.21000 22.00000
H  46.31400 13.22800 24.58900
H  47.15900 13.53100 23.17800
H  45.19100 13.00500 21.90800
H  44.23800 14.20200 22.66200
H  44.43000 12.70800 23.55700
H  42.46500 13.45800 26.72000
H  41.53700 14.39400 27.91000
H  42.20800 12.90700 28.41700
H  44.57400 14.69400 32.72400
H  42.17300 16.40800 35.77800
H  43.34500 17.73700 35.34000
H  43.74900 16.31800 36.21400
Mg 48.96500 36.04200 26.39900
C  47.30800 34.47600 28.93100
C  49.26200 38.85500 28.09400
C  51.04900 37.35300 23.90200
C  48.46300 33.22900 24.43400
N  48.35600 36.57300 28.33000
C  47.79700 35.75500 29.26200
C  47.46900 36.55200 30.60200
C  47.76200 37.98800 30.18300
C  48.58500 37.85100 28.81400
C  46.57400 38.85900 30.13900
C  48.29000 36.07100 31.86800
C  47.34500 35.59600 33.11700
H  46.18400 36.58500 33.52000
N  50.04200 37.79400 26.12600
C  49.98600 38.89200 26.88300
C  50.86200 39.95600 26.47300
C  51.28600 39.60800 25.14100
C  50.72700 38.18000 24.97300
C  50.87700 41.29900 27.19000
C  52.06800 40.47700 24.13100
O  52.37900 40.09700 23.01100
C  52.46300 41.90400 24.63300
N  49.49600 35.46000 24.47400
C  50.47200 36.08500 23.69500
C  50.98800 35.17200 22.59600
C  50.17200 33.91500 22.74100
C  49.31800 34.19600 23.94700
C  50.93000 35.79200 21.20000
C  51.00300 32.63000 22.93500
C  50.81400 31.57100 21.78500
N  47.89900 34.27900 26.55500
C  47.76800 33.19600 25.67900
C  46.85400 32.21400 26.19900
C  46.59600 32.65200 27.49700
C  47.40400 33.87200 27.68000
C  46.55100 30.90000 25.54800
C  45.87800 32.42400 28.74200
O  45.05100 31.57400 29.01200
C  46.37900 33.55400 29.75600
C  47.19900 32.84200 30.81700
O  48.41200 32.78000 30.85600
O  46.32500 32.15100 31.55300
C  46.75500 31.53600 32.83200
H  49.34100 39.74900 28.71700
H  51.88000 37.51900 23.21200
H  48.28700 32.35700 23.80100
H  46.41000 36.34900 30.76400
H  48.44500 38.57300 30.79900
H  46.25000 38.87300 29.09900
H  46.85800 39.83200 30.54100
H  45.79700 38.31400 30.67600
H  48.89300 36.88600 32.26900
H  48.90400 35.20600 31.61700
H  48.02400 35.36300 33.93700
H  46.92600 34.59300 33.03900
H  51.83900 41.61800 27.59100
H  50.26800 41.33700 28.09400
H  50.39900 41.99700 26.50300
H  51.52800 42.46500 24.61400
H  53.07100 42.28700 23.81400
H  52.96900 41.96100 25.59700
H  52.02900 34.87100 22.71000
H  49.46600 33.78800 21.92000
H  50.24800 36.64000 21.26200
H  50.65400 35.08500 20.41700
H  51.90800 36.15400 20.88100
H  50.83600 32.04000 23.83700
H  52.08500 32.74000 23.00400
H  50.32800 32.00600 20.91200
H  50.01300 30.98100 22.23100
H  51.70800 30.99100 21.55800
H  45.46100 30.89200 25.53000
H  46.92600 30.04500 26.11000
H  46.85900 30.94800 24.50400
H  45.60800 34.05800 30.33900
H  47.82100 31.31300 32.78600
H  46.18700 30.61500 32.96500
H  46.50900 32.10400 33.72900

