158

Mg 40.29700 9.49200 29.26100
C  42.60400 10.75000 31.88500
C  38.32700 8.18100 31.74500
C  38.42100 8.16200 26.80400
C  42.78200 10.14300 27.00600
N  40.48500 9.45800 31.56800
C  41.34500 10.18400 32.38100
C  40.80300 10.20300 33.88100
C  39.57300 9.21600 33.80700
C  39.40400 8.95400 32.26300
C  39.65500 7.95900 34.70400
C  40.62100 11.65500 34.38400
C  41.09800 12.09900 35.74800
H  39.90300 12.36000 36.70400
N  38.54900 8.46200 29.35500
C  37.86900 7.94600 30.44800
C  36.81600 7.11200 30.00100
C  36.75200 7.19300 28.51600
C  37.91500 7.94000 28.17400
C  35.99900 6.29600 30.97300
C  35.75300 6.54900 27.60200
O  35.77800 6.60500 26.35800
C  34.72100 5.71100 28.19800
N  40.46900 9.37900 27.15000
C  39.54500 8.85300 26.30100
C  39.98000 8.96400 24.82100
C  41.51500 9.35400 24.99700
C  41.64200 9.63900 26.48700
C  39.72700 7.70800 24.04800
C  41.84600 10.52900 24.08300
C  41.48800 11.99100 24.49900
N  42.19600 10.30300 29.35200
C  43.10900 10.45100 28.29300
C  44.33300 11.15400 28.81700
C  44.10600 11.19500 30.13400
C  42.85100 10.63500 30.43800
C  45.46200 11.61600 27.91700
C  44.77800 11.60300 31.41500
O  45.90500 12.09000 31.60400
C  43.71700 11.50600 32.48700
C  44.30100 10.85200 33.69500
O  44.52400 9.64200 33.83500
O  44.54200 11.77500 34.70900
C  44.75000 11.45200 36.10600
H  37.70400 7.76800 32.54200
H  37.94700 7.52800 26.05200
H  43.54600 10.45600 26.29100
H  41.58600 9.67200 34.42200
H  38.67100 9.69500 34.18800
H  39.57800 7.07600 34.06900
H  38.79500 7.91400 35.37200
H  40.50200 7.98500 35.38900
H  39.56100 11.90200 34.43200
H  40.99000 12.34000 33.62100
H  41.61300 13.01300 35.45200
H  41.78000 11.31500 36.07700
H  35.92400 5.29100 30.55700
H  35.08100 6.87900 31.04600
H  36.34300 6.20500 32.00400
H  34.28500 6.16900 29.08600
H  35.21600 4.78600 28.49700
H  33.93300 5.47600 27.48200
H  39.51300 9.80700 24.31300
H  42.13500 8.49900 24.72700
H  38.75500 7.78800 23.56000
H  39.69600 6.95800 24.83900
H  40.52000 7.47900 23.33600
H  41.43600 10.32200 23.09400
H  42.93000 10.47400 23.98300
H  41.25600 12.01000 25.56300
H  40.68800 12.38900 23.87500
H  42.31300 12.70300 24.45500
H  44.85400 12.05900 27.12800
H  46.06800 10.86500 27.41100
H  46.02900 12.33100 28.51400
H  43.37500 12.44400 32.92400
H  45.27100 10.51400 36.30200
H  43.88000 11.41800 36.76200
H  45.50300 12.20800 36.32800
Mg 16.94700 51.54600 26.25500
C  18.77700 50.41100 28.87100
C  14.42700 52.52400 28.56900
C  15.02300 52.66500 23.62600
C  19.12200 50.22300 23.95600
N  16.63900 51.41500 28.50400
C  17.56400 50.97900 29.35000
C  17.27400 51.25400 30.84800
C  15.70800 51.67900 30.68500
C  15.52200 51.88900 29.16000
C  14.71700 50.63700 31.26900
C  18.17800 52.35500 31.54100
C  18.68900 52.06400 32.92200
H  17.75000 51.46900 33.98600
N  15.00900 52.46100 26.16600
C  14.13900 52.77300 27.18100
C  13.01100 53.50200 26.62900
C  13.23400 53.58000 25.23500
C  14.42400 52.83600 24.96800
C  11.94200 54.17300 27.47000
C  12.35800 54.30900 24.17800
O  12.70800 54.50200 23.01200
C  11.16400 55.10700 24.76300
N  17.02100 51.50200 24.08700
C  16.22500 52.11300 23.25700
C  16.59800 51.90300 21.82700
C  18.06700 51.39500 21.97800
C  18.07400 50.96700 23.39500
C  15.73100 51.01100 20.97700
C  19.13600 52.51700 21.81300
C  20.34800 52.06500 20.95700
N  18.53800 50.58800 26.32200
C  19.38600 50.04900 25.32500
C  20.47100 49.36400 25.95400
C  20.19700 49.52900 27.29000
C  19.06900 50.26600 27.47800
C  21.54400 48.70900 25.21600
C  20.76500 49.09500 28.53500
O  21.71600 48.36200 28.84300
C  19.96700 49.95700 29.63300
C  19.71400 48.94000 30.69600
O  18.79700 48.13900 30.68900
O  20.68200 48.94200 31.66800
C  20.53300 48.09100 32.83600
H  13.74900 52.93800 29.31800
H  14.58700 53.25300 22.81600
H  19.83700 49.76000 23.27200
H  17.33500 50.28000 31.33300
H  15.54300 52.64300 31.16600
H  14.18700 51.17300 32.05700
H  15.27800 49.84300 31.76300
H  14.04400 50.17400 30.54700
H  17.59100 53.27300 31.58500
H  19.12100 52.41600 30.99900
H  18.97800 53.08400 33.17400
H  19.67100 51.59400 32.87100
H  10.91800 53.91500 27.19900
H  12.17300 55.23800 27.45900
H  11.99200 53.94500 28.53500
H  11.31400 55.75400 25.62800
H  10.39900 54.34800 24.92300
H  10.75600 55.81800 24.04500
H  16.46200 52.86400 21.33100
H  18.33700 50.56900 21.32000
H  14.78100 50.71700 21.42500
H  16.29600 50.18000 20.55500
H  15.43100 51.71600 20.20200
H  19.61800 52.81900 22.74300
H  18.64000 53.38400 21.37600
H  20.72000 52.80300 20.24700
H  20.07500 51.26100 20.27300
H  21.28700 51.79000 21.43900
H  21.17200 48.24500 24.30300
H  22.11300 47.98100 25.79400
H  22.16600 49.58600 25.03900
H  20.56100 50.78200 30.02500
H  20.16000 48.81900 33.55800
H  21.56100 47.90600 33.14800
H  19.73200 47.35400 32.77400

