158

Mg 16.75300 -1.87600 27.54300
C  15.87300 0.53400 30.21000
C  18.42300 -3.63700 29.92300
C  18.10300 -3.57600 25.09900
C  15.69300 0.59700 25.26100
N  17.24100 -1.49100 29.87500
C  16.72800 -0.51200 30.69200
C  17.13400 -0.81200 32.13100
C  18.13900 -1.98300 31.94800
C  17.88300 -2.44800 30.51100
C  19.61300 -1.73400 32.13000
C  15.92700 -1.14700 33.06700
C  16.01700 -0.47500 34.43400
H  17.27500 -0.03800 35.08200
N  18.00400 -3.53000 27.49800
C  18.55300 -4.16700 28.60800
C  19.26200 -5.32500 28.10200
C  19.04200 -5.42800 26.68700
C  18.30300 -4.18400 26.33300
C  19.94600 -6.27100 29.08800
C  19.50400 -6.56000 25.64800
O  19.34800 -6.55100 24.44700
C  20.16000 -7.81200 26.16700
N  16.86700 -1.54500 25.46000
C  17.60000 -2.37200 24.70700
C  17.51600 -1.92200 23.24100
C  16.79000 -0.52400 23.29700
C  16.41500 -0.44700 24.76400
C  18.85400 -1.92500 22.54300
C  15.55900 -0.47700 22.34900
C  15.51700 0.59000 21.28300
N  15.78400 -0.00700 27.65700
C  15.35300 0.86400 26.63900
C  14.85400 2.16600 27.08000
C  15.00000 2.00000 28.47300
C  15.58800 0.71900 28.77500
C  14.26100 3.33100 26.25500
C  14.74300 2.69100 29.75000
O  14.28100 3.80800 29.96700
C  15.23700 1.71500 30.85400
C  16.19700 2.50600 31.69200
O  17.37000 2.61600 31.44700
O  15.55300 2.88100 32.86200
C  16.35600 3.54000 33.82700
H  18.99000 -4.26400 30.61400
H  18.46700 -4.20600 24.28500
H  15.51600 1.32700 24.46800
H  17.76400 -0.02600 32.54900
H  17.73800 -2.79500 32.55400
H  19.85200 -2.48500 32.88200
H  19.79100 -0.70800 32.45300
H  20.27500 -1.96900 31.29700
H  15.88900 -2.20300 33.33400
H  15.06000 -0.96900 32.43100
H  15.54800 -1.12300 35.17500
H  15.39800 0.42000 34.37000
H  19.43500 -6.06500 30.02800
H  21.01900 -6.09200 29.16200
H  19.60200 -7.30100 28.99200
H  21.16300 -7.65200 26.56200
H  20.28500 -8.58100 25.40500
H  19.50900 -8.13100 26.98100
H  16.84600 -2.62600 22.74800
H  17.63200 0.14700 23.12500
H  18.98400 -0.95400 22.06500
H  18.99800 -2.79600 21.90400
H  19.61800 -1.94200 23.32000
H  14.72800 -0.28400 23.02700
H  15.34400 -1.40900 21.82600
H  14.76100 1.29900 21.62300
H  15.06600 0.19500 20.37300
H  16.38400 1.20100 21.03400
H  13.17900 3.25100 26.35700
H  14.51200 3.13600 25.21200
H  14.51600 4.33500 26.59400
H  14.44400 1.48700 31.56700
H  15.98400 3.15900 34.77800
H  16.23500 4.62000 33.74800
H  17.41600 3.28900 33.78300
Mg 36.97900 49.01700 24.99800
C  36.84300 47.18600 28.07800
C  36.22900 51.83800 26.74900
C  36.80500 50.70000 22.12200
C  37.41900 46.00200 23.29300
N  36.44200 49.41200 27.16600
C  36.53800 48.58500 28.19900
C  36.21600 49.26800 29.57000
C  35.73200 50.72800 29.11100
C  36.23800 50.69300 27.56500
C  34.21500 50.91800 29.18400
C  37.36700 49.31900 30.47600
C  37.02900 49.56600 31.98600
H  35.60500 49.63100 32.41200
N  36.57800 51.04500 24.56200
C  36.40000 52.09300 25.41800
C  36.40500 53.33400 24.71900
C  36.59100 52.99900 23.35100
C  36.66300 51.51200 23.28600
C  36.24800 54.67500 25.39500
C  36.56800 53.86100 22.12100
O  36.78600 53.54400 20.99100
C  36.36900 55.31400 22.25200
N  36.81900 48.40900 22.98700
C  36.89700 49.26300 21.95600
C  37.15200 48.64900 20.56400
C  37.42000 47.15300 21.07900
C  37.18300 47.16300 22.55700
C  36.02400 48.69300 19.50100
C  38.90100 46.68800 20.80300
C  39.10800 45.20700 20.32000
N  37.15800 47.03300 25.55300
C  37.32300 45.92600 24.70900
C  37.44700 44.76800 25.52400
C  37.28700 45.26700 26.86300
C  37.08700 46.60700 26.79200
C  37.62300 43.35100 25.04800
C  37.32500 44.84400 28.23800
O  37.47400 43.76400 28.77000
C  37.10500 46.08100 29.11700
C  35.99400 45.99800 30.18900
O  34.83800 45.80800 29.94700
O  36.48200 45.78700 31.50600
C  35.51600 45.24500 32.46000
H  35.95800 52.68200 27.38600
H  36.86800 51.15300 21.13100
H  37.43400 45.04000 22.77800
H  35.38800 48.64300 29.90300
H  36.19900 51.55900 29.64100
H  33.91000 51.79300 29.75700
H  33.68100 50.01400 29.47700
H  33.93900 50.93700 28.13000
H  37.97100 50.17400 30.17100
H  37.97700 48.44900 30.23400
H  37.51300 50.46500 32.36900
H  37.48700 48.74500 32.53800
H  36.26200 54.48700 26.46800
H  35.36500 55.24800 25.11000
H  37.10300 55.29600 25.13100
H  36.96600 55.69800 23.07900
H  35.32700 55.52900 22.49100
H  36.57800 55.79800 21.29800
H  38.10200 48.97500 20.14000
H  36.78700 46.32600 20.75700
H  36.36000 48.99200 18.50800
H  35.31400 49.45400 19.82700
H  35.43200 47.77800 19.52200
H  39.57100 46.83800 21.65000
H  39.24200 47.32300 19.98600
H  38.19900 44.68900 20.01400
H  39.53200 44.62500 21.13800
H  39.83600 45.19500 19.50900
H  37.72100 42.73300 25.94100
H  38.41500 43.33900 24.29800
H  36.64300 43.13900 24.62200
H  38.09900 46.02400 29.56300
H  35.13900 46.09100 33.03500
H  36.11000 44.60200 33.10900
H  34.66100 44.72800 32.02400

