158

Mg 30.12800 57.95100 39.92600
C  27.24300 56.04100 38.89700
C  32.04700 55.17300 39.06800
C  32.74200 59.98200 40.18900
C  27.97600 60.71200 40.47300
N  29.68400 55.85900 38.90200
C  28.40700 55.27400 38.72000
C  28.56300 53.85700 38.43700
C  30.06500 53.54900 38.91000
C  30.67200 54.92600 38.92800
C  30.22500 52.83000 40.32500
C  28.20100 53.21700 37.09800
C  28.77100 53.94700 35.93500
H  27.96400 54.71700 34.91600
N  32.13900 57.64500 39.63800
C  32.70900 56.42700 39.30300
C  34.12800 56.70300 39.18400
C  34.38500 58.07700 39.51300
C  33.04900 58.64200 39.75000
C  35.17600 55.64300 38.89800
C  35.71800 58.74900 39.48700
O  36.73800 58.04800 39.45500
C  35.83000 60.26100 39.52200
N  30.33400 60.14300 40.16400
C  31.51900 60.69700 40.30500
C  31.45900 62.18400 40.63700
C  29.93100 62.39500 40.95400
C  29.38400 61.04000 40.42300
C  32.42600 62.75200 41.79700
C  29.34200 63.68000 40.27400
C  28.92600 64.86300 41.18000
N  27.99700 58.33500 39.87600
C  27.33000 59.43800 40.11600
C  25.96300 59.11000 40.16900
C  25.84200 57.84900 39.58900
C  27.10300 57.32400 39.44200
C  24.85200 60.13600 40.33400
C  24.89800 56.77600 39.10100
O  23.65600 56.76200 38.99600
C  25.78700 55.62200 38.61500
C  25.24700 54.43200 39.36700
O  25.32200 54.25500 40.54400
O  24.61200 53.60400 38.43700
C  23.79200 52.64700 39.14100
H  32.67200 54.28000 39.01500
H  33.57800 60.68000 40.26800
H  27.26500 61.51400 40.68300
H  27.85300 53.29200 39.04100
H  30.60300 52.92000 38.20000
H  30.67600 51.84200 40.23400
H  29.27600 52.75500 40.85600
H  30.75400 53.46800 41.03300
H  27.14600 53.00300 36.92800
H  28.71800 52.25900 37.15400
H  29.42700 53.26600 35.39200
H  29.24600 54.79400 36.43000
H  34.76900 54.63800 39.01100
H  35.93300 55.75600 39.67500
H  35.50400 55.74300 37.86300
H  36.81000 60.58300 39.16800
H  35.69100 60.71900 40.50100
H  35.16400 60.64800 38.75100
H  31.71200 62.70900 39.71600
H  29.80400 62.45900 42.03400
H  32.76100 63.75700 41.54200
H  33.32000 62.17900 42.04600
H  31.80200 62.87600 42.68300
H  28.42400 63.47200 39.72300
H  30.01100 64.11700 39.53300
H  27.83800 64.91500 41.22000
H  29.41100 65.82300 40.99900
H  29.09000 64.62700 42.23200
H  23.95200 59.71800 40.78500
H  24.70500 60.53300 39.33000
H  25.18400 60.97800 40.94200
H  25.62400 55.47700 37.54700
H  24.35400 52.18400 39.95200
H  23.57000 51.80200 38.48900
H  22.82200 53.00700 39.48400
Mg 6.57000 54.35700 41.67600
C  5.15300 51.27600 41.03100
C  9.48400 53.27900 40.23800
C  7.81500 57.53700 41.71900
C  3.42400 55.56200 42.47600
N  7.07600 52.54900 40.51100
C  6.40700 51.39300 40.47900
C  7.11700 50.36700 39.65800
C  8.66400 50.93300 39.74400
C  8.40400 52.34100 40.20300
C  9.70200 50.06600 40.52500
C  6.58600 50.30600 38.19100
C  6.41500 48.91400 37.53200
H  7.02500 48.79400 36.15900
N  8.43900 55.23100 41.17800
C  9.44900 54.63300 40.56100
C  10.49800 55.50800 40.31800
C  10.08100 56.72900 40.65300
C  8.74100 56.56400 41.27200
C  11.84700 55.09200 39.58300
C  10.94000 57.94500 40.40900
O  12.01000 57.91500 39.84100
C  10.45500 59.40000 40.74200
N  5.68400 56.29100 41.94500
C  6.46000 57.42200 42.12600
C  5.58300 58.62200 42.62600
C  4.23100 57.91600 42.95300
C  4.45300 56.54700 42.41000
C  6.28300 59.30700 43.89000
C  2.96900 58.73200 42.60600
C  1.89600 58.76600 43.70300
N  4.65300 53.58900 41.80400
C  3.48100 54.24700 42.15900
C  2.40400 53.20100 42.17300
C  2.99100 52.00400 41.84900
C  4.39300 52.34900 41.59100
C  1.01000 53.56200 42.74300
C  2.96600 50.51200 41.70900
O  2.02400 49.76200 41.94400
C  4.27000 50.08100 41.22500
C  3.91900 49.24300 40.05200
O  3.23400 49.48200 39.03800
O  4.33600 47.97600 40.38200
C  3.67600 46.83900 39.81800
H  10.45900 53.05300 39.80100
H  8.20400 58.55600 41.66600
H  2.52500 56.05900 42.84800
H  6.95300 49.40000 40.13400
H  9.04700 51.15800 38.74900
H  9.08200 49.25300 40.90300
H  10.13900 50.56500 41.39100
H  10.38200 49.56800 39.83400
H  7.22100 50.91100 37.54300
H  5.60200 50.76300 38.29000
H  5.43400 48.43800 37.50500
H  6.99200 48.17500 38.08800
H  11.68900 55.11300 38.50500
H  12.23100 54.09000 39.77300
H  12.71500 55.66500 39.91000
H  11.22900 60.13600 40.52900
H  10.14800 59.50300 41.78200
H  9.65400 59.73500 40.08300
H  5.59200 59.38900 41.85200
H  4.32200 57.72700 44.02300
H  7.33100 59.00800 43.92400
H  5.80600 59.10500 44.84900
H  6.19600 60.35400 43.60200
H  2.59700 58.23000 41.71300
H  3.15600 59.77000 42.33200
H  2.20600 58.42300 44.69000
H  1.06400 58.14600 43.36800
H  1.46300 59.76600 43.69400
H  0.35300 52.82500 42.28200
H  0.71500 54.52600 42.32900
H  0.82400 53.37300 43.80100
H  4.75600 49.36600 41.88900
H  2.83100 47.25100 39.26600
H  3.48100 46.16900 40.65600
H  4.38600 46.32500 39.17000

