158

Mg 17.58200 53.05400 26.58300
C  19.47400 51.30000 29.00600
C  14.97300 53.26800 28.90500
C  15.63000 54.33400 24.24100
C  19.88000 52.00200 24.15800
N  17.36000 52.40400 28.69200
C  18.36400 51.95600 29.53400
C  17.93300 52.00500 31.01100
C  16.38500 52.27500 30.86700
C  16.26200 52.73100 29.40500
C  15.39400 51.12600 31.25700
C  18.71600 53.06600 31.77500
C  18.60900 53.35400 33.33700
H  17.82200 52.33600 34.12300
N  15.62200 53.96200 26.61700
C  14.75200 53.96300 27.66900
C  13.55000 54.57800 27.23300
C  13.68700 54.89600 25.87500
C  15.01000 54.44000 25.52400
C  12.34500 54.76200 28.18200
C  12.71400 55.60300 24.96600
O  12.99600 55.95500 23.77200
C  11.38000 56.02000 25.42300
N  17.68100 53.16300 24.45900
C  16.78800 53.76800 23.74900
C  17.19400 53.75900 22.22100
C  18.58100 53.15600 22.26000
C  18.76600 52.71800 23.69900
C  16.18000 52.92100 21.33500
C  19.74100 54.12200 21.82700
C  20.32600 55.19500 22.83600
N  19.24900 51.67800 26.55500
C  20.15100 51.47400 25.48100
C  21.23500 50.65000 25.94800
C  21.03300 50.49300 27.33800
C  19.82800 51.25700 27.68100
C  22.36100 50.13000 25.08600
C  21.61400 49.94400 28.55400
O  22.61300 49.27800 28.72500
C  20.53100 50.47900 29.71200
C  20.09600 49.24800 30.44600
O  19.51900 48.24800 29.93600
O  20.38100 49.37900 31.74300
C  20.06100 48.34700 32.74300
H  14.12900 53.16800 29.58900
H  15.25300 54.96700 23.43600
H  20.58600 51.85900 23.33800
H  18.13200 51.01100 31.41100
H  16.05000 53.18400 31.36600
H  15.04300 50.61400 30.36100
H  14.53200 51.59500 31.73200
H  15.83500 50.43400 31.97400
H  18.39400 53.98900 31.29200
H  19.77200 52.86200 31.59700
H  18.23500 54.36000 33.52800
H  19.67100 53.27600 33.57000
H  12.01100 55.79000 28.04200
H  12.65400 54.50200 29.19400
H  11.58100 54.06600 27.83500
H  10.89200 55.13000 25.82000
H  10.90500 56.36100 24.50300
H  11.44600 56.85900 26.11600
H  17.31500 54.80300 21.93300
H  18.79500 52.30000 21.62000
H  16.62100 52.14100 20.71500
H  15.67400 53.60300 20.65200
H  15.35200 52.49600 21.90200
H  19.38300 54.77100 21.02700
H  20.47700 53.46700 21.36100
H  20.08600 54.96400 23.87400
H  19.95000 56.21200 22.72400
H  21.40900 55.18600 22.70700
H  22.00100 49.17900 24.69400
H  23.27800 49.99800 25.66200
H  22.61400 50.84000 24.30000
H  21.11300 51.06400 30.42500
H  20.85900 47.61000 32.82800
H  19.11700 47.88200 32.45900
H  19.93300 48.99500 33.61000
Mg -12.19800 17.24500 40.85700
C  -8.81600 16.22600 40.66600
C  -11.09600 20.51400 40.06700
C  -15.26100 18.16400 39.58800
C  -13.17400 13.92000 40.85300
N  -10.18300 18.26500 40.38000
C  -8.93900 17.64500 40.44200
C  -7.79800 18.60900 40.36100
C  -8.54400 19.98700 40.47900
C  -10.02400 19.60300 40.36300
C  -8.25500 20.83400 41.76700
C  -7.08100 18.36900 38.99800
C  -5.57300 18.15200 39.19800
H  -4.82700 17.08500 38.43800
N  -13.15600 19.10000 40.26900
C  -12.47000 20.32600 39.96100
C  -13.48600 21.29800 39.58500
C  -14.75500 20.61100 39.52600
C  -14.43000 19.24800 39.80600
C  -13.11900 22.66500 39.16700
C  -16.06900 21.26800 39.20100
O  -16.07500 22.47400 39.00100
C  -17.40000 20.55900 39.07900
N  -13.94500 16.17600 40.28700
C  -15.06800 16.82100 39.81300
C  -16.19000 15.77600 39.52600
C  -15.55100 14.45900 40.09100
C  -14.12600 14.84500 40.46100
C  -17.54600 16.26100 40.08400
C  -15.63200 13.26700 39.10700
C  -14.77700 13.16400 37.79300
N  -11.25900 15.41300 40.87000
C  -11.76200 14.15500 40.85700
C  -10.63500 13.16200 41.08600
C  -9.50300 13.93800 40.98700
C  -9.93300 15.25300 40.81200
C  -10.67000 11.62500 41.29800
C  -8.04800 13.86800 40.96400
O  -7.26400 12.87700 41.01700
C  -7.54900 15.36000 40.75800
C  -6.60000 15.64700 41.81700
O  -6.85400 16.25800 42.84300
O  -5.29100 15.31500 41.50100
C  -4.31800 15.42600 42.60900
H  -10.76000 21.55200 40.00800
H  -16.21400 18.41100 39.11500
H  -13.49100 12.87500 40.85300
H  -7.10300 18.44100 41.18400
H  -8.34300 20.57500 39.58300
H  -7.84300 20.10500 42.46500
H  -9.07300 21.43400 42.16700
H  -7.48500 21.59300 41.62500
H  -7.07500 19.26300 38.37400
H  -7.46300 17.46000 38.53500
H  -5.36200 17.91800 40.24200
H  -5.08600 19.12000 39.07400
H  -13.63400 22.97800 38.25900
H  -12.05900 22.78900 38.94400
H  -13.38100 23.36800 39.95900
H  -17.53900 20.29900 38.03000
H  -18.15400 21.31800 39.28700
H  -17.62000 19.69200 39.70100
H  -16.30200 15.56000 38.46300
H  -16.09700 14.25100 41.01200
H  -18.36400 15.54400 40.15300
H  -17.92400 17.06900 39.45700
H  -17.31800 16.42100 41.13800
H  -16.58600 13.44800 38.61100
H  -15.71400 12.32400 39.64800
H  -15.36200 12.78500 36.95500
H  -14.05500 12.36300 37.95800
H  -14.24600 14.07800 37.52800
H  -11.72300 11.41000 41.47600
H  -10.13100 11.21200 42.15000
H  -10.26900 11.12900 40.41300
H  -7.09400 15.36500 39.76700
H  -4.76400 15.42500 43.60300
H  -3.54700 16.14200 42.32200
H  -3.83700 14.45200 42.52100

