158

Mg 48.29500 14.32700 28.53700
C  46.20300 14.44800 31.20300
C  50.58400 16.29700 30.36800
C  50.23000 14.49700 25.93500
C  45.74400 12.85200 26.63000
N  48.23600 15.41000 30.51900
C  47.34100 15.14600 31.52100
C  47.73400 15.90800 32.79900
C  49.02000 16.65800 32.39300
C  49.36400 16.08700 31.01800
C  49.03000 18.27300 32.57500
C  47.95400 14.95200 34.02400
C  47.07100 15.20500 35.25200
H  47.71300 15.51500 36.62900
N  50.22000 15.19100 28.19200
C  50.99000 15.97600 29.06300
C  52.19100 16.43500 28.31400
C  52.08800 15.89700 27.04400
C  50.81900 15.11600 27.01200
C  53.23300 17.22600 28.99200
C  52.94000 16.08100 25.86800
O  52.73700 15.56300 24.79700
C  54.19800 16.86700 25.96400
N  47.94000 13.97900 26.42000
C  48.92800 14.09800 25.53700
C  48.59000 13.40800 24.18400
C  47.16000 12.76000 24.52900
C  46.93900 13.19700 25.93900
C  48.51300 14.42400 23.02800
C  47.10300 11.20900 24.18700
C  48.02400 10.33300 25.07500
N  46.41400 13.72900 28.79200
C  45.50700 13.01600 27.97800
C  44.37700 12.57900 28.78400
C  44.62500 13.08000 30.08000
C  45.88300 13.75500 30.01500
C  43.20100 11.84200 28.29300
C  44.10100 13.20800 31.38500
O  43.07600 12.82800 31.87400
C  45.11600 14.02500 32.22500
C  44.30100 15.18500 32.83600
O  43.78400 16.12500 32.24400
O  44.14800 14.98700 34.17700
C  43.34500 15.81500 35.04700
H  51.31000 16.87400 30.94500
H  50.75100 14.47900 24.97500
H  45.05600 12.23300 26.05100
H  47.05000 16.69400 33.11900
H  49.90300 16.23700 32.87300
H  50.04300 18.67700 32.56000
H  48.61300 18.34900 33.57900
H  48.44000 18.82900 31.84600
H  48.96600 15.01600 34.42500
H  47.87900 13.93200 33.64800
H  46.52200 14.28900 35.46900
H  46.35800 15.99100 35.00200
H  54.16700 16.66300 29.01500
H  53.13100 17.41600 30.06000
H  53.47900 18.15100 28.47100
H  55.02200 16.24200 26.30900
H  54.09000 17.86200 26.39600
H  54.41700 17.05800 24.91400
H  49.36000 12.65100 24.03300
H  46.44800 13.35200 23.95500
H  49.17200 15.28500 23.13900
H  47.47400 14.64300 22.78400
H  48.88800 13.87900 22.16100
H  47.56000 10.96900 23.22800
H  46.06500 10.88000 24.22200
H  48.34900 10.71400 26.04400
H  48.95200 10.10200 24.55300
H  47.59000 9.36500 25.32300
H  42.85700 12.53200 27.52300
H  42.49700 11.70800 29.11500
H  43.39500 10.90300 27.77500
H  45.39800 13.35600 33.03800
H  43.01600 16.63400 34.40700
H  44.01500 16.18300 35.82400
H  42.43700 15.33800 35.41500
Mg -10.75500 17.70200 42.25900
C  -7.30600 18.17200 42.89400
C  -11.07600 21.21300 42.31500
C  -13.78100 17.31000 40.99500
C  -10.07200 14.30300 41.93000
N  -9.37800 19.43500 42.53800
C  -8.08200 19.38800 42.72700
C  -7.43500 20.82900 42.63100
C  -8.69300 21.74200 42.91400
C  -9.81100 20.79100 42.62800
C  -8.64900 22.35000 44.38200
C  -6.95800 21.00700 41.10000
C  -5.37200 21.00400 40.88100
H  -4.80900 20.18100 39.65700
N  -12.20800 19.07200 41.71000
C  -12.18600 20.47100 41.82400
C  -13.40100 21.01900 41.36400
C  -14.15400 19.92600 40.86400
C  -13.37900 18.66600 41.14000
C  -13.85700 22.51800 41.24000
C  -15.48100 19.99700 40.15900
O  -16.01500 21.06800 39.97700
C  -16.13300 18.79400 39.52600
N  -11.75300 16.07000 41.61300
C  -13.03500 16.17200 41.27200
C  -13.59800 14.82200 40.99200
C  -12.46300 13.80600 41.34800
C  -11.35500 14.75300 41.62100
C  -14.96600 14.51200 41.68500
C  -12.18000 12.74600 40.28300
C  -12.74100 11.27500 40.51700
N  -9.03100 16.41200 42.55600
C  -8.96100 15.04900 42.35200
C  -7.59500 14.61900 42.57000
C  -6.88200 15.82300 42.83200
C  -7.80400 16.87700 42.78900
C  -7.13100 13.20700 42.45900
C  -5.57700 16.38800 43.06300
O  -4.47000 15.83000 43.13200
C  -5.76700 17.99400 43.20000
C  -5.23800 18.53500 44.50000
O  -5.54700 18.13900 45.55700
O  -4.32500 19.51900 44.30800
C  -3.72300 20.19300 45.46300
H  -11.20600 22.28700 42.46000
H  -14.80300 17.08300 40.68300
H  -9.96000 13.21800 41.88100
H  -6.59500 21.09100 43.27500
H  -8.69600 22.59600 42.23700
H  -9.57200 22.09800 44.90600
H  -8.75200 23.42600 44.23800
H  -7.72700 22.09900 44.90600
H  -7.23100 22.00100 40.74700
H  -7.29600 20.17800 40.47800
H  -4.93700 20.50400 41.74700
H  -4.95300 22.00100 40.74500
H  -13.05300 23.16700 41.58800
H  -14.71200 22.84700 41.83200
H  -14.04300 22.82000 40.21000
H  -16.91900 19.16300 38.86800
H  -16.50400 18.20900 40.36700
H  -15.45000 18.30200 38.83300
H  -13.77800 14.76400 39.91800
H  -12.63600 13.37100 42.33200
H  -15.70500 14.24500 40.92900
H  -15.23000 15.39200 42.27000
H  -14.96100 13.73100 42.44600
H  -11.11700 12.52300 40.18500
H  -12.39500 13.15100 39.29400
H  -13.54100 11.29000 41.25800
H  -11.88800 10.66800 40.82200
H  -13.21900 10.93300 39.59900
H  -7.72500 12.69900 41.69900
H  -7.06700 12.68200 43.41200
H  -6.11700 13.27100 42.06700
H  -5.10000 18.36000 42.42000
H  -4.47100 20.40800 46.22600
H  -3.31700 21.13600 45.09800
H  -2.86600 19.71700 45.94000

