158

Mg 47.57900 24.57000 29.09400
C  48.45400 26.96400 31.53200
C  46.35500 22.60900 31.64100
C  46.77800 22.39800 26.78600
C  48.96000 26.58200 26.71000
N  47.42500 24.84400 31.32300
C  47.74800 25.88400 32.09400
C  47.30900 25.75100 33.59000
C  46.82000 24.20400 33.65500
C  46.89900 23.85000 32.14200
C  47.70100 23.31700 34.62500
C  46.15800 26.73700 33.96700
C  46.66200 27.71300 35.07900
H  47.08000 26.98100 36.41700
N  46.72300 22.69700 29.15200
C  46.25700 22.09700 30.35200
C  45.65100 20.85300 29.93600
C  45.59000 20.90200 28.47600
C  46.34300 22.05500 28.09100
C  45.06900 19.77600 30.91300
C  44.90900 19.89100 27.46300
O  45.10600 19.96000 26.23500
C  43.91600 18.84500 27.88700
N  48.09400 24.38000 27.10800
C  47.62100 23.39300 26.34300
C  48.09500 23.52300 24.87300
C  48.65500 24.98400 24.83500
C  48.57100 25.34600 26.31000
C  49.25800 22.50800 24.63400
C  47.89400 25.93000 23.97500
C  48.79500 27.01500 23.35200
N  48.53500 26.36500 29.03700
C  49.04300 27.11700 27.99600
C  49.48700 28.40700 28.39000
C  49.29800 28.33400 29.76900
C  48.72800 27.08000 30.13400
C  50.23700 29.39800 27.56900
C  49.63500 29.04400 30.97900
O  50.12000 30.15700 31.08700
C  49.04000 28.27700 32.14500
C  50.03000 27.98900 33.19800
O  50.81300 27.08800 33.31700
O  49.86300 28.98900 34.13500
C  50.62200 28.73800 35.42100
H  45.97800 21.92300 32.40200
H  46.39500 21.93600 25.87400
H  49.20600 27.27700 25.90400
H  48.26400 25.89900 34.09400
H  45.75100 24.23900 33.86800
H  48.57700 22.88700 34.13900
H  46.99100 22.58900 35.01700
H  47.98800 23.89500 35.50300
H  45.28000 26.18100 34.29600
H  45.91400 27.34200 33.09300
H  45.89600 28.48300 35.16600
H  47.53900 28.16800 34.61900
H  45.18800 18.77300 30.50200
H  44.01400 19.95600 31.12000
H  45.47200 19.92500 31.91500
H  43.11300 19.28300 28.48000
H  44.50500 18.16900 28.50700
H  43.51600 18.22000 27.08900
H  47.21700 23.20400 24.31100
H  49.72500 25.06600 24.64600
H  50.11000 23.11800 24.33500
H  48.90900 21.87600 23.81700
H  49.41500 21.98600 25.57800
H  47.03900 26.41600 24.44500
H  47.47000 25.36800 23.14300
H  48.37200 28.01900 23.40500
H  48.94700 26.76800 22.30100
H  49.83400 27.05900 23.67600
H  50.34400 30.29000 28.18600
H  49.76100 29.64000 26.61800
H  51.22000 28.99700 27.32300
H  48.11900 28.75000 32.48600
H  50.13100 27.95100 35.99300
H  50.72900 29.58700 36.09600
H  51.65800 28.44600 35.25500
Mg 36.35400 48.85300 25.05900
C  36.72500 47.05700 28.15800
C  35.14200 51.61500 26.74500
C  35.62700 50.24000 22.07900
C  37.65500 46.01700 23.49600
N  35.97200 49.24100 27.12500
C  36.26400 48.41700 28.27800
C  36.05100 49.18200 29.58900
C  35.20100 50.41400 29.12700
C  35.54500 50.46900 27.56500
C  33.67500 50.33300 29.54800
C  37.38200 49.37000 30.53200
C  37.22100 48.84300 31.97000
H  35.94500 49.18200 32.74700
N  35.59100 50.66500 24.53700
C  35.24900 51.64500 25.37900
C  34.93600 52.86000 24.58100
C  34.93700 52.46400 23.18100
C  35.38600 51.06900 23.20100
C  34.76100 54.22600 25.29800
C  34.66700 53.34000 21.91300
O  34.67500 52.83100 20.75000
C  34.13200 54.73600 22.08700
N  36.53400 48.13900 23.11900
C  36.16000 48.94700 22.03000
C  36.55300 48.36500 20.70500
C  37.56200 47.16500 21.12800
C  37.25200 47.05500 22.65300
C  35.44300 47.96000 19.70800
C  39.03600 47.39000 20.73100
C  39.90500 46.22600 20.34200
N  36.97700 46.90300 25.61100
C  37.47900 45.87200 24.85400
C  37.70700 44.74800 25.66100
C  37.45400 45.19200 26.98000
C  37.04000 46.48300 26.87500
C  38.13100 43.33700 25.11300
C  37.41400 44.75500 28.33800
O  37.68400 43.69400 28.81900
C  37.01800 46.00900 29.20000
C  35.93600 45.69300 30.15500
O  34.71800 45.68300 29.96600
O  36.39800 45.33100 31.37200
C  35.46700 45.15800 32.52300
H  34.64800 52.37200 27.35800
H  35.48000 50.71100 21.10500
H  37.97300 45.17600 22.87600
H  35.37100 48.43800 30.00400
H  35.62300 51.34000 29.51600
H  33.08500 50.30300 28.63200
H  33.27600 51.27300 29.93000
H  33.39900 49.57100 30.27700
H  37.80100 50.37600 30.50100
H  38.11300 48.74400 30.02100
H  38.09400 49.27400 32.46000
H  37.63900 47.84300 32.08500
H  35.44600 54.92500 24.81800
H  35.12200 54.13500 26.32200
H  33.73600 54.58200 25.18900
H  34.94800 55.35800 22.45300
H  33.30300 54.75800 22.79400
H  33.85200 55.33900 21.22300
H  37.09100 49.18700 20.23200
H  37.19200 46.20400 20.77100
H  35.47700 46.97300 19.24700
H  35.51100 48.68200 18.89500
H  34.43000 47.93900 20.11100
H  39.55000 47.70200 21.64000
H  39.07500 48.16100 19.96200
H  40.28700 45.71800 21.22700
H  40.69000 46.81900 19.87500
H  39.39700 45.59900 19.60900
H  38.04500 43.27500 24.02800
H  37.67300 42.48100 25.60800
H  39.18800 43.37800 25.37600
H  37.91900 46.24700 29.76700
H  35.67900 44.16300 32.91300
H  34.39200 45.21200 32.34600
H  35.80900 45.90000 33.24400

