158

Mg 35.20600 1.82500 28.79500
C  33.43500 3.27100 31.45300
C  37.94100 1.63200 30.76000
C  36.85100 0.98800 26.00500
C  32.36700 2.57100 26.71900
N  35.56800 2.38700 30.80700
C  34.66800 2.78500 31.79700
C  35.37600 2.81600 33.18200
C  36.81800 2.67000 32.86900
C  36.82600 2.24200 31.40200
C  37.72900 3.92700 33.40200
C  34.80700 1.72000 34.10300
C  34.72000 1.98900 35.69200
H  35.24600 3.35300 36.24100
N  37.09200 1.28800 28.50700
C  38.08300 1.25100 29.39700
C  39.32000 0.84200 28.73000
C  38.94300 0.45500 27.39000
C  37.56800 0.83500 27.26900
C  40.65000 0.81100 29.48000
C  39.86000 -0.10000 26.26400
O  39.43600 -0.31400 25.09900
C  41.25800 -0.38100 26.58300
N  34.58600 1.78500 26.58900
C  35.52100 1.34300 25.75000
C  34.84600 1.17400 24.35300
C  33.31100 1.43600 24.64200
C  33.37800 1.89900 26.03100
C  35.48100 2.14500 23.31900
C  32.50900 0.08700 24.52900
C  32.07300 -0.34600 23.09800
N  33.27200 2.71600 29.02800
C  32.31300 2.94900 28.07200
C  31.13300 3.57900 28.78300
C  31.50000 3.62600 30.16200
C  32.81000 3.18000 30.19400
C  29.84300 4.01800 28.18000
C  31.01500 3.99500 31.44600
O  29.94600 4.41800 31.83900
C  32.32900 3.80900 32.35200
C  32.71700 4.95900 33.15900
O  33.42100 5.84200 32.78200
O  31.98500 4.98600 34.31500
C  32.18800 6.12500 35.33100
H  38.82300 1.53600 31.39700
H  37.29700 0.70600 25.04800
H  31.37500 2.60700 26.26300
H  35.17800 3.81400 33.57300
H  37.28200 1.85800 33.42900
H  37.20700 4.51900 34.15400
H  38.09000 4.55000 32.58300
H  38.69100 3.59000 33.78900
H  35.43200 0.83100 34.01400
H  33.78500 1.47900 33.81200
H  35.29600 1.30200 36.31200
H  33.68300 1.82500 35.98500
H  41.26900 -0.02200 29.14700
H  40.61300 0.63200 30.55400
H  41.09100 1.78100 29.24600
H  41.82100 -0.41300 25.65000
H  41.32700 -1.26100 27.22200
H  41.65800 0.43900 27.17900
H  35.13200 0.15400 24.09800
H  32.84800 2.09600 23.90900
H  36.31100 2.77100 23.64500
H  34.77400 2.85900 22.89800
H  35.70900 1.59500 22.40600
H  31.68500 0.18900 25.23400
H  33.11200 -0.68000 25.01500
H  30.98400 -0.34200 23.14900
H  32.40800 -1.36100 22.88600
H  32.44100 0.25700 22.26800
H  29.94600 4.42200 27.17300
H  29.40800 4.68100 28.92800
H  29.18700 3.16600 28.00100
H  31.98900 3.09500 33.10300
H  32.94000 6.86100 35.04800
H  32.62900 5.74400 36.25200
H  31.27300 6.67000 35.56600
Mg 47.01800 16.25500 28.14500
C  44.86500 16.03800 30.93600
C  49.47100 17.59100 30.21800
C  48.62000 17.39500 25.33800
C  44.48400 14.90400 26.19800
N  46.97400 16.90900 30.26700
C  46.08300 16.68500 31.31300
C  46.69100 17.09100 32.73300
C  48.10200 17.68700 32.36700
C  48.20900 17.34300 30.80100
C  48.27600 19.21600 32.76500
C  46.76100 15.91200 33.85900
C  46.29300 16.16500 35.27400
H  46.24600 17.54100 35.87200
N  48.80500 17.26400 27.83300
C  49.72300 17.73100 28.79700
C  50.90800 18.19900 28.16700
C  50.71600 18.20700 26.77100
C  49.39200 17.53700 26.55800
C  52.08200 18.57600 28.97400
C  51.74300 18.65000 25.68200
O  51.51400 18.40500 24.52400
C  53.01100 19.39800 26.02800
N  46.66300 16.12000 26.12700
C  47.41200 16.71300 25.07000
C  46.77600 16.54400 23.71700
C  45.67300 15.44000 24.00500
C  45.62300 15.43200 25.55700
C  46.18500 17.84900 23.28900
C  46.02800 13.93100 23.56600
C  44.76100 13.13300 23.00700
N  45.11600 15.61800 28.41700
C  44.24100 14.98500 27.55400
C  43.08500 14.59500 28.23200
C  43.25700 14.92800 29.56100
C  44.51500 15.61300 29.63200
C  41.93800 13.80500 27.62000
C  42.72600 14.87200 30.95400
O  41.68000 14.46700 31.46300
C  43.77600 15.62900 31.87600
C  43.03400 16.78500 32.51600
O  42.57200 17.76200 31.91300
O  42.91200 16.61400 33.83700
C  42.03800 17.67200 34.51800
H  50.37500 17.82300 30.78400
H  49.11700 17.80400 24.45500
H  43.78900 14.52700 25.44500
H  46.08700 17.91600 33.11200
H  48.72700 17.11300 33.05100
H  47.33500 19.53900 33.21000
H  48.49500 19.77200 31.85300
H  49.08800 19.30400 33.48800
H  47.79200 15.56700 33.93300
H  46.28100 15.07500 33.35300
H  46.92700 15.52100 35.88300
H  45.29700 15.72200 35.28200
H  51.98600 18.40100 30.04500
H  52.25900 19.65000 28.91700
H  52.93100 18.00700 28.59400
H  53.63600 18.69400 26.57800
H  52.77000 20.32800 26.54300
H  53.53100 19.56000 25.08400
H  47.56100 16.23400 23.02600
H  44.67300 15.68700 23.65000
H  45.10000 17.75700 23.22800
H  46.74000 18.09000 22.38300
H  46.48300 18.57000 24.05000
H  46.50000 13.41300 24.40200
H  46.84000 13.97900 22.84000
H  44.53100 12.16100 23.44400
H  44.94400 12.88900 21.96000
H  43.83300 13.70500 23.04600
H  41.20600 13.71700 28.42300
H  42.36900 12.86300 27.28200
H  41.43300 14.36000 26.83000
H  44.20300 14.98600 32.64600
H  41.65800 18.53700 33.97400
H  42.45100 17.99400 35.47500
H  41.09500 17.19800 34.79000

