158

Mg 25.99800 -0.38000 28.99100
C  27.82900 -0.75100 31.96500
C  23.26700 0.20400 30.82200
C  24.35800 -0.25300 26.11500
C  28.95100 -1.60400 27.22600
N  25.61800 -0.31400 31.17400
C  26.49800 -0.49500 32.25900
C  25.82400 -0.14900 33.65700
C  24.38200 0.12300 33.17600
C  24.39000 -0.02700 31.62100
C  23.42700 -0.89600 33.82100
C  26.43700 1.08300 34.39600
C  25.93600 1.34000 35.82500
H  26.52600 2.52800 36.68500
N  24.03100 -0.10900 28.54700
C  23.03200 0.11400 29.39700
C  21.82500 0.47400 28.69100
C  22.17700 0.38300 27.30200
C  23.60900 0.07100 27.22500
C  20.45300 0.71400 29.34300
C  21.30700 0.54800 26.14500
O  21.71500 0.59300 24.99600
C  19.74600 0.78400 26.22600
N  26.52600 -1.01900 26.99800
C  25.62300 -0.87200 25.94700
C  26.35100 -0.89300 24.67100
C  27.69700 -1.53900 24.97300
C  27.75300 -1.38600 26.49500
C  25.61600 -1.57000 23.48900
C  28.96000 -1.00200 24.27100
C  29.11900 0.53700 24.19800
N  28.03200 -0.93200 29.45800
C  29.13400 -1.36700 28.64800
C  30.28700 -1.44300 29.45800
C  29.85800 -1.19000 30.78800
C  28.48600 -0.96700 30.76600
C  31.65000 -1.71700 28.89700
C  30.30800 -1.12700 32.15200
O  31.43700 -1.34100 32.61600
C  28.99100 -0.69100 32.92400
C  28.74600 -1.50700 34.10200
O  28.33000 -2.67600 34.16400
O  29.05000 -0.77600 35.18500
C  28.97700 -1.46200 36.49200
H  22.41400 0.45700 31.45500
H  23.90200 0.05400 25.17200
H  29.91200 -1.81700 26.75300
H  25.94000 -1.05700 34.24700
H  24.11100 1.14000 33.45900
H  24.09900 -1.66100 34.21000
H  22.83500 -1.37600 33.04100
H  22.70700 -0.51200 34.54400
H  26.13700 1.97500 33.84600
H  27.52500 1.08700 34.46000
H  26.31900 0.47300 36.36200
H  24.85000 1.41200 35.89200
H  19.71800 1.34900 28.84700
H  20.66800 1.32700 30.21900
H  20.04700 -0.23800 29.68400
H  19.33500 0.95600 25.23100
H  19.47300 1.64100 26.84200
H  19.28300 -0.13400 26.58600
H  26.46800 0.13800 24.33500
H  27.60100 -2.62000 24.87300
H  24.56900 -1.76700 23.71700
H  26.07500 -2.53100 23.25600
H  25.68300 -1.04700 22.53500
H  28.87100 -1.28500 23.22200
H  29.79700 -1.56600 24.68200
H  28.49700 1.16300 24.83800
H  28.99300 0.76200 23.13900
H  30.15000 0.57900 24.54900
H  31.63900 -1.24000 27.91700
H  31.77200 -2.77800 28.68000
H  32.41000 -1.22500 29.50400
H  29.10900 0.35100 33.22100
H  28.51400 -0.67200 37.08400
H  29.95000 -1.62700 36.95400
H  28.30800 -2.32200 36.52000
Mg 47.72200 14.86400 28.29600
C  45.59600 14.51600 30.98000
C  49.54600 17.10300 30.12300
C  49.79400 15.18900 25.63800
C  45.68300 12.90000 26.43600
N  47.58100 15.70900 30.34900
C  46.65000 15.34900 31.33200
C  47.01700 15.95000 32.65700
C  47.98700 17.15200 32.20600
C  48.42500 16.63500 30.82900
C  47.53400 18.62100 32.17000
C  47.80800 14.98900 33.60100
C  47.56500 15.27700 35.06300
H  48.81800 15.25600 36.01600
N  49.54100 15.86600 28.06600
C  50.07400 16.79300 28.86400
C  51.31300 17.30400 28.26100
C  51.43500 16.63800 27.06000
C  50.23400 15.85300 26.86400
C  52.02700 18.43900 28.84600
C  52.59400 16.82200 26.02100
O  52.57200 16.24600 24.92100
C  53.77500 17.62800 26.32400
N  47.72000 14.33500 26.24900
C  48.61800 14.50200 25.33900
C  48.34600 13.78800 23.98400
C  46.98100 13.19800 24.23800
C  46.76100 13.43900 25.72000
C  48.47400 14.74000 22.81000
C  46.79200 11.71500 23.80200
C  47.67100 10.64300 24.50900
N  45.93900 13.98400 28.60000
C  45.21400 13.14900 27.75900
C  44.01300 12.64200 28.39100
C  44.10700 13.22900 29.76500
C  45.27300 14.05200 29.73400
C  42.93100 11.91100 27.59100
C  43.52400 13.31300 31.08100
O  42.48600 12.96800 31.57000
C  44.47000 14.18800 31.89600
C  43.69800 15.46900 32.23300
O  43.54300 16.36400 31.44600
O  43.27800 15.49400 33.46900
C  42.51700 16.62500 33.97400
H  50.09300 17.89500 30.63900
H  50.56100 15.23800 24.86200
H  45.01800 12.29700 25.81400
H  46.18400 16.27800 33.27900
H  48.85900 17.10700 32.85800
H  47.47400 19.08100 31.18300
H  48.13900 19.22000 32.85000
H  46.54400 18.51800 32.61600
H  48.87800 14.85900 33.43500
H  47.45000 13.99500 33.33500
H  46.99400 14.45900 35.50200
H  46.89600 16.11300 35.26700
H  51.75200 19.38200 28.37300
H  53.10000 18.38800 28.65800
H  52.04900 18.37500 29.93400
H  54.22400 17.90800 25.37200
H  54.34100 17.16700 27.13400
H  53.39300 18.62400 26.55100
H  49.07800 12.98700 23.88300
H  46.20900 13.71400 23.66600
H  47.87800 14.49700 21.93100
H  49.53600 14.76100 22.56300
H  48.19700 15.72500 23.18500
H  46.99000 11.74300 22.73100
H  45.71900 11.54900 23.89000
H  48.20500 10.99300 25.39300
H  48.41800 10.23300 23.82900
H  46.97500 9.89300 24.88600
H  42.75000 10.91500 27.99400
H  43.06300 11.77400 26.51800
H  42.00000 12.46400 27.71800
H  44.56400 13.54100 32.76800
H  41.77900 16.31700 34.71500
H  42.04300 17.09300 33.11200
H  43.21800 17.30800 34.45300

