158

Mg -1.56900 17.69100 27.11600
C  -1.93700 15.41200 29.80900
C  -1.59300 20.24300 29.32800
C  -1.54800 19.64200 24.47200
C  -2.03600 14.86900 24.96400
N  -1.90100 17.84600 29.31700
C  -1.90000 16.81600 30.24000
C  -2.09600 17.37400 31.73000
C  -2.21100 18.92700 31.49000
C  -1.91500 19.03300 29.97500
C  -3.65700 19.43400 31.86500
C  -0.85200 17.00700 32.63700
C  -0.81600 17.75000 33.95100
H  -0.28000 16.93900 35.17600
N  -1.49300 19.62500 26.97000
C  -1.40300 20.56500 27.98200
C  -1.29400 21.85100 27.41300
C  -1.22000 21.69900 25.99600
C  -1.44800 20.25700 25.73300
C  -1.26000 23.14200 28.26300
C  -0.96500 22.82200 25.01400
O  -0.94400 22.56200 23.77500
C  -0.69600 24.28500 25.40200
N  -1.77900 17.29100 25.01000
C  -1.69900 18.26400 24.11300
C  -1.83800 17.72900 22.69800
C  -1.54100 16.21900 22.86400
C  -1.78900 16.09600 24.38100
C  -3.25700 18.01600 22.14600
C  -0.16000 15.66100 22.50300
C  1.05700 16.38900 23.01400
N  -1.88800 15.59100 27.26100
C  -2.18700 14.60500 26.33200
C  -2.41000 13.31300 26.96100
C  -2.29700 13.59500 28.33200
C  -1.93500 14.98400 28.46800
C  -2.74300 12.04900 26.32700
C  -2.32600 12.97600 29.59900
O  -2.53100 11.84400 29.98700
C  -2.10300 14.10600 30.68400
C  -0.87500 13.74100 31.47800
O  0.28100 14.04900 31.18700
O  -1.19500 13.07900 32.60100
C  -0.03200 12.85100 33.45400
H  -1.57700 21.07600 30.03500
H  -1.50700 20.30900 23.60900
H  -2.08400 14.17400 24.12300
H  -2.98700 16.91200 32.15600
H  -1.60100 19.45400 32.22400
H  -4.25700 18.78400 32.50100
H  -4.18900 19.59100 30.92600
H  -3.52100 20.37900 32.39100
H  0.02600 17.17900 32.01400
H  -0.86100 15.94800 32.89200
H  -1.77700 18.19800 34.20000
H  -0.10800 18.57800 33.91700
H  -2.20900 23.65900 28.11800
H  -0.39900 23.77500 28.04500
H  -1.16800 22.94500 29.33100
H  0.29400 24.38700 25.84600
H  -1.43600 24.77100 26.03800
H  -0.65700 24.84300 24.46700
H  -1.03000 18.19100 22.13000
H  -2.24800 15.69500 22.22100
H  -3.62300 18.89100 22.68400
H  -3.95900 17.19200 22.27400
H  -3.12400 18.21400 21.08300
H  -0.00900 15.58400 21.42600
H  -0.17000 14.62300 22.83700
H  1.59400 16.55400 22.08000
H  1.56800 15.80700 23.78000
H  0.77100 17.29600 23.54700
H  -2.99100 12.23500 25.28200
H  -3.54800 11.63300 26.93300
H  -1.87100 11.39600 26.35600
H  -2.96600 14.17500 31.34700
H  0.07700 13.72900 34.09100
H  0.95500 12.60800 33.06200
H  -0.43400 12.03800 34.05900
Mg 1.73800 42.69300 26.04500
C  2.88900 43.00000 29.34200
C  -1.35600 41.57100 27.47400
C  0.44600 42.17000 22.90100
C  4.75100 43.58000 24.80400
N  0.90400 42.25000 28.17200
C  1.55900 42.60400 29.37400
C  0.68900 42.23400 30.53500
C  -0.70400 41.69000 29.90100
C  -0.37000 41.87400 28.39800
C  -1.20700 40.25600 30.28000
C  0.43500 43.51100 31.38800
C  0.60500 43.40400 32.88000
H  0.30200 42.07600 33.48100
N  -0.12300 41.85000 25.26100
C  -1.24500 41.47600 26.03200
C  -2.28400 41.02500 25.15500
C  -1.78500 41.21800 23.80100
C  -0.42200 41.77000 23.94700
C  -3.57500 40.54500 25.71400
C  -2.53800 41.00700 22.55600
O  -2.04700 41.28900 21.43300
C  -4.00400 40.61000 22.53700
N  2.51700 42.64900 24.14300
C  1.82800 42.62900 22.97900
C  2.66900 43.10200 21.74700
C  3.86900 43.77000 22.46500
C  3.73800 43.28600 23.88400
C  3.08300 41.95700 20.84200
C  3.65900 45.34000 22.31800
C  4.32400 45.97200 21.07700
N  3.51900 43.18300 26.85400
C  4.68700 43.52200 26.24700
C  5.76700 43.67100 27.20300
C  5.08700 43.52500 28.41300
C  3.70300 43.18200 28.16700
C  7.15100 44.25000 27.00800
C  5.21200 43.70800 29.85800
O  6.18400 44.07400 30.47400
C  3.84600 43.33000 30.50400
C  4.26400 42.12600 31.31600
O  4.93400 41.15300 30.86700
O  3.98500 42.24400 32.66300
C  4.50700 41.18400 33.49800
H  -2.30100 41.17800 27.85500
H  0.03400 42.22300 21.89100
H  5.70200 43.74000 24.29300
H  1.19400 41.48400 31.14400
H  -1.58500 42.27900 30.15800
H  -1.70600 40.32100 31.24700
H  -0.28800 39.69200 30.44100
H  -1.84000 39.88300 29.47600
H  -0.59000 43.85700 31.24700
H  1.05800 44.35600 31.09400
H  0.08600 44.16500 33.46300
H  1.64200 43.63200 33.12900
H  -3.62300 40.25200 26.76300
H  -3.75300 39.68300 25.07100
H  -4.32000 41.33400 25.62200
H  -4.50200 40.80600 21.58700
H  -4.47800 41.34300 23.18900
H  -4.02400 39.61600 22.98300
H  2.03100 43.75100 21.14700
H  4.78400 43.32900 22.06900
H  2.26100 41.38300 20.41400
H  3.79400 41.32600 21.37600
H  3.51800 42.45700 19.97800
H  4.04600 45.81400 23.22000
H  2.60100 45.58000 22.21300
H  4.90300 46.74600 21.58000
H  3.65800 46.31400 20.28400
H  4.94300 45.23400 20.56800
H  7.43700 44.90900 27.82700
H  7.02900 44.75400 26.04900
H  7.95500 43.54300 26.80200
H  3.42400 44.11300 31.13400
H  3.98800 40.26700 33.22000
H  4.24100 41.31100 34.54700
H  5.59600 41.13900 33.47300

