158

Mg 8.24300 3.99400 27.39300
C  9.55900 2.25000 30.29500
C  6.15900 5.68200 29.36400
C  6.79100 5.10500 24.65700
C  10.06000 1.66000 25.43500
N  7.86000 3.90100 29.63900
C  8.61600 3.30800 30.59600
C  8.30700 3.91900 31.95400
C  7.12300 4.87500 31.75100
C  7.07000 4.87300 30.12400
C  5.77400 4.53600 32.46200
C  9.68800 4.44700 32.69000
C  9.56200 5.41100 33.93700
H  10.23100 5.00400 35.26200
N  6.80600 5.36200 27.03200
C  6.03200 5.94400 27.98900
C  5.17800 6.99300 27.33300
C  5.42300 6.93800 25.97100
C  6.38800 5.73000 25.81600
C  4.24600 7.90400 28.10800
C  4.86900 7.71400 24.75000
O  5.26100 7.54300 23.55600
C  3.72400 8.53700 25.00300
N  8.30100 3.31500 25.39300
C  7.65100 4.03200 24.44400
C  7.83700 3.45300 23.09000
C  9.09400 2.53400 23.29900
C  9.13000 2.49100 24.81200
C  6.59000 2.66200 22.52900
C  10.39100 3.08800 22.68300
C  11.36400 3.91100 23.47900
N  9.44100 2.23000 27.72300
C  10.12400 1.40500 26.85100
C  10.76700 0.30400 27.65400
C  10.60500 0.65700 28.98100
C  9.75000 1.77400 28.97600
C  11.64900 -0.77400 27.00800
C  11.05200 0.24200 30.29000
O  11.89000 -0.57100 30.56200
C  10.35200 1.27100 31.24400
C  9.63100 0.55900 32.35500
O  8.59900 0.02200 32.16300
O  10.28100 0.58500 33.54700
C  9.68700 -0.03600 34.71900
H  5.58800 6.30400 30.05700
H  6.28500 5.45400 23.75500
H  10.47200 0.97800 24.68900
H  7.84800 3.13300 32.55300
H  7.42600 5.90000 31.96600
H  5.04200 4.08500 31.79200
H  5.28700 5.43400 32.84400
H  5.83400 3.79400 33.25800
H  10.34800 4.79400 31.89600
H  10.14200 3.51600 33.03200
H  8.50100 5.43200 34.18800
H  9.81200 6.45900 33.77400
H  4.19400 8.96000 27.84400
H  4.47300 7.92000 29.17400
H  3.26300 7.43700 28.05200
H  3.39000 8.96500 24.05700
H  4.06700 9.40400 25.56800
H  2.82400 8.01100 25.32000
H  8.11400 4.29300 22.45300
H  8.88000 1.51600 22.97400
H  5.67800 2.85000 23.09600
H  6.82600 1.60300 22.42100
H  6.33400 3.26600 21.65800
H  10.05900 3.66600 21.82100
H  10.96300 2.21200 22.37600
H  12.21800 3.24300 23.58500
H  10.82500 4.35500 24.31700
H  11.73600 4.69500 22.82000
H  11.59400 -0.82600 25.92100
H  11.35600 -1.70400 27.49600
H  12.71700 -0.62700 27.17200
H  11.07200 1.90600 31.76100
H  8.92000 -0.77300 34.48000
H  9.13700 0.73000 35.26600
H  10.49300 -0.44000 35.33200
Mg 0.39700 42.51800 24.96700
C  1.31500 42.61200 28.37700
C  -2.68000 41.22300 26.02800
C  -0.26100 42.07200 21.81600
C  3.76200 43.21300 24.15700
N  -0.49200 41.87400 27.02100
C  -0.00100 42.27400 28.20800
C  -0.98600 41.99900 29.36100
C  -2.19900 41.17500 28.68300
C  -1.79500 41.44500 27.14700
C  -2.45000 39.65600 28.87700
C  -1.41300 43.47900 29.83100
C  -1.56600 43.55400 31.34700
H  -2.04400 42.39600 32.16800
N  -1.21100 41.85700 24.06700
C  -2.41100 41.40100 24.60100
C  -3.36500 41.19000 23.55800
C  -2.70000 41.42300 22.36100
C  -1.37100 41.86200 22.71100
C  -4.77500 40.51300 23.84600
C  -3.32900 41.31900 20.99500
O  -2.63800 41.53300 19.96800
C  -4.76200 40.83900 20.75700
N  1.58800 42.60200 23.19000
C  1.10900 42.33100 21.99400
C  2.14600 42.48900 20.86600
C  3.31100 43.28400 21.61600
C  2.87400 43.10100 23.12200
C  2.52600 41.13000 20.20800
C  3.46300 44.77600 21.17000
C  4.07300 45.17900 19.87700
N  2.18300 42.88200 25.99400
C  3.48000 43.09700 25.54000
C  4.38500 43.22600 26.66800
C  3.56500 43.12600 27.83300
C  2.23400 42.88900 27.33500
C  5.90600 43.50600 26.63500
C  3.55600 43.12000 29.26400
O  4.46800 43.14200 30.04400
C  2.09500 42.90500 29.67900
C  1.93600 41.73800 30.66000
O  2.49100 40.67300 30.49500
O  1.23400 42.05000 31.83900
C  1.18600 40.90300 32.77700
H  -3.72100 41.00300 26.27700
H  -0.41800 41.87200 20.75400
H  4.78400 43.42400 23.83800
H  -0.60600 41.42400 30.20600
H  -3.19700 41.60200 28.78000
H  -1.73600 39.35400 29.64400
H  -2.28000 39.14900 27.92800
H  -3.45000 39.45100 29.25800
H  -2.34100 43.81800 29.37100
H  -0.68300 44.21400 29.49300
H  -2.25300 44.39600 31.42500
H  -0.66300 44.00700 31.75600
H  -4.95800 39.99600 24.78700
H  -4.77700 39.69400 23.12700
H  -5.56300 41.23900 23.64400
H  -4.87400 39.78400 21.00700
H  -5.00000 40.90600 19.69500
H  -5.49100 41.42700 21.31400
H  1.59600 43.10100 20.15100
H  4.17800 42.73400 21.25100
H  2.03400 41.04300 19.23900
H  2.10300 40.31900 20.80100
H  3.59800 40.94600 20.14600
H  3.96400 45.22700 22.02600
H  2.49300 45.25700 21.29700
H  4.80900 45.97200 20.01000
H  3.23300 45.51100 19.26700
H  4.52800 44.35700 19.32600
H  6.27600 42.87700 27.44500
H  6.13800 44.52900 26.93300
H  6.39800 43.19400 25.71400
H  1.79200 43.78000 30.25500
H  0.48800 40.14600 32.42000
H  0.97500 41.26300 33.78400
H  2.12700 40.42600 33.05000

