158

Mg 47.87000 25.22600 28.24300
C  48.40600 27.52100 30.70100
C  47.31200 22.91200 30.66200
C  47.50700 22.97000 25.77800
C  49.00400 27.50400 25.88100
N  47.84500 25.23300 30.46500
C  47.87500 26.38000 31.21700
C  47.63600 26.00300 32.72500
C  47.42900 24.42700 32.75100
C  47.48800 24.16300 31.23600
C  48.52200 23.61700 33.52900
C  46.32500 26.80300 33.24200
C  46.63900 28.14700 33.93400
H  45.93100 28.61600 35.19000
N  47.45300 23.19500 28.23000
C  47.26600 22.46000 29.33800
C  46.85100 21.13700 28.90600
C  46.90900 21.09800 27.47700
C  47.34000 22.45700 27.09900
C  46.36200 20.10600 29.83800
C  46.64700 19.95700 26.51000
O  46.81200 20.07200 25.26700
C  45.97100 18.71600 27.01000
N  48.27900 25.25400 26.12600
C  48.02800 24.14900 25.32000
C  47.93200 24.61200 23.81200
C  48.22700 26.08700 23.83800
C  48.55900 26.29600 25.32300
C  48.99000 23.82600 22.88600
C  47.07200 27.00500 23.36000
C  47.36400 27.88200 22.12600
N  48.65400 27.06500 28.29300
C  49.03100 27.86300 27.27200
C  49.54100 29.09900 27.82300
C  49.29800 29.02600 29.18600
C  48.67200 27.81300 29.40700
C  50.12000 30.23000 27.04800
C  49.45400 29.69900 30.42800
O  49.98100 30.77200 30.59100
C  48.99200 28.68100 31.51900
C  50.09300 28.37000 32.44200
O  51.00200 27.60100 32.25700
O  49.97100 29.14200 33.57800
C  51.04000 28.86400 34.54500
H  47.18400 22.16700 31.44900
H  47.19900 22.23900 25.02800
H  49.14800 28.33200 25.18400
H  48.39300 26.26600 33.46400
H  46.51000 24.26100 33.31300
H  48.96300 24.32600 34.23000
H  49.25700 23.23700 32.81900
H  48.09500 22.78800 34.09400
H  45.58200 26.20400 33.76900
H  45.77300 27.04300 32.33200
H  46.35700 28.81100 33.11700
H  47.71600 28.09600 34.10000
H  45.41000 19.68100 29.52200
H  46.04600 20.60000 30.75700
H  47.08100 19.28900 29.88900
H  45.14800 19.22400 27.51400
H  46.68600 18.29800 27.71900
H  45.61900 18.08700 26.19300
H  46.93900 24.38800 23.42200
H  49.16800 26.20300 23.30100
H  48.64600 22.79300 22.83400
H  49.98200 23.93800 23.32400
H  48.93100 24.27400 21.89400
H  46.67900 27.66100 24.13700
H  46.18000 26.45000 23.06800
H  47.23300 28.89700 22.50000
H  46.66300 27.63400 21.32800
H  48.41400 27.77000 21.85800
H  50.29200 30.06000 25.98500
H  51.09200 30.43900 27.49500
H  49.46500 31.10200 27.05100
H  48.21400 29.12100 32.14300
H  50.50300 28.08200 35.08200
H  51.20600 29.79200 35.09100
H  51.93600 28.28400 34.32500
Mg 49.48000 46.53500 42.05700
C  45.98900 47.39500 41.78500
C  48.76000 43.66900 40.43500
C  52.69600 46.09700 41.85700
C  50.00500 49.81500 43.33500
N  47.57500 45.77300 41.20100
C  46.28900 46.19600 41.17000
C  45.34000 45.26900 40.33300
C  46.20500 43.99800 40.05700
C  47.61100 44.47100 40.62700
C  45.78600 42.58700 40.71400
C  44.89900 46.04700 39.03300
C  43.39100 46.45300 38.89600
H  42.66800 45.60700 37.88300
N  50.64500 45.05400 41.20800
C  50.12800 43.89300 40.67200
C  51.21000 43.00400 40.33700
C  52.42300 43.69200 40.78300
C  51.96400 45.03500 41.32600
C  51.08100 41.63100 39.72300
C  53.85800 43.25100 40.63900
O  54.10100 42.11200 40.29700
C  55.08200 44.10200 40.73400
N  51.07500 47.73900 42.50700
C  52.32200 47.37300 42.22700
C  53.37100 48.36800 42.47700
C  52.50600 49.62400 42.81700
C  51.09900 49.04900 42.97300
C  54.43100 48.11100 43.52100
C  52.63900 50.67800 41.68000
C  53.39600 51.95900 42.00200
N  48.25500 48.22700 42.61900
C  48.65300 49.47000 43.11900
C  47.48500 50.30500 43.37300
C  46.44300 49.54100 42.85700
C  46.89600 48.28600 42.35600
C  47.47500 51.81200 43.85400
C  45.01400 49.54100 42.60600
O  44.30700 50.52800 42.65400
C  44.64900 48.12900 41.93000
C  43.81900 47.33100 42.83400
O  44.18400 46.87100 43.87200
O  42.66900 46.92200 42.20100
C  41.85300 45.77300 42.74100
H  48.51700 42.78500 39.84400
H  53.75500 45.84300 41.92900
H  50.28700 50.82500 43.63900
H  44.64300 45.10500 41.15400
H  46.36800 43.72500 39.01400
H  45.56700 41.77900 40.01700
H  44.88400 42.71900 41.31300
H  46.55400 42.26000 41.41400
H  45.11800 45.35400 38.22100
H  45.47300 46.97300 38.99900
H  43.41100 47.47200 38.50900
H  42.88500 46.54100 39.85800
H  50.04700 41.35000 39.52200
H  51.49300 40.93900 40.45800
H  51.69300 41.70000 38.82300
H  54.84000 44.99300 40.15400
H  55.96600 43.63100 40.30300
H  55.37800 44.37500 41.74700
H  53.86900 48.54900 41.52400
H  52.80800 50.07700 43.76200
H  54.47900 47.03400 43.68500
H  54.22300 48.53100 44.50500
H  55.41500 48.43400 43.18100
H  51.70900 50.95600 41.18400
H  53.17800 50.25200 40.83400
H  54.21700 52.00200 41.28600
H  53.44400 52.18700 43.06700
H  52.82700 52.73000 41.48300
H  46.45500 52.18500 43.76100
H  48.06400 52.40000 43.15100
H  47.82200 51.89100 44.88400
H  44.00600 48.25200 41.05900
H  41.31100 46.05800 43.64300
H  42.40300 44.88100 43.04100
H  41.12900 45.44000 41.99700

