158

Mg 36.27000 49.20600 25.40300
C  36.30700 47.11300 28.20700
C  35.07000 51.67300 27.41500
C  35.80900 50.87100 22.63100
C  36.91900 46.26900 23.45600
N  35.55500 49.35900 27.51300
C  35.90600 48.39900 28.48700
C  35.71300 48.96300 29.90100
C  35.15100 50.38600 29.57500
C  35.34300 50.52900 28.06400
C  33.69000 50.60800 29.98800
C  36.98200 49.00500 30.82800
C  36.86800 48.39100 32.26900
H  36.87800 49.45800 33.35100
N  35.51100 51.02000 25.10300
C  35.22300 51.95200 26.02500
C  35.19600 53.24200 25.42900
C  35.23800 52.97300 23.98100
C  35.53500 51.55000 23.81700
C  34.92300 54.45400 26.32300
C  34.93600 53.87500 22.80100
O  34.85500 53.57500 21.60200
C  34.74800 55.46200 23.08000
N  36.33800 48.67900 23.28500
C  36.13000 49.54900 22.38000
C  36.23500 48.91800 20.91500
C  36.76000 47.46700 21.26100
C  36.73700 47.46000 22.79500
C  34.96400 48.89000 20.01500
C  38.05400 47.00900 20.57200
C  38.02200 46.00100 19.42800
N  36.55300 47.12600 25.68400
C  36.91700 46.10500 24.84600
C  37.20100 44.91900 25.52500
C  36.99900 45.27200 26.86000
C  36.56900 46.63600 26.92600
C  37.66700 43.62500 24.97000
C  37.02400 44.86800 28.23900
O  37.12300 43.76600 28.75500
C  36.67800 46.02100 29.13100
C  35.54400 45.67200 30.00000
O  34.34700 45.71000 29.65600
O  35.90800 45.26700 31.24600
C  34.93700 44.64500 32.11500
H  34.64500 52.44600 28.05900
H  35.72500 51.45800 21.71400
H  36.93400 45.39200 22.80600
H  34.98600 48.34500 30.42900
H  35.67100 51.18800 30.09900
H  33.50300 49.97500 30.85500
H  32.88300 50.45100 29.27300
H  33.46100 51.63500 30.27200
H  37.37600 50.01700 30.92000
H  37.73900 48.37000 30.37000
H  37.71000 47.73200 32.47800
H  35.93200 47.84300 32.37700
H  35.02600 55.36000 25.72500
H  35.65800 54.52300 27.12500
H  33.89700 54.41000 26.68800
H  33.92900 55.66600 23.77000
H  34.33700 55.73800 22.10900
H  35.64100 55.99100 23.41500
H  37.00100 49.49600 20.39800
H  35.96600 46.79400 20.93900
H  35.07800 49.81700 19.45300
H  34.20000 49.08100 20.76900
H  34.77000 48.09300 19.29700
H  38.83300 46.72100 21.27800
H  38.49200 47.93300 20.19500
H  37.04400 45.51900 19.41600
H  38.75500 45.20700 19.57300
H  38.27800 46.44100 18.46500
H  38.59800 43.27300 25.41600
H  37.72100 43.56300 23.88300
H  36.96300 42.81800 25.17300
H  37.63200 46.28000 29.59200
H  34.09700 45.23900 32.47700
H  35.46900 44.34900 33.01900
H  34.43100 43.86900 31.54100
Mg -5.19200 25.22200 26.30500
C  -3.89200 26.54200 29.04500
C  -7.27800 23.16200 28.22000
C  -6.41600 23.83600 23.43500
C  -3.03400 27.22000 24.19900
N  -5.39500 24.76600 28.35900
C  -4.84900 25.53100 29.29900
C  -5.34100 25.12000 30.72400
C  -6.14800 23.83100 30.40700
C  -6.23200 23.87400 28.89100
C  -5.47200 22.52700 31.01700
C  -6.11300 26.25400 31.46100
C  -6.16400 26.22300 32.98900
H  -5.51300 25.03400 33.72600
N  -6.69400 23.75100 25.85000
C  -7.44300 23.06000 26.77700
C  -8.43500 22.20200 26.07200
C  -8.18400 22.45000 24.68900
C  -7.07100 23.40100 24.60800
C  -9.45000 21.27300 26.73100
C  -8.96600 21.92500 23.46300
O  -8.69200 22.19300 22.30100
C  -10.15400 21.04800 23.65500
N  -4.69700 25.39200 24.03700
C  -5.38600 24.73700 23.12200
C  -4.82000 24.96400 21.74400
C  -3.93200 26.27500 21.92700
C  -3.93200 26.39800 23.46100
C  -4.01000 23.65900 21.28700
C  -4.51800 27.60400 21.32500
C  -3.66000 28.44800 20.35200
N  -3.72000 26.60900 26.55500
C  -2.95300 27.30000 25.63700
C  -2.03300 28.15200 26.45700
C  -2.37800 27.94700 27.77900
C  -3.42900 26.98600 27.79300
C  -1.02100 29.06900 25.96700
C  -2.13700 28.27300 29.15100
O  -1.32500 29.10000 29.57700
C  -3.14300 27.40500 29.98800
C  -2.15700 26.61900 30.80800
O  -1.22100 25.98600 30.34600
O  -2.39800 26.83400 32.16600
C  -1.34500 26.41900 33.13100
H  -7.96500 22.58700 28.84500
H  -6.84600 23.39700 22.53200
H  -2.36900 27.83500 23.59000
H  -4.43100 24.84700 31.25800
H  -7.13200 23.87500 30.87300
H  -4.62600 22.26200 30.38300
H  -6.14000 21.66600 30.99200
H  -5.24100 22.73200 32.06300
H  -7.10800 26.25600 31.01600
H  -5.60900 27.15600 31.11600
H  -7.22300 26.36600 33.20400
H  -5.67200 27.11600 33.37400
H  -9.11400 20.27100 26.46400
H  -10.49000 21.53700 26.53700
H  -9.21000 21.41000 27.78500
H  -10.73100 20.94400 22.73600
H  -10.87600 21.56500 24.28700
H  -9.90100 20.13900 24.19900
H  -5.69000 25.21600 21.13800
H  -2.90800 26.20700 21.56100
H  -3.17400 24.04700 20.70400
H  -4.79900 23.09100 20.79400
H  -3.56800 23.12100 22.12500
H  -4.93500 28.22300 22.12000
H  -5.40200 27.31600 20.75600
H  -2.67500 28.47500 20.81900
H  -4.11300 29.43800 20.29300
H  -3.55100 27.96800 19.38000
H  -0.55600 28.76100 25.03000
H  -0.20700 29.14400 26.68800
H  -1.45400 30.07000 25.97200
H  -3.74700 28.09400 30.57900
H  -1.68600 26.12800 34.12400
H  -0.69600 27.26500 33.35700
H  -0.77200 25.59900 32.69800

