158

Mg 44.88800 5.49200 48.63600
C  42.89300 8.15100 47.88700
C  42.10000 3.35800 47.47900
C  46.79000 2.67200 48.67100
C  47.64000 7.47800 48.84600
N  42.68000 5.70900 47.96600
C  42.23700 6.95900 47.60200
C  40.99200 6.86100 46.80500
C  40.62200 5.36500 47.02700
C  41.81900 4.73700 47.56500
C  39.28000 5.10600 47.78600
C  41.06900 7.40200 45.34400
C  39.94800 8.41200 44.99100
H  39.31500 8.31700 43.59900
N  44.45700 3.35600 48.23300
C  43.31400 2.75400 47.81100
C  43.51800 1.33600 47.83000
C  44.89600 0.99000 48.24400
C  45.47300 2.33400 48.39900
C  42.40300 0.35300 47.41900
C  45.51100 -0.38800 48.30400
O  44.75100 -1.29700 48.15600
C  46.95100 -0.57900 48.66400
N  46.92900 5.12700 48.78600
C  47.49700 3.91700 48.75100
C  49.02200 4.04900 49.07600
C  49.28000 5.56400 48.99000
C  47.87000 6.14100 48.88100
C  49.58200 3.36500 50.39600
C  50.29600 5.92800 47.87200
C  51.37200 7.03500 48.25900
N  45.25500 7.38300 48.48500
C  46.42600 8.09500 48.57200
C  46.07300 9.51000 48.30600
C  44.69000 9.60100 48.14900
C  44.25700 8.24700 48.15000
C  47.05900 10.66400 48.25500
C  43.58800 10.52200 47.97900
O  43.50200 11.74700 47.99700
C  42.30600 9.55100 47.66700
C  41.19900 9.94700 48.52200
O  40.92200 9.56200 49.67100
O  40.42700 10.91900 48.00100
C  39.16900 11.37100 48.57400
H  41.23800 2.76200 47.17300
H  47.45700 1.84300 48.91800
H  48.55400 8.06500 48.95600
H  40.30700 7.46800 47.39700
H  40.41900 4.81600 46.10700
H  38.73300 6.03700 47.93400
H  39.62700 4.78100 48.76700
H  38.58900 4.44300 47.26600
H  41.06900 6.55000 44.66400
H  42.01400 7.93900 45.26000
H  40.32100 9.41700 45.18700
H  39.07100 8.16200 45.58800
H  42.84300 -0.17700 46.57500
H  41.47600 0.87400 47.18000
H  42.20700 -0.26600 48.29500
H  47.59200 -0.12000 47.91100
H  47.21100 -1.62700 48.80900
H  47.11300 -0.04500 49.60100
H  49.46200 3.43700 48.28800
H  49.62400 6.02600 49.91500
H  48.77300 2.72100 50.74000
H  49.82600 4.14200 51.12000
H  50.40100 2.75100 50.02200
H  49.79700 6.26500 46.96400
H  50.91900 5.06900 47.62500
H  51.30400 7.32800 49.30700
H  51.17900 7.85000 47.56200
H  52.39300 6.72700 48.03200
H  46.57500 11.60300 47.98800
H  47.97700 10.52700 47.68300
H  47.42200 10.87500 49.26100
H  42.09800 9.83500 46.63500
H  38.75800 12.14900 47.93100
H  39.30900 11.65800 49.61600
H  38.54700 10.47700 48.62400
Mg 26.53600 49.66900 27.06000
C  24.49100 51.12500 29.60300
C  28.38100 48.11300 29.39600
C  28.51800 48.70800 24.52300
C  24.57300 51.43000 24.71700
N  26.28000 49.57800 29.21100
C  25.41800 50.24700 30.09400
C  25.67100 49.77400 31.54700
C  27.11900 49.06100 31.42200
C  27.22400 48.80400 29.88000
C  28.37500 49.75300 32.06400
C  24.49700 48.93100 32.17500
C  23.95800 49.38400 33.51500
H  24.17200 48.54000 34.74500
N  28.20500 48.56300 26.93200
C  28.89900 48.00700 28.05400
C  30.08800 47.34300 27.58500
C  30.19900 47.55900 26.18500
C  28.94300 48.29500 25.78200
C  30.99900 46.64700 28.43200
C  31.26600 47.21200 25.20100
O  31.21700 47.50700 24.02500
C  32.41600 46.35200 25.52800
N  26.50100 49.97500 24.94800
C  27.34900 49.35900 24.09500
C  27.06800 49.63100 22.57800
C  25.61300 50.18700 22.70000
C  25.51400 50.53600 24.22400
C  27.97800 50.75900 21.97600
C  24.45200 49.24700 22.21400
C  23.41600 49.78300 21.25100
N  24.87000 51.02100 27.11000
C  24.23600 51.67100 26.09000
C  23.19100 52.62400 26.70700
C  23.25400 52.36500 27.99600
C  24.28700 51.45000 28.24700
C  22.26800 53.54800 25.94300
C  22.61300 52.67200 29.24700
O  21.65100 53.36600 29.50100
C  23.41000 51.90100 30.38900
C  23.83100 52.96400 31.26400
O  24.84200 53.70200 31.15100
O  22.98100 52.93000 32.35100
C  23.26100 53.91100 33.40500
H  28.97200 47.67400 30.20300
H  29.16000 48.42100 23.68700
H  23.88000 51.84800 23.98400
H  25.90700 50.71500 32.04400
H  26.91000 48.08300 31.85500
H  28.90000 50.51400 31.48600
H  29.09500 48.99800 32.37800
H  28.12000 50.40500 32.89900
H  24.71100 47.86900 32.29600
H  23.66600 48.96000 31.47000
H  22.92800 49.73000 33.43000
H  24.42200 50.31600 33.84000
H  31.91700 47.23200 28.48800
H  31.11800 45.70400 27.89800
H  30.51700 46.47500 29.39400
H  32.02200 45.34000 25.62600
H  32.89200 46.67100 26.45500
H  33.08500 46.41900 24.67100
H  26.95600 48.66900 22.07900
H  25.54600 51.13800 22.17300
H  28.96300 50.64500 22.42800
H  27.58000 51.72200 22.29600
H  28.04500 50.56800 20.90600
H  24.13900 48.79400 23.15500
H  25.01100 48.49200 21.66200
H  23.56900 50.84900 21.08600
H  22.38100 49.65600 21.56900
H  23.44900 49.28400 20.28200
H  21.52800 52.98300 25.37600
H  22.90700 54.09500 25.25000
H  21.83700 54.24900 26.65800
H  22.74900 51.20900 30.91200
H  22.39600 53.88900 34.06700
H  23.24500 54.92000 32.99300
H  24.21300 53.78100 33.92000

