158

Mg 43.08900 4.32200 47.14700
C  40.84600 7.04800 46.91300
C  40.33900 2.25100 47.26700
C  45.12000 1.77400 47.02400
C  45.73000 6.50000 46.82800
N  40.86500 4.65200 47.23500
C  40.25600 5.81500 47.05100
C  38.71000 5.62400 47.20900
C  38.54100 4.17100 47.63200
C  39.97100 3.59800 47.32800
C  37.92200 3.84300 49.01200
C  37.78400 6.09500 45.97800
C  38.31900 5.68900 44.53500
H  38.47500 6.63800 43.40300
N  42.74900 2.34000 47.02700
C  41.56900 1.64700 47.11500
C  41.78300 0.22100 47.11900
C  43.18600 0.06500 46.95200
C  43.77100 1.42400 47.02400
C  40.70500 -0.72400 47.06100
C  43.89900 -1.24700 46.70200
O  43.29500 -2.33200 46.80400
C  45.27100 -1.29000 46.18200
N  45.08900 4.15700 46.67500
C  45.73100 2.98100 46.96300
C  47.25700 3.08800 47.07000
C  47.42900 4.64600 46.90700
C  45.99600 5.15500 46.84400
C  47.85800 2.44000 48.31000
C  48.29800 5.09300 45.71000
C  49.76500 4.61100 45.70400
N  43.29000 6.37100 46.76100
C  44.45800 7.08600 46.77900
C  44.11900 8.52800 46.86300
C  42.64500 8.56000 46.85200
C  42.25600 7.20700 46.80400
C  45.06600 9.74200 46.60400
C  41.43600 9.43400 46.84400
O  41.30800 10.65300 47.02000
C  40.23800 8.49000 46.88700
C  39.35900 8.80100 47.99000
O  39.63600 8.52200 49.16400
O  38.20600 9.39600 47.53500
C  37.29700 9.84400 48.63900
H  39.44700 1.63900 47.41300
H  45.80100 0.92300 47.07200
H  46.53800 7.16800 47.13400
H  38.28900 6.24300 48.00200
H  37.88500 3.71000 46.89300
H  36.99900 3.28000 48.87100
H  37.60900 4.64500 49.68000
H  38.44800 3.11400 49.62900
H  37.50000 7.14500 46.03500
H  36.78600 5.66900 46.07700
H  37.58000 4.98400 44.15500
H  39.24100 5.14900 44.75200
H  39.79300 -0.34700 47.52500
H  40.84400 -1.64600 47.62600
H  40.52000 -0.93400 46.00700
H  45.97800 -1.06300 46.98000
H  45.48100 -0.61100 45.35500
H  45.64400 -2.18600 45.68600
H  47.59100 2.65400 46.12700
H  47.93700 4.95300 47.82100
H  47.12800 2.30000 49.10700
H  48.63700 3.12100 48.65500
H  48.20600 1.42500 48.12000
H  48.28700 6.18000 45.62600
H  47.82500 4.63300 44.84200
H  49.75200 3.72400 45.07000
H  50.21200 4.29700 46.64700
H  50.30500 5.46800 45.30100
H  45.76500 9.53300 45.79400
H  45.72100 9.89400 47.46200
H  44.47400 10.63800 46.41700
H  39.60400 8.49800 46.00000
H  37.80400 10.60300 49.23500
H  36.91800 9.01000 49.22900
H  36.48400 10.42900 48.21000
Mg 48.79500 44.95900 42.79800
C  45.27600 45.24400 42.01700
C  48.85500 41.99400 41.31500
C  52.07700 45.28000 43.00100
C  48.59900 48.51400 43.66800
N  47.17300 43.74600 41.93500
C  45.91800 44.05700 41.58300
C  45.31200 42.91900 40.70700
C  46.31900 41.71300 41.03700
C  47.54300 42.53300 41.38800
C  45.93100 40.78700 42.25200
C  45.16300 43.31300 39.19100
C  43.75000 43.08800 38.60300
H  43.36700 43.99400 37.44700
N  50.26500 43.69200 42.35100
C  50.10700 42.51500 41.72100
C  51.44000 41.86900 41.57700
C  52.39800 42.71600 42.20200
C  51.62000 43.97800 42.48300
C  51.63600 40.41700 40.97300
C  53.87400 42.37000 42.41700
O  54.37700 41.35100 41.93800
C  54.82000 43.30800 43.09300
N  50.06800 46.70700 43.14700
C  51.43300 46.48200 43.16600
C  52.16800 47.74300 43.36400
C  51.14800 48.81800 43.73400
C  49.84800 47.99100 43.57100
C  53.47400 47.60400 44.20700
C  51.25300 50.07600 42.93200
C  52.11900 51.20500 43.54100
N  47.31300 46.52200 42.98400
C  47.37100 47.85700 43.41600
C  46.07100 48.50300 43.35800
C  45.25000 47.45900 42.80700
C  46.04000 46.30300 42.60400
C  45.73700 49.92600 43.71300
C  43.94900 47.30000 42.26400
O  42.99100 48.08900 42.26000
C  43.92500 45.83100 41.68400
C  42.74800 44.99400 42.12500
O  41.88900 44.54700 41.43100
O  42.74900 44.84600 43.51200
C  41.45900 44.73500 44.12300
H  49.01800 40.99200 40.91200
H  53.16400 45.31800 42.90700
H  48.40900 49.48400 44.13100
H  44.36200 42.63200 41.15700
H  46.51700 41.08900 40.16600
H  44.97500 41.06500 42.69700
H  46.74700 40.94300 42.95900
H  45.90600 39.73500 41.96900
H  45.80300 42.83500 38.44900
H  45.27400 44.39700 39.20900
H  42.99600 43.17300 39.38500
H  43.58100 42.04700 38.32800
H  52.56500 40.25000 40.42800
H  50.82800 40.31200 40.25000
H  51.63800 39.64400 41.74100
H  55.20600 44.04600 42.39100
H  55.72000 42.74400 43.34000
H  54.40500 43.79200 43.97800
H  52.54900 47.94800 42.36400
H  51.32300 49.11300 44.76900
H  53.55800 48.41300 44.93200
H  54.26100 47.77100 43.47100
H  53.61600 46.62200 44.65900
H  50.28000 50.54900 42.79700
H  51.65400 49.79200 41.95900
H  52.31100 51.08700 44.60700
H  51.63600 52.16900 43.37900
H  53.06900 51.29400 43.01500
H  45.26700 50.33400 42.81800
H  46.59700 50.50500 44.05100
H  44.99800 49.88600 44.51400
H  44.04300 45.99800 40.61300
H  41.46200 43.87400 44.79200
H  40.60500 44.80600 43.45100
H  41.36900 45.56700 44.82200

