158

Mg 55.09700 23.10200 44.02600
C  52.59900 25.44500 43.09400
C  53.13400 20.54400 43.07800
C  57.88000 21.18400 44.01600
C  57.16200 25.82800 44.90000
N  53.09900 23.07700 43.16900
C  52.25800 24.09000 42.76500
C  51.09800 23.48900 42.03100
C  51.16000 21.97700 42.37300
C  52.54800 21.81300 42.89300
C  50.13200 21.54100 43.41400
C  51.12400 23.74400 40.46700
C  49.78800 23.30800 39.84600
H  49.60200 22.60100 38.46500
N  55.44000 21.07500 43.57900
C  54.43400 20.17200 43.28500
C  54.99700 18.85900 43.11500
C  56.38300 19.02400 43.45300
C  56.61300 20.48200 43.69600
C  54.22000 17.60200 42.79200
C  57.44500 17.86300 43.62300
O  57.08000 16.69100 43.58900
C  58.88100 18.12900 43.82600
N  57.30700 23.48700 44.26500
C  58.19100 22.51200 44.23800
C  59.59700 23.05100 44.42500
C  59.35900 24.40900 44.99400
C  57.83900 24.63100 44.80500
C  60.51100 22.20100 45.38200
C  60.12200 25.63400 44.41900
C  60.68000 26.61200 45.41900
N  54.94400 25.19700 44.04000
C  55.83900 26.17600 44.47900
C  55.19100 27.49500 44.50500
C  53.90900 27.19500 43.90900
C  53.83900 25.82000 43.69700
C  55.68400 28.71100 45.08800
C  52.68800 27.81600 43.47100
O  52.31200 28.96000 43.51700
C  51.77400 26.65200 42.90600
C  51.58900 26.99800 41.48700
O  52.45600 27.12400 40.62600
O  50.27000 27.34300 41.25700
C  49.84800 27.62000 39.88100
H  52.41400 19.74700 42.87900
H  58.70000 20.47800 44.16500
H  57.69200 26.71100 45.26300
H  50.19500 23.94100 42.44100
H  51.02200 21.38600 41.46800
H  49.68500 22.46900 43.77000
H  50.57800 21.13900 44.32400
H  49.45900 20.84100 42.91900
H  51.84200 23.02800 40.06700
H  51.34600 24.78800 40.24500
H  49.34100 24.30000 39.78300
H  49.24400 22.71900 40.58400
H  54.09400 17.50100 41.71400
H  53.21800 17.65400 43.21900
H  54.61100 16.62000 43.06100
H  59.25500 18.75600 43.01700
H  59.49900 17.23100 43.84000
H  58.95400 18.63800 44.78700
H  59.98900 23.10400 43.41000
H  59.39600 24.37000 46.08300
H  61.44500 22.72100 45.59600
H  60.72700 21.29500 44.81600
H  59.93100 21.91900 46.26200
H  59.59800 26.15700 43.61900
H  60.98200 25.14800 43.95800
H  60.42300 27.62300 45.10200
H  61.76100 26.57400 45.55200
H  60.11100 26.44200 46.33300
H  55.44000 28.90600 46.13200
H  55.14200 29.50200 44.57000
H  56.74800 28.81100 44.87100
H  50.83900 26.77500 43.45400
H  50.43200 28.42200 39.43000
H  48.82200 27.97600 39.78500
H  49.97000 26.68400 39.33500
Mg -1.90200 34.96600 26.86800
C  -3.74600 33.10900 29.11700
C  -1.30500 37.19300 29.51100
C  -0.08300 36.86300 24.78100
C  -3.05100 33.03600 24.23500
N  -2.48900 35.14100 29.08600
C  -3.08400 34.12600 29.72100
C  -3.17100 34.44700 31.19800
C  -2.56400 35.90400 31.41100
C  -2.11500 36.13700 29.97600
C  -3.54200 37.05000 31.81300
C  -2.36000 33.32600 31.99600
C  -3.10300 32.75700 33.16800
H  -2.32200 32.62600 34.48500
N  -0.93500 36.86500 27.13000
C  -0.69400 37.53700 28.30200
C  0.31600 38.61400 28.09000
C  0.62400 38.64900 26.67500
C  -0.14900 37.45900 26.14200
C  0.86200 39.62100 29.18700
C  1.59200 39.49200 25.97600
O  1.86100 39.30200 24.82700
C  2.11000 40.71000 26.59500
N  -1.77800 35.08900 24.70900
C  -0.79500 35.85700 24.14300
C  -0.48000 35.53600 22.65100
C  -1.39900 34.23300 22.53700
C  -2.26800 34.16800 23.84700
C  -0.84000 36.73800 21.73200
C  -0.60300 32.96900 22.34500
C  0.16400 32.31300 23.51200
N  -3.19800 33.37400 26.66700
C  -3.54500 32.68900 25.51600
C  -4.51500 31.68800 25.82100
C  -4.61700 31.82900 27.19900
C  -3.70900 32.81500 27.67600
C  -5.26100 30.75500 24.86100
C  -5.28400 31.27800 28.36700
O  -6.20200 30.48300 28.48200
C  -4.64600 31.95600 29.69600
C  -5.79600 32.49600 30.53800
O  -6.71700 33.18800 30.10600
O  -5.64700 32.02100 31.79500
C  -6.75500 32.35500 32.72200
H  -0.88600 37.87500 30.25300
H  0.70600 37.45000 24.30500
H  -3.28700 32.49200 23.31800
H  -4.23900 34.44900 31.41800
H  -1.73000 35.89400 32.11300
H  -4.45000 36.58300 32.19400
H  -3.79000 37.78100 31.04400
H  -2.99300 37.50600 32.63700
H  -1.37300 33.74700 32.18800
H  -2.03300 32.56100 31.29200
H  -3.30300 31.75100 32.79800
H  -3.97100 33.38400 33.37300
H  1.94900 39.55500 29.21800
H  0.54200 39.36400 30.19700
H  0.51000 40.63700 29.01100
H  2.88900 40.47500 27.32000
H  1.28100 41.27500 27.02100
H  2.60300 41.33100 25.84700
H  0.56500 35.25500 22.52300
H  -2.16800 34.24600 21.76500
H  -0.86200 37.64800 22.33300
H  -1.74100 36.57300 21.14000
H  -0.03800 36.92300 21.01800
H  0.14600 33.11200 21.56600
H  -1.14100 32.16800 21.83800
H  -0.27600 32.66100 24.44600
H  1.21000 32.61400 23.45200
H  0.14500 31.22400 23.55900
H  -4.79000 30.66100 23.88300
H  -6.23400 31.22100 24.70600
H  -5.31900 29.79100 25.36600
H  -4.02000 31.25000 30.24200
H  -7.05600 33.39900 32.63200
H  -6.42100 32.30500 33.75800
H  -7.57100 31.65000 32.56000

