158

Mg 55.94100 23.89000 44.78800
C  53.76100 26.52500 44.27400
C  53.53000 21.71600 43.85600
C  58.34900 21.51400 44.70500
C  58.49000 26.38800 45.46400
N  53.91600 24.09400 44.12100
C  53.16300 25.24100 43.97400
C  51.78500 24.97200 43.43900
C  51.56800 23.46000 43.81600
C  53.09100 23.04700 43.83400
C  50.92300 23.27500 45.22400
C  51.76200 25.19400 41.90700
C  50.36200 25.28600 41.34900
H  49.94800 24.47000 40.05800
N  55.92300 21.83500 44.28000
C  54.78400 21.10800 44.04100
C  55.16800 19.70000 43.76700
C  56.56400 19.59400 43.99700
C  57.01700 21.03100 44.34700
C  54.24100 18.66000 43.43500
C  57.36200 18.26700 44.01900
O  56.81400 17.19100 43.78000
C  58.79500 18.27000 44.38100
N  58.09700 23.98700 45.16300
C  58.84800 22.81300 44.98100
C  60.32000 23.06100 45.32600
C  60.44900 24.61400 45.32500
C  58.97000 25.07900 45.36900
C  60.86800 22.34200 46.66100
C  61.19600 25.21300 44.10800
C  62.35700 26.14200 44.43900
N  56.05700 26.04100 45.06200
C  57.15000 26.82800 45.33500
C  56.65200 28.23200 45.33100
C  55.32100 28.11300 45.00200
C  55.01400 26.75900 44.78600
C  57.54100 29.52400 45.49700
C  54.08800 28.87200 44.79400
O  53.78300 30.06400 44.84500
C  53.13300 27.92300 44.17200
C  52.86300 28.30600 42.80500
O  53.66900 28.31600 41.87300
O  51.49500 28.41000 42.62500
C  50.99700 28.87900 41.34100
H  52.69900 21.03500 43.66000
H  59.20600 20.83800 44.66300
H  59.19800 27.21900 45.44600
H  51.14500 25.67800 43.96900
H  50.98600 22.94500 43.05200
H  50.08300 22.60300 45.05000
H  50.55000 24.24600 45.55000
H  51.54600 22.79900 45.98100
H  52.20900 24.35000 41.38200
H  52.33500 26.05900 41.57200
H  50.25900 26.34600 41.11600
H  49.63400 24.99800 42.10700
H  54.62900 18.27500 42.49200
H  53.20600 18.99600 43.38000
H  54.14100 17.84100 44.14800
H  59.39200 18.90100 43.72200
H  59.30900 17.31300 44.47300
H  58.93000 18.68100 45.38200
H  60.88200 22.61300 44.50700
H  60.99000 24.95000 46.21000
H  60.38300 21.38600 46.85700
H  60.70500 22.92300 47.56800
H  61.88300 22.03500 46.40900
H  60.50800 25.86600 43.57100
H  61.61000 24.44200 43.45800
H  62.44000 26.96000 43.72300
H  63.33600 25.67600 44.32500
H  62.25100 26.66400 45.39000
H  57.04400 30.40700 45.09500
H  58.52100 29.44400 45.02700
H  57.63700 29.64300 46.57700
H  52.15500 27.98800 44.65000
H  51.43000 29.86800 41.19700
H  49.94100 29.14000 41.41500
H  51.22300 28.26400 40.47000
Mg -4.83000 25.54700 25.85600
C  -3.54900 27.26700 28.72800
C  -6.57000 23.56100 27.94400
C  -5.59700 23.95100 23.20700
C  -2.77700 27.78400 23.90900
N  -4.98100 25.42400 27.99900
C  -4.47300 26.25600 29.01000
C  -4.98200 25.86100 30.39400
C  -5.53700 24.41800 30.03900
C  -5.79000 24.50900 28.59200
C  -4.48000 23.21600 30.36800
C  -6.10100 26.77000 30.81500
C  -6.79800 26.52400 32.20100
H  -6.13200 25.52700 33.16200
N  -5.93100 24.04200 25.59800
C  -6.66100 23.34400 26.55300
C  -7.51100 22.37400 25.91200
C  -7.17600 22.39400 24.54400
C  -6.15100 23.47300 24.40400
C  -8.43300 21.42600 26.74500
C  -7.78700 21.59700 23.35800
O  -7.34400 21.76800 22.22000
C  -9.02300 20.69000 23.51600
N  -4.32400 25.94600 23.75200
C  -4.71500 25.01900 22.91300
C  -4.28500 25.32900 21.45400
C  -3.30300 26.63700 21.71700
C  -3.51600 26.87000 23.19800
C  -3.52000 24.18200 20.79500
C  -3.59800 27.95500 20.94100
C  -2.59800 28.29800 19.86700
N  -3.48800 27.21100 26.24200
C  -2.76700 27.96000 25.28700
C  -1.91900 28.86100 25.99600
C  -2.21900 28.68100 27.39600
C  -3.20300 27.63900 27.46100
C  -1.00400 29.97900 25.49800
C  -1.96500 29.12100 28.75700
O  -1.12300 29.88700 29.20800
C  -2.95600 28.23900 29.63300
C  -2.14200 27.46500 30.62900
O  -1.17600 26.75400 30.40800
O  -2.56700 27.77200 31.83000
C  -1.91100 27.08600 32.96600
H  -6.96200 22.86900 28.69200
H  -5.73700 23.42100 22.26300
H  -2.12800 28.43000 23.31200
H  -4.20400 25.83200 31.15700
H  -6.53200 24.32700 30.47500
H  -3.58800 23.66300 30.80600
H  -4.32000 22.72000 29.41100
H  -4.83800 22.43300 31.03700
H  -6.87400 26.73300 30.04800
H  -5.79400 27.81600 30.83600
H  -7.83100 26.20400 32.06800
H  -6.85200 27.51400 32.65300
H  -8.34800 21.54000 27.82500
H  -8.29400 20.36500 26.53500
H  -9.46400 21.74200 26.58300
H  -9.19400 20.18900 22.56400
H  -9.81700 21.32700 23.90700
H  -8.71300 19.98700 24.28900
H  -5.10600 25.57500 20.78000
H  -2.28500 26.28400 21.55500
H  -3.94200 23.89400 19.83200
H  -3.38200 23.20100 21.24900
H  -2.48200 24.46300 20.62300
H  -3.57400 28.78300 21.64900
H  -4.63000 27.97400 20.59300
H  -1.74800 27.61700 19.81600
H  -2.09500 29.21200 20.18300
H  -3.03900 28.61700 18.92300
H  -0.66000 29.69400 24.50400
H  -0.08100 29.95400 26.07600
H  -1.48700 30.94100 25.66800
H  -3.66900 28.80700 30.23200
H  -2.32600 27.47300 33.89600
H  -0.82100 27.11400 32.95800
H  -2.25400 26.05600 32.87600

