158

Mg -2.13800 18.25900 27.22400
C  -2.54600 15.91800 29.69500
C  -2.54300 20.74100 29.47100
C  -1.71600 20.44500 24.64100
C  -2.01400 15.50600 24.86700
N  -2.40000 18.27700 29.33900
C  -2.58900 17.25800 30.16700
C  -2.65900 17.76100 31.62100
C  -3.12000 19.18200 31.38300
C  -2.68300 19.42200 29.94600
C  -4.62100 19.51800 31.70300
C  -1.41100 17.68700 32.48000
C  -1.62300 17.20000 33.92500
H  -0.40700 16.88300 34.82000
N  -2.13400 20.30300 27.08900
C  -2.23300 21.16600 28.15500
C  -1.98800 22.52500 27.73700
C  -1.72800 22.43000 26.31200
C  -1.80200 21.02500 25.92000
C  -2.09000 23.74100 28.62000
C  -1.51100 23.57700 25.29900
O  -1.49900 23.54000 24.10800
C  -1.19900 24.87200 25.83400
N  -1.86200 17.95800 25.15100
C  -1.72600 19.05500 24.30900
C  -1.61100 18.53700 22.84200
C  -1.70400 17.08000 22.95600
C  -1.86500 16.80900 24.40900
C  -2.70400 19.16000 21.93200
C  -0.50000 16.37200 22.32500
C  0.73700 16.29200 23.14800
N  -2.44100 16.10000 27.24100
C  -2.23400 15.16400 26.22300
C  -2.35700 13.84200 26.80100
C  -2.60000 14.10000 28.22200
C  -2.49100 15.47200 28.36300
C  -2.20100 12.63600 25.99000
C  -2.85500 13.44000 29.54000
O  -2.95000 12.24600 29.84800
C  -2.87100 14.62300 30.50200
C  -1.68100 14.48200 31.40100
O  -0.48200 14.62000 31.12800
O  -2.09500 13.91700 32.62000
C  -1.07100 13.51900 33.55100
H  -2.72100 21.44000 30.29100
H  -1.62700 21.09500 23.76800
H  -2.09000 14.66400 24.17600
H  -3.51200 17.29700 32.11500
H  -2.54100 19.85600 32.01400
H  -5.13200 18.63100 32.07600
H  -5.13000 19.89400 30.81600
H  -4.61500 20.31000 32.45200
H  -0.94400 18.66800 32.56600
H  -0.63900 17.03200 32.07600
H  -2.33600 16.40300 33.71500
H  -2.17000 17.97500 34.46100
H  -1.23600 24.35500 28.90400
H  -2.56000 23.38300 29.53600
H  -2.85200 24.32900 28.10800
H  -1.97600 25.47900 26.29800
H  -0.64600 25.42300 25.07300
H  -0.36500 24.65600 26.50200
H  -0.70400 18.96500 22.41500
H  -2.61000 16.68700 22.49400
H  -3.34900 18.36400 21.56000
H  -2.30900 19.73900 21.09700
H  -3.25600 19.93400 22.46700
H  -0.30700 16.90900 21.39600
H  -0.84500 15.36200 22.10700
H  0.71900 16.75700 24.13300
H  1.59200 16.66400 22.58400
H  1.04900 15.25400 23.25300
H  -1.57200 11.89300 26.48100
H  -1.57000 12.81400 25.11900
H  -3.17100 12.26300 25.66200
H  -3.79100 14.71700 31.07900
H  -1.50800 12.83200 34.27600
H  -0.65900 14.34800 34.12800
H  -0.26300 12.97500 33.06300
Mg 1.59800 42.49600 25.78000
C  3.00500 42.64900 29.05700
C  -1.19800 41.19100 27.12600
C  0.54700 41.92200 22.65200
C  4.74600 43.43100 24.58800
N  1.02200 42.09200 27.82000
C  1.69700 42.34100 29.01000
C  0.79100 42.09700 30.18800
C  -0.52200 41.57500 29.51600
C  -0.22100 41.51100 28.02900
C  -1.01200 40.15100 30.02800
C  0.61100 43.43700 30.96400
C  0.93600 43.48400 32.45900
H  0.02200 42.74400 33.43300
N  -0.09900 41.58200 25.02100
C  -1.13200 41.15000 25.70500
C  -2.16800 40.75300 24.82700
C  -1.79000 40.99400 23.49300
C  -0.40100 41.48100 23.67100
C  -3.41800 40.15600 25.28700
C  -2.45000 40.79100 22.11900
O  -1.95200 40.95400 21.01600
C  -3.89300 40.24400 22.06100
N  2.51000 42.59000 23.87500
C  1.79300 42.46300 22.72600
C  2.58700 42.80100 21.47600
C  3.79600 43.54300 22.12600
C  3.71700 43.13600 23.61200
C  2.99500 41.55200 20.67700
C  3.84700 45.05300 21.79400
C  4.29500 45.42900 20.28100
N  3.53500 42.92700 26.60200
C  4.65800 43.32200 25.94200
C  5.68300 43.58000 26.95000
C  5.07200 43.39700 28.17400
C  3.78700 42.95700 27.92600
C  7.16100 44.02200 26.71400
C  5.24600 43.37100 29.56100
O  6.27900 43.52800 30.19400
C  3.90300 42.97900 30.23200
C  4.06400 41.76500 31.12400
O  4.18600 40.61400 30.69200
O  4.13300 42.09800 32.39300
C  4.29400 41.11300 33.40600
H  -2.13300 40.90800 27.61300
H  0.19800 41.76100 21.62900
H  5.61300 43.86200 24.08300
H  1.18500 41.24600 30.74500
H  -1.40100 42.21100 29.61200
H  -0.70500 39.92700 31.05000
H  -0.62100 39.36100 29.38700
H  -2.09600 40.15400 30.14100
H  -0.44800 43.67600 30.85800
H  1.00000 44.26600 30.37300
H  0.92200 44.53800 32.73900
H  1.96000 43.12200 32.54500
H  -3.40800 39.06900 25.20600
H  -4.24100 40.60900 24.73500
H  -3.58500 40.42500 26.33000
H  -4.45300 40.94700 22.67700
H  -3.87400 39.28800 22.58400
H  -4.25800 40.12300 21.04100
H  2.05700 43.49200 20.82100
H  4.67500 43.15600 21.61100
H  2.70500 40.65900 21.23200
H  4.08000 41.45400 20.65400
H  2.45700 41.54400 19.72900
H  4.60600 45.54600 22.40100
H  2.84100 45.38900 22.04600
H  3.52700 45.93600 19.69600
H  4.63900 44.51100 19.80500
H  5.10000 46.15300 20.40800
H  7.64500 43.92400 25.74300
H  7.80900 43.50800 27.42400
H  7.15900 45.06800 27.02400
H  3.51500 43.85100 30.75900
H  5.28000 41.24600 33.85000
H  4.11200 40.07800 33.11700
H  3.51400 41.30500 34.14300

