158

Mg 44.76700 4.90100 48.07400
C  42.54300 7.70900 47.83600
C  41.94700 2.87200 47.73600
C  46.86500 2.43900 47.95100
C  47.44800 7.25900 47.88500
N  42.53500 5.26000 47.81900
C  41.84800 6.48700 47.87000
C  40.32600 6.29400 47.72800
C  40.19400 4.71400 47.78300
C  41.65300 4.24800 47.72600
C  39.40500 4.21200 48.97000
C  39.58800 6.97500 46.53400
C  40.46200 7.17800 45.31100
H  39.85700 6.77800 43.90800
N  44.49400 2.92000 47.84300
C  43.24000 2.29600 47.66900
C  43.55000 0.82400 47.45400
C  44.97600 0.64500 47.53800
C  45.52300 2.00200 47.75000
C  42.41400 -0.16900 47.07600
C  45.65600 -0.68000 47.38300
O  44.92800 -1.63900 47.25700
C  47.17900 -0.87000 47.24200
N  46.87600 4.94700 47.57300
C  47.49300 3.72900 47.85500
C  48.93400 3.85800 48.39700
C  49.12800 5.35200 48.15300
C  47.71600 5.94400 47.87500
C  49.27900 3.26500 49.80300
C  50.24300 5.71000 47.13300
C  51.44100 6.47400 47.67700
N  44.99800 7.02700 47.94300
C  46.16000 7.82700 47.93900
C  45.77000 9.24300 47.93900
C  44.34300 9.23900 48.01100
C  43.95500 7.86800 47.87400
C  46.57000 10.42400 47.96900
C  43.14300 10.03700 48.07300
O  43.05000 11.21700 48.18400
C  41.93500 9.08900 48.04300
C  41.06000 9.18300 49.27500
O  41.08700 8.43000 50.21300
O  40.17400 10.20600 49.09200
C  39.11500 10.41300 50.02800
H  41.04000 2.26900 47.66900
H  47.51300 1.58400 48.15300
H  48.26300 7.97900 47.98300
H  39.88100 6.81100 48.57900
H  39.61800 4.51200 46.88000
H  38.35900 4.15400 48.66900
H  39.55300 4.93200 49.77500
H  39.78200 3.28100 49.39400
H  39.29100 7.97400 46.85400
H  38.67300 6.43700 46.28400
H  41.27600 6.47200 45.47900
H  40.70900 8.23600 45.23300
H  42.63800 -0.82600 46.23600
H  41.51100 0.37300 46.79600
H  42.15400 -0.80900 47.92000
H  47.71100 -0.64000 48.16500
H  47.53500 -0.30900 46.37800
H  47.36800 -1.92700 47.05500
H  49.63200 3.31000 47.76400
H  49.43100 5.77600 49.11000
H  48.43900 3.17800 50.49200
H  50.08900 3.81400 50.28300
H  49.63200 2.24700 49.64200
H  49.88500 6.29500 46.28600
H  50.67000 4.79300 46.72600
H  51.66000 6.12400 48.68600
H  51.16900 7.52900 47.69700
H  52.36200 6.22400 47.15100
H  45.84000 11.19900 47.73500
H  47.30900 10.30700 47.17700
H  46.99100 10.72900 48.92700
H  41.23000 9.37800 47.26400
H  38.22700 9.82100 49.80500
H  38.83500 11.46600 50.02600
H  39.48000 10.17500 51.02700
Mg 47.65700 25.81700 29.91500
C  48.73500 28.19100 32.12100
C  46.42400 23.86400 32.39600
C  47.05900 23.34200 27.70600
C  49.27900 27.56100 27.32800
N  47.56300 26.08900 31.95200
C  47.98100 27.16200 32.67500
C  47.46000 27.16300 34.13100
C  46.94200 25.65400 34.24200
C  46.95700 25.15800 32.76200
C  47.82800 24.71200 35.17700
C  46.26500 28.08300 34.48100
C  45.77700 28.18300 35.94400
H  46.70500 27.66100 37.06800
N  46.78900 23.83800 30.03100
C  46.32200 23.22700 31.17700
C  45.90200 21.86900 30.86600
C  45.80300 21.83100 29.49200
C  46.52000 23.06200 28.95100
C  45.21200 21.05100 31.91200
C  45.23600 20.75100 28.62100
O  45.31100 20.71900 27.35800
C  44.58100 19.58800 29.26700
N  48.06500 25.54000 27.80700
C  47.71100 24.45000 27.14900
C  47.94700 24.55000 25.66500
C  48.59700 25.93700 25.46900
C  48.59100 26.39800 26.94700
C  48.81000 23.35400 25.10500
C  47.85600 26.86900 24.43200
C  48.71900 27.34500 23.29900
N  48.77400 27.56100 29.71100
C  49.39900 28.13600 28.59600
C  50.01300 29.40500 29.07600
C  49.69200 29.49900 30.40100
C  49.06100 28.30900 30.74600
C  50.68500 30.45100 28.20900
C  49.78700 30.37800 31.58500
O  50.24200 31.52900 31.79700
C  49.26000 29.50600 32.81600
C  50.34500 29.31300 33.82900
O  51.24000 28.54000 33.68000
O  50.01400 30.01200 34.93700
C  50.74600 29.66400 36.20700
H  46.03000 23.20100 33.16900
H  46.93900 22.52000 26.99700
H  49.66000 28.11900 26.47000
H  48.23300 27.30900 34.88500
H  45.94600 25.68000 34.68300
H  48.26300 23.86400 34.64900
H  47.06300 24.17000 35.73400
H  48.61600 25.15200 35.78800
H  45.41300 27.76800 33.87800
H  46.56500 29.11900 34.32500
H  44.86700 27.59300 36.06100
H  45.53700 29.24500 35.97600
H  44.13700 20.97500 31.74700
H  45.21400 21.39400 32.94700
H  45.70700 20.08400 31.99400
H  45.18600 19.10000 30.03200
H  44.18800 18.88800 28.52900
H  43.73900 19.98700 29.83300
H  46.92300 24.54300 25.29100
H  49.65300 25.78300 25.24500
H  48.35100 22.39600 25.34800
H  49.78400 23.38800 25.59200
H  48.93600 23.57000 24.04400
H  47.50300 27.80100 24.87300
H  46.94800 26.31200 24.20000
H  48.19400 27.08200 22.38100
H  49.70800 26.89500 23.38900
H  48.75600 28.43400 23.30500
H  51.03900 29.98300 27.29000
H  51.55900 30.88400 28.69500
H  50.07400 31.26800 27.82600
H  48.38100 29.97100 33.26200
H  51.38800 30.47900 36.54100
H  51.46400 28.85000 36.10200
H  50.00900 29.37100 36.95500

