158

Mg 9.55100 4.07900 27.35900
C  10.36200 2.47000 30.31300
C  7.75500 6.32400 29.07300
C  8.23700 5.25500 24.39900
C  10.63700 1.22000 25.54500
N  8.95400 4.24900 29.50300
C  9.63700 3.59100 30.51000
C  9.40700 4.27900 31.82900
C  8.29900 5.35500 31.49200
C  8.35200 5.36700 29.88800
C  6.91200 5.18600 32.05500
C  10.79000 4.86500 32.58900
C  10.80200 4.59900 34.08800
H  12.15700 4.59700 34.83600
N  8.30300 5.65700 26.76600
C  7.69100 6.51500 27.64700
C  6.99900 7.61700 26.92900
C  7.18200 7.25200 25.51500
C  7.95000 5.97300 25.53100
C  6.20300 8.73500 27.63400
C  6.72900 8.02300 24.26700
O  6.98900 7.69200 23.07400
C  5.86800 9.15500 24.40400
N  9.62400 3.45200 25.17600
C  8.94500 4.08900 24.20800
C  9.04100 3.35300 22.83900
C  10.01300 2.16100 23.21900
C  10.03500 2.23900 24.74600
C  7.64800 2.86200 22.37100
C  11.40500 2.02500 22.46400
C  11.25000 1.10300 21.21800
N  10.54600 2.32200 27.75600
C  10.95300 1.24800 26.92500
C  11.56200 0.25600 27.71900
C  11.33000 0.65500 29.04400
C  10.69500 1.92000 29.00800
C  12.33300 -0.95400 27.33400
C  11.64100 0.27000 30.42000
O  12.20700 -0.68000 30.92600
C  11.02800 1.49800 31.32100
C  10.04700 0.85400 32.21900
O  9.00600 0.29200 31.91100
O  10.62100 0.74200 33.52200
C  9.83600 0.04700 34.56300
H  7.20800 7.04300 29.68700
H  7.79700 5.70300 23.50600
H  10.75000 0.19700 25.18100
H  8.91000 3.54400 32.46200
H  8.62200 6.29600 31.93600
H  6.17000 5.37500 31.27900
H  6.63400 6.01700 32.70300
H  6.86900 4.23900 32.59300
H  10.75700 5.95000 32.49200
H  11.70000 4.54400 32.08200
H  10.19900 3.74800 34.40300
H  10.34800 5.46700 34.56600
H  6.81200 9.59900 27.90100
H  5.66300 8.22800 28.43400
H  5.37700 9.18100 27.08100
H  6.34700 10.05000 24.80300
H  4.99700 8.93000 25.02000
H  5.42000 9.48200 23.46600
H  9.36000 4.06500 22.07800
H  9.42900 1.25400 23.06300
H  7.21800 3.40100 21.52700
H  6.95000 2.98500 23.19900
H  7.75200 1.84100 22.00300
H  12.22200 1.74200 23.12800
H  11.73400 2.96700 22.02400
H  12.22200 0.66500 20.98700
H  10.84300 1.67500 20.38500
H  10.52200 0.31400 21.40500
H  13.01700 -0.71900 26.51800
H  11.72800 -1.82300 27.07400
H  13.05500 -1.32800 28.06000
H  11.71100 1.98900 32.01400
H  9.37000 -0.85500 34.16700
H  8.90300 0.54800 34.82300
H  10.51100 -0.03900 35.41400
Mg 0.04100 44.20000 26.17300
C  1.78900 43.32200 29.05800
C  -2.86400 43.21000 27.87800
C  -1.67000 44.33900 23.27400
C  3.02600 44.86700 24.69900
N  -0.43900 43.17300 28.23300
C  0.40300 43.07600 29.27600
C  -0.30800 42.93000 30.66100
C  -1.78900 42.74400 30.13500
C  -1.73700 43.09300 28.64300
C  -2.43800 41.39300 30.43000
C  -0.11800 44.11400 31.53200
C  0.14600 43.91800 32.99700
H  -0.27800 42.55500 33.68500
N  -2.03900 44.05200 25.67700
C  -3.02700 43.64000 26.46100
C  -4.25300 43.63900 25.75600
C  -3.93100 43.98200 24.40400
C  -2.47900 44.13500 24.40000
C  -5.56000 43.30500 26.35500
C  -4.85700 44.28700 23.20000
O  -4.40800 44.73800 22.16900
C  -6.35400 43.98100 23.25300
N  0.56800 44.44100 24.27900
C  -0.31000 44.66300 23.21500
C  0.32900 45.21900 21.97800
C  1.76200 45.58300 22.58800
C  1.80300 44.95400 23.96800
C  0.39400 44.06500 20.87200
C  2.14100 47.06800 22.56300
C  3.47800 47.39200 21.90900
N  1.99700 44.11000 26.72000
C  3.11400 44.39800 26.03600
C  4.35200 44.21700 26.79900
C  3.87100 43.85000 28.08800
C  2.48000 43.79100 27.93300
C  5.84800 44.35500 26.37500
C  4.26100 43.49500 29.43300
O  5.31400 43.37100 29.96000
C  2.94800 43.09200 30.15600
C  3.06900 41.71200 30.73200
O  2.60500 40.64600 30.24600
O  3.98500 41.75700 31.70100
C  4.47700 40.52900 32.40100
H  -3.81600 42.93600 28.33800
H  -2.13600 44.31800 22.28700
H  3.90600 45.26400 24.18900
H  -0.02800 42.01500 31.18400
H  -2.42100 43.51300 30.57800
H  -3.38700 41.55100 30.94100
H  -1.85800 40.78100 31.12100
H  -2.74300 41.01300 29.45500
H  -0.85500 44.91500 31.48200
H  0.73600 44.66500 31.13900
H  -0.16700 44.77100 33.59900
H  1.22900 43.86400 33.10300
H  -6.30500 42.97700 25.63000
H  -5.97200 44.20600 26.80800
H  -5.46500 42.41700 26.97900
H  -6.38900 42.89600 23.35700
H  -6.87100 44.25500 22.33400
H  -6.93300 44.51600 24.00600
H  -0.27800 46.08100 21.70300
H  2.56500 45.09200 22.03900
H  1.38000 44.04900 20.40700
H  -0.30200 44.24800 20.05400
H  0.32100 43.02200 21.17900
H  2.33000 47.52300 23.53600
H  1.36400 47.71400 22.15400
H  3.74600 46.65500 21.15200
H  4.30300 47.56800 22.60000
H  3.38700 48.31400 21.33500
H  6.41900 43.76300 27.09000
H  6.32900 45.33200 26.31800
H  5.83800 43.90100 25.38400
H  2.87200 43.84000 30.94400
H  5.46300 40.74400 32.81400
H  4.42100 39.53000 31.96900
H  3.79100 40.51900 33.24800

