158

Mg 48.42000 15.50800 28.41000
C  46.33400 15.00700 31.37000
C  50.45500 17.26400 30.33900
C  50.19200 16.21400 25.61700
C  45.77700 14.12300 26.49900
N  48.32800 16.01800 30.61200
C  47.45100 15.74200 31.65200
C  47.90800 16.28500 32.92400
C  49.18800 17.13900 32.56000
C  49.38600 16.79200 31.02200
C  48.98000 18.73700 32.68600
C  48.31200 15.13900 33.91300
C  47.87200 15.17700 35.40100
H  47.55300 16.49200 35.91200
N  50.17500 16.57000 28.05200
C  50.87400 17.21400 28.97400
C  52.07900 17.76100 28.41600
C  52.08900 17.30600 27.05700
C  50.79800 16.63400 26.82300
C  53.11100 18.44800 29.28900
C  53.20600 17.40300 26.03800
O  53.16200 16.70600 25.00300
C  54.46100 18.24500 26.28100
N  48.01600 15.22500 26.36700
C  48.99100 15.51900 25.40800
C  48.39200 15.27000 24.03000
C  46.96500 14.58000 24.27900
C  46.87700 14.71600 25.80500
C  48.23200 16.58600 23.20200
C  46.92700 13.09000 23.73200
C  47.80600 12.11600 24.51800
N  46.46300 14.64200 28.82000
C  45.54700 14.01200 27.94600
C  44.45000 13.57800 28.75900
C  44.69300 13.88300 30.09900
C  45.94600 14.51600 30.07100
C  43.22100 12.93800 28.25500
C  44.27200 13.73500 31.46400
O  43.19200 13.29200 31.91000
C  45.26600 14.48400 32.32400
C  44.44900 15.36800 33.21200
O  44.02600 16.45700 33.00700
O  44.20800 14.65700 34.36000
C  43.41600 15.39400 35.36000
H  51.12300 17.85400 30.96900
H  50.82700 16.41300 24.75100
H  45.05800 13.52900 25.93100
H  47.13700 16.99900 33.21200
H  50.15000 16.89400 33.00900
H  49.72800 19.13300 33.37200
H  47.99600 19.01900 33.06300
H  49.06300 19.35700 31.79300
H  49.37300 15.05300 34.14700
H  48.07000 14.22300 33.37500
H  48.65300 14.84500 36.08400
H  47.03500 14.48300 35.47600
H  53.54400 17.65100 29.89500
H  52.72900 19.18700 29.99300
H  53.81100 18.89400 28.58300
H  54.20000 19.27400 26.52600
H  55.03200 18.21600 25.35300
H  54.95200 17.73900 27.11300
H  49.02000 14.46600 23.64800
H  46.08100 15.18600 24.08300
H  47.74600 17.24900 23.91800
H  47.67400 16.46600 22.27400
H  49.26800 16.83300 22.96900
H  47.36200 13.05700 22.73300
H  45.87300 12.81600 23.69000
H  48.23500 11.48000 23.74400
H  47.22200 11.48100 25.18300
H  48.64900 12.59600 25.01600
H  43.09700 11.91100 28.59900
H  42.96000 13.10100 27.20900
H  42.43700 13.53900 28.71500
H  45.71100 13.69200 32.92600
H  42.55800 15.83500 34.85400
H  43.90900 16.18100 35.93000
H  42.90300 14.62700 35.94000
Mg 47.46700 24.37500 28.12800
C  48.33500 26.66700 30.70500
C  46.93800 22.06400 30.63600
C  46.80500 22.16200 25.74500
C  48.47300 26.77300 25.69400
N  47.58600 24.48400 30.45600
C  47.98600 25.45700 31.29200
C  47.85400 25.03100 32.73800
C  47.60900 23.50700 32.61700
C  47.39600 23.29000 31.12400
C  48.64100 22.51600 33.20900
C  46.78600 25.90400 33.46100
C  46.45400 25.42700 34.89800
H  46.55700 26.54100 35.95400
N  46.97300 22.43400 28.14000
C  46.70800 21.62200 29.25500
C  46.22700 20.30600 28.87100
C  46.31300 20.29400 27.44400
C  46.67700 21.66200 27.05800
C  45.86300 19.22800 29.92900
C  46.02700 19.07700 26.54600
O  46.06500 19.17100 25.31200
C  45.57400 17.69400 27.17800
N  47.87900 24.38600 25.95400
C  47.35800 23.39200 25.23300
C  47.24100 23.77700 23.71600
C  47.70400 25.26800 23.70600
C  47.99900 25.50600 25.18600
C  47.93400 22.81600 22.76000
C  46.70700 26.28100 23.11000
C  47.31900 27.36500 22.20200
N  48.21300 26.30400 28.13600
C  48.61400 27.10700 27.05300
C  49.03300 28.43400 27.59300
C  48.92400 28.30900 29.02700
C  48.38300 26.97300 29.32000
C  49.71200 29.49600 26.80300
C  49.22300 28.95300 30.29700
O  49.72900 30.04200 30.52700
C  48.71200 27.93100 31.41100
C  49.68900 27.78200 32.52900
O  50.64300 27.06800 32.50000
O  49.35600 28.52000 33.63600
C  50.21900 28.12200 34.81500
H  46.70900 21.35100 31.43100
H  46.51000 21.46500 24.95700
H  48.70700 27.62800 25.05600
H  48.85500 25.22900 33.12100
H  46.68600 23.27200 33.14800
H  49.41800 23.03800 33.76800
H  49.03400 21.74400 32.54700
H  48.08800 21.88500 33.90400
H  45.94400 25.68200 32.80500
H  47.23500 26.89400 33.54100
H  47.11900 24.61400 35.18800
H  45.40000 25.15800 34.83100
H  44.83800 18.96700 29.66700
H  45.74700 19.59100 30.95000
H  46.47900 18.33400 29.83400
H  46.50600 17.37800 27.64700
H  45.24900 16.94300 26.45800
H  44.76400 17.78100 27.90200
H  46.17200 23.66600 23.53300
H  48.60800 25.21600 23.09900
H  48.55000 22.07200 23.26600
H  48.55100 23.31500 22.01300
H  47.16000 22.25800 22.23400
H  46.17900 26.73200 23.95000
H  45.89400 25.72800 22.64000
H  48.40200 27.26300 22.13100
H  47.18300 28.40300 22.50600
H  46.84100 27.24200 21.23100
H  50.60600 28.98000 26.45400
H  50.04600 30.26300 27.50200
H  49.16500 29.74400 25.89400
H  47.91900 28.55600 31.82200
H  49.92700 28.87500 35.54700
H  51.25700 28.23900 34.50400
H  49.98900 27.08000 35.03600

