158

Mg 0.64900 43.01000 25.34700
C  2.56000 43.08700 28.27400
C  -2.13800 42.81900 27.26600
C  -1.11400 42.72600 22.57000
C  3.58000 43.48200 23.41700
N  0.29900 43.02200 27.52400
C  1.19200 43.01000 28.63000
C  0.56100 42.87600 29.99800
C  -0.95200 42.68500 29.54400
C  -0.93200 42.89700 28.02900
C  -1.53400 41.29100 29.91400
C  0.90200 44.03000 30.94700
C  1.11800 43.72200 32.44100
H  0.75700 42.27900 32.85600
N  -1.34000 42.65300 24.98600
C  -2.33000 42.72600 25.91200
C  -3.58400 42.73800 25.21600
C  -3.43300 42.58800 23.79200
C  -1.92700 42.59700 23.73000
C  -4.91500 42.68800 25.95500
C  -4.41800 42.42000 22.67700
O  -4.09600 42.18300 21.51800
C  -5.87800 42.56400 23.02600
N  1.10000 43.17600 23.26700
C  0.21200 42.96800 22.32400
C  0.74500 43.31500 20.88000
C  2.20300 43.73600 21.22300
C  2.33300 43.46700 22.75300
C  0.71100 42.03700 19.93500
C  2.44900 45.22300 20.85800
C  3.76900 45.51000 20.09400
N  2.65400 43.26400 25.76200
C  3.71600 43.41800 24.84800
C  4.94800 43.54500 25.63500
C  4.57700 43.32800 27.02200
C  3.16300 43.20700 26.96300
C  6.36100 43.63100 25.08100
C  5.08300 43.10600 28.33000
O  6.21000 43.10600 28.77400
C  3.81300 42.94900 29.21400
C  3.88000 41.77000 30.13200
O  3.57600 40.65100 29.76100
O  4.51200 42.01700 31.33300
C  5.03600 40.89000 32.10600
H  -2.96600 42.63700 27.95500
H  -1.72500 42.77600 21.66600
H  4.41800 43.55300 22.72000
H  0.87700 41.90700 30.38700
H  -1.57800 43.45000 30.00400
H  -2.42300 41.40700 30.53300
H  -0.85900 40.78000 30.60000
H  -1.70100 40.64100 29.05500
H  0.12000 44.78300 30.84800
H  1.75500 44.58800 30.56000
H  0.44700 44.36000 33.01500
H  2.15000 44.03100 32.60700
H  -5.43500 43.41000 25.32500
H  -4.94200 43.01900 26.99300
H  -5.31500 41.69300 25.76100
H  -6.20700 41.96200 23.87400
H  -6.46000 42.17700 22.19000
H  -6.24600 43.58900 23.07300
H  0.09600 44.10200 20.49700
H  2.94500 43.04300 20.82600
H  0.30000 41.17600 20.46200
H  1.65700 41.84500 19.42900
H  -0.09000 42.20200 19.21500
H  2.42300 45.85400 21.74600
H  1.75200 45.69800 20.16600
H  4.38500 44.62100 20.23200
H  4.25000 46.39500 20.50900
H  3.56900 45.69700 19.03900
H  6.81100 44.60200 25.28500
H  6.38700 43.39600 24.01700
H  6.91400 42.78900 25.49700
H  3.85100 43.81500 29.87500
H  6.10200 41.03800 32.28200
H  4.82400 39.91700 31.66300
H  4.53400 40.93700 33.07200
Mg -5.29100 25.52400 27.36100
C  -4.01600 27.32200 30.06500
C  -6.75100 23.42400 29.69400
C  -6.43000 23.55200 24.82000
C  -3.21700 27.25500 25.22000
N  -5.11500 25.30700 29.58900
C  -4.71100 26.23200 30.53200
C  -5.12800 25.90100 32.03400
C  -5.64700 24.48000 31.84900
C  -5.91900 24.40000 30.25500
C  -4.77500 23.26900 32.51100
C  -6.09800 27.04800 32.58400
C  -6.36300 27.15500 34.06000
H  -5.95800 25.94000 34.93300
N  -6.57400 23.82300 27.29100
C  -7.13400 23.17500 28.30300
C  -8.08800 22.15700 27.75900
C  -8.08600 22.24800 26.38400
C  -7.00500 23.23100 26.06700
C  -8.88900 21.27100 28.72300
C  -8.91300 21.55300 25.37400
O  -8.77400 21.83100 24.15200
C  -9.94600 20.53700 25.81400
N  -4.95200 25.57400 25.26700
C  -5.43900 24.52800 24.49300
C  -4.78700 24.57300 23.07000
C  -3.86000 25.88200 23.08800
C  -4.05000 26.30800 24.62100
C  -4.19000 23.16100 22.65400
C  -4.25100 27.02000 22.16600
C  -3.46700 27.25800 20.85000
N  -3.96800 27.01800 27.52000
C  -3.20700 27.72600 26.57000
C  -2.46000 28.76700 27.10900
C  -2.74700 28.68000 28.51600
C  -3.65500 27.58500 28.70600
C  -1.56800 29.64800 26.35000
C  -2.49500 29.24400 29.80600
O  -1.76300 30.18700 30.13400
C  -3.33700 28.45000 30.79900
C  -2.45800 27.93900 31.86700
O  -1.37700 27.35000 31.69800
O  -3.03000 28.20200 33.04900
C  -2.29000 27.87600 34.23900
H  -7.36700 22.98000 30.47800
H  -6.65600 22.99100 23.91000
H  -2.58600 27.90300 24.60800
H  -4.17000 25.83900 32.54900
H  -6.67600 24.38700 32.19600
H  -4.50100 22.59900 31.69600
H  -5.26400 22.74900 33.33400
H  -3.90100 23.72100 32.98000
H  -7.07600 26.73500 32.21800
H  -6.00000 28.07100 32.22100
H  -7.43900 27.31800 34.12900
H  -5.85100 28.03500 34.44900
H  -8.55100 21.46200 29.74200
H  -8.78500 20.20900 28.50400
H  -9.96100 21.46900 28.73900
H  -9.37800 19.95300 26.53800
H  -10.24200 19.92000 24.96600
H  -10.84900 20.97900 26.23600
H  -5.52100 24.75600 22.28500
H  -2.82100 25.55900 23.02900
H  -3.20200 23.26000 22.20400
H  -4.91600 22.70100 21.98300
H  -4.02800 22.58100 23.56300
H  -4.38100 27.94300 22.73000
H  -5.28400 26.83000 21.87500
H  -3.94800 26.62200 20.10700
H  -2.50600 26.79900 21.08300
H  -3.50200 28.28800 20.49500
H  -0.91700 28.98000 25.78800
H  -0.94900 30.36600 26.88900
H  -2.07500 30.14300 25.52200
H  -4.06600 29.18300 31.14500
H  -1.56400 27.06800 34.14300
H  -3.04800 27.42500 34.87900
H  -1.76000 28.74100 34.63700

