158

Mg 47.02800 16.55500 28.92100
C  44.94100 15.84300 31.75300
C  49.19700 18.21700 31.03100
C  48.60700 17.61500 26.23900
C  44.57200 15.12900 26.90500
N  47.00700 16.92300 31.16000
C  46.10700 16.48500 32.10100
C  46.58700 16.88600 33.52900
C  47.80700 17.79300 33.21400
C  48.05700 17.63600 31.71400
C  47.67400 19.25900 33.48700
C  46.92200 15.63700 34.28700
C  47.60800 15.87500 35.63000
H  47.34600 17.06100 36.47300
N  48.66200 17.69500 28.62500
C  49.49100 18.17900 29.62200
C  50.63900 18.81000 29.04100
C  50.42300 18.78600 27.64600
C  49.22200 17.99900 27.43100
C  51.84400 19.31000 29.81200
C  51.31300 19.32000 26.56600
O  50.99600 19.25200 25.36500
C  52.61900 19.99300 26.87400
N  46.78100 16.26800 26.86100
C  47.56000 16.82900 25.90900
C  47.16200 16.38500 24.48000
C  45.82100 15.60500 24.75400
C  45.70100 15.58700 26.28400
C  47.04600 17.63800 23.53000
C  45.64700 14.18400 24.05000
C  45.88200 12.88600 24.84200
N  45.17400 15.61500 29.24000
C  44.30400 15.08000 28.27600
C  43.18200 14.55100 28.95200
C  43.35100 14.83800 30.35400
C  44.61200 15.47400 30.45700
C  41.92400 14.08200 28.29700
C  42.72500 14.86300 31.61200
O  41.64500 14.56400 32.02700
C  43.79700 15.38800 32.56600
C  43.22800 16.61400 33.31300
O  42.89600 17.64400 32.76700
O  43.01600 16.43000 34.64700
C  42.58600 17.60400 35.35700
H  49.87000 18.72700 31.72300
H  49.20300 17.82200 25.34700
H  43.93100 14.57100 26.22000
H  45.82800 17.49300 34.02300
H  48.65200 17.45500 33.81400
H  48.20500 19.47300 34.41500
H  46.64200 19.55700 33.67600
H  48.16000 19.82500 32.69300
H  47.58800 14.97700 33.73000
H  45.96500 15.15200 34.47900
H  48.68900 15.75200 35.56000
H  47.20900 15.15200 36.34100
H  52.05300 20.32000 29.46200
H  52.69100 18.69900 29.50100
H  51.69900 19.36800 30.89100
H  53.09900 20.25800 25.93200
H  53.29200 19.29400 27.37100
H  52.43100 20.94800 27.36400
H  47.92700 15.76300 24.01600
H  44.95800 16.21300 24.48400
H  47.71700 17.56400 22.67500
H  47.38300 18.52100 24.07300
H  46.02900 17.75900 23.15700
H  46.30600 14.02300 23.19600
H  44.61800 14.30000 23.71000
H  46.10000 13.13200 25.88100
H  46.74200 12.29800 24.51900
H  45.04900 12.18700 24.76400
H  41.69800 14.54100 27.33500
H  41.15000 14.34900 29.01700
H  41.92800 12.99400 28.21900
H  44.04000 14.60100 33.28000
H  41.67600 17.94100 34.86100
H  43.32400 18.40500 35.38400
H  42.44700 17.29300 36.39200
Mg 29.26100 57.73300 41.31800
C  26.70300 55.70700 40.26100
C  31.46400 55.53900 40.16900
C  31.72700 60.15800 41.67700
C  26.89300 60.28300 42.13900
N  29.06500 55.78600 40.42800
C  27.93900 55.14600 40.04600
C  28.23600 53.83400 39.30000
C  29.79000 53.66100 39.71600
C  30.19600 55.07500 40.10200
C  29.98600 52.70500 40.99100
C  28.01600 53.79100 37.83100
C  28.49000 55.00600 37.01600
H  27.75300 55.25000 35.59000
N  31.27600 57.77300 40.92800
C  32.02400 56.73000 40.46800
C  33.44500 57.09500 40.45100
C  33.55600 58.41900 40.91500
C  32.13900 58.85100 41.18400
C  34.49500 56.08200 40.06000
C  34.90900 59.18100 41.11100
O  35.99500 58.70400 40.79600
C  34.98700 60.52800 41.68600
N  29.33100 59.95500 41.81900
C  30.45400 60.66000 42.01700
C  30.09700 62.11700 42.33200
C  28.57500 62.12200 42.56000
C  28.25400 60.62700 42.31400
C  30.93000 62.67000 43.54000
C  27.76200 63.13000 41.68900
C  26.58100 63.74900 42.44100
N  27.22600 57.99000 41.27400
C  26.41300 59.03500 41.65300
C  25.05800 58.55400 41.57300
C  25.14100 57.32800 41.02000
C  26.45700 57.00000 40.80200
C  23.82700 59.29700 41.94000
C  24.30900 56.22100 40.51200
O  23.11200 56.11200 40.40900
C  25.28400 55.12900 40.00300
C  24.98000 53.89500 40.88400
O  25.23600 53.88100 42.09400
O  24.64300 52.76400 40.17600
C  24.62000 51.50900 40.97000
H  32.22000 54.76400 40.03000
H  32.53400 60.86700 41.87400
H  26.05200 60.97100 42.24300
H  27.65900 53.03200 39.76000
H  30.35400 53.17900 38.91800
H  29.15300 52.07000 41.29100
H  30.40700 53.29300 41.80700
H  30.81200 52.05500 40.70100
H  26.95600 53.64800 37.62100
H  28.64400 53.02400 37.37800
H  29.56400 54.89900 36.86300
H  28.23500 55.85400 37.65200
H  34.13400 55.52200 39.19700
H  34.64400 55.35400 40.85800
H  35.44400 56.51200 39.74100
H  34.55300 61.27200 41.01800
H  35.98600 60.83800 41.99300
H  34.37200 60.62400 42.58000
H  30.28100 62.66200 41.40600
H  28.34900 62.32600 43.60700
H  31.52300 61.92300 44.06900
H  30.46600 63.24600 44.34100
H  31.60000 63.38500 43.06400
H  27.44300 62.65200 40.76300
H  28.45600 63.93600 41.45200
H  25.64500 63.25500 42.18200
H  26.45200 64.82500 42.32300
H  26.69100 63.63000 43.51900
H  23.83600 60.16000 41.27500
H  24.01500 59.70900 42.93100
H  22.93900 58.66600 41.89900
H  25.12000 54.88900 38.95200
H  24.14100 51.63300 41.94100
H  25.62400 51.11000 41.11400
H  24.04800 50.75300 40.43100

