158

Mg 10.64500 47.41200 25.50000
C  8.93400 47.73000 28.45600
C  13.40900 48.59000 27.06800
C  12.18800 47.19800 22.62700
C  7.61600 46.98000 23.85000
N  11.16500 47.87800 27.67000
C  10.30000 48.00300 28.69000
C  11.00500 48.53900 29.97400
C  12.30800 49.17500 29.37000
C  12.31600 48.49200 27.92600
C  12.12600 50.77100 29.26200
C  11.29300 47.55100 31.12200
C  11.14100 47.94500 32.61100
H  10.58700 46.82900 33.57500
N  12.64100 47.67900 24.95800
C  13.60800 48.11900 25.76100
C  14.89500 48.26900 25.04500
C  14.60200 47.84000 23.73600
C  13.09000 47.54700 23.69500
C  16.19600 48.67900 25.68100
C  15.49200 47.74000 22.40200
O  15.02600 47.39600 21.33700
C  16.98800 47.91600 22.48100
N  9.97300 47.45500 23.44700
C  10.79700 47.12800 22.45900
C  10.11200 46.74400 21.06100
C  8.70300 46.49400 21.62600
C  8.72300 47.02400 23.03800
C  10.09000 47.87700 20.00600
C  8.28900 44.98200 21.74000
C  9.30800 44.04600 22.48900
N  8.61600 47.31100 26.00000
C  7.47500 47.11100 25.23300
C  6.34100 46.96300 26.09300
C  6.82500 47.25800 27.37100
C  8.27300 47.44300 27.24600
C  4.95900 46.70100 25.57200
C  6.45900 47.46900 28.76500
O  5.38100 47.59500 29.36500
C  7.84400 47.67400 29.53700
C  7.89100 46.59700 30.58400
O  8.56800 45.57000 30.57500
O  6.90800 46.98300 31.44200
C  6.44000 45.93500 32.38100
H  14.26900 49.10900 27.49600
H  12.67900 46.91500 21.69300
H  6.61700 46.87600 23.41900
H  10.28200 49.28800 30.29600
H  13.14900 48.98000 30.03500
H  11.14200 51.14700 29.54200
H  12.30800 51.13100 28.24900
H  12.84700 51.23900 29.93300
H  12.31000 47.17600 31.00200
H  10.72900 46.62900 30.98000
H  10.53400 48.85000 32.60900
H  12.13800 48.22800 32.94800
H  16.56400 47.81200 26.22900
H  16.03100 49.45200 26.43100
H  16.92900 49.01600 24.94800
H  17.50900 47.51200 21.61300
H  17.38900 47.36300 23.33100
H  17.33400 48.91300 22.75200
H  10.40000 45.78000 20.64100
H  7.88300 46.95600 21.07600
H  11.10000 48.05400 19.63500
H  9.76500 48.72600 20.60700
H  9.38500 47.48900 19.27100
H  8.17600 44.64500 20.70900
H  7.33100 44.88800 22.25100
H  10.20300 44.62300 22.72000
H  9.55800 43.23000 21.81000
H  8.83500 43.65500 23.39000
H  4.96700 47.05200 24.54100
H  4.10400 47.05700 26.14700
H  4.74200 45.63500 25.63400
H  7.84100 48.66000 30.00100
H  5.51800 46.29600 32.83800
H  7.07400 45.76900 33.25200
H  6.23000 45.09400 31.72000
Mg -4.95000 25.41900 26.16100
C  -3.84100 26.86400 29.21200
C  -6.86700 23.21200 28.01200
C  -5.57900 23.90200 23.23600
C  -2.69400 27.60100 24.50500
N  -5.22300 25.02200 28.30600
C  -4.77200 25.78700 29.34200
C  -5.37500 25.34700 30.63600
C  -6.06200 24.02400 30.31100
C  -6.04200 24.05400 28.75300
C  -5.27400 22.81800 30.89800
C  -6.40200 26.40500 31.20500
C  -6.39700 26.53900 32.76800
H  -5.84500 25.43300 33.62400
N  -6.24000 23.88500 25.65100
C  -6.92200 23.09400 26.60000
C  -7.57100 21.99800 25.86700
C  -7.20600 22.16000 24.46600
C  -6.30500 23.34200 24.35400
C  -8.56400 21.02600 26.52900
C  -7.56900 21.27500 23.30700
O  -7.13400 21.40000 22.17500
C  -8.50600 20.24800 23.50700
N  -4.27700 25.69800 24.24600
C  -4.65800 24.86100 23.23400
C  -3.89900 25.22100 21.97200
C  -3.28000 26.61800 22.33000
C  -3.42600 26.63500 23.78500
C  -2.92500 24.24600 21.40900
C  -3.89200 27.91600 21.70300
C  -3.58800 28.19500 20.22100
N  -3.50500 26.87000 26.68000
C  -2.69700 27.73800 25.89900
C  -1.99700 28.55700 26.73600
C  -2.37500 28.32800 28.06900
C  -3.23600 27.26500 27.96000
C  -0.84300 29.49300 26.27200
C  -2.23600 28.70300 29.46500
O  -1.57100 29.61800 29.93900
C  -3.24900 27.77000 30.30900
C  -2.46000 27.03200 31.31500
O  -1.94900 25.93000 31.16900
O  -2.31500 27.81500 32.41800
C  -1.70600 27.27400 33.62900
H  -7.33900 22.40100 28.57000
H  -5.69000 23.36900 22.28900
H  -1.98600 28.15900 23.88900
H  -4.58800 25.27500 31.38700
H  -7.05400 24.18700 30.73300
H  -4.27500 23.13600 31.19500
H  -5.10300 22.08400 30.11000
H  -5.74800 22.41700 31.79400
H  -7.44900 26.20900 30.97800
H  -6.16400 27.33500 30.68800
H  -7.38100 26.73100 33.19700
H  -5.95700 27.51400 32.97700
H  -9.51100 21.08600 25.99300
H  -8.64600 21.11300 27.61300
H  -8.15300 20.04700 26.28500
H  -9.51200 20.61100 23.71700
H  -8.03800 19.54600 24.19700
H  -8.59400 19.66200 22.59200
H  -4.63200 25.35200 21.17600
H  -2.22600 26.56300 22.06000
H  -2.09700 24.74300 20.90500
H  -3.39000 23.55400 20.70700
H  -2.42200 23.69800 22.20600
H  -3.64900 28.80800 22.28100
H  -4.96000 27.86100 21.91300
H  -3.15700 29.19600 20.25300
H  -4.35800 28.23000 19.45000
H  -2.88600 27.44000 19.86700
H  -0.10500 29.78400 27.02000
H  -1.20400 30.28400 25.61400
H  -0.21600 28.86000 25.64300
H  -4.06500 28.34900 30.74200
H  -0.74400 27.77600 33.73300
H  -1.58100 26.19100 33.62200
H  -2.25200 27.54900 34.53200

