158

Mg 35.80700 1.72600 29.71500
C  33.49300 2.70100 32.17700
C  38.12600 1.52800 32.36300
C  38.11400 1.12200 27.47800
C  33.37800 2.25900 27.23300
N  35.81500 2.19400 32.01800
C  34.70800 2.50500 32.78900
C  35.01400 2.48900 34.27100
C  36.60400 2.39700 34.25700
C  36.90400 1.96700 32.77700
C  37.32600 3.59200 34.70800
C  34.36200 1.22200 34.88500
C  33.78100 1.48300 36.34000
H  34.41900 2.52900 37.23300
N  37.86100 1.27800 29.85400
C  38.57300 1.12500 31.04700
C  39.91800 0.63300 30.68100
C  39.97300 0.62100 29.24900
C  38.66100 1.04200 28.81400
C  40.89700 0.08300 31.76700
C  41.21000 0.34200 28.36700
O  41.14600 0.39500 27.10000
C  42.45900 -0.10800 29.02000
N  35.72700 1.77000 27.65900
C  36.83300 1.34600 26.98000
C  36.57200 1.30100 25.51200
C  35.00200 1.43900 25.42300
C  34.69300 1.89200 26.81400
C  37.37400 2.29800 24.63700
C  34.13800 0.20500 25.00400
C  33.16500 0.38700 23.77000
N  33.77600 2.36000 29.61100
C  32.91200 2.53000 28.56800
C  31.64900 2.99800 29.07500
C  31.79200 3.03600 30.50800
C  33.14300 2.60200 30.77900
C  30.49000 3.29900 28.17900
C  31.11700 3.28300 31.73900
O  29.98600 3.61200 32.02300
C  32.24200 3.04500 32.91300
C  32.21700 4.30500 33.77200
O  32.66700 5.37900 33.46200
O  31.65600 4.08700 35.01000
C  31.46700 5.24600 35.91900
H  38.83300 1.60600 33.19200
H  38.91700 0.79900 26.81300
H  32.69500 2.24100 26.38000
H  34.71200 3.40900 34.77000
H  36.98100 1.53600 34.81000
H  36.70300 4.44500 34.97900
H  37.98500 3.85800 33.88200
H  37.93000 3.32500 35.57500
H  35.08100 0.40300 34.90000
H  33.45200 0.98200 34.33600
H  33.78300 0.46800 36.73800
H  32.70900 1.67200 36.29900
H  41.61500 0.88800 31.92000
H  41.42600 -0.80800 31.42800
H  40.32100 -0.09100 32.67500
H  42.65900 0.46100 29.92800
H  43.25600 0.16900 28.33000
H  42.34500 -1.16700 29.25100
H  36.81000 0.30500 25.14000
H  34.79200 2.22400 24.69700
H  37.79100 3.12500 25.21200
H  36.65800 2.64100 23.89000
H  38.12400 1.65500 24.17600
H  33.44000 -0.00400 25.81500
H  34.82900 -0.62700 24.86900
H  33.28200 1.39100 23.36100
H  32.16400 0.12800 24.11500
H  33.43600 -0.24000 22.92100
H  30.95000 3.71400 27.28200
H  29.78300 3.96800 28.66900
H  29.96900 2.36600 27.96800
H  31.91200 2.23400 33.56200
H  31.44500 6.19100 35.37600
H  32.25700 5.32000 36.66600
H  30.53500 5.10500 36.46600
Mg 47.67100 15.79600 28.13600
C  45.79200 15.40800 31.01800
C  49.80300 17.94400 29.90600
C  49.40300 16.02100 25.30800
C  45.28000 13.92100 26.41100
N  47.75000 16.63300 30.13200
C  46.97900 16.19100 31.15600
C  47.56800 16.56700 32.46300
C  48.56500 17.65000 32.11900
C  48.75300 17.37100 30.62000
C  48.12800 19.08300 32.45100
C  48.09100 15.30700 33.27400
C  47.73100 15.39600 34.76800
H  47.54900 16.76500 35.52000
N  49.45300 16.68200 27.68600
C  50.10500 17.59800 28.53300
C  51.35100 17.99200 27.79200
C  51.27400 17.44900 26.46500
C  49.98000 16.69400 26.42300
C  52.34900 18.87100 28.52600
C  52.35000 17.60300 25.39100
O  52.19200 17.04200 24.25800
C  53.66400 18.36700 25.63800
N  47.26800 15.26500 26.00700
C  48.16100 15.46400 25.12400
C  47.71800 14.97000 23.72000
C  46.41900 14.16700 24.14200
C  46.33500 14.43200 25.60000
C  47.44400 16.02300 22.66300
C  46.62100 12.66100 23.79800
C  47.59500 11.91700 24.79700
N  45.74400 15.01200 28.50800
C  44.98600 14.02500 27.74700
C  43.88300 13.58800 28.64400
C  44.24900 13.96300 29.93100
C  45.33400 14.88200 29.77800
C  42.60200 12.75800 28.37300
C  43.97500 13.91200 31.33300
O  43.10800 13.26100 31.90700
C  44.84600 14.85500 32.08700
C  44.03800 15.93300 32.73100
O  43.35100 16.79400 32.16600
O  44.18200 15.71000 34.09600
C  43.32100 16.51600 35.01300
H  50.50500 18.49100 30.53900
H  49.91700 16.10800 24.34800
H  44.54400 13.27500 25.92800
H  46.70900 16.96300 33.00400
H  49.50100 17.55400 32.66900
H  47.06000 19.27700 32.35700
H  48.50900 19.84900 31.77500
H  48.57000 19.32500 33.41700
H  49.16100 15.10100 33.25600
H  47.62300 14.38600 32.92500
H  48.42600 14.80100 35.36000
H  46.73700 14.97000 34.90100
H  51.85800 19.42700 29.32500
H  52.82500 19.63700 27.91400
H  53.20800 18.29500 28.87100
H  54.15000 17.89300 26.49000
H  53.50600 19.42900 25.82400
H  54.29500 18.44000 24.75300
H  48.58000 14.40300 23.36700
H  45.61300 14.59700 23.54600
H  47.34800 17.00900 23.11700
H  46.63200 15.80600 21.97000
H  48.39700 16.31900 22.22500
H  46.96700 12.43500 22.78900
H  45.61600 12.24200 23.78800
H  48.37800 12.49400 25.28800
H  48.13400 11.19200 24.18600
H  47.10200 11.31100 25.55700
H  42.83400 12.05200 27.57600
H  41.74400 13.40800 28.20400
H  42.46600 12.13900 29.26000
H  45.34400 14.20200 32.80300
H  42.73200 17.19500 34.39700
H  43.81500 17.15000 35.74900
H  42.58300 15.89300 35.51800

