158

Mg 23.58200 -4.44700 45.58100
C  25.84700 -2.24000 44.11000
C  21.19000 -3.07200 43.54500
C  21.69000 -7.22700 46.11800
C  26.25100 -5.96100 47.28300
N  23.59200 -2.89200 43.88600
C  24.61200 -2.14800 43.50100
C  24.21300 -1.06900 42.56800
C  22.60500 -1.13300 42.49900
C  22.43300 -2.42200 43.43000
C  21.81400 0.16100 43.02500
C  24.88200 -1.34100 41.21100
C  25.33200 -0.00000 40.52000
H  25.16200 0.03000 38.98500
N  21.74000 -5.04700 44.92200
C  20.91200 -4.30600 44.11000
C  19.64400 -5.05700 43.99700
C  19.77700 -6.26400 44.71400
C  21.12100 -6.25200 45.29600
C  18.43400 -4.56600 43.14700
C  18.62500 -7.32000 44.94200
O  17.53100 -7.25300 44.43500
C  18.73000 -8.42100 45.97200
N  23.95600 -6.40800 46.53400
C  22.99700 -7.34000 46.62400
C  23.51000 -8.52500 47.47900
C  24.82100 -7.93200 48.15200
C  25.05000 -6.68900 47.21700
C  22.55800 -9.02700 48.61900
C  26.01700 -9.03600 48.15500
C  26.95900 -9.04300 49.39400
N  25.58800 -4.10700 45.78700
C  26.53600 -4.82600 46.59200
C  27.75500 -4.08200 46.52100
C  27.55100 -3.09800 45.52000
C  26.26900 -3.13900 45.11600
C  29.01500 -4.51100 47.27000
C  28.17800 -2.03100 44.83300
O  29.32200 -1.57100 44.93500
C  27.16900 -1.49200 43.78400
C  27.21200 -0.03600 44.01900
O  26.52000 0.60100 44.78000
O  28.35700 0.50700 43.40500
C  28.86800 1.80000 43.83900
H  20.46600 -2.50600 42.95500
H  21.17300 -8.15000 46.38900
H  26.96200 -6.51700 47.89800
H  24.59400 -0.17100 43.05400
H  22.25700 -1.39300 41.50000
H  22.48700 1.01800 42.99400
H  21.42100 0.04100 44.03500
H  20.96500 0.31000 42.35800
H  24.20200 -1.74300 40.46100
H  25.72600 -2.03000 41.26800
H  26.32200 0.19100 40.93300
H  24.69000 0.80400 40.87800
H  18.23900 -5.35500 42.42100
H  18.63300 -3.63100 42.62300
H  17.66900 -4.35600 43.89500
H  17.79600 -8.97200 46.08200
H  19.10300 -7.82100 46.80200
H  19.54100 -9.10700 45.72800
H  23.80600 -9.38000 46.87100
H  24.64400 -7.69000 49.20000
H  21.63700 -9.51900 48.30500
H  22.27600 -8.09900 49.11600
H  23.09400 -9.75700 49.22600
H  26.62200 -8.97500 47.25100
H  25.48500 -9.98700 48.18600
H  26.83800 -8.12800 49.97200
H  27.98200 -9.27500 49.09900
H  26.57000 -9.90000 49.94500
H  29.09800 -5.56700 47.01000
H  28.97200 -4.50800 48.35900
H  29.91100 -3.91800 47.08600
H  27.66000 -1.78900 42.85700
H  28.11400 2.48900 44.22100
H  29.45400 2.33000 43.08800
H  29.53200 1.56800 44.67100
Mg 41.58000 8.99500 29.88000
C  43.51400 10.04900 32.51300
C  39.36600 7.48800 31.98700
C  39.78500 7.69300 27.22000
C  44.11000 9.76700 27.66400
N  41.52400 8.71100 31.98900
C  42.32000 9.40900 32.93400
C  41.67800 9.21400 34.35800
C  40.44500 8.25700 34.08900
C  40.38400 8.27100 32.63100
C  40.54500 6.88000 34.73300
C  41.33400 10.51000 35.16300
C  41.43200 10.28400 36.75300
H  41.38600 11.50800 37.67600
N  39.73300 7.81300 29.61100
C  39.07000 7.25600 30.68200
C  38.02200 6.51200 30.17200
C  37.93600 6.69300 28.78700
C  39.17100 7.42900 28.46700
C  37.03000 5.74800 31.04200
C  36.86400 6.33100 27.75700
O  37.10300 6.44400 26.54500
C  35.46500 5.96500 28.19200
N  41.89400 8.72800 27.75700
C  41.05900 8.21500 26.92800
C  41.62900 8.06000 25.52500
C  43.00500 8.83900 25.61200
C  42.97400 9.15200 27.06600
C  41.66400 6.59200 25.03000
C  43.19700 9.95700 24.60000
C  42.65700 11.30200 25.08500
N  43.33300 9.87900 30.00300
C  44.33200 10.02500 29.05100
C  45.52600 10.65900 29.61900
C  45.17900 10.73900 30.99500
C  43.90400 10.15300 31.16800
C  46.84000 10.96100 28.89200
C  45.74700 10.98200 32.33900
O  46.88800 11.33900 32.64300
C  44.58600 10.70500 33.37600
C  45.10900 9.78300 34.41000
O  45.82600 8.77900 34.18200
O  44.78300 10.23900 35.68700
C  45.15800 9.27900 36.74900
H  38.47000 7.21900 32.55000
H  39.36600 7.29800 26.29200
H  44.91500 9.94600 26.94800
H  42.37300 8.61500 34.94600
H  39.52500 8.68300 34.49000
H  41.33000 6.78400 35.48200
H  40.80600 6.15000 33.96700
H  39.56100 6.59600 35.10600
H  40.34900 10.85100 34.84300
H  41.94400 11.37000 34.88600
H  42.41600 9.85000 36.93100
H  40.72900 9.52600 37.09900
H  37.41700 5.41400 32.00500
H  36.68600 4.82700 30.57200
H  36.17400 6.34400 31.35900
H  35.02800 6.67900 28.88900
H  35.51100 4.96500 28.62500
H  34.81900 6.03500 27.31700
H  40.97600 8.64600 24.87800
H  43.78100 8.10000 25.41300
H  42.67100 6.23000 24.82100
H  41.05500 6.48100 24.13300
H  41.29100 5.95200 25.83000
H  42.78300 9.74900 23.61300
H  44.28300 10.03900 24.57100
H  43.46200 11.94500 25.44300
H  41.86500 11.11000 25.80800
H  42.16600 11.68200 24.18900
H  47.36000 11.55100 29.64700
H  46.65600 11.54800 27.99200
H  47.43400 10.05400 28.77500
H  44.27700 11.67200 33.77300
H  46.22800 9.07200 36.76800
H  44.65600 8.32000 36.61800
H  44.71400 9.69300 37.65400

