158

Mg 25.35400 1.56500 29.24800
C  27.39300 1.03800 31.97200
C  22.59500 1.72200 31.47400
C  23.26900 1.67200 26.58200
C  28.00800 0.92200 27.09700
N  25.08900 1.38700 31.44800
C  26.10800 1.33600 32.38600
C  25.60900 1.48100 33.85900
C  24.01700 1.43100 33.58200
C  23.86400 1.57900 32.06700
C  23.45000 0.08300 34.13100
C  26.25900 2.57900 34.71200
C  26.46300 2.21900 36.21500
H  26.19800 3.36700 37.26000
N  23.24400 1.68100 29.05000
C  22.26500 1.69800 30.06700
C  20.96900 1.79400 29.51900
C  21.12600 1.61100 28.09400
C  22.59800 1.65200 27.87500
C  19.79700 1.94900 30.33500
C  20.07100 1.39400 27.01100
O  20.34700 1.34900 25.76900
C  18.55800 1.16200 27.45200
N  25.58100 1.43900 27.14100
C  24.60500 1.61500 26.27300
C  25.06000 1.53500 24.81400
C  26.66900 1.51100 24.98600
C  26.77000 1.31600 26.52300
C  24.65900 0.29700 24.02100
C  27.22000 2.83500 24.44000
C  26.88700 4.01700 25.33900
N  27.28900 1.00300 29.44500
C  28.29700 0.77000 28.47400
C  29.61300 0.42400 29.17000
C  29.32500 0.62600 30.56300
C  27.89800 0.94300 30.66700
C  30.99700 0.14300 28.58900
C  29.84100 0.53900 31.97000
O  30.97500 0.33700 32.34300
C  28.64700 0.88100 32.90900
C  28.53900 -0.23800 33.95200
O  27.94500 -1.29700 33.81200
O  29.08900 0.19500 35.16400
C  28.94000 -0.72700 36.28600
H  21.88700 1.91900 32.28100
H  22.58400 1.80100 25.74200
H  28.86300 0.79700 26.43000
H  25.87600 0.51600 34.29000
H  23.49500 2.30000 33.98200
H  22.58300 0.40500 34.70900
H  24.02500 -0.63300 34.71800
H  23.09000 -0.41300 33.23000
H  25.62700 3.46200 34.80300
H  27.14900 2.98500 34.23300
H  27.51900 1.94800 36.17900
H  25.99200 1.26900 36.46700
H  20.04800 2.44400 31.27300
H  19.43300 1.03400 30.80200
H  18.90000 2.38200 29.89400
H  18.58100 0.61700 28.39500
H  18.02100 0.72000 26.61200
H  18.15600 2.16700 27.58000
H  24.72300 2.39100 24.23000
H  27.14400 0.63100 24.55200
H  25.52700 -0.21600 23.60700
H  24.07900 0.65900 23.17100
H  24.07700 -0.38100 24.64400
H  26.63800 3.14200 23.57100
H  28.25500 2.86400 24.10100
H  26.80300 3.86100 26.41500
H  26.00600 4.58300 25.03600
H  27.77600 4.64500 25.27600
H  31.22800 0.66700 27.66100
H  30.97400 -0.93900 28.45900
H  31.73400 0.40000 29.34900
H  29.14000 1.76400 33.31400
H  28.03900 -0.40500 36.80800
H  29.76700 -0.53900 36.97100
H  28.94800 -1.77600 35.99100
Mg 49.81000 46.23800 43.23700
C  46.60600 46.78500 41.96900
C  49.85100 43.10800 41.79200
C  53.17700 46.09100 43.74000
C  49.82900 49.47000 44.54800
N  48.33600 45.12200 41.91700
C  47.06700 45.47000 41.58400
C  46.32600 44.30500 40.90100
C  47.30900 43.06700 41.15600
C  48.64000 43.81200 41.53600
C  46.75300 42.03400 42.15900
C  46.13900 44.68000 39.38200
C  44.72700 44.42300 38.85500
H  44.63000 43.35700 37.75200
N  51.30100 44.72500 42.91900
C  51.08400 43.53100 42.32000
C  52.26700 42.72900 42.41300
C  53.28900 43.54000 42.96700
C  52.65700 44.88300 43.19200
C  52.32300 41.23300 41.96500
C  54.70900 43.06000 43.23700
O  54.99900 41.87800 43.11200
C  55.68500 43.94200 43.84100
N  51.32800 47.66000 43.72600
C  52.54800 47.25800 44.07400
C  53.33800 48.32500 44.85100
C  52.19900 49.33000 45.25400
C  51.09700 48.81600 44.38800
C  54.19000 47.71000 46.07400
C  52.46000 50.83500 45.07800
C  52.10100 51.75200 46.26000
N  48.56400 47.88800 43.22500
C  48.62700 49.10200 43.86700
C  47.42900 49.88100 43.56200
C  46.59900 49.00700 42.84600
C  47.31900 47.78200 42.64400
C  47.19600 51.28200 43.89700
C  45.29100 48.88800 42.21700
O  44.33300 49.65300 42.05800
C  45.29000 47.45100 41.54600
C  44.08200 46.68500 42.09500
O  44.15500 46.11000 43.22500
O  42.98900 46.80000 41.37700
C  41.72700 46.20300 41.84600
H  49.80400 42.04600 41.54000
H  54.24200 46.00900 43.96400
H  49.82500 50.34100 45.20700
H  45.36400 44.14400 41.38800
H  47.42400 42.63400 40.16200
H  47.01500 41.06700 41.73200
H  45.67000 42.11000 42.25300
H  47.30300 42.11900 43.09700
H  46.84700 44.23200 38.68500
H  46.23200 45.76500 39.40600
H  44.23400 45.28000 38.39600
H  44.03500 44.10900 39.63700
H  51.47600 40.92900 41.35000
H  52.31400 40.54100 42.80700
H  53.19500 41.07100 41.33200
H  56.57000 43.38000 44.14100
H  55.30900 44.44800 44.73000
H  55.84500 44.70000 43.07400
H  54.06800 48.75800 44.16600
H  51.83300 49.16700 46.26800
H  53.87700 48.30600 46.93000
H  55.26600 47.82200 45.94600
H  53.83800 46.69800 46.27600
H  51.98400 51.25500 44.19200
H  53.53400 50.96300 44.94400
H  51.58900 52.63900 45.88500
H  52.98200 52.09200 46.80400
H  51.44200 51.34000 47.02400
H  48.03700 51.73900 44.42000
H  46.25900 51.30100 44.45300
H  47.02600 51.90300 43.01800
H  45.16200 47.62900 40.47900
H  41.90600 45.37100 42.52600
H  41.18700 45.68500 41.05400
H  41.16900 46.98100 42.36700

