158

Mg 40.99500 9.13400 29.44000
C  42.45400 10.28600 32.53900
C  38.53600 7.72700 31.28200
C  39.96400 7.64300 26.76800
C  43.99800 10.01400 28.00900
N  40.60300 8.98500 31.64600
C  41.21500 9.64500 32.73300
C  40.38500 9.62000 34.03900
C  39.15600 8.74500 33.63400
C  39.39700 8.49500 32.08500
C  39.08500 7.45700 34.41900
C  40.04900 11.08200 34.45600
C  39.03300 11.24700 35.65400
H  39.58300 11.42800 37.07300
N  39.40100 7.92300 29.05400
C  38.48400 7.47700 29.92900
C  37.40900 6.72400 29.18400
C  37.74700 6.79600 27.82300
C  39.04800 7.49300 27.86200
C  36.33200 5.93000 29.92200
C  37.03200 6.27500 26.62800
O  37.46100 6.24800 25.46200
C  35.64100 5.64800 26.82900
N  41.97400 8.64600 27.67800
C  41.24200 8.20500 26.62600
C  41.79500 8.39500 25.24100
C  43.07200 9.21800 25.65900
C  43.00900 9.38500 27.19200
C  42.26400 7.16400 24.44800
C  43.23700 10.56000 24.93300
C  42.03100 11.49200 25.02600
N  42.70900 10.10000 30.00800
C  43.86900 10.33400 29.33100
C  44.82000 11.10200 30.04700
C  44.23400 11.23300 31.30600
C  43.02700 10.49300 31.27800
C  46.08800 11.57300 29.61900
C  44.43400 11.78400 32.65200
O  45.22100 12.64300 33.08900
C  43.33000 11.11800 33.49000
C  43.86500 10.15200 34.55700
O  44.81400 9.38200 34.47500
O  43.00700 10.12000 35.65100
C  43.45000 9.23100 36.77200
H  37.65700 7.37500 31.82700
H  39.53600 7.22500 25.85500
H  44.83600 10.50000 27.50600
H  41.00400 9.14100 34.79800
H  38.15900 9.18300 33.59500
H  39.09700 6.57500 33.77900
H  38.17200 7.40000 35.01100
H  39.91400 7.51200 35.12500
H  39.60300 11.62200 33.62100
H  40.95700 11.53200 34.85600
H  38.40600 10.36500 35.78700
H  38.31400 12.04300 35.46400
H  36.45100 5.97600 31.00400
H  36.28200 4.85500 29.74600
H  35.40100 6.41600 29.63000
H  35.74800 4.87400 27.58800
H  35.30700 5.31300 25.84600
H  34.83200 6.31100 27.13600
H  41.20900 8.95500 24.51300
H  44.02300 8.74300 25.41600
H  43.20700 6.77600 24.83300
H  42.46300 7.48200 23.42500
H  41.62600 6.29300 24.59500
H  43.38300 10.33000 23.87800
H  44.03100 11.13300 25.41400
H  42.19100 12.48300 25.45100
H  41.30400 11.11000 25.74200
H  41.43000 11.66600 24.13300
H  46.08000 12.38700 28.89500
H  46.46700 10.71800 29.06000
H  46.82500 11.72800 30.40700
H  42.74100 11.93000 33.91600
H  44.38200 9.59100 37.20700
H  43.56600 8.18300 36.49500
H  42.76800 9.21900 37.62300
Mg 47.47300 16.23800 29.23700
C  44.93200 15.94400 31.69000
C  49.16900 18.27700 31.31700
C  49.56700 17.07100 26.54300
C  45.15600 15.02100 26.89500
N  47.05300 16.95300 31.27900
C  45.98300 16.71400 32.13100
C  46.32200 17.24800 33.57700
C  47.52100 18.25800 33.30100
C  47.91000 17.85800 31.84400
C  47.14500 19.81100 33.50200
C  46.49000 16.12900 34.59200
C  45.41800 16.04100 35.76200
H  45.11900 17.20600 36.64300
N  49.23900 17.26200 29.11000
C  49.80300 18.01000 30.06400
C  51.07900 18.51000 29.59600
C  51.21800 18.16600 28.23300
C  50.02100 17.42800 27.89600
C  52.14900 19.15400 30.53100
C  52.32100 18.50700 27.27100
O  52.25400 18.09100 26.09000
C  53.41600 19.53500 27.71800
N  47.33200 16.17400 27.03800
C  48.30000 16.57200 26.19000
C  47.90300 16.26300 24.70800
C  46.61500 15.38600 24.83300
C  46.33200 15.54200 26.38100
C  47.70100 17.55600 23.85500
C  46.70800 13.97600 24.11000
C  46.95000 12.68700 24.99600
N  45.56100 15.38100 29.29100
C  44.74400 14.97800 28.25700
C  43.50900 14.44100 28.78300
C  43.53400 14.83200 30.17000
C  44.77100 15.42100 30.38100
C  42.43800 13.72500 27.98900
C  42.78500 14.88000 31.36400
O  41.62300 14.56800 31.53400
C  43.68700 15.58000 32.44500
C  42.89900 16.74500 32.87000
O  42.45600 17.64900 32.11500
O  42.53200 16.63600 34.16300
C  41.64400 17.71100 34.73000
H  49.65900 18.84800 32.10700
H  50.15000 17.32800 25.65600
H  44.50100 14.58800 26.13700
H  45.41000 17.81700 33.75900
H  48.37400 17.95700 33.90800
H  46.10100 20.01000 33.74500
H  47.34400 20.29200 32.54400
H  47.79700 20.28000 34.23900
H  47.41800 16.24600 35.15300
H  46.52000 15.20000 34.02200
H  45.93500 15.32600 36.40200
H  44.53800 15.48800 35.43300
H  52.24900 20.20600 30.26300
H  53.14800 18.71900 30.49800
H  51.77600 19.12000 31.55400
H  53.03400 20.49900 28.05400
H  53.95900 19.79000 26.80800
H  54.08800 19.04100 28.42000
H  48.77100 15.85100 24.19200
H  45.83800 15.92500 24.29100
H  48.25100 17.66200 22.92000
H  48.04700 18.36700 24.49700
H  46.67700 17.74500 23.53200
H  47.48700 13.99900 23.34800
H  45.76100 13.83000 23.59100
H  47.69100 12.12800 24.42500
H  46.04500 12.10800 25.18000
H  47.30500 12.96300 25.98900
H  42.65900 12.65700 27.97200
H  42.46600 14.13300 26.97900
H  41.42900 13.86600 28.37700
H  43.83500 14.81400 33.20700
H  41.05800 18.22500 33.96800
H  42.35200 18.45200 35.10000
H  40.96300 17.26200 35.45200

