158

Mg 25.26900 2.04200 29.76600
C  27.34000 1.98100 32.53700
C  22.46500 2.46900 32.03000
C  23.19600 1.82000 27.13200
C  27.92800 1.25400 27.66600
N  24.91500 2.21800 32.08400
C  25.99400 2.25100 32.90200
C  25.54600 2.53400 34.37900
C  23.93400 2.54100 34.24000
C  23.74100 2.36600 32.71100
C  23.25700 1.49600 35.01600
C  26.27900 3.66100 35.18100
C  27.17100 3.23100 36.42500
H  27.15100 4.08700 37.71100
N  23.14900 1.99600 29.63300
C  22.17500 2.19400 30.64600
C  20.85500 2.03000 30.04100
C  21.10800 1.92800 28.65100
C  22.58200 1.98400 28.41000
C  19.56500 2.20000 30.93300
C  20.05600 1.75200 27.59400
O  20.29200 1.64400 26.35100
C  18.65500 1.80700 27.94800
N  25.50000 1.61800 27.73600
C  24.55100 1.66800 26.82000
C  24.99200 1.69100 25.36700
C  26.50400 1.65800 25.52600
C  26.68200 1.56100 27.09300
C  24.36900 0.65000 24.44300
C  27.16900 2.99800 24.96900
C  26.91000 4.21200 25.84000
N  27.26200 1.84400 30.00200
C  28.22500 1.45300 29.04900
C  29.53600 1.33000 29.71000
C  29.19300 1.47400 31.06000
C  27.78600 1.75300 31.19400
C  30.82200 0.90200 29.09100
C  29.72000 1.36800 32.39600
O  30.89200 1.09200 32.74900
C  28.57600 1.67100 33.39100
C  28.40700 0.55100 34.35100
O  27.68100 -0.44900 34.22100
O  29.26100 0.87000 35.40100
C  29.16300 -0.14000 36.52600
H  21.53700 2.65200 32.57500
H  22.55200 1.77100 26.25100
H  28.71600 1.14500 26.91800
H  25.91600 1.66500 34.92200
H  23.61500 3.50200 34.64400
H  22.91400 0.72600 34.32500
H  22.44200 1.92800 35.59700
H  23.95900 1.04800 35.72000
H  25.52900 4.31800 35.62200
H  26.97500 4.11400 34.47500
H  28.18200 3.33900 36.03100
H  27.05500 2.18000 36.69000
H  19.33000 3.26400 30.89400
H  19.70100 1.99200 31.99400
H  18.69000 1.67500 30.54700
H  18.34100 0.87000 28.40800
H  18.09400 1.98400 27.03000
H  18.43400 2.65800 28.59200
H  24.57700 2.61800 24.97100
H  26.94700 0.74000 25.14000
H  23.42100 0.16100 24.66900
H  25.19600 -0.03100 24.24400
H  24.29200 1.11800 23.46100
H  26.84400 3.14600 23.93900
H  28.21600 2.78800 24.74800
H  26.56900 4.97600 25.14200
H  27.91100 4.36400 26.24400
H  26.16700 3.99500 26.60700
H  30.71700 0.99400 28.01000
H  31.02900 -0.14700 29.30400
H  31.64600 1.49500 29.48900
H  28.85100 2.61600 33.86000
H  28.16100 -0.08200 36.95200
H  29.82000 0.03300 37.37800
H  29.31100 -1.17100 36.20400
Mg 48.87400 46.25000 42.75600
C  45.58800 46.95000 42.06700
C  48.44900 43.26100 41.06500
C  52.09200 46.10100 42.59900
C  49.16200 49.73000 43.72300
N  47.21900 45.29000 41.62100
C  45.95700 45.73300 41.54100
C  45.01700 44.71000 40.74600
C  45.95000 43.53100 40.56300
C  47.28600 43.97800 41.23300
C  45.45100 42.13200 41.09800
C  44.53900 45.39000 39.41100
C  43.18300 44.93500 38.86100
H  43.10900 44.55500 37.33500
N  50.11100 44.72800 42.17400
C  49.78100 43.55000 41.57400
C  50.94500 42.70800 41.70100
C  52.08000 43.55500 42.17900
C  51.47000 44.87200 42.37100
C  50.85500 41.29400 41.46600
C  53.50400 43.04300 42.45700
O  53.87400 41.91300 42.05200
C  54.36800 43.86800 43.32700
N  50.40300 47.79100 42.90700
C  51.74100 47.40900 42.84200
C  52.66800 48.61900 43.13100
C  51.65100 49.68100 43.56400
C  50.32600 49.01000 43.47900
C  53.77300 48.31400 44.15400
C  51.79000 51.17700 43.17000
C  50.85000 51.70200 42.03800
N  47.66200 47.99500 42.96600
C  47.84800 49.26600 43.47600
C  46.63200 49.97500 43.60100
C  45.64500 49.10500 43.13800
C  46.37000 47.94000 42.65500
C  46.42900 51.35900 43.98900
C  44.23800 48.84000 42.86000
O  43.29600 49.60300 42.99900
C  44.20500 47.45600 42.23800
C  43.41400 46.40700 43.07400
O  43.85200 45.85800 44.05100
O  42.17300 46.27600 42.56200
C  41.50600 45.07400 43.14100
H  48.22800 42.34200 40.51900
H  53.17000 45.96700 42.49100
H  49.20300 50.81200 43.86300
H  44.19000 44.44900 41.40600
H  45.97600 43.49200 39.47400
H  46.14200 41.53100 41.68900
H  45.14400 41.47000 40.28800
H  44.60300 42.19300 41.78100
H  45.27600 45.15700 38.64200
H  44.58200 46.47900 39.43700
H  42.46500 45.73500 39.03800
H  42.86800 44.09800 39.48500
H  51.80200 40.77700 41.31100
H  50.46300 41.08400 40.47100
H  50.27200 40.75900 42.21600
H  53.81900 44.44800 44.06900
H  54.91100 44.53200 42.65500
H  54.99500 43.19100 43.90600
H  53.19200 48.83700 42.20100
H  51.76800 49.69400 44.64700
H  54.77000 48.27900 43.71500
H  53.61100 47.35000 44.63600
H  53.84100 49.14600 44.85500
H  52.83100 51.34300 42.89400
H  51.55300 51.69600 44.09900
H  51.40400 52.23200 41.26300
H  50.29200 52.50100 42.52600
H  50.10400 51.09600 41.52500
H  47.33500 51.82700 44.37500
H  45.62600 51.52400 44.70700
H  46.13100 51.94800 43.12100
H  43.73000 47.46600 41.25700
H  42.14900 44.23900 42.86300
H  40.50100 44.98400 42.72800
H  41.34900 45.17000 44.21600

