158

Mg 41.22300 8.62500 29.79900
C  42.99600 9.98000 32.42900
C  38.95100 7.39100 32.06100
C  39.54800 7.33900 27.21400
C  43.88800 9.48100 27.73900
N  41.16500 8.56400 31.98700
C  41.91200 9.24200 32.87200
C  41.30300 9.21500 34.29900
C  40.10900 8.16200 34.11500
C  40.07100 8.00100 32.62000
C  40.23200 6.79700 34.86600
C  40.81700 10.64000 34.84300
C  40.13300 10.69000 36.20000
H  40.67500 11.69300 37.21500
N  39.48200 7.65300 29.66100
C  38.55500 7.28900 30.66400
C  37.32200 6.93400 30.12100
C  37.47700 7.17800 28.72400
C  38.92100 7.42400 28.43700
C  36.06900 6.55400 30.89600
C  36.45700 7.17200 27.62800
O  36.65000 7.35700 26.41500
C  35.09700 6.87900 28.03300
N  41.66400 8.28000 27.73500
C  40.84700 7.73100 26.84800
C  41.54500 7.64600 25.38900
C  43.00700 8.23300 25.73100
C  42.90300 8.69700 27.17800
C  41.44400 6.12700 24.97800
C  43.47200 9.20800 24.63400
C  44.82800 8.90600 23.99700
N  43.03400 9.65800 29.93700
C  43.99400 9.93600 29.01300
C  45.05000 10.67900 29.60500
C  44.65000 10.86700 30.96100
C  43.48000 10.13600 31.13200
C  46.30300 11.02500 29.00700
C  45.07200 11.40300 32.27000
O  46.01700 12.11900 32.52400
C  43.88100 10.99700 33.22300
C  44.45700 10.44400 34.42300
O  44.77200 9.32400 34.58900
O  44.66200 11.47400 35.36400
C  45.14200 11.01000 36.70000
H  38.20000 6.89800 32.68300
H  38.97800 6.88800 26.40000
H  44.73200 9.73100 27.09300
H  42.05300 8.72600 34.92100
H  39.17100 8.62100 34.42800
H  40.20500 5.94200 34.19000
H  39.52800 6.69200 35.69200
H  41.20800 6.74500 35.34900
H  40.17000 11.24600 34.20800
H  41.64400 11.32100 35.04400
H  40.04500 9.71800 36.68500
H  39.09000 10.95600 36.02800
H  36.33500 6.42800 31.94500
H  35.86900 5.54300 30.53900
H  35.16500 7.15500 30.79600
H  34.91900 7.69700 28.73100
H  34.97400 5.88000 28.45300
H  34.35300 6.88900 27.23600
H  40.95300 8.31900 24.77000
H  43.74900 7.43900 25.82500
H  42.40300 5.86100 24.53300
H  40.68600 6.06000 24.19800
H  41.14000 5.40900 25.73900
H  43.55000 10.18000 25.12200
H  42.65300 9.39700 23.94000
H  44.81800 8.94200 22.90800
H  45.41600 8.08800 24.41400
H  45.46000 9.72200 24.34800
H  46.94600 10.15900 28.84800
H  46.94200 11.67000 29.61100
H  46.34800 11.39700 27.98300
H  43.23000 11.79500 33.58000
H  46.15100 10.60700 36.61700
H  44.56000 10.25800 37.23300
H  45.26100 11.86400 37.36600
Mg 0.20300 43.47100 26.94400
C  2.75400 43.69500 29.34400
C  -2.05800 42.89000 29.36200
C  -2.04000 42.54800 24.61600
C  2.74200 43.74600 24.44200
N  0.35200 43.37000 29.08900
C  1.45800 43.52500 29.85900
C  1.07900 43.45100 31.33700
C  -0.38800 42.94200 31.31600
C  -0.75200 43.10300 29.81900
C  -0.75300 41.56000 31.89500
C  1.29200 44.78100 32.08500
C  1.52100 44.70300 33.64000
H  1.26500 43.31900 34.41800
N  -1.90200 43.14300 27.02400
C  -2.63900 42.96200 28.14400
C  -3.99100 42.64800 27.75900
C  -3.99700 42.50900 26.30300
C  -2.58100 42.68700 25.89800
C  -5.02600 42.34900 28.77400
C  -5.12100 42.18500 25.33700
O  -5.02700 42.10200 24.11000
C  -6.58600 41.96300 25.92200
N  0.31500 43.26700 24.84400
C  -0.72900 42.77000 24.13100
C  -0.28400 42.40000 22.70900
C  0.99700 43.29200 22.58300
C  1.45000 43.40000 24.06100
C  -0.07100 40.85800 22.56200
C  0.77600 44.80300 22.16200
C  1.13300 45.20400 20.70900
N  2.31200 43.74000 26.79300
C  3.20800 43.93600 25.76600
C  4.56800 44.06400 26.22400
C  4.43500 44.00400 27.66300
C  3.06900 43.83700 27.93100
C  5.78500 44.11700 25.34900
C  5.17000 43.98800 28.91600
O  6.41400 43.98400 29.03600
C  4.05500 44.04600 30.06400
C  4.52700 42.97000 31.03300
O  4.75900 41.78100 30.78600
O  4.67200 43.55100 32.26300
C  5.24900 42.78900 33.32400
H  -2.81200 42.66900 30.12000
H  -2.85600 42.24900 23.95400
H  3.49800 43.81200 23.65700
H  1.75000 42.69800 31.75000
H  -1.05100 43.68600 31.75900
H  -1.49400 41.66000 32.68800
H  0.15900 41.12300 32.30000
H  -1.09300 40.79900 31.19200
H  0.39300 45.39600 32.07000
H  2.01900 45.45600 31.63400
H  0.89000 45.46300 34.10000
H  2.52700 45.08500 33.81900
H  -5.81600 43.09900 28.81200
H  -4.68300 42.33900 29.80900
H  -5.38500 41.32500 28.67100
H  -6.61200 41.17800 26.67800
H  -7.15500 41.65800 25.04400
H  -7.06000 42.90800 26.18700
H  -1.09000 42.69500 22.03800
H  1.72700 42.80200 21.93800
H  -0.65400 40.40500 21.76000
H  -0.40800 40.44600 23.51300
H  0.98600 40.62100 22.43500
H  1.34400 45.39100 22.88300
H  -0.24700 45.07000 22.42600
H  0.29800 44.88200 20.08700
H  2.08500 44.73800 20.45300
H  1.30900 46.27900 20.74900
H  5.69000 43.41200 24.52300
H  6.63000 43.96100 26.02000
H  5.83100 45.12100 24.92900
H  4.22500 45.08100 30.36200
H  6.30800 42.55000 33.22900
H  4.57600 41.93400 33.39600
H  5.25300 43.40500 34.22300

