158

Mg 34.85500 2.95100 29.35600
C  32.79000 4.14900 31.94900
C  37.26800 2.43600 31.67900
C  36.83500 2.27600 26.72100
C  32.22300 3.52300 27.12600
N  34.97900 3.30400 31.53400
C  34.05800 3.74200 32.39800
C  34.51700 3.59400 33.84300
C  36.03400 3.34000 33.70100
C  36.12300 3.07000 32.18800
C  36.92000 4.46900 34.28400
C  33.77900 2.49300 34.62600
C  33.61300 2.79500 36.16300
H  34.31700 4.08700 36.70600
N  36.83400 2.33500 29.21300
C  37.71500 2.23600 30.26900
C  38.99700 1.83100 29.70500
C  38.88100 1.77000 28.28300
C  37.47700 2.16600 28.00200
C  40.23700 1.56800 30.51500
C  39.87800 1.31400 27.23800
O  39.61100 1.16900 26.10400
C  41.39300 1.06300 27.62300
N  34.64800 2.84300 27.27800
C  35.52700 2.36700 26.42300
C  34.98700 2.29900 24.99600
C  33.49500 2.64000 25.13300
C  33.45100 3.04700 26.62100
C  35.79400 3.11500 23.89200
C  32.40700 1.41400 24.83300
C  31.06700 1.92500 24.31800
N  32.87700 3.74100 29.46100
C  31.96900 3.81000 28.44400
C  30.73500 4.32800 28.99100
C  31.03700 4.54500 30.37000
C  32.31000 4.09400 30.59400
C  29.46600 4.51000 28.22100
C  30.43900 4.78500 31.63700
O  29.24800 4.99900 31.90100
C  31.58600 4.67300 32.78100
C  31.87400 5.96000 33.47800
O  32.51400 6.82200 32.96500
O  31.22400 6.01700 34.70500
C  31.46900 7.14800 35.62900
H  38.15600 2.34600 32.30800
H  37.38500 1.94300 25.83900
H  31.38700 3.63500 26.43300
H  34.41100 4.58100 34.29400
H  36.29500 2.47600 34.31300
H  37.25400 4.10700 35.25600
H  36.41200 5.42000 34.44400
H  37.72900 4.62200 33.57000
H  34.23900 1.50800 34.53500
H  32.81800 2.28900 34.15500
H  33.97200 1.97300 36.78200
H  32.54200 2.88300 36.34400
H  40.78100 0.62400 30.52700
H  40.00100 1.75800 31.56200
H  40.88900 2.40800 30.27600
H  41.76200 1.90200 28.21200
H  41.91800 1.06600 26.66800
H  41.54000 0.07900 28.06700
H  34.89700 1.27700 24.62900
H  33.15300 3.52400 24.59600
H  35.07600 3.73300 23.35400
H  36.42800 2.51500 23.23900
H  36.46700 3.80000 24.40900
H  32.30300 0.88100 25.77800
H  32.76900 0.67200 24.12100
H  30.20000 1.36800 24.67500
H  31.04100 1.93900 23.22800
H  30.93200 2.98800 24.51700
H  29.48300 3.79900 27.39400
H  29.42800 5.50300 27.77300
H  28.66500 4.44000 28.95700
H  31.30600 3.95400 33.55000
H  32.31400 7.77200 35.33800
H  31.57500 6.63100 36.58300
H  30.54300 7.71500 35.72500
Mg -10.95500 38.57100 41.67600
C  -9.48000 35.38900 41.10800
C  -8.24300 39.89400 40.15600
C  -12.52600 41.53400 41.67000
C  -13.91300 36.96700 42.67400
N  -9.07100 37.72100 40.75400
C  -8.63100 36.44100 40.69400
C  -7.20000 36.27900 40.25800
C  -6.80100 37.76200 39.99700
C  -8.08200 38.53000 40.38600
C  -5.51700 38.18500 40.73500
C  -7.23200 35.46000 38.92600
C  -6.08600 34.41800 38.81200
H  -5.11300 34.80100 37.73000
N  -10.39800 40.44700 41.08900
C  -9.16800 40.77700 40.63000
C  -9.09100 42.20200 40.41900
C  -10.34500 42.74100 40.77800
C  -11.16800 41.61300 41.23300
C  -7.88300 42.90700 39.83100
C  -10.73500 44.16500 40.87300
O  -9.94600 45.10200 40.65300
C  -12.14700 44.60900 41.21000
N  -13.01000 39.11400 41.83900
C  -13.32700 40.40400 41.86800
C  -14.75100 40.63900 42.38900
C  -15.19600 39.18100 42.79000
C  -13.94900 38.30800 42.41300
C  -14.84700 41.73700 43.52500
C  -16.38800 38.60700 41.96200
C  -17.56600 38.13800 42.85600
N  -11.64900 36.61700 41.86400
C  -12.85400 36.08100 42.32900
C  -12.68200 34.66100 42.56900
C  -11.40400 34.34300 42.06700
C  -10.79500 35.58700 41.70100
C  -13.73100 33.76300 43.04900
C  -10.42200 33.24900 41.75900
O  -10.53000 32.06100 42.03400
C  -9.22000 33.86300 41.08400
C  -8.01500 33.28500 41.69200
O  -7.40700 32.32900 41.24900
O  -7.66100 33.96700 42.86700
C  -6.37100 33.57900 43.55400
H  -7.46400 40.46100 39.64100
H  -13.09300 42.46200 41.77100
H  -14.79400 36.54600 43.16300
H  -6.54900 35.84400 41.01700
H  -6.64300 37.95000 38.93500
H  -4.79700 37.37000 40.66400
H  -5.63400 38.38100 41.80000
H  -4.96500 39.03800 40.34100
H  -7.01400 36.08500 38.06000
H  -8.23000 35.05300 38.76500
H  -6.46600 33.43900 38.51900
H  -5.44200 34.45800 39.69000
H  -7.85200 43.90700 40.26500
H  -7.85700 43.08900 38.75700
H  -6.96200 42.43700 40.17800
H  -12.58900 44.43200 42.19000
H  -12.78100 44.14800 40.45400
H  -12.22500 45.66600 40.95400
H  -15.31000 41.03900 41.54300
H  -15.45300 39.19800 43.84900
H  -14.00000 42.04000 44.14100
H  -15.62300 41.34800 44.18300
H  -15.13200 42.68100 43.05900
H  -16.01300 37.77800 41.36200
H  -16.73600 39.35900 41.25400
H  -17.55800 38.36100 43.92300
H  -17.75300 37.06400 42.85900
H  -18.51700 38.56200 42.53200
H  -14.00100 33.94500 44.08900
H  -13.35600 32.74100 42.98600
H  -14.63900 33.81700 42.44900
H  -9.13500 33.49900 40.06000
H  -6.39200 33.84800 44.61000
H  -5.53000 34.12900 43.13100
H  -6.27800 32.49400 43.52500

