158

Mg 47.79400 16.80500 28.66500
C  45.93900 16.37500 31.71700
C  50.18200 18.57700 30.48000
C  48.96500 18.06600 25.79000
C  44.91200 15.67600 26.94300
N  48.01200 17.26100 30.91500
C  47.19200 16.99400 31.95800
C  47.81500 17.38700 33.25600
C  48.99500 18.39100 32.80900
C  49.10900 18.04400 31.27900
C  48.91100 19.84300 33.19700
C  48.20700 16.02100 33.97500
C  48.26600 16.02500 35.56200
H  47.94100 17.30300 36.42000
N  49.51100 17.85900 28.21500
C  50.43500 18.36600 29.14000
C  51.60000 18.89100 28.32900
C  51.23700 18.87900 26.92200
C  49.86100 18.24900 26.90600
C  52.88800 19.39500 29.02500
C  52.01100 19.38900 25.71000
O  51.53100 19.45000 24.57100
C  53.42700 19.58700 25.85600
N  46.94500 16.82700 26.64800
C  47.74900 17.33900 25.65500
C  47.09500 17.17100 24.32700
C  45.99600 16.08200 24.64600
C  45.88700 16.22200 26.17400
C  46.45200 18.51300 23.76000
C  46.47400 14.66900 24.29000
C  45.44900 13.90600 23.42600
N  45.89800 16.04800 29.24700
C  44.80300 15.73600 28.38100
C  43.65900 15.39600 29.13400
C  44.06600 15.57200 30.45000
C  45.47300 16.02500 30.49200
C  42.31200 14.83500 28.58900
C  43.60900 15.51600 31.79400
O  42.51700 15.21700 32.30400
C  44.79600 16.01300 32.69200
C  44.18600 17.11300 33.40800
O  44.06200 18.31500 33.06100
O  43.71700 16.55600 34.63200
C  42.92800 17.54300 35.36500
H  51.00500 19.10700 30.96300
H  49.35400 18.47900 24.85700
H  44.06800 15.14700 26.49500
H  47.17500 17.90200 33.97300
H  49.96100 18.10300 33.22300
H  49.74100 19.83600 33.90400
H  47.96400 20.03700 33.70000
H  49.21900 20.56900 32.44500
H  49.25900 15.77300 33.83300
H  47.60000 15.20000 33.59400
H  49.26600 15.69300 35.83800
H  47.71100 15.14600 35.88900
H  52.91000 20.48400 29.06300
H  53.77300 19.05500 28.48700
H  52.95300 18.99000 30.03500
H  53.49100 20.35400 26.62800
H  53.80500 19.90900 24.88600
H  53.91000 18.70100 26.27000
H  47.73900 16.82900 23.51600
H  45.03300 16.27500 24.17400
H  46.63700 19.24800 24.54300
H  45.39500 18.31600 23.58200
H  46.79300 18.81300 22.76900
H  46.59900 14.07300 25.19400
H  47.39500 14.66100 23.70700
H  44.99300 14.64200 22.76300
H  44.65200 13.53600 24.07000
H  45.81400 13.04900 22.86000
H  42.46800 13.78100 28.35700
H  41.92200 15.50400 27.82200
H  41.67700 14.75700 29.47100
H  45.12000 15.18200 33.31900
H  42.38500 17.13600 36.21800
H  42.08600 18.06400 34.90800
H  43.60100 18.36400 35.61000
Mg 1.69100 41.66800 24.85500
C  3.62800 41.71900 27.84700
C  -1.00500 40.80700 26.92400
C  -0.02800 41.04100 22.17900
C  4.46300 42.19700 23.00800
N  1.32700 41.23000 27.18300
C  2.24600 41.38500 28.15700
C  1.55300 41.15200 29.57100
C  0.20500 40.61600 29.23700
C  0.13900 40.89500 27.69400
C  -0.01000 39.06400 29.50400
C  1.52500 42.45000 30.49500
C  1.98300 42.37500 31.91200
H  0.80000 42.45400 32.87800
N  -0.27400 41.13200 24.56600
C  -1.21600 40.95000 25.53700
C  -2.46500 40.71600 24.88000
C  -2.22200 40.77600 23.46200
C  -0.80700 41.00000 23.34100
C  -3.84800 40.39300 25.56900
C  -3.21300 40.58300 22.33900
O  -2.85000 40.68200 21.15100
C  -4.72900 40.24300 22.56900
N  2.16200 41.57900 22.90100
C  1.25000 41.33000 21.95200
C  1.82600 41.67100 20.51300
C  3.25100 42.28500 20.82100
C  3.32500 42.01000 22.30900
C  1.80700 40.44200 19.59300
C  3.40400 43.78800 20.39000
C  4.63100 44.09000 19.42000
N  3.64800 41.88800 25.26600
C  4.64600 42.11600 24.38800
C  5.93000 42.24800 25.11100
C  5.51200 42.09100 26.50900
C  4.14100 41.91400 26.53400
C  7.29200 42.28100 24.45100
C  5.99500 42.02300 27.84900
O  7.13900 42.17700 28.33900
C  4.80700 41.85700 28.79000
C  5.09200 40.73300 29.67800
O  5.10400 39.57900 29.31800
O  5.23200 41.11600 31.00000
C  5.27500 39.92900 31.88200
H  -1.78600 40.58600 27.65500
H  -0.53200 40.96600 21.21400
H  5.29000 42.56000 22.39400
H  2.15800 40.42900 30.11800
H  -0.58000 41.14900 29.77400
H  -0.40700 38.62700 28.58800
H  -0.82500 39.04600 30.22800
H  0.86800 38.59900 29.95400
H  0.49000 42.79200 30.49500
H  2.11300 43.22400 30.00100
H  2.68400 43.13700 32.25000
H  2.26300 41.33700 32.09400
H  -3.78900 40.72900 26.60500
H  -3.93700 39.31000 25.65000
H  -4.68400 40.83400 25.02600
H  -4.91200 39.52500 23.36800
H  -5.21600 39.97600 21.63100
H  -5.12200 41.23600 22.78400
H  1.11900 42.37400 20.07200
H  4.01100 41.66200 20.35100
H  2.71900 40.32600 19.00700
H  1.03700 40.55300 18.83000
H  1.68600 39.50500 20.13600
H  3.42200 44.43700 21.26500
H  2.48100 44.03700 19.86500
H  4.37600 44.41600 18.41200
H  5.34800 43.28400 19.26100
H  5.28500 44.90100 19.74000
H  7.21000 42.50000 23.38600
H  7.73400 41.29900 24.61500
H  7.90800 43.04700 24.92100
H  4.83700 42.74000 29.43000
H  6.28200 39.91300 32.29900
H  4.90700 38.96200 31.54000
H  4.59400 40.12900 32.70900

