158

Mg 40.48300 9.72000 30.55900
C  42.07700 11.18800 33.20600
C  37.91000 8.76000 32.77900
C  38.87100 8.39500 27.96100
C  43.34100 10.03600 28.54600
N  39.91200 10.13700 32.72500
C  40.74000 10.70500 33.59900
C  40.18300 10.65000 35.11000
C  38.95300 9.72700 34.96800
C  38.87300 9.53400 33.39100
C  39.04400 8.42100 35.88600
C  39.87500 12.10100 35.69300
C  40.69900 12.57100 36.99100
H  39.87200 13.08400 38.15700
N  38.61100 8.64500 30.35600
C  37.72600 8.38200 31.42800
C  36.56600 7.69300 30.81700
C  36.83700 7.43900 29.44400
C  38.15000 8.14100 29.15000
C  35.42600 7.24400 31.75800
C  35.98900 6.75100 28.30900
O  36.15300 6.84700 27.12700
C  34.83600 5.93200 28.79900
N  41.06200 9.35600 28.54000
C  40.13200 8.91300 27.65500
C  40.73700 8.82200 26.21300
C  42.25300 9.01500 26.48800
C  42.23200 9.52300 27.87500
C  40.41300 7.56500 25.29600
C  42.96400 9.83000 25.38900
C  42.87400 11.33700 25.59600
N  42.32700 10.45800 30.78300
C  43.39000 10.50700 29.85100
C  44.37300 11.28300 30.49500
C  43.92500 11.58600 31.78700
C  42.66500 11.03500 31.94200
C  45.71300 11.67600 29.84300
C  44.30700 12.21000 33.10200
O  45.39300 12.74700 33.36200
C  43.11600 11.88700 34.08400
C  43.80100 11.09700 35.15800
O  44.35500 9.99500 35.09100
O  43.94400 11.89600 36.31700
C  44.32500 11.15900 37.51400
H  37.24300 8.31900 33.52300
H  38.27600 8.00500 27.13200
H  44.13400 10.20700 27.81500
H  40.84200 10.14000 35.81300
H  38.05300 10.18400 35.38000
H  39.75700 7.72300 35.44700
H  38.11500 7.85300 35.84200
H  39.24000 8.57300 36.94700
H  38.84400 12.16500 36.04100
H  39.97800 12.81800 34.87800
H  41.35700 13.37500 36.66000
H  41.27400 11.68400 37.25500
H  35.16200 8.05500 32.43600
H  35.72400 6.41700 32.40300
H  34.53000 7.03300 31.17400
H  35.31900 5.21900 29.46800
H  34.43500 5.46100 27.90200
H  34.07400 6.62200 29.16100
H  40.25200 9.59800 25.62000
H  42.76400 8.05900 26.60000
H  39.92300 7.70300 24.33300
H  39.93500 6.82400 25.93700
H  41.38800 7.23700 24.93400
H  42.54600 9.55700 24.41900
H  44.02000 9.58200 25.28600
H  42.05300 11.69800 26.21600
H  42.74300 11.77700 24.60700
H  43.84000 11.68300 25.96200
H  45.51600 12.25000 28.93800
H  46.38700 10.84600 29.63300
H  46.14900 12.39900 30.53300
H  42.73500 12.79500 34.55000
H  43.95600 11.81500 38.30300
H  45.39400 10.97100 37.61300
H  43.77400 10.22000 37.55600
Mg 7.35800 53.56200 41.78900
C  6.38700 50.26000 41.19300
C  10.44700 52.85200 40.42500
C  7.98100 56.95100 41.57500
C  4.01100 54.37300 42.68800
N  8.22100 51.85900 40.66100
C  7.65500 50.62100 40.62000
C  8.51100 49.66600 39.89900
C  9.92400 50.29100 40.16300
C  9.51400 51.76500 40.38900
C  10.75100 49.75600 41.31000
C  8.09800 49.82500 38.31700
C  8.04800 48.57000 37.44300
H  7.09800 48.41100 36.18200
N  9.05100 54.80000 41.16200
C  10.13400 54.26800 40.61700
C  10.97600 55.34100 40.21500
C  10.37100 56.59400 40.62800
C  9.03500 56.16000 41.12700
C  12.39500 55.06100 39.60900
C  11.00300 57.97800 40.47100
O  12.14400 58.14500 40.00500
C  10.25300 59.23900 40.91600
N  6.15500 55.40800 42.18600
C  6.73800 56.62500 42.06900
C  5.70600 57.66600 42.51500
C  4.49400 56.82700 43.07900
C  4.87700 55.48200 42.58100
C  6.28300 58.80100 43.44800
C  3.18100 57.46100 42.61100
C  2.68300 58.74900 43.32400
N  5.61600 52.59600 41.99600
C  4.35900 52.98300 42.44200
C  3.59300 51.79300 42.65800
C  4.37300 50.72500 42.24200
C  5.56000 51.24100 41.80400
C  2.18000 51.75000 43.22300
C  4.43100 49.25800 42.14000
O  3.55800 48.45000 42.39500
C  5.76800 48.93700 41.46900
C  5.44600 48.05900 40.29100
O  4.65100 48.32700 39.39700
O  5.97900 46.79800 40.49100
C  5.50900 45.77800 39.64500
H  11.44500 52.47900 40.18300
H  8.01700 58.00000 41.27600
H  3.01200 54.65100 43.02800
H  8.37100 48.63900 40.23600
H  10.52000 50.20700 39.25400
H  11.03000 50.54200 42.01200
H  11.66200 49.22700 41.02900
H  10.31700 48.87300 41.77800
H  8.90700 50.38000 37.84300
H  7.12700 50.30400 38.18800
H  7.63200 47.80100 38.09400
H  9.07900 48.29700 37.21700
H  12.39700 55.21400 38.52900
H  12.74600 54.06500 39.87900
H  13.18700 55.70200 39.99600
H  9.90400 59.08600 41.93700
H  9.40200 59.30200 40.23700
H  10.85900 60.13100 40.75600
H  5.25900 58.07500 41.60900
H  4.52900 56.76800 44.16700
H  6.34100 59.82600 43.08200
H  7.23000 58.47700 43.88000
H  5.58300 58.81400 44.28300
H  2.41300 56.69800 42.74400
H  3.09900 57.65100 41.54100
H  2.29100 58.52800 44.31600
H  1.93000 59.25900 42.72200
H  3.46900 59.49600 43.43500
H  2.29900 51.34000 44.22600
H  1.56900 51.14900 42.54900
H  1.72200 52.73900 43.21600
H  6.39900 48.39200 42.17200
H  6.12400 44.88900 39.78000
H  5.72700 46.10100 38.62700
H  4.46900 45.45500 39.69200

