158

Mg 25.04900 -7.23000 47.49000
C  27.24900 -4.74200 46.64700
C  22.97400 -6.22300 44.98900
C  23.19200 -10.08400 47.80900
C  27.74900 -8.74000 49.14500
N  25.19100 -5.76400 45.89300
C  26.16000 -4.75200 45.79800
C  25.81300 -3.72100 44.75200
C  24.35000 -4.14400 44.44400
C  24.13000 -5.48100 45.10100
C  23.26100 -3.21100 44.90600
C  26.81200 -3.77100 43.61100
C  27.36800 -2.38100 43.13100
H  27.09900 -2.02000 41.74100
N  23.16600 -7.87600 46.74900
C  22.53600 -7.37400 45.63600
C  21.37800 -8.12600 45.35600
C  21.30000 -9.21100 46.30300
C  22.59900 -9.14600 46.98800
C  20.39900 -7.85500 44.24500
C  20.18800 -10.20500 46.53100
O  19.16300 -10.14000 45.87900
C  20.28300 -11.31500 47.47400
N  25.45100 -9.12300 48.39900
C  24.47300 -10.07200 48.45400
C  24.95900 -11.29500 49.35300
C  26.40900 -10.91800 49.60700
C  26.59800 -9.57400 48.98000
C  24.23200 -11.42100 50.64300
C  27.38700 -11.97300 48.95100
C  28.36900 -12.70400 49.91400
N  27.06300 -6.78400 47.93500
C  28.00700 -7.47800 48.61600
C  29.19500 -6.68200 48.82200
C  28.88400 -5.53400 48.04400
C  27.64100 -5.68900 47.54900
C  30.35000 -7.05500 49.64800
C  29.36000 -4.25900 47.55100
O  30.44200 -3.69600 47.84600
C  28.23000 -3.66800 46.71500
C  27.61000 -2.46400 47.43000
O  27.09800 -2.51900 48.48700
O  27.80600 -1.26400 46.70600
C  27.02000 -0.13400 47.16500
H  22.32800 -5.83800 44.19800
H  22.70800 -10.99300 48.17300
H  28.57200 -9.19500 49.69900
H  25.99100 -2.78300 45.27900
H  24.31600 -4.29100 43.36500
H  22.63400 -3.68900 45.65800
H  22.66900 -2.72400 44.13000
H  23.74200 -2.43800 45.50600
H  26.35900 -4.37300 42.82400
H  27.65500 -4.40900 43.87400
H  28.44500 -2.52500 43.22400
H  27.08000 -1.52900 43.74700
H  20.05400 -8.84800 43.95700
H  20.86100 -7.33000 43.40900
H  19.52900 -7.30500 44.60500
H  21.06500 -12.07400 47.49300
H  19.31900 -11.79900 47.62800
H  20.54200 -10.76700 48.37900
H  24.81200 -12.17200 48.72200
H  26.73600 -10.70000 50.62400
H  23.56900 -10.57800 50.84000
H  24.88300 -11.57700 51.50300
H  23.70300 -12.36600 50.51600
H  27.92500 -11.62900 48.06800
H  26.78400 -12.81700 48.61600
H  28.22100 -12.29200 50.91200
H  29.42100 -12.56500 49.66300
H  28.12800 -13.76700 49.91300
H  30.99200 -7.62200 48.97400
H  30.09200 -7.54900 50.58500
H  30.85500 -6.09700 49.76700
H  28.57000 -3.54800 45.68700
H  26.54400 0.33000 46.30100
H  27.73500 0.60500 47.52700
H  26.22500 -0.35500 47.87800
Mg -1.81300 34.04500 26.58500
C  -3.56600 32.07100 28.70700
C  -0.24300 35.64200 29.17800
C  -0.32900 36.24800 24.30400
C  -3.44200 32.49700 23.85800
N  -1.98600 33.86300 28.69700
C  -2.67000 32.91600 29.34600
C  -2.30700 32.93900 30.85300
C  -1.35300 34.16700 30.93900
C  -1.15800 34.56900 29.54900
C  -1.87100 35.29900 31.90300
C  -1.76600 31.63600 31.47400
C  -2.42500 31.20400 32.83300
H  -1.54800 30.84200 34.07500
N  -0.49200 35.72400 26.72200
C  0.12700 36.17400 27.89200
C  1.03000 37.17500 27.62100
C  1.11400 37.21200 26.16500
C  0.03400 36.35400 25.64000
C  1.80500 38.03900 28.76400
C  2.14100 38.06800 25.31300
O  2.08900 38.09700 24.08400
C  3.14100 38.91000 25.93100
N  -2.00700 34.49200 24.38200
C  -1.27800 35.42500 23.68300
C  -1.33200 35.13200 22.13900
C  -2.28300 33.96000 22.08700
C  -2.58300 33.58200 23.56500
C  -1.87400 36.36900 21.36100
C  -1.67900 32.87000 21.19400
C  -0.78900 31.75300 21.93200
N  -3.24800 32.57500 26.25200
C  -3.84600 31.99700 25.09900
C  -4.75100 30.94600 25.47700
C  -4.63400 30.92900 26.90000
C  -3.80700 31.94200 27.29500
C  -5.53600 30.05100 24.52700
C  -5.18200 30.25100 28.12000
O  -6.02200 29.27900 28.25200
C  -4.44800 30.97400 29.35300
C  -5.49900 31.43300 30.32700
O  -6.14500 32.47700 30.28300
O  -5.52600 30.53500 31.32600
C  -6.31700 30.90900 32.54900
H  0.39800 36.09300 29.93800
H  0.24800 36.84900 23.59700
H  -3.97900 32.10900 22.99000
H  -3.26600 33.15900 31.32200
H  -0.39500 33.71400 31.19600
H  -2.91300 35.10300 32.15900
H  -1.79200 36.23600 31.35200
H  -1.21500 35.29400 32.77300
H  -0.71800 31.85100 31.68400
H  -1.80400 30.87000 30.70000
H  -2.96900 30.27800 32.65300
H  -3.13900 31.99900 33.05000
H  2.81100 37.64900 28.91500
H  1.25800 38.05400 29.70700
H  1.85300 39.05400 28.37000
H  2.57300 39.71100 26.40400
H  3.65900 39.44600 25.13500
H  3.77500 38.33100 26.60300
H  -0.27000 34.92500 22.01100
H  -3.23400 34.15200 21.59000
H  -2.86100 36.15400 20.95200
H  -1.15100 36.69200 20.61300
H  -1.97800 37.26800 21.96800
H  -1.11200 33.24900 20.34400
H  -2.54400 32.34600 20.78800
H  -0.41200 32.28400 22.80600
H  0.15800 31.62200 21.40900
H  -1.33200 30.80900 21.97400
H  -6.24200 29.43000 25.07900
H  -4.86700 29.43500 23.92500
H  -6.11300 30.66800 23.83800
H  -3.80600 30.22000 29.80700
H  -5.69600 31.44300 33.26900
H  -6.85700 30.02600 32.88900
H  -7.17900 31.49700 32.23400

