158

Mg -12.10800 38.03600 42.00100
C  -10.22100 35.16300 40.97300
C  -9.93600 40.00700 40.42200
C  -14.22400 40.49900 42.70000
C  -14.50300 35.66900 43.25100
N  -10.35700 37.59500 40.74500
C  -9.64200 36.40100 40.60300
C  -8.27400 36.58700 39.97100
C  -8.10100 38.16800 40.18600
C  -9.59900 38.62300 40.39500
C  -7.15200 38.63400 41.31800
C  -8.16300 35.99000 38.62300
C  -6.94400 35.04800 38.38700
H  -5.85400 35.68200 37.43300
N  -12.15200 40.02800 41.58100
C  -11.10200 40.66100 40.92400
C  -11.42800 42.11300 40.98300
C  -12.70400 42.24300 41.57200
C  -13.09500 40.93700 41.93600
C  -10.50700 43.19800 40.35900
C  -13.39200 43.64400 41.87600
O  -12.76700 44.64800 41.63700
C  -14.65700 43.65200 42.56300
N  -14.16400 38.08300 42.65800
C  -14.77800 39.26200 43.00600
C  -15.98900 38.98900 43.93600
C  -16.20300 37.42100 43.72900
C  -14.82900 37.03200 43.20900
C  -15.70500 39.44500 45.31200
C  -17.51500 37.00100 42.90300
C  -18.80100 36.65500 43.75900
N  -12.33800 35.83400 42.22400
C  -13.43200 35.06400 42.62200
C  -13.13100 33.63200 42.51000
C  -11.87000 33.67400 41.85000
C  -11.47000 34.97600 41.65800
C  -13.90600 32.48000 42.97700
C  -10.82700 32.82600 41.26800
O  -10.88200 31.59100 41.19600
C  -9.74000 33.76300 40.68100
C  -8.46100 33.44400 41.40600
O  -7.57100 32.73600 40.94900
O  -8.35200 34.08800 42.57800
C  -6.93600 34.11200 43.15200
H  -9.14500 40.64300 40.01800
H  -14.99200 41.20700 43.01900
H  -15.32800 35.04300 43.59600
H  -7.55500 36.17200 40.67700
H  -7.64100 38.47100 39.24500
H  -6.66200 37.80700 41.83300
H  -7.68100 39.13400 42.12900
H  -6.42300 39.35900 40.95500
H  -7.98700 36.87100 38.00600
H  -9.10800 35.54700 38.30700
H  -7.38900 34.13300 37.99500
H  -6.54300 34.80000 39.37000
H  -11.14800 43.82600 39.74000
H  -9.65700 42.80400 39.80200
H  -10.04300 43.81800 41.12600
H  -15.13800 44.63000 42.53700
H  -14.30100 43.33000 43.54200
H  -15.37600 42.97300 42.10400
H  -16.85100 39.55700 43.58600
H  -16.19700 36.85900 44.66300
H  -16.18700 40.39400 45.54600
H  -14.63900 39.66000 45.39500
H  -16.03100 38.66000 45.99400
H  -17.21300 36.15100 42.29100
H  -17.76400 37.80600 42.21200
H  -19.08900 35.66900 43.39300
H  -19.59400 37.39200 43.63400
H  -18.57700 36.69400 44.82500
H  -14.32000 31.92700 42.13400
H  -14.68600 32.60900 43.72800
H  -13.30600 31.69700 43.44100
H  -9.64900 33.51100 39.62400
H  -6.27600 34.73400 42.54800
H  -6.51300 33.11000 43.21900
H  -6.83900 34.59500 44.12400
Mg -5.79400 24.93500 26.11000
C  -4.52000 26.66900 28.91200
C  -7.40300 22.89200 28.21000
C  -7.02000 23.37500 23.39300
C  -3.79300 26.92200 24.00100
N  -6.01900 24.85800 28.36300
C  -5.43100 25.67000 29.30500
C  -5.79600 25.20000 30.70800
C  -6.42300 23.81300 30.41900
C  -6.60200 23.80100 28.87800
C  -5.64100 22.59200 31.07800
C  -6.79400 26.20900 31.35000
C  -6.85600 26.36100 32.90200
H  -6.19700 25.29600 33.79600
N  -7.07100 23.47100 25.84400
C  -7.69700 22.73200 26.88200
C  -8.64700 21.81500 26.28500
C  -8.57900 21.96500 24.88600
C  -7.48000 22.92500 24.67100
C  -9.49600 20.88500 27.11500
C  -9.31400 21.27400 23.80500
O  -9.02500 21.42600 22.64500
C  -10.46000 20.35400 24.14700
N  -5.59400 25.25600 24.02500
C  -6.09500 24.42600 23.13600
C  -5.90400 24.87600 21.63100
C  -4.93900 26.11600 21.92400
C  -4.82200 26.18400 23.41400
C  -5.26400 23.74500 20.69700
C  -5.38600 27.45100 21.31400
C  -4.60800 27.91400 20.01700
N  -4.40300 26.45000 26.35400
C  -3.60900 27.14100 25.41000
C  -2.60500 27.92800 26.19600
C  -2.97300 27.81300 27.48900
C  -4.02600 26.91700 27.55300
C  -1.60000 28.88000 25.58000
C  -2.70400 28.37800 28.87100
O  -1.87400 29.21900 29.28400
C  -3.64000 27.55300 29.81900
C  -2.82100 26.67900 30.69300
O  -2.38200 25.59500 30.36300
O  -2.70200 27.24600 31.91900
C  -1.99000 26.32600 32.87200
H  -7.92200 22.23800 28.91400
H  -7.26000 22.80700 22.49200
H  -3.14200 27.59000 23.43300
H  -4.96900 25.22800 31.41700
H  -7.44700 23.79700 30.79100
H  -6.32700 22.13100 31.78900
H  -4.76700 22.91400 31.64500
H  -5.53400 21.86300 30.27500
H  -7.79300 26.03000 30.95200
H  -6.48800 27.18200 30.96300
H  -7.90000 26.49200 33.18300
H  -6.34700 27.29300 33.14900
H  -9.35400 19.93700 26.59600
H  -10.56000 21.12300 27.12200
H  -9.18000 20.70100 28.14200
H  -11.03000 19.96100 23.30400
H  -11.12500 20.77400 24.90100
H  -9.98900 19.40700 24.41100
H  -6.93500 25.19300 21.47400
H  -3.92400 25.84800 21.62800
H  -4.30800 24.08300 20.29800
H  -6.04200 23.48100 19.98100
H  -5.11600 22.84200 21.28900
H  -5.24300 28.20100 22.09200
H  -6.46000 27.52200 21.13900
H  -3.87300 27.12000 19.88600
H  -4.04400 28.80500 20.29500
H  -5.29300 28.05000 19.18000
H  -0.68600 28.80200 26.16900
H  -1.96500 29.89200 25.75500
H  -1.42600 28.71200 24.51800
H  -4.20500 28.26300 30.42200
H  -1.13800 25.77400 32.47600
H  -2.76800 25.70400 33.31300
H  -1.52600 27.02300 33.57000

