158

Mg 47.82100 25.33300 28.93500
C  48.81100 27.54200 31.50800
C  46.69100 23.05000 31.36700
C  47.16600 23.07100 26.47500
C  49.32600 27.35600 26.59800
N  48.03200 25.24200 31.32600
C  48.27800 26.36800 32.09000
C  47.95400 26.00900 33.58100
C  47.24700 24.60700 33.43300
C  47.38400 24.21100 31.90400
C  47.74000 23.54500 34.40500
C  46.98900 27.06300 34.31700
C  47.40400 27.37900 35.82000
H  46.31300 27.68300 36.85100
N  46.87200 23.39400 28.92700
C  46.49600 22.66500 30.02400
C  45.84500 21.45200 29.54300
C  45.98900 21.45800 28.07000
C  46.71400 22.72600 27.73200
C  45.16200 20.29700 30.38600
C  45.45300 20.47900 27.09500
O  45.43600 20.68100 25.88200
C  44.73900 19.14900 27.57800
N  48.21700 25.26500 26.88800
C  47.99500 24.13600 26.13100
C  48.45100 24.46700 24.68000
C  48.80800 25.96200 24.67500
C  48.80200 26.16800 26.16600
C  49.50800 23.38600 24.20100
C  47.82200 26.98100 23.99300
C  48.30600 28.39800 23.65300
N  48.93900 27.06500 28.98600
C  49.38700 27.85600 27.95400
C  49.87000 29.12500 28.48900
C  49.62200 28.97800 29.84500
C  49.12800 27.69200 30.08500
C  50.42600 30.27200 27.71200
C  49.71400 29.74900 31.10700
O  50.07900 30.90100 31.23500
C  49.27400 28.75600 32.23800
C  50.49600 28.55400 33.05500
O  51.52000 27.91900 32.75400
O  50.34700 29.15800 34.30900
C  51.36000 28.80700 35.25900
H  46.30700 22.30900 32.07100
H  47.04600 22.29100 25.72000
H  49.79900 28.03300 25.88200
H  48.83000 25.71200 34.15800
H  46.18200 24.69500 33.64900
H  48.00600 22.71100 33.75600
H  46.95500 23.20200 35.07900
H  48.70700 23.74000 34.86800
H  45.97000 26.75100 34.09000
H  47.06500 28.01700 33.79600
H  48.01300 28.27100 35.67000
H  48.11500 26.63400 36.17800
H  45.71300 19.36800 30.24100
H  44.09700 20.27700 30.15600
H  45.08400 20.53200 31.44700
H  43.85700 19.17400 28.21800
H  45.51700 18.62200 28.13200
H  44.49200 18.57000 26.68900
H  47.59100 24.27600 24.03900
H  49.83200 26.03500 24.30900
H  49.07200 22.65500 23.51900
H  49.83000 22.92500 25.13400
H  50.36000 23.83200 23.68700
H  47.02600 27.21000 24.70100
H  47.48100 26.48600 23.08300
H  47.82800 28.75800 22.74200
H  49.39100 28.34400 23.56700
H  47.98500 29.08800 24.43300
H  51.48000 30.47100 27.90500
H  49.80600 31.14500 27.91600
H  50.15000 30.05400 26.68000
H  48.44200 29.26000 32.73100
H  52.35500 28.51500 34.92200
H  51.06700 28.02100 35.95600
H  51.42600 29.71900 35.85200
Mg 9.61700 48.52300 24.75300
C  7.52500 48.60500 27.65200
C  12.12100 49.88800 26.51600
C  11.45100 48.44300 22.04700
C  6.69700 47.47700 22.95400
N  9.70900 49.16300 26.95500
C  8.86300 49.03500 27.94200
C  9.45700 49.50000 29.27300
C  10.74300 50.24500 28.65600
C  10.89000 49.67400 27.28800
C  10.54100 51.76600 28.64100
C  9.76200 48.28000 30.13800
C  9.29100 48.55100 31.55600
H  9.46200 47.54900 32.72100
N  11.54700 48.99400 24.42300
C  12.42700 49.46700 25.26000
C  13.73200 49.51800 24.62600
C  13.57200 49.20900 23.27200
C  12.16900 48.87800 23.20800
C  14.96500 49.83900 25.42900
C  14.58500 48.99600 22.23000
O  14.31100 48.81600 21.05100
C  16.07000 49.02800 22.54400
N  9.08500 48.06100 22.77700
C  10.04400 48.06100 21.84400
C  9.58100 47.64100 20.45100
C  8.10800 47.17500 20.73300
C  7.93800 47.59500 22.24300
C  9.73400 48.87500 19.51600
C  7.83400 45.66100 20.50800
C  8.40700 44.70500 21.64400
N  7.49200 48.32300 25.15500
C  6.49700 47.94700 24.30700
C  5.28900 47.80800 24.99500
C  5.59700 47.93200 26.37700
C  6.97400 48.33300 26.41100
C  3.95900 47.42300 24.47400
C  5.13800 47.84300 27.68400
O  4.07700 47.47200 28.13400
C  6.35600 48.20200 28.60500
C  6.53800 47.02500 29.38200
O  7.05900 45.95400 29.00400
O  6.01300 47.24000 30.59200
C  6.13400 46.05600 31.49500
H  12.94600 50.37700 27.03900
H  12.08300 48.33000 21.16400
H  5.83000 47.00000 22.49000
H  8.70400 50.18200 29.66800
H  11.54700 49.96900 29.33800
H  10.90000 52.12400 27.67600
H  11.05400 52.15400 29.52000
H  9.50100 52.07100 28.76100
H  10.83300 48.08300 30.09600
H  9.28900 47.35400 29.81200
H  8.21700 48.67800 31.42000
H  9.72300 49.45900 31.97600
H  14.80700 49.86100 26.50800
H  15.44400 50.80400 25.26600
H  15.73000 49.08300 25.24800
H  16.35200 48.20000 23.19500
H  16.01200 50.00200 23.02900
H  16.51800 49.10000 21.55300
H  10.16200 46.77800 20.12400
H  7.36900 47.75300 20.17900
H  10.38900 48.58400 18.69500
H  10.15300 49.76000 19.99600
H  8.76200 49.19900 19.14300
H  8.29500 45.52600 19.52900
H  6.77000 45.45800 20.38700
H  9.13300 45.20300 22.28800
H  8.92000 43.80500 21.30700
H  7.55300 44.33700 22.21200
H  3.33200 47.39900 25.36600
H  3.88000 46.36800 24.21200
H  3.69200 48.04000 23.61700
H  6.08300 49.05500 29.22700
H  7.20600 45.99200 31.68200
H  5.81900 45.08900 31.10000
H  5.69000 46.21900 32.47700

