158

Mg 23.08600 -6.06000 44.89800
C  25.48800 -4.08500 43.41800
C  20.73900 -4.42500 42.93600
C  20.73900 -8.67400 45.36200
C  25.41300 -8.00200 46.35700
N  23.08000 -4.52800 43.42900
C  24.25000 -3.78300 43.09400
C  23.93900 -2.59800 42.20200
C  22.40000 -2.60800 42.25300
C  22.03000 -3.91900 42.89700
C  21.63800 -1.39900 42.85800
C  24.48100 -2.88400 40.74900
C  25.07500 -1.69300 39.98800
H  26.19900 -2.06000 39.01500
N  21.03100 -6.46400 44.32100
C  20.25200 -5.58300 43.62300
C  18.89300 -6.13400 43.42400
C  18.86000 -7.38700 44.14500
C  20.26100 -7.54400 44.64400
C  17.81400 -5.50700 42.49900
C  17.68600 -8.36800 44.17900
O  16.53600 -7.96400 43.92000
C  17.71500 -9.84600 44.55500
N  23.04200 -8.11200 45.70800
C  21.99500 -8.88300 45.89400
C  22.38700 -10.18900 46.61400
C  23.77800 -9.83700 47.12300
C  24.10100 -8.60300 46.39100
C  21.35100 -10.67500 47.66300
C  24.84600 -10.93400 46.96000
C  25.88600 -11.05300 48.07500
N  25.04000 -6.15900 44.86800
C  25.94500 -6.91700 45.68600
C  27.29300 -6.34800 45.59800
C  27.15100 -5.26700 44.72200
C  25.76300 -5.20000 44.25300
C  28.53800 -6.90600 46.15600
C  27.93100 -4.19800 44.03400
O  29.15200 -3.92000 44.14100
C  26.86000 -3.44400 43.12400
C  26.97200 -2.00300 43.52400
O  26.44300 -1.42500 44.47700
O  27.77700 -1.41500 42.55300
C  27.99200 0.01500 42.69000
H  20.10500 -3.80700 42.29700
H  19.99900 -9.47700 45.39000
H  26.19400 -8.53900 46.90100
H  24.44700 -1.72000 42.60100
H  22.14800 -2.75400 41.20200
H  21.06500 -1.63700 43.75500
H  20.91300 -0.98400 42.15800
H  22.40800 -0.65400 43.05800
H  23.69500 -3.40200 40.20000
H  25.25000 -3.65600 40.72200
H  25.35000 -0.94100 40.72700
H  24.23600 -1.23700 39.46200
H  17.44200 -6.35000 41.91700
H  18.07300 -4.74200 41.76700
H  16.99800 -5.06500 43.07100
H  16.70900 -10.19800 44.32700
H  17.98200 -10.03600 45.59500
H  18.30000 -10.41300 43.83100
H  22.51100 -10.99200 45.88800
H  23.61500 -9.47400 48.13700
H  20.52000 -9.97000 47.69700
H  21.78700 -10.97800 48.61500
H  20.99200 -11.61000 47.23400
H  25.37300 -10.78800 46.01700
H  24.29700 -11.87500 46.93800
H  26.82100 -11.50800 47.74700
H  25.55800 -11.82700 48.76900
H  26.06700 -10.11600 48.60200
H  28.91000 -6.09500 46.78300
H  29.33000 -7.07900 45.42700
H  28.43600 -7.81400 46.75000
H  27.27300 -3.53100 42.12000
H  29.01000 0.26300 42.38900
H  27.77000 0.50000 43.64000
H  27.46200 0.54900 41.90100
Mg 17.04000 -1.59800 27.49800
C  15.98600 0.50300 30.33800
C  18.52700 -3.51500 29.89800
C  18.47800 -3.06200 25.07600
C  15.76700 0.88000 25.49500
N  17.25700 -1.38100 29.92300
C  16.76700 -0.52500 30.80800
C  17.02000 -0.93500 32.31400
C  17.81200 -2.28700 32.10300
C  17.91300 -2.38400 30.55700
C  19.23600 -2.42300 32.83100
C  15.77600 -1.04300 33.27000
C  15.70500 -0.17800 34.47500
H  16.93300 0.48200 35.16500
N  18.33600 -2.99800 27.40400
C  18.78500 -3.76800 28.52700
C  19.45200 -4.97800 28.01200
C  19.48400 -4.80800 26.54300
C  18.79300 -3.61700 26.29800
C  20.13100 -6.06200 28.80300
C  20.08500 -5.83200 25.56900
O  20.09800 -5.76100 24.34900
C  20.70000 -7.16600 26.03000
N  17.00400 -1.21100 25.50100
C  17.85900 -1.87000 24.64400
C  17.78200 -1.34500 23.17800
C  16.78600 -0.16400 23.36100
C  16.42800 -0.17900 24.88800
C  19.17900 -0.98500 22.65800
C  15.52500 -0.26400 22.45300
C  14.43700 -1.23000 22.86200
N  15.82900 0.30400 27.80200
C  15.41100 1.13200 26.82200
C  14.62600 2.19600 27.47600
C  14.87000 2.01900 28.88400
C  15.61600 0.83400 28.99600
C  13.71900 3.21600 26.85200
C  14.58400 2.48700 30.23400
O  13.94100 3.51100 30.43600
C  15.35300 1.60200 31.27800
C  16.25500 2.55500 31.98200
O  17.40900 2.83200 31.73600
O  15.50800 3.25200 32.93100
C  16.23000 4.33200 33.61000
H  18.95600 -4.23400 30.60000
H  18.78500 -3.69700 24.24300
H  15.35400 1.58500 24.77100
H  17.70700 -0.20900 32.74800
H  17.13900 -3.11800 32.31300
H  19.44200 -1.52300 33.41000
H  19.91500 -2.55500 31.98800
H  19.46100 -3.24200 33.51400
H  15.62400 -2.08200 33.56300
H  14.83000 -0.81700 32.77800
H  15.19600 -0.72400 35.26900
H  14.98500 0.61500 34.27500
H  19.63000 -7.02900 28.74300
H  20.29900 -5.72100 29.82400
H  21.15900 -6.05100 28.44000
H  19.85000 -7.58700 26.56700
H  21.63000 -7.00500 26.57400
H  20.97900 -7.78300 25.17600
H  17.29700 -2.11800 22.58300
H  17.36700 0.74500 23.21100
H  19.43600 0.03700 22.93600
H  19.19800 -1.01200 21.56800
H  20.01500 -1.60500 22.98200
H  15.87400 -0.52100 21.45300
H  15.18200 0.76300 22.32900
H  13.55400 -0.78700 23.32200
H  14.86900 -2.05800 23.42500
H  14.05800 -1.73000 21.97000
H  13.07700 2.70800 26.13200
H  14.26200 4.03500 26.38100
H  13.19900 3.61400 27.72300
H  14.59700 1.24600 31.97800
H  16.92800 4.85400 32.95600
H  16.68600 4.10100 34.57300
H  15.34500 4.93300 33.81800

