158

Mg -1.71300 17.90200 27.42400
C  -1.94900 15.50900 29.92800
C  -2.20300 20.32100 29.78600
C  -1.41700 20.11900 25.01600
C  -1.11100 15.20900 25.02900
N  -1.93000 17.86700 29.67100
C  -1.98400 16.78600 30.47300
C  -1.87400 17.24300 31.98700
C  -2.30400 18.79400 31.87900
C  -2.12200 19.05000 30.33600
C  -3.76100 19.14300 32.37600
C  -0.46400 16.93000 32.56100
C  0.02700 17.75100 33.81200
H  0.06400 17.13600 35.16400
N  -1.86500 19.96300 27.36300
C  -2.03500 20.81100 28.40100
C  -2.15100 22.19400 27.96400
C  -2.04800 22.06100 26.55900
C  -1.72700 20.68500 26.23600
C  -2.20800 23.40800 28.90300
C  -2.17600 23.20500 25.59400
O  -1.84000 23.10000 24.43300
C  -2.72500 24.56000 26.03500
N  -1.50700 17.61700 25.31500
C  -1.27600 18.77900 24.58900
C  -1.00400 18.47300 23.11200
C  -0.68900 16.98100 23.14000
C  -1.14000 16.54600 24.59400
C  -2.28400 18.85700 22.26800
C  0.71900 16.61000 22.73200
C  1.83500 17.40600 23.37800
N  -1.60400 15.79100 27.41100
C  -1.40000 14.86300 26.40400
C  -1.53800 13.55800 26.94800
C  -1.78600 13.77200 28.36300
C  -1.79100 15.14200 28.53400
C  -1.31700 12.19600 26.17400
C  -2.05400 13.07900 29.56900
O  -2.11300 11.89900 29.88800
C  -2.21000 14.17200 30.62500
C  -1.22400 13.75900 31.62200
O  -0.00400 13.97700 31.61700
O  -1.95600 13.16800 32.64900
C  -1.24500 12.79200 33.83300
H  -2.42200 21.14900 30.46400
H  -1.34400 20.85200 24.21000
H  -0.95300 14.39700 24.31600
H  -2.67300 16.69900 32.49000
H  -1.70400 19.54500 32.39300
H  -4.33000 19.81900 31.73900
H  -3.73800 19.64700 33.34200
H  -4.36200 18.23900 32.47300
H  0.38800 16.97600 31.88300
H  -0.50900 15.93000 32.99300
H  -0.68000 18.56500 33.97300
H  1.03500 18.08800 33.56800
H  -1.82600 23.13200 29.88600
H  -3.21500 23.82200 28.96000
H  -1.49200 24.16300 28.58000
H  -2.78600 25.23000 25.17800
H  -2.11400 25.06200 26.78500
H  -3.68900 24.40700 26.52100
H  -0.22900 19.17700 22.80700
H  -1.25600 16.44600 22.37800
H  -2.71200 18.04400 21.68200
H  -2.01100 19.70700 21.64200
H  -3.07000 19.18500 22.94800
H  0.65200 16.73800 21.65100
H  0.82700 15.53200 22.84900
H  2.50600 16.70000 23.86600
H  1.54700 18.20800 24.05700
H  2.40700 17.83400 22.55400
H  -0.98600 11.36000 26.79100
H  -0.85200 12.27700 25.19100
H  -2.34000 11.93900 25.90100
H  -3.23600 14.06400 30.97800
H  -0.59000 11.98200 33.51200
H  -1.91700 12.30800 34.54200
H  -0.56600 13.55800 34.20800
Mg -10.37100 17.17900 41.02900
C  -6.95600 16.76400 41.08000
C  -9.76400 20.58600 40.23600
C  -13.69700 17.56400 40.27700
C  -10.72400 13.76900 41.24700
N  -8.55300 18.54900 40.62200
C  -7.27000 18.09300 40.79400
C  -6.25000 19.24200 40.40400
C  -7.22000 20.49500 40.61700
C  -8.60400 19.88800 40.50400
C  -7.13700 21.12600 42.07600
C  -5.81100 19.11700 38.84400
C  -4.32500 18.85500 38.46700
H  -4.03000 17.66200 37.66700
N  -11.51900 18.87400 40.40700
C  -11.10300 20.18700 40.15200
C  -12.21200 20.99400 39.77100
C  -13.36300 20.16700 39.71800
C  -12.86700 18.77300 40.15800
C  -12.13100 22.51300 39.72100
C  -14.74300 20.58300 39.16500
O  -15.03300 21.71600 38.78800
C  -15.90200 19.63300 39.10500
N  -11.97900 15.86000 40.71600
C  -13.23600 16.31300 40.59900
C  -14.23700 15.15100 40.66300
C  -13.29300 13.88900 40.59700
C  -11.88800 14.51900 40.82200
C  -15.24300 15.21600 41.89000
C  -13.39300 12.91900 39.35500
C  -14.07500 11.58800 39.52800
N  -9.16600 15.52900 41.28500
C  -9.44100 14.20600 41.40500
C  -8.19700 13.48300 41.69300
C  -7.18900 14.42100 41.53400
C  -7.83500 15.66100 41.27100
C  -8.05000 12.01200 41.86800
C  -5.75900 14.72400 41.58400
O  -4.81200 13.93700 41.85600
C  -5.54900 16.31000 41.36800
C  -5.08300 16.85600 42.63200
O  -3.89800 17.13000 42.87000
O  -6.15000 17.03500 43.49600
C  -5.71500 17.37800 44.87900
H  -9.51100 21.57700 39.85300
H  -14.71100 17.62600 39.87700
H  -10.94400 12.70700 41.37800
H  -5.44700 19.13300 41.13300
H  -7.09600 21.31900 39.91400
H  -8.09800 21.35200 42.53700
H  -6.64400 22.09300 41.97300
H  -6.52300 20.48400 42.70700
H  -6.03100 20.10800 38.44800
H  -6.41800 18.31000 38.43100
H  -3.88800 18.60500 39.43300
H  -3.89900 19.78100 38.07900
H  -11.96900 22.90600 38.71700
H  -11.22100 22.83700 40.22700
H  -13.02700 23.01700 40.08300
H  -16.80500 20.19700 38.87300
H  -16.06400 19.22600 40.10300
H  -15.66500 18.92800 38.30800
H  -14.82200 15.15000 39.74300
H  -13.57500 13.27600 41.45300
H  -16.08000 15.82400 41.54500
H  -14.79800 15.76300 42.72100
H  -15.54300 14.18600 42.08500
H  -12.38600 12.63900 39.04700
H  -13.90700 13.55900 38.63700
H  -14.99600 11.75700 38.96900
H  -14.26500 11.39500 40.58300
H  -13.56600 10.75900 39.03600
H  -7.25700 11.79200 42.58200
H  -7.75000 11.63300 40.89100
H  -9.02900 11.60400 42.12000
H  -4.87000 16.53100 40.54400
H  -6.50400 17.07900 45.56900
H  -5.64600 18.46600 44.89100
H  -4.89900 16.76200 45.25500

