158

Mg -1.26300 17.47700 26.89100
C  -1.61800 15.22200 29.76000
C  -1.75000 20.06900 29.02300
C  -1.72800 19.48400 24.17500
C  -1.66500 14.64000 24.84600
N  -1.71800 17.60500 29.19500
C  -1.69300 16.60800 30.16100
C  -1.91400 17.20600 31.60700
C  -2.18400 18.72000 31.26400
C  -1.87500 18.83000 29.74300
C  -3.67500 19.04100 31.53100
C  -0.69600 16.98000 32.50400
C  -0.51000 17.66900 33.82600
H  -0.89400 16.96300 35.13700
N  -1.37500 19.48800 26.63900
C  -1.54000 20.38300 27.64400
C  -1.54300 21.70200 27.02400
C  -1.47900 21.54100 25.60200
C  -1.55600 20.12300 25.42600
C  -1.69800 22.93100 27.91200
C  -1.30400 22.55500 24.54000
O  -1.27000 22.32800 23.33500
C  -1.19700 24.01300 24.92300
N  -1.72800 17.11100 24.85000
C  -1.71700 18.11600 23.90300
C  -1.95800 17.53500 22.57200
C  -1.70600 16.03800 22.81300
C  -1.69000 15.88900 24.29700
C  -3.35800 17.97700 22.00100
C  -0.34700 15.49000 22.22600
C  0.98700 16.14200 22.75300
N  -1.49100 15.37700 27.20800
C  -1.56900 14.36500 26.24100
C  -1.51200 13.04400 26.92000
C  -1.56300 13.36800 28.26500
C  -1.47300 14.73400 28.37400
C  -1.58400 11.67400 26.20500
C  -1.61800 12.75100 29.58500
O  -1.73100 11.60300 29.88400
C  -1.73200 13.96500 30.63500
C  -0.71000 13.67000 31.62100
O  0.48700 14.00100 31.71900
O  -1.34900 12.76000 32.41400
C  -0.73100 12.06800 33.52500
H  -1.83400 20.85200 29.78000
H  -2.02600 20.00100 23.26000
H  -1.55300 13.84800 24.10300
H  -2.74000 16.56500 31.91400
H  -1.52400 19.44200 31.74500
H  -3.94200 19.65200 30.66900
H  -3.80300 19.50800 32.50800
H  -4.36600 18.20000 31.47400
H  0.20900 17.15400 31.92100
H  -0.70700 15.92200 32.76500
H  -1.19600 18.49600 33.64300
H  0.44200 18.19800 33.86300
H  -2.04000 22.81100 28.94100
H  -2.38300 23.57100 27.35600
H  -0.72300 23.41100 27.99000
H  -0.29400 23.99700 25.53400
H  -2.04500 24.41700 25.47500
H  -0.95800 24.61800 24.04800
H  -1.15400 17.85400 21.90900
H  -2.53300 15.43400 22.44000
H  -3.64100 18.92700 22.45300
H  -4.00700 17.17200 22.34400
H  -3.27000 18.09800 20.92100
H  -0.42300 15.73000 21.16500
H  -0.31800 14.40100 22.25000
H  1.42500 16.71800 21.93800
H  1.69700 15.40200 23.12200
H  0.73000 16.78400 23.59500
H  -0.62200 11.34100 25.81500
H  -2.32100 11.63400 25.40300
H  -1.94300 10.94200 26.92900
H  -2.70200 13.99500 31.13300
H  -0.87700 12.65500 34.43200
H  0.34900 11.96400 33.42200
H  -1.20300 11.11600 33.76700
Mg 47.11700 15.28900 28.53500
C  44.82100 15.22400 31.39000
C  48.92900 17.66300 30.41300
C  49.18400 15.60500 26.09400
C  44.72600 13.63600 26.68500
N  46.75800 16.45200 30.60700
C  45.91000 16.07000 31.63900
C  46.23900 16.80000 32.96000
C  47.31300 17.79600 32.44900
C  47.76100 17.25200 31.09300
C  46.83600 19.28300 32.43400
C  46.61600 15.92100 34.17000
C  46.85700 16.70100 35.48000
H  47.96100 16.21800 36.40400
N  48.88600 16.41700 28.33200
C  49.51400 17.18400 29.25700
C  50.84600 17.42900 28.72900
C  50.90500 16.92700 27.41800
C  49.68300 16.27900 27.20900
C  51.85100 18.37200 29.40600
C  52.04500 16.98700 26.45200
O  51.93400 16.58600 25.28700
C  53.31000 17.63100 26.90700
N  46.82300 14.92200 26.53000
C  47.93300 15.08000 25.73000
C  47.68200 14.40100 24.36700
C  46.37900 13.63800 24.67700
C  45.92200 14.05300 26.04200
C  47.65700 15.25800 23.09300
C  46.60500 12.10200 24.75900
C  46.45000 11.21400 23.43000
N  45.13800 14.55100 28.90100
C  44.37100 13.80800 28.07800
C  43.26300 13.19100 28.92000
C  43.43000 13.80000 30.13900
C  44.54700 14.57500 30.14000
C  42.14900 12.36700 28.36200
C  42.73500 13.95700 31.47600
O  41.65100 13.44100 31.87100
C  43.74300 14.76600 32.37700
C  43.07900 15.85700 33.13200
O  42.59300 16.83500 32.59100
O  43.06100 15.62200 34.45300
C  42.06900 16.42400 35.16600
H  49.55800 18.32800 31.01000
H  49.83500 15.51000 25.22200
H  44.10200 12.95500 26.10300
H  45.29400 17.29300 33.19100
H  48.15800 17.90900 33.12800
H  46.93100 19.66900 31.41900
H  47.42800 19.81000 33.18200
H  45.80000 19.46000 32.72400
H  47.36600 15.16200 33.94800
H  45.83600 15.23600 34.50400
H  46.02100 16.63000 36.17500
H  46.97900 17.73700 35.16200
H  51.92300 19.31400 28.86300
H  52.80500 17.87800 29.59200
H  51.60200 18.60400 30.44200
H  53.98600 17.52800 26.05800
H  53.76600 17.15200 27.77400
H  53.12600 18.66800 27.18600
H  48.52200 13.74700 24.13400
H  45.58400 13.80800 23.95200
H  46.77500 14.92900 22.54400
H  48.49400 15.09700 22.41300
H  47.48200 16.32600 23.22600
H  45.97000 11.70400 25.55100
H  47.57500 11.99300 25.24500
H  46.14400 11.75800 22.53600
H  45.77500 10.38100 23.62800
H  47.41900 10.72100 23.35200
H  42.11900 11.53100 29.06000
H  42.45000 11.91600 27.41600
H  41.22300 12.93300 28.26000
H  44.18200 14.01700 33.03600
H  41.92200 15.84500 36.07800
H  41.16600 16.60000 34.58100
H  42.53800 17.34400 35.51700

