158

Mg 24.33000 -4.96500 45.22100
C  26.85600 -3.02100 43.84100
C  22.12400 -3.54600 43.12100
C  22.29000 -7.57000 45.83300
C  26.91500 -6.76200 46.96300
N  24.47600 -3.39500 43.88000
C  25.56000 -2.72700 43.39100
C  25.22500 -1.59500 42.31700
C  23.66600 -1.65800 42.43400
C  23.35200 -2.90700 43.23000
C  22.93900 -0.34900 43.01100
C  25.66800 -2.09900 40.91700
C  26.23800 -0.94900 40.07700
H  26.02000 -0.94200 38.53600
N  22.43600 -5.50600 44.53000
C  21.68300 -4.78900 43.63300
C  20.45100 -5.47500 43.42600
C  20.49300 -6.64500 44.24500
C  21.72400 -6.57600 44.98700
C  19.35800 -4.99200 42.49200
C  19.41500 -7.67900 44.33200
O  18.37800 -7.57700 43.61400
C  19.37000 -8.79500 45.31800
N  24.69600 -7.00100 46.11600
C  23.54400 -7.72500 46.44100
C  23.89100 -8.96500 47.31100
C  25.30200 -8.58100 47.83500
C  25.68600 -7.39900 46.93000
C  22.86400 -9.23700 48.51300
C  26.28700 -9.79100 47.93700
C  26.81100 -10.40900 46.60800
N  26.42800 -4.85700 45.53400
C  27.31800 -5.63000 46.22500
C  28.68800 -5.11900 46.04800
C  28.54300 -4.09300 45.10300
C  27.17900 -3.99700 44.81900
C  29.93400 -5.69200 46.63700
C  29.25700 -3.12500 44.35100
O  30.48600 -2.89600 44.37000
C  28.20400 -2.45000 43.37800
C  28.36200 -1.03300 43.57200
O  27.87700 -0.25300 44.36600
O  29.07000 -0.60500 42.43800
C  28.99100 0.85000 42.06900
H  21.49400 -3.05800 42.37400
H  21.61300 -8.38800 46.08800
H  27.69700 -7.32300 47.47800
H  25.60800 -0.65700 42.72000
H  23.01600 -1.83700 41.57800
H  22.43600 0.21500 42.22600
H  23.62800 0.44000 43.31500
H  22.32600 -0.58500 43.88100
H  24.90300 -2.71000 40.43700
H  26.49700 -2.80600 40.95500
H  27.30800 -0.94600 40.28300
H  25.84300 0.00400 40.43000
H  19.87600 -5.03700 41.53400
H  19.14000 -3.95100 42.72900
H  18.42700 -5.55900 42.46300
H  19.61600 -8.47100 46.33000
H  19.98900 -9.61400 44.95300
H  18.34500 -9.16400 45.33700
H  23.82700 -9.86400 46.69900
H  25.16200 -8.07200 48.78900
H  22.08000 -8.48600 48.61000
H  23.25300 -9.50700 49.49400
H  22.30000 -10.10300 48.16500
H  25.70700 -10.59300 48.39300
H  27.06600 -9.70100 48.69500
H  27.88900 -10.53900 46.69900
H  26.71900 -9.67500 45.80700
H  26.38100 -11.35200 46.27100
H  30.51200 -6.09200 45.80400
H  29.64700 -6.54300 47.25600
H  30.55400 -4.96400 47.16000
H  28.55000 -2.82300 42.41400
H  28.83300 1.44700 42.96800
H  28.27800 0.99200 41.25800
H  29.92700 1.16800 41.61000
Mg 55.33800 24.24500 44.98700
C  52.62100 26.11000 44.05100
C  53.84900 21.44500 43.59800
C  58.19100 22.56300 45.55000
C  56.81400 27.23900 46.27300
N  53.51500 23.83300 43.95700
C  52.58900 24.79100 43.60600
C  51.50900 24.11300 42.73000
C  51.57300 22.62800 43.28300
C  53.07300 22.62000 43.58100
C  50.66800 22.38200 44.48800
C  51.83300 24.18600 41.26300
C  50.68200 24.45000 40.21400
H  50.54600 23.46700 39.05000
N  55.87200 22.26700 44.63700
C  55.15400 21.26200 44.13000
C  55.85700 19.99400 44.20900
C  57.12400 20.30100 44.71300
C  57.10500 21.76000 45.03500
C  55.23800 18.65800 43.80400
C  58.20200 19.18300 44.94800
O  57.87500 17.99300 44.87900
C  59.71000 19.46900 45.38400
N  57.26800 24.87400 45.71100
C  58.29400 23.98900 45.77500
C  59.51100 24.73800 46.23500
C  59.15800 26.25900 46.49300
C  57.69500 26.19600 46.03200
C  60.31500 24.06700 47.37100
C  59.99500 27.33200 45.68400
C  60.40500 28.63000 46.49500
N  54.78400 26.23300 45.35200
C  55.48800 27.32500 45.88800
C  54.57500 28.45000 46.00100
C  53.43400 28.09100 45.24300
C  53.59300 26.71300 44.87600
C  54.87000 29.68300 46.74700
C  52.16400 28.49100 44.65500
O  51.64300 29.59100 44.71600
C  51.59300 27.22600 43.86800
C  51.48900 27.69500 42.45200
O  52.26200 28.44600 41.87900
O  50.25600 27.31900 41.96700
C  49.65200 27.92800 40.80100
H  53.30600 20.53700 43.33000
H  59.08900 21.95600 45.68200
H  57.11300 28.13700 46.81600
H  50.57500 24.57700 43.04600
H  51.26100 21.97700 42.46700
H  50.00100 23.19500 44.77300
H  51.24200 22.14100 45.38300
H  50.10000 21.47400 44.28700
H  52.36400 23.26400 41.02700
H  52.57000 24.98900 41.23000
H  51.06300 25.40200 39.84400
H  49.75500 24.62200 40.76000
H  55.76300 18.20300 42.96400
H  54.16900 18.56200 43.61300
H  55.43200 17.96700 44.62400
H  60.27800 20.18500 44.78900
H  60.22000 18.50900 45.46800
H  59.71700 19.85900 46.40100
H  60.14600 24.75400 45.35000
H  59.26700 26.36700 47.57300
H  59.70900 23.20800 47.66000
H  60.37700 24.77000 48.20100
H  61.27500 23.81800 46.91900
H  59.28400 27.62500 44.91200
H  60.82200 26.81800 45.19500
H  61.30700 29.13700 46.15500
H  60.42100 28.40700 47.56200
H  59.66900 29.43300 46.47200
H  54.11000 30.42100 46.49100
H  55.88400 29.94700 46.44800
H  54.94900 29.38100 47.79100
H  50.66100 26.91600 44.34000
H  50.43000 28.12200 40.06200
H  49.17900 28.87100 41.07600
H  48.89100 27.24400 40.42600

