158

Mg 0.76900 8.06300 26.63000
C  1.09300 10.04600 29.45200
C  0.56300 5.25100 28.43500
C  0.24500 6.35700 23.72900
C  0.68900 11.05400 24.69400
N  0.97500 7.69400 28.73600
C  0.91100 8.65500 29.70400
C  0.66200 7.99200 31.01000
C  0.83500 6.46400 30.67900
C  0.82500 6.43400 29.15100
C  2.10600 5.76400 31.22400
C  -0.76000 8.33500 31.62700
C  -0.76500 8.82100 33.18300
H  0.37100 8.31800 34.11000
N  0.55700 6.05900 26.12700
C  0.55800 5.04900 27.05200
C  0.35000 3.84200 26.42000
C  0.01800 4.15200 25.00400
C  0.27000 5.57400 24.89700
C  0.22500 2.47500 27.10900
C  -0.43700 3.20000 23.85500
O  -0.66500 3.54600 22.70000
C  -0.57000 1.68200 24.09200
N  0.64100 8.66200 24.58400
C  0.51400 7.69400 23.59800
C  0.65100 8.33700 22.21700
C  0.30400 9.77000 22.53800
C  0.52200 9.88300 24.01700
C  2.03000 8.08500 21.52600
C  -1.23400 10.03000 22.28500
C  -1.56200 10.90300 21.12100
N  1.10300 10.08500 26.95500
C  1.04700 11.19500 26.08300
C  1.35800 12.41800 26.82600
C  1.41700 11.99600 28.15200
C  1.22200 10.63900 28.15900
C  1.36200 13.83400 26.26700
C  1.55400 12.44100 29.43600
O  1.85300 13.56900 29.87500
C  1.24900 11.24100 30.37800
C  2.27700 11.14700 31.44000
O  3.41400 10.80100 31.23100
O  1.70700 11.61700 32.64000
C  2.76800 11.93600 33.59700
H  0.35800 4.38900 29.07300
H  -0.10700 5.77700 22.87400
H  0.63500 11.98300 24.12200
H  1.35500 8.35000 31.77200
H  -0.00900 5.86000 31.01400
H  2.67700 6.39100 31.90800
H  2.82200 5.42300 30.47600
H  1.93800 4.91700 31.88900
H  -1.39800 7.45300 31.67800
H  -1.11500 9.19000 31.05000
H  -1.70100 8.51300 33.64900
H  -0.78000 9.91100 33.20700
H  0.68700 2.42300 28.09500
H  0.74200 1.65400 26.61300
H  -0.79100 2.10800 27.25500
H  0.37100 1.13300 24.11000
H  -1.22900 1.30800 23.30800
H  -1.07900 1.37900 25.00700
H  -0.08400 7.92700 21.52600
H  0.93900 10.47100 21.99600
H  2.65800 7.41100 22.10900
H  2.61300 8.99200 21.36500
H  1.80800 7.66100 20.54600
H  -1.81600 10.48100 23.08900
H  -1.80600 9.10200 22.27000
H  -1.06900 10.48900 20.24100
H  -1.21400 11.92200 21.29600
H  -2.63800 11.06800 21.07400
H  1.74900 13.86300 25.24800
H  2.06500 14.33000 26.93700
H  0.36800 14.27700 26.20800
H  0.29300 11.47600 30.84600
H  3.44400 12.69500 33.20300
H  3.31700 11.04100 33.89000
H  2.40700 12.29200 34.56200
Mg 48.63800 16.50300 28.24400
C  46.61400 15.97900 31.03900
C  50.96700 17.98400 30.15200
C  50.13800 17.48600 25.33500
C  45.82000 15.29400 26.25600
N  48.67200 17.13500 30.35700
C  47.81600 16.70500 31.31400
C  48.34400 17.05600 32.64800
C  49.75400 17.72900 32.38000
C  49.81500 17.65500 30.83800
C  49.89800 19.16500 33.01300
C  48.56500 15.85100 33.64600
C  47.76200 15.87300 34.96700
H  47.39300 17.16800 35.62100
N  50.30300 17.60100 27.81000
C  51.22900 17.96900 28.74300
C  52.33700 18.50100 28.03500
C  52.11200 18.32100 26.65500
C  50.77700 17.78300 26.54200
C  53.51400 19.08600 28.77000
C  53.04000 18.69800 25.46100
O  52.74500 18.48800 24.29500
C  54.36800 19.25200 25.76800
N  48.01800 16.29800 26.06800
C  48.84800 16.85100 25.12300
C  48.19100 16.65200 23.69300
C  46.95600 15.75000 24.00600
C  46.89100 15.83300 25.53600
C  47.77700 18.01600 23.01600
C  47.00900 14.29200 23.45600
C  46.01500 13.85900 22.39900
N  46.72800 15.56700 28.55400
C  45.74500 15.14200 27.65500
C  44.61800 14.61200 28.39600
C  44.95700 14.87300 29.74700
C  46.19700 15.53500 29.76500
C  43.31600 14.08700 27.91800
C  44.46000 14.74100 31.11300
O  43.45600 14.27200 31.62100
C  45.53500 15.46500 32.02700
C  44.77000 16.53900 32.80400
O  44.62400 17.70800 32.45000
O  44.20500 15.99200 33.95900
C  43.25400 16.88100 34.74400
H  51.68300 18.43800 30.84000
H  50.59500 17.69000 24.36500
H  45.02700 14.94600 25.59100
H  47.66900 17.70600 33.20600
H  50.59100 17.10700 32.69800
H  48.96300 19.71000 32.88300
H  50.71300 19.72100 32.54700
H  50.19300 19.06900 34.05800
H  49.59000 15.66400 33.96700
H  48.33700 14.86300 33.24600
H  48.29900 15.31400 35.73300
H  46.81200 15.35100 34.85600
H  54.35900 18.40000 28.70900
H  53.29600 19.33600 29.80800
H  53.80400 20.01600 28.28000
H  54.26400 20.30800 26.01700
H  55.04800 19.03800 24.94300
H  54.74500 18.59600 26.55300
H  48.86200 16.12700 23.01200
H  46.12800 16.27400 23.52800
H  48.37500 18.81500 23.45400
H  46.71700 18.21700 23.16900
H  47.89000 18.02600 21.93200
H  46.99500 13.56800 24.27100
H  47.97500 14.10700 22.98400
H  46.50300 13.79300 21.42700
H  45.36000 14.72700 22.33200
H  45.55800 12.87900 22.54100
H  43.33300 13.01500 27.72000
H  42.93900 14.65700 27.06800
H  42.59200 14.39100 28.67400
H  45.96400 14.69000 32.66200
H  42.32100 17.11800 34.23300
H  43.63400 17.79500 35.20000
H  42.88300 16.25800 35.55700

