158

Mg 3.24700 -1.89300 44.31100
C  6.65200 -1.12300 43.75500
C  2.33300 0.72400 42.27400
C  0.11600 -3.21200 44.16900
C  4.38300 -5.01700 45.71200
N  4.36700 -0.41500 43.12800
C  5.75700 -0.22200 43.17100
C  6.12100 1.02900 42.39100
C  4.75800 1.62200 41.92000
C  3.69400 0.53100 42.33300
C  4.48500 3.04600 42.57200
C  7.00800 0.67900 41.15100
C  8.28200 1.56600 40.99600
H  8.80200 1.97400 39.60100
N  1.46700 -1.24000 43.53200
C  1.30100 -0.08700 42.78900
C  -0.13400 0.12300 42.59700
C  -0.83600 -1.01200 43.14300
C  0.23800 -1.88800 43.68500
C  -0.70500 1.39100 41.88400
C  -2.32600 -1.27100 43.11000
O  -3.10900 -0.45100 42.51000
C  -2.97700 -2.47300 43.81600
N  2.38100 -3.93700 44.78900
C  1.05300 -4.15700 44.63300
C  0.63600 -5.55200 45.15100
C  2.08300 -6.19700 45.61100
C  3.00800 -4.94200 45.43700
C  -0.39300 -5.66800 46.31700
C  2.67400 -7.37300 44.74900
C  2.42800 -8.82100 45.29600
N  5.10300 -2.91700 44.69800
C  5.39300 -4.10700 45.33800
C  6.84200 -4.17000 45.57900
C  7.31200 -3.06000 44.93800
C  6.25700 -2.32000 44.44700
C  7.58400 -5.27900 46.31100
C  8.54800 -2.35900 44.71700
O  9.69100 -2.69700 45.05700
C  8.12400 -0.96100 43.94800
C  8.54800 0.22700 44.70700
O  8.29900 0.36500 45.84100
O  9.09100 1.14800 43.91400
C  9.41700 2.43600 44.60500
H  2.11600 1.64600 41.72900
H  -0.87200 -3.66500 44.06900
H  4.80700 -5.92800 46.14100
H  6.68100 1.77800 42.95100
H  4.64800 1.75600 40.84400
H  3.88800 2.90800 43.47400
H  3.90200 3.76000 41.99100
H  5.41200 3.61200 42.66200
H  6.50200 0.86600 40.20300
H  7.38200 -0.34100 41.06600
H  9.17500 1.09900 41.41200
H  8.19400 2.54000 41.47700
H  0.06400 1.78400 41.21900
H  -0.92100 2.13600 42.65000
H  -1.63700 1.16000 41.36800
H  -2.66800 -2.77000 44.81700
H  -2.63700 -3.23800 43.11800
H  -4.05700 -2.33200 43.76200
H  0.32000 -6.12200 44.27700
H  2.07600 -6.47100 46.66600
H  -1.02500 -4.78700 46.42700
H  0.11600 -6.00100 47.22200
H  -1.16200 -6.35000 45.95600
H  3.74000 -7.16400 44.65400
H  2.18800 -7.25900 43.78000
H  1.63100 -8.90400 46.03500
H  3.35900 -9.25300 45.66100
H  2.10800 -9.35400 44.40100
H  6.84200 -5.79700 46.91800
H  8.30000 -4.82500 46.99600
H  8.09900 -6.05800 45.74800
H  8.74900 -0.89200 43.05800
H  10.38800 2.32300 45.08600
H  8.64100 2.76300 45.29600
H  9.50100 3.27200 43.91100
Mg 26.71400 50.36600 26.19500
C  24.81100 51.51800 28.88500
C  29.10100 49.38800 28.56700
C  28.62100 49.48200 23.76200
C  24.36300 51.76400 24.03800
N  27.01300 50.63600 28.54200
C  25.94400 50.95400 29.29200
C  26.40500 50.66800 30.76100
C  27.81300 50.09800 30.74000
C  28.05900 50.02200 29.21700
C  29.02600 50.95300 31.31700
C  25.36200 49.89400 31.61800
C  24.81000 50.69600 32.86900
H  24.62500 49.89500 34.14100
N  28.58700 49.54300 26.19700
C  29.35800 49.11200 27.20700
C  30.51100 48.35400 26.71100
C  30.44200 48.40700 25.31500
C  29.20300 49.24300 25.05100
C  31.55200 47.78200 27.49200
C  31.46900 47.92600 24.24900
O  31.35800 48.12200 23.09700
C  32.71900 47.13700 24.66500
N  26.64300 50.84800 24.17400
C  27.44000 50.15600 23.38100
C  27.07000 50.21600 21.87900
C  25.66600 50.93200 22.01500
C  25.49700 51.13000 23.51000
C  27.98200 50.82900 20.91700
C  24.42800 50.18900 21.39700
C  23.75600 51.01800 20.31800
N  24.92700 51.39800 26.40400
C  24.07100 51.92700 25.39700
C  23.05600 52.70100 26.04200
C  23.34300 52.46400 27.41000
C  24.42800 51.75300 27.56900
C  21.99300 53.54000 25.40700
C  22.79000 52.78300 28.75000
O  21.78000 53.44900 29.03600
C  23.73600 52.16300 29.75700
C  24.23400 53.29600 30.56100
O  25.15400 54.01700 30.18200
O  23.45000 53.57500 31.65900
C  24.11300 54.48700 32.63400
H  29.73500 48.81900 29.25100
H  29.21300 49.00200 22.98000
H  23.62000 52.03400 23.28400
H  26.61400 51.65700 31.16800
H  27.74300 49.13500 31.24500
H  28.65100 51.92900 31.62500
H  29.70600 51.36900 30.57400
H  29.60300 50.39600 32.05500
H  25.78400 48.95400 31.97300
H  24.45900 49.59200 31.08700
H  23.84500 51.11400 32.58400
H  25.57200 51.44400 33.08600
H  31.46000 47.93300 28.56700
H  32.52300 48.20700 27.23700
H  31.54200 46.71500 27.27000
H  33.62400 47.68300 24.93300
H  32.93600 46.55900 23.76600
H  32.63600 46.42300 25.48400
H  26.91100 49.16800 21.62700
H  25.81500 51.91200 21.56000
H  28.78600 51.36800 21.41800
H  27.49500 51.48500 20.19600
H  28.34000 49.98700 20.32500
H  23.75700 49.86000 22.19000
H  24.78100 49.30100 20.87200
H  23.69800 50.47800 19.37300
H  24.30200 51.89100 19.96100
H  22.73600 51.27300 20.60700
H  21.99400 53.59800 24.31900
H  21.97200 54.54800 25.82300
H  21.07700 53.00400 25.65900
H  23.21400 51.38100 30.30800
H  23.99800 55.55900 32.47400
H  25.17800 54.27100 32.71600
H  23.74500 54.35300 33.65200

