158

Mg 34.85600 2.45300 29.45900
C  32.80000 3.58000 32.00700
C  37.58300 2.40900 31.56500
C  36.81300 1.82400 26.81500
C  32.05600 3.02900 27.39000
N  35.16400 3.04000 31.53500
C  34.20400 3.37700 32.40000
C  34.75400 3.55200 33.80400
C  36.33200 3.38600 33.62200
C  36.42200 2.93000 32.15800
C  37.15400 4.69400 33.79500
C  34.18200 2.53800 34.76300
C  33.88700 3.05500 36.26600
H  34.90900 3.99800 36.93300
N  36.85600 2.02800 29.21500
C  37.78700 2.07000 30.21400
C  39.05900 1.56700 29.63000
C  38.94700 1.61600 28.21900
C  37.52200 1.88400 28.03500
C  40.17600 1.18100 30.59400
C  40.01800 1.48200 27.22400
O  39.73700 1.67500 26.02500
C  41.42600 1.14900 27.51900
N  34.54600 2.47600 27.40800
C  35.50500 2.09600 26.53200
C  34.92900 1.87500 25.11300
C  33.46200 2.26200 25.30800
C  33.31000 2.58100 26.81500
C  35.65500 2.48600 23.92700
C  32.49100 1.18600 24.64900
C  32.59000 -0.15700 25.31600
N  32.81000 3.25000 29.54000
C  31.83500 3.37600 28.66400
C  30.62800 3.82800 29.30600
C  31.00200 4.00500 30.64900
C  32.31200 3.57900 30.71000
C  29.32800 4.12200 28.59900
C  30.49600 4.47000 31.94000
O  29.36000 4.89500 32.22000
C  31.62400 4.09200 32.93300
C  31.95400 5.38900 33.74700
O  32.79900 6.22600 33.39700
O  31.31900 5.40100 34.98400
C  31.78500 6.37000 35.99600
H  38.45400 2.30400 32.21600
H  37.27700 1.55400 25.86400
H  31.20800 3.02400 26.70200
H  34.61000 4.57100 34.16400
H  36.74400 2.62400 34.28400
H  37.59600 5.05700 32.86700
H  37.85100 4.38100 34.57300
H  36.65000 5.58300 34.17500
H  34.88800 1.70900 34.71300
H  33.29500 1.99700 34.43400
H  33.93300 2.23100 36.97800
H  32.87100 3.45000 36.27400
H  41.01400 0.68800 30.10000
H  39.73000 0.57000 31.37900
H  40.47100 2.15600 30.98100
H  41.97600 1.03400 26.58500
H  41.46900 0.13400 27.91300
H  41.85200 1.86200 28.22500
H  35.00400 0.79400 24.98800
H  33.34900 3.25200 24.86600
H  35.89600 1.59900 23.34000
H  36.55500 3.07000 24.12100
H  34.97900 3.09200 23.32500
H  32.61200 1.19100 23.56500
H  31.49500 1.54600 24.90900
H  31.65900 -0.50200 25.76600
H  33.37000 -0.18000 26.07600
H  32.87300 -0.90100 24.57100
H  28.62900 3.30600 28.78200
H  29.48200 4.12400 27.51900
H  28.82600 5.03900 28.90600
H  31.20300 3.37100 33.63400
H  32.86500 6.26000 36.09500
H  31.38500 6.12200 36.97900
H  31.58700 7.41900 35.77500
Mg 49.42500 46.52500 43.67700
C  46.21600 47.00000 42.25000
C  49.68700 43.51800 42.11200
C  52.78900 46.65800 44.20300
C  49.28100 49.88000 44.41400
N  48.15100 45.48500 42.23900
C  46.83700 45.79300 41.87700
C  46.22000 44.72800 41.00600
C  47.26000 43.56900 41.03900
C  48.42700 44.15800 41.96900
C  46.73700 42.22200 41.64800
C  45.85400 45.35800 39.60200
C  44.45200 45.01900 39.03900
H  44.45200 43.85800 38.00600
N  51.00100 45.14700 43.40100
C  50.92000 44.00100 42.64900
C  52.22000 43.38900 42.66300
C  53.15200 44.23800 43.35000
C  52.31900 45.41600 43.64100
C  52.46500 42.02600 42.06800
C  54.49100 43.88300 43.75500
O  54.86700 42.69700 43.56700
C  55.45700 44.84700 44.40400
N  50.88200 48.07800 44.22500
C  52.17100 47.82500 44.51500
C  52.87900 49.12900 45.01900
C  51.71200 50.15000 45.12500
C  50.52500 49.34500 44.51100
C  53.71100 49.02400 46.31300
C  51.90800 51.54400 44.52600
C  51.05200 52.78000 45.05200
N  47.99700 48.09800 43.53200
C  48.10100 49.38400 43.91600
C  46.85100 50.08800 43.68500
C  45.98800 49.14400 43.08600
C  46.78700 48.03300 42.94300
C  46.70600 51.56600 44.06600
C  44.61100 48.97300 42.57900
O  43.59800 49.69900 42.55200
C  44.71200 47.46300 42.01400
C  43.68800 46.52200 42.75200
O  43.79400 46.15100 43.91500
O  42.55100 46.31600 41.96700
C  41.64700 45.36700 42.55800
H  49.79500 42.50800 41.71000
H  53.87700 46.71000 44.27600
H  49.26200 50.95400 44.60900
H  45.33300 44.44600 41.57300
H  47.66900 43.32900 40.05800
H  45.66500 42.34500 41.79800
H  47.22400 42.03800 42.60600
H  46.98600 41.41800 40.95600
H  46.55200 44.92100 38.88800
H  45.98900 46.43900 39.59800
H  44.04500 45.90900 38.55800
H  43.80000 44.71500 39.85700
H  52.94200 42.19300 41.10200
H  51.54700 41.51000 41.78800
H  53.15000 41.40300 42.64300
H  56.34100 44.39500 44.85200
H  54.91800 45.38800 45.18200
H  55.71500 45.57900 43.63800
H  53.54400 49.49300 44.23600
H  51.36400 50.27300 46.15100
H  53.56200 49.83100 47.03000
H  54.76600 48.93700 46.05500
H  53.44200 48.08300 46.79400
H  51.77600 51.44500 43.44800
H  52.97500 51.74500 44.61800
H  51.64700 53.61100 45.42900
H  50.44300 52.48000 45.90500
H  50.44200 53.24900 44.28000
H  46.93700 51.82800 45.09900
H  45.71200 52.00400 43.97500
H  47.48300 52.15100 43.57300
H  44.50700 47.41500 40.94500
H  42.14000 44.49000 42.97600
H  41.11400 45.01500 41.67400
H  40.94200 45.68300 43.32800

