158

Mg 8.01800 3.44500 28.46500
C  9.75300 2.21900 31.30100
C  6.31800 5.68400 30.64900
C  6.27500 4.70200 25.84900
C  9.38300 0.92300 26.53800
N  7.93600 3.82500 30.60900
C  8.81000 3.27400 31.53600
C  8.53800 3.80200 32.97800
C  7.38100 4.72600 32.75400
C  7.19500 4.78700 31.17600
C  6.15200 4.50100 33.60300
C  9.89700 4.54600 33.40900
C  9.90300 5.54000 34.58600
H  10.52700 5.09300 35.86500
N  6.64200 5.12400 28.24000
C  6.03200 5.82600 29.26000
C  5.08900 6.78100 28.62900
C  5.19200 6.58500 27.20900
C  6.13300 5.43500 27.02800
C  4.27100 7.71100 29.40000
C  4.38100 7.25800 26.15600
O  4.46900 7.02400 24.97000
C  3.43200 8.38800 26.50300
N  7.74000 2.79700 26.53900
C  7.04000 3.57000 25.61800
C  7.17700 3.02500 24.18400
C  8.21700 1.87100 24.44200
C  8.44400 1.79600 25.91900
C  5.82900 2.44500 23.44500
C  9.58900 1.94900 23.66800
C  10.72500 2.80100 24.39600
N  9.37500 1.88400 28.77500
C  9.81100 0.95900 27.91000
C  10.78200 0.08700 28.51300
C  10.79100 0.53700 29.88000
C  9.89400 1.64700 30.00900
C  11.60300 -0.92500 27.75100
C  11.32300 0.32300 31.21100
O  12.09200 -0.56200 31.47200
C  10.69100 1.35400 32.13100
C  9.95600 0.76700 33.31400
O  8.78700 0.35700 33.33600
O  10.88100 0.62200 34.39900
C  10.40500 -0.33200 35.38000
H  5.83300 6.39200 31.32400
H  5.87100 5.12000 24.92400
H  9.86900 0.17300 25.91100
H  8.28600 2.98100 33.64800
H  7.66200 5.77400 32.85800
H  5.39800 4.14300 32.90200
H  5.65600 5.40400 33.96100
H  6.24300 3.70100 34.33800
H  10.42200 4.99000 32.56300
H  10.62800 3.76100 33.59900
H  8.89600 5.82000 34.89300
H  10.41300 6.45300 34.27700
H  4.36700 8.65700 28.86700
H  4.82900 7.83800 30.32800
H  3.23000 7.48900 29.63300
H  2.87400 8.05400 27.37800
H  2.79500 8.59900 25.64400
H  3.89300 9.34500 26.74900
H  7.50300 3.88000 23.59200
H  7.81300 0.95000 24.02100
H  4.91600 2.96900 23.72800
H  5.73300 1.39000 23.70100
H  6.01200 2.42900 22.37100
H  9.41800 2.20800 22.62300
H  9.93600 0.92700 23.51500
H  10.36600 3.45200 25.19200
H  11.30200 3.42600 23.71500
H  11.54000 2.18300 24.77400
H  11.98000 -0.67200 26.76000
H  11.08200 -1.86500 27.56900
H  12.45700 -1.12800 28.39800
H  11.46000 2.03300 32.50100
H  10.47200 0.15900 36.35100
H  11.01500 -1.23500 35.37000
H  9.34400 -0.56700 35.29300
Mg 47.51000 25.81800 28.17500
C  48.41500 28.10000 30.65500
C  46.40000 23.66800 30.51700
C  46.64000 23.73800 25.66900
C  48.79600 28.08600 25.79700
N  47.36200 25.93100 30.38200
C  47.66000 27.04400 31.16800
C  47.13300 26.82600 32.64800
C  46.69800 25.28800 32.60200
C  46.82800 24.88900 31.05600
C  47.43500 24.30800 33.57500
C  45.99500 27.89900 33.11700
C  45.27800 27.48000 34.36900
H  45.18400 28.50000 35.59900
N  46.64500 23.91100 28.12200
C  46.30400 23.12100 29.15100
C  45.79600 21.81300 28.72400
C  45.83600 21.83500 27.25400
C  46.37400 23.17600 26.92800
C  45.27000 20.76800 29.66500
C  45.39200 20.77100 26.18600
O  45.46100 20.88900 24.98900
C  44.79600 19.51500 26.68500
N  47.78700 25.86700 26.09000
C  47.12300 24.97900 25.27300
C  47.10600 25.40600 23.78600
C  47.81100 26.81100 23.82700
C  48.20200 26.91800 25.32100
C  47.78200 24.42400 22.78200
C  46.93600 27.95900 23.26900
C  47.05600 28.27900 21.77200
N  48.67300 27.58500 28.18700
C  49.07400 28.40900 27.17300
C  49.66300 29.60300 27.67400
C  49.50100 29.50600 29.03600
C  48.82000 28.27300 29.31700
C  50.25900 30.74200 26.84000
C  49.75600 30.21500 30.28400
O  50.24100 31.28200 30.49400
C  48.96100 29.37000 31.36800
C  49.78300 29.00800 32.54100
O  50.71100 28.26500 32.50500
O  49.36500 29.71600 33.64500
C  50.14800 29.55500 34.93400
H  46.05400 23.04700 31.34600
H  46.26900 23.02300 24.93100
H  49.11000 28.76000 24.99800
H  47.96700 26.95100 33.33800
H  45.66100 25.23900 32.93300
H  47.57100 23.34900 33.07500
H  46.84700 24.05000 34.45600
H  48.46300 24.59300 33.80200
H  45.25000 28.09500 32.34600
H  46.50300 28.83900 33.33400
H  45.63600 26.55600 34.82400
H  44.28000 27.10500 34.14500
H  44.18700 20.63900 29.65800
H  45.56800 20.87300 30.70800
H  45.68900 19.79800 29.40000
H  44.00900 19.87000 27.35100
H  45.60700 19.03800 27.23500
H  44.36400 18.90000 25.89500
H  46.07600 25.55600 23.46200
H  48.67100 26.76400 23.15900
H  48.27700 23.63100 23.34300
H  48.45300 24.89000 22.06000
H  46.97600 23.84800 22.32700
H  47.09000 28.85800 23.86600
H  45.87900 27.75100 23.43900
H  47.79400 27.63900 21.28600
H  47.40900 29.29700 21.61100
H  46.08800 28.29000 21.27200
H  50.41200 31.59100 27.50700
H  49.54300 31.00800 26.06200
H  51.20000 30.35800 26.44500
H  48.15800 30.00800 31.73700
H  49.40800 29.15100 35.62500
H  50.53000 30.48400 35.35700
H  51.02200 28.94400 34.70800

