158

Mg 25.70800 0.80600 29.60400
C  27.55900 0.53000 32.47300
C  22.77400 0.96700 31.40500
C  23.98900 0.74100 26.64900
C  28.61900 0.27000 27.72100
N  25.24100 0.76200 31.72100
C  26.19900 0.79100 32.73600
C  25.52400 0.90700 34.09800
C  24.04400 0.76000 33.77000
C  23.97400 0.81600 32.19600
C  23.35000 -0.47600 34.38200
C  25.92200 2.20400 34.93000
C  26.46700 1.91300 36.38700
H  26.05100 2.88500 37.52600
N  23.77700 0.83400 29.12100
C  22.64300 0.92300 30.02500
C  21.39300 1.13200 29.30400
C  21.70800 1.07900 27.93000
C  23.22500 0.83000 27.85100
C  19.93800 1.04200 29.95900
C  20.78900 1.16200 26.66900
O  21.25400 1.05300 25.50100
C  19.33100 1.39900 26.89100
N  26.25100 0.63300 27.48100
C  25.35100 0.65000 26.46400
C  26.03800 0.72300 25.12000
C  27.60200 0.56500 25.51400
C  27.46800 0.48800 27.00800
C  25.46400 -0.26800 24.09600
C  28.44300 1.75000 25.10400
C  29.93600 1.46700 24.62200
N  27.71600 0.59000 30.03000
C  28.77000 0.35700 29.14800
C  29.97300 0.10400 29.93600
C  29.51400 0.22000 31.25600
C  28.17300 0.39700 31.24100
C  31.29900 -0.31000 29.41300
C  29.94900 0.15100 32.58600
O  31.09200 -0.08900 33.01700
C  28.70500 0.45400 33.46100
C  28.64300 -0.80100 34.42600
O  28.32200 -1.93800 34.15200
O  29.07600 -0.46300 35.69300
C  28.74900 -1.38100 36.82200
H  21.84400 0.83700 31.96100
H  23.43200 1.10500 25.78300
H  29.42100 -0.06200 27.05800
H  25.86500 -0.00400 34.59100
H  23.46000 1.61700 34.10300
H  22.93200 -1.19700 33.68000
H  22.51900 -0.20600 35.03500
H  24.11300 -1.01100 34.94600
H  24.99400 2.74000 35.12500
H  26.69000 2.86900 34.53400
H  27.54900 1.88200 36.25800
H  26.26200 0.90800 36.75800
H  19.34500 0.23200 29.53400
H  19.24100 1.84700 29.72400
H  19.87500 0.83900 31.02800
H  18.78100 1.76100 26.02200
H  19.14000 2.12300 27.68300
H  18.74800 0.50100 27.09500
H  25.89300 1.73100 24.73300
H  28.09600 -0.29400 25.06000
H  24.74900 -1.04200 24.37500
H  26.25200 -0.91400 23.70900
H  24.89600 0.33600 23.38800
H  28.45400 2.64000 25.73400
H  27.97500 2.24100 24.25100
H  30.24000 0.42100 24.58000
H  30.67800 1.94100 25.26600
H  30.05200 1.81200 23.59500
H  31.36500 -1.34900 29.09000
H  31.97700 -0.18600 30.25800
H  31.68900 0.29200 28.59200
H  28.84900 1.31900 34.10900
H  28.39300 -2.38300 36.58100
H  28.02800 -0.85000 37.44300
H  29.67300 -1.41500 37.40100
Mg 35.79800 49.26300 25.91500
C  35.91300 47.37300 28.68900
C  34.93100 52.15200 27.83500
C  35.40600 51.16800 23.15300
C  36.62400 46.48200 23.98300
N  35.24700 49.61700 28.01200
C  35.51700 48.74200 29.00000
C  35.32100 49.28300 30.39100
C  34.77400 50.77700 30.06100
C  34.98100 50.91000 28.51000
C  33.34200 51.05700 30.46700
C  36.65200 49.24700 31.22700
C  36.72300 48.58600 32.56400
H  36.91600 49.58500 33.77900
N  35.36000 51.38600 25.57700
C  35.08900 52.35100 26.46200
C  35.01100 53.62100 25.84500
C  35.08700 53.40500 24.44900
C  35.24300 51.96800 24.33600
C  34.68400 54.93100 26.51900
C  35.08500 54.41200 23.26400
O  35.22900 54.02600 22.14300
C  34.84500 55.90500 23.47100
N  35.94800 48.86600 23.86800
C  35.63800 49.83400 22.95100
C  35.85700 49.16500 21.49800
C  36.41500 47.77800 21.81400
C  36.34000 47.71000 23.30600
C  34.54500 49.16500 20.62100
C  37.92000 47.61700 21.39300
C  38.20200 46.20200 20.67200
N  36.04900 47.25300 26.21000
C  36.42400 46.27600 25.37800
C  36.70900 45.11800 26.16400
C  36.43000 45.48800 27.46000
C  36.09100 46.78300 27.44800
C  37.21000 43.81700 25.76100
C  36.53700 44.99900 28.77000
O  36.93100 43.96900 29.28400
C  36.19900 46.20400 29.67500
C  35.05500 45.76100 30.56400
O  33.84100 45.73400 30.18300
O  35.49300 45.52400 31.89100
C  34.53600 45.17600 32.96400
H  34.90000 53.01900 28.49700
H  35.23300 51.67400 22.20100
H  36.91400 45.66700 23.31600
H  34.59000 48.78200 31.02600
H  35.31000 51.64000 30.45500
H  33.34300 51.48900 31.46800
H  32.71600 50.17000 30.36800
H  32.94900 51.87000 29.85600
H  36.94300 50.28200 31.41000
H  37.37700 48.84900 30.51700
H  37.46200 47.79700 32.42100
H  35.86000 47.93800 32.71600
H  33.88300 55.40900 25.95500
H  35.51400 55.63700 26.52600
H  34.25900 54.85300 27.52000
H  35.62700 56.41400 24.03500
H  33.87300 55.97800 23.95800
H  34.73900 56.48100 22.55100
H  36.59600 49.83200 21.05600
H  35.80700 47.01100 21.33500
H  33.80300 49.84700 21.03500
H  34.31600 48.15100 20.29400
H  34.82200 49.77400 19.76000
H  38.62000 47.75200 22.21800
H  38.20200 48.36500 20.65200
H  39.19400 45.90500 21.01100
H  38.25000 46.25700 19.58400
H  37.51600 45.43600 21.03300
H  38.02500 44.09800 25.09400
H  36.46800 43.24900 25.20000
H  37.77800 43.31600 26.54500
H  37.07900 46.45200 30.26800
H  33.48500 45.30000 32.70600
H  34.80700 45.80100 33.81500
H  34.76200 44.12000 33.11400

