158

Mg -1.91400 17.78400 27.41300
C  -2.18000 15.54900 30.01500
C  -2.39100 20.43400 29.54900
C  -1.81300 19.95100 24.78700
C  -1.51200 15.04800 25.15200
N  -2.26500 17.93900 29.60000
C  -2.36500 16.88500 30.52500
C  -2.79700 17.41400 31.89400
C  -2.72000 18.92300 31.74900
C  -2.41800 19.17200 30.19200
C  -3.85800 19.74700 32.37200
C  -1.98100 16.77900 33.05600
C  -1.83800 17.47800 34.41200
H  -0.78100 16.98000 35.38700
N  -2.01500 19.84900 27.21200
C  -2.19200 20.76100 28.21900
C  -2.23600 22.09400 27.70100
C  -1.94300 22.01300 26.35100
C  -1.87100 20.52600 26.01300
C  -2.28900 23.35700 28.56900
C  -1.70300 23.09200 25.38700
O  -1.48500 22.90700 24.18900
C  -1.78200 24.59000 25.74900
N  -1.87700 17.51200 25.20900
C  -1.83500 18.57500 24.37900
C  -1.74200 18.12900 22.94400
C  -1.36300 16.63800 23.08500
C  -1.64900 16.32400 24.56800
C  -3.14400 18.33900 22.21000
C  0.11800 16.28400 22.56200
C  1.20900 16.90700 23.38700
N  -1.87900 15.74800 27.53000
C  -1.71200 14.77300 26.53000
C  -1.90300 13.50100 27.10700
C  -2.07800 13.75800 28.50200
C  -2.01700 15.14900 28.71100
C  -1.92300 12.14800 26.41900
C  -2.33700 13.06200 29.77100
O  -2.64300 11.88700 30.07800
C  -2.31400 14.23100 30.79200
C  -1.15600 13.98700 31.66100
O  -0.04200 14.40400 31.46500
O  -1.49900 13.20800 32.69500
C  -0.41600 12.66700 33.52500
H  -2.64700 21.19500 30.28900
H  -1.61200 20.61400 23.94300
H  -1.26500 14.23200 24.47000
H  -3.82200 17.04500 31.86800
H  -1.84900 19.22300 32.33200
H  -3.57300 20.77300 32.60200
H  -4.34000 19.22700 33.20000
H  -4.63400 19.79600 31.60700
H  -0.99800 16.45300 32.71700
H  -2.57000 15.87800 33.22700
H  -2.83400 17.49800 34.85400
H  -1.66000 18.55200 34.34900
H  -1.29100 23.79000 28.51000
H  -2.44800 23.19500 29.63500
H  -3.06400 24.02600 28.19500
H  -2.69900 24.85500 26.27600
H  -1.68700 25.21200 24.85900
H  -0.83600 24.71100 26.27600
H  -0.97100 18.67800 22.40300
H  -1.97600 15.91100 22.55200
H  -3.75600 17.46900 22.44900
H  -2.92200 18.45000 21.14900
H  -3.67500 19.14200 22.72200
H  0.42500 16.70300 21.60300
H  0.23800 15.20200 22.60300
H  1.03200 17.49000 24.29200
H  1.81400 17.59400 22.79600
H  1.97400 16.21700 23.74300
H  -1.79700 12.23200 25.33900
H  -2.86900 11.63700 26.59700
H  -1.17900 11.46300 26.82500
H  -3.23600 14.19000 31.37300
H  0.07200 11.77700 33.12700
H  -0.98200 12.28200 34.37300
H  0.37000 13.36500 33.81200
Mg 17.24600 51.72100 25.74200
C  19.01000 50.51500 28.38500
C  14.66500 52.62100 27.89400
C  15.46900 52.91700 23.13300
C  19.38200 50.12000 23.44900
N  16.84100 51.60400 27.87500
C  17.80000 51.18300 28.75700
C  17.39900 51.40300 30.16500
C  15.90600 51.72000 30.01700
C  15.76200 52.08600 28.55600
C  14.86200 50.56400 30.46700
C  18.30800 52.56600 30.72300
C  18.46600 52.60200 32.31600
H  17.38600 51.75600 33.08000
N  15.37500 52.78000 25.50800
C  14.44300 53.02300 26.56200
C  13.29100 53.70900 26.08600
C  13.51400 53.85600 24.68500
C  14.81100 53.14500 24.33500
C  12.21900 54.28400 27.01600
C  12.69700 54.52300 23.60800
O  12.95100 54.60900 22.41500
C  11.37300 55.26300 23.93600
N  17.48400 51.66400 23.59200
C  16.64400 52.32500 22.71800
C  17.10300 52.24000 21.22900
C  18.43800 51.36100 21.40900
C  18.41900 50.94800 22.88900
C  16.04300 51.59600 20.19600
C  19.71200 52.20700 21.02600
C  21.00100 51.55000 20.47800
N  18.89600 50.53100 25.81700
C  19.68700 49.96600 24.81400
C  20.73200 49.20300 25.47400
C  20.53800 49.39200 26.84400
C  19.42000 50.19300 27.02900
C  21.77100 48.41300 24.76800
C  21.07300 49.08700 28.19700
O  22.01800 48.43400 28.59400
C  20.08300 49.87100 29.24100
C  19.62200 48.85500 30.29900
O  19.10500 47.77100 30.15700
O  20.00200 49.27500 31.53800
C  19.90900 48.38500 32.65600
H  13.83900 52.78700 28.59000
H  14.85000 53.34200 22.34100
H  20.12400 49.62400 22.82000
H  17.51100 50.47100 30.72000
H  15.71900 52.65100 30.55300
H  14.03600 51.08200 30.95400
H  15.29100 49.85800 31.17800
H  14.43400 50.08000 29.58900
H  17.99900 53.54300 30.35300
H  19.26900 52.42100 30.23000
H  18.45500 53.66100 32.57400
H  19.42400 52.14900 32.57300
H  12.23400 55.36900 27.11700
H  12.27500 53.81800 28.00000
H  11.27100 53.88000 26.65900
H  10.60900 54.56800 24.28300
H  11.00400 55.83200 23.08300
H  11.61700 55.91100 24.77800
H  17.46100 53.23300 20.95900
H  18.36800 50.53800 20.69800
H  15.07500 52.07400 20.34400
H  15.94700 50.51800 20.31800
H  16.37600 51.83200 19.18500
H  20.00800 52.64800 21.97800
H  19.45300 53.05000 20.38500
H  20.93800 50.47800 20.28900
H  21.83000 51.65600 21.17700
H  21.31100 52.10600 19.59300
H  22.57600 48.31600 25.49700
H  22.21800 48.95700 23.93600
H  21.35500 47.47100 24.41000
H  20.72500 50.57000 29.77700
H  20.21400 47.35100 32.49300
H  18.91400 48.44900 33.09600
H  20.59600 48.73500 33.42700

