158

Mg 42.70700 42.28300 26.19200
C  41.73100 44.45600 28.75200
C  43.89600 40.21200 28.71800
C  43.83900 40.15600 23.78400
C  42.13000 44.76900 23.86600
N  42.60900 42.22300 28.47800
C  42.19400 43.26200 29.25900
C  42.22600 42.84400 30.75000
C  42.92100 41.46400 30.69800
C  43.12200 41.25400 29.17000
C  44.07900 41.08200 31.75600
C  40.84900 42.87800 31.46900
C  40.89600 43.66800 32.80900
H  40.08600 43.08900 33.92300
N  43.59400 40.43300 26.20800
C  44.13000 39.82600 27.33400
C  44.78600 38.60300 26.87600
C  44.78100 38.53800 25.46100
C  44.05200 39.78200 25.05600
C  45.26300 37.54000 27.90300
C  45.34000 37.47500 24.55600
O  45.24800 37.53400 23.36000
C  46.06700 36.25500 25.18400
N  42.90600 42.41600 24.11400
C  43.27100 41.40700 23.31200
C  43.23000 41.76000 21.85000
C  42.50300 43.18100 21.91600
C  42.49700 43.49300 23.41400
C  44.58100 41.75300 21.13900
C  41.12600 43.11700 21.39100
C  40.23700 41.97100 21.98100
N  42.13100 44.23700 26.26000
C  41.87900 45.07500 25.22200
C  41.45200 46.34100 25.68300
C  41.32200 46.21500 27.12100
C  41.73900 44.86100 27.40300
C  41.33600 47.53300 24.82700
C  41.00900 46.89800 28.42200
O  40.65300 48.05200 28.70300
C  41.38400 45.76500 29.52200
C  42.49900 46.29400 30.31400
O  43.71400 46.10200 30.19600
O  41.95200 47.03600 31.31700
C  42.78100 47.61100 32.30100
H  44.38000 39.63900 29.51100
H  44.14400 39.48000 22.98300
H  41.98800 45.50900 23.07600
H  42.84600 43.64700 31.14700
H  42.17400 40.69500 30.89200
H  43.85100 41.77700 32.56400
H  45.07600 41.14500 31.31800
H  43.97000 40.04700 32.07900
H  40.58000 41.86600 31.77400
H  40.04000 43.25700 30.84400
H  40.52400 44.67400 32.61400
H  41.90600 43.81900 33.19100
H  44.74900 36.63400 27.58100
H  44.94000 37.77600 28.91700
H  46.34600 37.42800 27.96100
H  45.26100 35.77600 25.73900
H  46.79000 36.68600 25.87800
H  46.42900 35.63700 24.36300
H  42.64300 40.95500 21.40800
H  43.05400 43.85800 21.26300
H  45.33900 41.89500 21.90900
H  44.57100 42.54900 20.39500
H  44.77800 40.83400 20.58700
H  41.19800 42.84400 20.33900
H  40.60800 44.07500 21.43100
H  39.96200 41.28600 21.17900
H  39.28000 42.32400 22.36500
H  40.78900 41.37000 22.70300
H  40.43700 47.59500 24.21300
H  42.30100 47.58700 24.32400
H  41.23100 48.40300 25.47500
H  40.50100 45.69000 30.15600
H  43.09400 48.60500 31.98400
H  43.62200 46.97700 32.58000
H  42.19900 47.76200 33.21000
Mg 6.74900 53.04300 41.60800
C  6.30900 49.47300 41.22200
C  9.92900 52.58700 40.19600
C  6.90700 56.19100 41.32700
C  3.35800 53.09900 42.43000
N  7.83300 51.23400 40.64800
C  7.51700 49.95200 40.71800
C  8.69800 49.05700 40.24800
C  9.93300 49.99200 40.14700
C  9.21800 51.34300 40.41200
C  11.16500 49.66900 41.08900
C  8.52400 48.40400 38.80800
C  8.42800 49.34400 37.56500
H  7.31400 49.07400 36.61900
N  8.23100 54.33900 40.82600
C  9.48200 53.91500 40.40000
C  10.23800 55.15700 40.18200
C  9.37900 56.29600 40.52300
C  8.16600 55.60800 40.98200
C  11.60900 55.31300 39.51200
C  9.59900 57.74900 40.22700
O  10.57900 58.05300 39.54300
C  8.67100 58.87300 40.68500
N  5.27700 54.44400 41.76400
C  5.62100 55.73200 41.66400
C  4.51400 56.64700 42.00900
C  3.32600 55.63700 42.13900
C  4.00100 54.29800 42.14500
C  4.70200 57.52400 43.27200
C  2.30200 55.65200 40.91000
C  0.79100 55.67200 41.34800
N  5.15900 51.63700 41.91800
C  3.90100 51.83700 42.29600
C  3.25000 50.55600 42.59800
C  4.16400 49.62600 42.16000
C  5.29500 50.33400 41.73700
C  1.84100 50.40000 43.03400
C  4.36100 48.26500 41.92700
O  3.62500 47.24700 42.11400
C  5.78100 48.04100 41.41500
C  5.55400 47.35600 40.11100
O  4.91600 47.76700 39.16000
O  6.32100 46.16900 40.14100
C  6.05900 45.17900 39.07700
H  10.98700 52.46500 39.95200
H  6.89200 57.28300 41.32300
H  2.30400 53.03800 42.70900
H  8.88200 48.15600 40.83300
H  10.39600 49.89600 39.16500
H  12.09400 49.65700 40.52000
H  11.07300 48.64400 41.44900
H  11.18500 50.38300 41.91200
H  7.57200 47.87200 38.80700
H  9.29500 47.64200 38.69300
H  9.33600 49.18100 36.98300
H  8.27300 50.40600 37.75900
H  11.58900 55.95000 38.62800
H  12.07200 54.33600 39.37000
H  12.16300 55.80700 40.31000
H  8.52100 58.87600 41.76500
H  7.71600 58.79900 40.16400
H  9.10200 59.85300 40.48000
H  4.18700 57.38100 41.27300
H  2.80100 55.83000 43.07500
H  4.10500 57.24000 44.13900
H  4.35000 58.53800 43.08000
H  5.76000 57.49100 43.53300
H  2.43200 54.85100 40.18200
H  2.27600 56.60400 40.37900
H  0.46500 56.71200 41.31000
H  0.69000 55.26700 42.35500
H  0.10100 55.09400 40.73400
H  1.69900 50.19300 44.09500
H  1.41100 49.53400 42.53000
H  1.19500 51.16300 42.60100
H  6.43200 47.56200 42.14600
H  5.10400 44.72300 39.34000
H  6.76400 44.35600 39.19000
H  6.08600 45.67700 38.10800

