158

Mg 41.85200 41.01100 26.89200
C  41.40600 43.43400 29.36700
C  42.50900 38.75900 29.50500
C  42.70200 38.65900 24.61600
C  41.37800 43.36000 24.48800
N  41.93300 41.07600 29.20300
C  41.62800 42.18800 29.96400
C  41.69100 41.86100 31.49100
C  42.01900 40.35700 31.45700
C  42.22200 40.02700 29.97100
C  43.26300 39.90100 32.29900
C  40.37200 42.17900 32.19900
C  40.06600 41.42500 33.49800
H  39.41800 42.19900 34.57400
N  42.40800 38.95800 27.04700
C  42.61300 38.24000 28.14600
C  43.01300 36.92700 27.77800
C  43.25400 36.89400 26.35200
C  42.79800 38.21900 25.91900
C  43.38700 36.00900 28.86800
C  43.81100 35.78200 25.47000
O  43.98600 35.97400 24.24500
C  44.26000 34.50000 26.15800
N  41.86500 40.98700 24.85500
C  42.32800 39.92700 24.09900
C  42.05000 40.24600 22.68200
C  41.34300 41.60400 22.66500
C  41.51900 42.01200 24.12400
C  43.38900 40.21100 21.86800
C  39.85900 41.50400 22.25200
C  38.90500 40.28700 22.75200
N  41.38700 43.02400 26.89300
C  41.24400 43.89100 25.81600
C  41.09600 45.27500 26.23300
C  41.05900 45.11400 27.64500
C  41.30500 43.76100 27.99800
C  41.01800 46.51300 25.34000
C  40.93100 45.78700 28.88200
O  40.70400 46.95200 29.11800
C  41.02200 44.74600 30.02600
C  41.95700 45.28000 30.95600
O  43.17100 45.38400 30.76300
O  41.38800 45.57900 32.21400
C  42.46700 45.87900 33.24900
H  42.53200 38.12600 30.39500
H  43.03800 38.01400 23.80200
H  41.26600 44.12700 23.71900
H  42.53900 42.40500 31.90800
H  41.29400 39.65100 31.86300
H  44.14800 39.81800 31.66800
H  43.17600 38.95500 32.83200
H  43.34000 40.65100 33.08700
H  39.61700 42.03400 31.42700
H  40.41300 43.23500 32.46600
H  40.95000 40.97300 33.94800
H  39.41600 40.57300 33.30100
H  44.44000 36.21700 29.05400
H  43.28100 34.96200 28.58200
H  42.72200 36.14200 29.72200
H  45.20500 34.60300 26.69000
H  44.37500 33.73400 25.39100
H  43.57900 33.90400 26.76500
H  41.44300 39.45700 22.23900
H  41.76800 42.50300 22.22000
H  44.13600 39.57500 22.34300
H  43.85500 41.18600 21.73100
H  43.19500 39.78200 20.88400
H  39.62900 41.47800 21.18700
H  39.42000 42.44300 22.59100
H  38.34500 39.82400 21.94000
H  38.21400 40.75200 23.45600
H  39.32400 39.49900 23.37800
H  39.95200 46.66100 25.17000
H  41.49300 46.37200 24.36900
H  41.44400 47.35400 25.88600
H  40.04700 44.57400 30.48300
H  42.74700 46.93200 33.24800
H  43.30100 45.18400 33.14700
H  41.94200 45.65600 34.17800
Mg 26.78300 51.89600 25.45600
C  24.23000 52.36300 27.91400
C  28.85100 51.08100 28.06300
C  29.26700 51.39000 23.18400
C  24.58700 52.95300 23.05100
N  26.52400 51.68700 27.79800
C  25.39000 51.82500 28.54600
C  25.59500 51.57100 30.02300
C  27.19500 51.45700 30.07100
C  27.60200 51.48000 28.57400
C  27.82100 52.54500 31.00000
C  24.86800 50.30200 30.52100
C  24.31800 50.38000 31.91200
H  24.85900 49.36100 32.92800
N  28.69900 51.20900 25.57600
C  29.39600 51.04900 26.78400
C  30.76600 50.56900 26.43300
C  30.88900 50.53700 25.03600
C  29.59000 51.05100 24.52300
C  31.68500 50.13300 27.50000
C  32.02200 49.95500 24.18000
O  31.85400 49.81800 22.97500
C  33.32700 49.80300 24.88600
N  26.90200 52.21600 23.47800
C  28.00400 51.86200 22.69600
C  27.68300 51.89300 21.19000
C  26.16800 52.17900 21.16100
C  25.83400 52.46600 22.64300
C  28.52400 53.00400 20.44600
C  25.30100 51.04600 20.54700
C  23.92000 51.51300 20.06300
N  24.82500 52.53500 25.46700
C  24.08400 52.95400 24.38700
C  22.80000 53.32200 24.82900
C  22.80700 53.14200 26.24300
C  24.06700 52.62400 26.56300
C  21.65100 53.79800 24.05300
C  21.99000 53.16200 27.41300
O  20.82700 53.53500 27.56700
C  22.90100 52.73900 28.56800
C  23.15600 53.86500 29.44300
O  23.88700 54.80600 29.20300
O  22.46700 53.70400 30.68700
C  22.70200 54.80200 31.63700
H  29.53000 50.80000 28.87100
H  30.07400 51.32000 22.45200
H  23.85400 53.21900 22.28700
H  25.36700 52.37500 30.72200
H  27.61300 50.52100 30.44300
H  27.08500 52.79900 31.76200
H  28.06200 53.39200 30.35700
H  28.71500 52.19900 31.51900
H  25.57100 49.46900 30.54000
H  24.05200 50.12900 29.81900
H  23.25500 50.14100 31.92700
H  24.36700 51.37300 32.35700
H  31.91400 49.07900 27.34200
H  31.31700 50.33800 28.50500
H  32.63600 50.64400 27.64700
H  33.43900 50.60500 25.61500
H  34.03600 50.09100 24.11000
H  33.47400 48.77700 25.22300
H  27.80400 50.95600 20.64600
H  25.90600 53.08600 20.61600
H  27.86200 53.77700 20.05500
H  29.18000 52.61900 19.66600
H  29.13300 53.49900 21.20300
H  25.09300 50.30700 21.32100
H  25.92400 50.56400 19.79300
H  23.67300 50.98300 19.14300
H  23.85200 52.58900 19.90400
H  23.28900 51.26600 20.91700
H  21.92600 53.71100 23.00200
H  21.39800 54.84400 24.22600
H  20.66400 53.39000 24.26800
H  22.45800 51.90100 29.10600
H  22.58800 55.75900 31.12800
H  23.71800 54.85300 32.02800
H  21.98000 54.74800 32.45200

