158

Mg -1.24200 17.84000 26.21700
C  -1.53800 15.46500 28.92500
C  -1.76600 20.26200 28.70200
C  -1.63900 20.09800 23.80700
C  -1.56000 15.18800 23.99100
N  -1.66900 17.85600 28.58100
C  -1.51400 16.76600 29.44500
C  -1.84400 17.23600 30.88800
C  -2.23800 18.77400 30.73800
C  -1.77900 19.03600 29.26000
C  -3.74400 19.12600 30.96900
C  -0.69600 16.83700 31.95200
C  -0.71700 17.58700 33.28200
H  -0.55400 16.96900 34.61600
N  -1.45700 19.88300 26.23600
C  -1.69700 20.71700 27.36700
C  -1.97700 22.07900 26.98300
C  -1.84000 22.09200 25.53100
C  -1.59900 20.63600 25.09000
C  -2.36400 23.12400 28.00500
C  -1.97400 23.11000 24.51900
O  -1.81000 22.99800 23.28000
C  -2.20400 24.52400 25.06600
N  -1.79900 17.70200 24.19500
C  -1.68000 18.75900 23.37700
C  -1.66200 18.30700 21.88200
C  -1.45000 16.75600 21.93400
C  -1.65100 16.48900 23.43800
C  -2.84400 18.81900 21.03800
C  -0.12300 16.14200 21.38200
C  -0.14800 15.34800 20.06700
N  -1.43500 15.81400 26.35500
C  -1.47700 14.85500 25.32900
C  -1.45200 13.50100 25.92300
C  -1.57300 13.75200 27.29200
C  -1.44200 15.13400 27.53500
C  -1.50500 12.17000 25.22800
C  -1.68400 13.03700 28.55600
O  -1.75400 11.84800 28.83600
C  -1.67400 14.13300 29.65200
C  -0.64600 13.72600 30.58300
O  0.57000 13.85300 30.52400
O  -1.33300 13.41900 31.74100
C  -0.41200 12.86300 32.76700
H  -1.94000 20.90800 29.56500
H  -1.62400 20.80200 22.97300
H  -1.34800 14.35800 23.31300
H  -2.66200 16.60500 31.23700
H  -1.69300 19.30900 31.51500
H  -4.04900 19.68500 30.08400
H  -3.87500 19.72500 31.87100
H  -4.34400 18.22600 31.10200
H  0.26600 16.84800 31.43800
H  -0.95500 15.79000 32.11300
H  -1.67100 18.10700 33.37300
H  0.05900 18.33200 33.10500
H  -3.11900 23.74400 27.52200
H  -1.50200 23.76500 28.19000
H  -2.70300 22.71700 28.95700
H  -2.01100 25.29700 24.32100
H  -1.43200 24.59800 25.83200
H  -3.24300 24.45900 25.39000
H  -0.79800 18.82800 21.46800
H  -2.29600 16.21100 21.51400
H  -2.61000 19.48900 20.21000
H  -3.55700 19.33000 21.68500
H  -3.32200 17.92400 20.63800
H  0.31900 15.48000 22.12600
H  0.64900 16.90100 21.26400
H  0.62000 15.71000 19.38400
H  -1.00700 15.62100 19.45500
H  0.00800 14.28100 20.23000
H  -0.98000 12.14100 24.27300
H  -2.58500 12.06600 25.12600
H  -0.93800 11.40300 25.75500
H  -2.65900 14.16100 30.11800
H  0.30500 12.16100 32.34000
H  -1.06200 12.33200 33.46200
H  0.26200 13.56700 33.25500
Mg 8.97300 2.86800 27.65500
C  9.88100 1.12100 30.60600
C  7.51500 5.22800 29.69200
C  7.57500 4.12500 24.90500
C  10.16900 0.17000 25.85800
N  8.89100 3.19800 29.89200
C  9.32500 2.34800 30.90100
C  9.16400 3.09200 32.25700
C  8.32300 4.36800 31.97800
C  8.24100 4.25200 30.42600
C  7.00900 4.59900 32.69900
C  10.42600 3.20300 33.10900
C  10.39600 4.29300 34.28500
H  11.21400 3.92800 35.50200
N  7.65700 4.45300 27.31400
C  7.24000 5.36400 28.28600
C  6.52300 6.37000 27.59600
C  6.42900 6.08200 26.20300
C  7.19500 4.81300 26.07200
C  6.01600 7.49800 28.39700
C  5.80000 6.86700 25.10100
O  5.87900 6.60700 23.90500
C  4.84700 7.96600 25.47400
N  8.61000 2.05700 25.68700
C  8.29400 2.87800 24.72200
C  8.51500 2.32700 23.28400
C  9.55100 1.24400 23.63600
C  9.43700 1.13400 25.18200
C  7.21300 1.81500 22.66100
C  11.02300 1.57200 23.20500
C  11.79900 0.46000 22.44100
N  9.90000 1.07300 28.07300
C  10.38800 0.10900 27.24800
C  11.05400 -0.93300 28.05800
C  10.91800 -0.55300 29.38600
C  10.12800 0.65700 29.35400
C  11.76100 -2.05200 27.60100
C  11.26900 -0.82600 30.72900
O  12.04800 -1.67200 31.18400
C  10.66200 0.22600 31.57800
C  9.88900 -0.26200 32.72300
O  8.70900 -0.42400 32.68300
O  10.77000 -0.51300 33.74800
C  10.11400 -1.00600 34.94500
H  7.17900 6.05100 30.32500
H  7.23500 4.64900 24.01000
H  10.68100 -0.51600 25.18000
H  8.64200 2.32100 32.82400
H  8.96100 5.24200 32.10700
H  7.16600 4.30100 33.73500
H  6.26100 4.04000 32.13600
H  6.73900 5.65100 32.78600
H  11.15100 3.67000 32.44200
H  10.63000 2.18900 33.45400
H  9.37100 4.54900 34.55100
H  10.92900 5.13600 33.84700
H  6.13600 8.47300 27.92400
H  6.43100 7.64000 29.39500
H  4.93700 7.38400 28.50900
H  5.40200 8.81500 25.87200
H  4.24600 7.60500 26.30900
H  4.10000 8.19000 24.71300
H  8.95500 3.16200 22.73900
H  9.32100 0.27000 23.20400
H  7.27700 0.72700 22.64700
H  7.17800 2.16000 21.62700
H  6.30700 2.19500 23.13200
H  11.59300 2.08600 23.97900
H  10.99600 2.37200 22.46500
H  11.53600 0.69500 21.41000
H  11.42800 -0.54100 22.66000
H  12.85200 0.61400 22.67600
H  12.61100 -1.58700 27.10300
H  11.27000 -2.77500 26.95000
H  11.90400 -2.63200 28.51300
H  11.54900 0.78900 31.87000
H  10.55900 -1.95200 35.25300
H  9.02700 -1.04700 35.00600
H  10.42100 -0.23600 35.65300

