158

Mg -0.05000 7.56300 26.76900
C  0.55500 9.76300 29.40500
C  0.48900 4.91000 29.09400
C  0.00500 5.35400 24.25400
C  0.24400 10.18600 24.53000
N  0.51000 7.37600 28.95400
C  0.54900 8.42400 29.81500
C  0.49000 8.00500 31.25800
C  0.92400 6.48100 31.09000
C  0.62800 6.19800 29.62100
C  2.40200 6.14600 31.49700
C  -1.01200 8.22500 31.89000
C  -1.17800 8.09500 33.43700
H  0.04900 7.89300 34.42300
N  0.10100 5.40300 26.68500
C  0.30100 4.52800 27.73500
C  0.25600 3.16100 27.27900
C  0.16300 3.24400 25.82800
C  0.11000 4.69600 25.52500
C  0.40900 1.93200 28.18400
C  0.05700 2.12400 24.80600
O  -0.06800 2.29500 23.59900
C  0.33000 0.68700 25.19700
N  0.19600 7.70400 24.72900
C  -0.06000 6.66600 23.92300
C  -0.35800 7.06500 22.38900
C  -0.19100 8.58100 22.54700
C  0.08700 8.87200 24.03600
C  0.66900 6.43100 21.36800
C  -1.31300 9.42400 21.86700
C  -2.58700 9.63500 22.64800
N  0.23700 9.61800 26.85500
C  0.36400 10.56700 25.93600
C  0.39300 11.87000 26.58400
C  0.49300 11.60700 27.96300
C  0.39800 10.21600 28.08100
C  0.49300 13.22700 25.82400
C  0.60300 12.19900 29.26100
O  0.95400 13.34800 29.47500
C  0.62800 11.01400 30.30500
C  1.85500 11.15100 31.16300
O  2.94000 10.81800 30.80200
O  1.46200 11.68300 32.39600
C  2.52800 11.96300 33.36700
H  0.59600 4.15200 29.87300
H  -0.08300 4.66700 23.40900
H  0.24200 11.05500 23.86800
H  1.13000 8.60600 31.90400
H  0.21500 5.88000 31.66100
H  2.93600 7.03600 31.83100
H  2.84800 5.62000 30.65300
H  2.23200 5.51400 32.36900
H  -1.58300 7.39000 31.48400
H  -1.44900 9.14400 31.50000
H  -1.77700 7.23200 33.72600
H  -1.70500 9.00600 33.72300
H  -0.42100 1.30600 27.85500
H  0.21000 2.23000 29.21400
H  1.39500 1.47100 28.12600
H  -0.46000 0.00500 25.51200
H  1.04000 0.82800 26.01200
H  0.68000 0.10400 24.34500
H  -1.38400 6.77300 22.16600
H  0.63100 8.86100 21.88700
H  1.15200 7.14600 20.70200
H  0.18900 5.72600 20.68900
H  1.37000 5.78500 21.89700
H  -1.61100 9.12800 20.86200
H  -0.78000 10.37500 21.87200
H  -2.60300 10.62600 23.10000
H  -2.67100 8.89300 23.44200
H  -3.48600 9.57900 22.03400
H  0.66100 13.08400 24.75600
H  1.33900 13.70600 26.31600
H  -0.40900 13.78500 26.07300
H  -0.11200 10.97600 31.10400
H  2.82100 13.01200 33.40500
H  3.45200 11.38400 33.37200
H  1.99000 11.78400 34.29800
Mg 47.89100 24.93900 29.56000
C  49.08100 27.11400 32.08000
C  46.96400 22.72100 32.16000
C  47.30300 22.59300 27.29000
C  49.37400 26.90500 27.17200
N  47.94700 25.03400 31.71400
C  48.42400 26.05600 32.55900
C  48.19800 25.73400 34.02900
C  47.78600 24.21000 34.08800
C  47.53300 23.96100 32.56700
C  48.72600 23.17100 34.78800
C  47.22200 26.73500 34.80800
C  47.82300 27.27300 36.18700
H  46.82400 27.65500 37.30100
N  46.99600 22.97400 29.68500
C  46.74500 22.23700 30.89800
C  46.08200 20.96000 30.44500
C  46.22900 20.88900 29.03400
C  46.81500 22.19600 28.59700
C  45.57200 19.93800 31.42200
C  45.67200 19.85200 28.02800
O  45.84000 19.91400 26.82200
C  44.87300 18.74600 28.48000
N  48.26500 24.78300 27.48300
C  47.98200 23.68500 26.81700
C  48.58500 23.79800 25.39900
C  49.00100 25.21000 25.35700
C  48.86300 25.65100 26.72400
C  49.80300 22.78100 25.21300
C  48.26900 26.08300 24.37100
C  46.74200 26.13100 24.47600
N  48.87900 26.74900 29.55800
C  49.47900 27.42000 28.46700
C  49.92800 28.74200 29.01200
C  49.82500 28.66600 30.38800
C  49.18800 27.45400 30.71300
C  50.51400 29.92100 28.21900
C  50.20800 29.27600 31.65100
O  50.75300 30.35300 31.87500
C  49.78600 28.25100 32.77200
C  50.97000 27.90000 33.61400
O  51.89700 27.18100 33.33700
O  50.88300 28.62200 34.79200
C  51.91400 28.39600 35.74800
H  46.53600 22.11600 32.96200
H  47.10100 21.88800 26.48000
H  49.83000 27.46200 26.35100
H  49.16700 25.94900 34.47900
H  46.83100 24.16200 34.61100
H  49.38700 23.68800 35.48300
H  49.31700 22.51800 34.14600
H  48.09600 22.58700 35.45900
H  46.27200 26.30600 35.12500
H  47.09500 27.49000 34.03200
H  48.33800 28.13500 35.76400
H  48.56700 26.56300 36.55100
H  45.85800 18.89800 31.26800
H  44.49700 19.96100 31.24600
H  45.81300 20.23100 32.44400
H  45.37700 17.95200 29.03100
H  44.26800 18.25600 27.71700
H  44.08200 19.07300 29.15400
H  47.86400 23.43500 24.66700
H  50.05500 25.25300 25.08300
H  50.77400 23.25300 25.06600
H  49.60500 22.44300 24.19600
H  49.88300 21.94700 25.91000
H  48.51300 25.72800 23.37000
H  48.64600 27.10200 24.45600
H  46.28600 25.77900 23.55000
H  46.55000 27.20400 24.46400
H  46.37000 25.59100 25.34800
H  50.45600 29.61300 27.17600
H  51.55300 30.13800 28.46900
H  49.97500 30.86500 28.30000
H  49.18700 28.83100 33.47400
H  51.44300 27.72200 36.46400
H  52.07200 29.28600 36.35600
H  52.86700 28.03700 35.36100

