158

Mg 24.00300 -5.67400 45.78200
C  26.13400 -3.34500 44.38400
C  21.55000 -4.74100 43.47900
C  22.16800 -8.66900 46.19000
C  26.74300 -7.24800 47.32400
N  23.88100 -4.17000 44.16500
C  24.85100 -3.29100 43.76300
C  24.42600 -2.27300 42.68900
C  22.86500 -2.49800 42.81200
C  22.74800 -3.98600 43.48200
C  22.15400 -1.47200 43.69700
C  25.16600 -2.62400 41.28800
C  26.09400 -1.52800 40.59800
H  26.01900 -1.26200 39.08300
N  21.96600 -6.50700 45.10600
C  21.20800 -5.86600 44.18100
C  19.97600 -6.62200 44.07800
C  20.11800 -7.83400 44.80900
C  21.40800 -7.72600 45.52300
C  18.75400 -6.23700 43.20400
C  19.01100 -8.89100 44.89100
O  17.88700 -8.69700 44.36300
C  19.16900 -10.13200 45.79100
N  24.36300 -7.60500 46.63400
C  23.49700 -8.64300 46.69000
C  23.99700 -9.84000 47.53600
C  25.43700 -9.40200 47.87500
C  25.56500 -8.01600 47.26400
C  23.05800 -10.23100 48.66400
C  26.53200 -10.44800 47.42700
C  26.95000 -11.46100 48.55400
N  25.99700 -5.23900 46.03700
C  27.01000 -5.96700 46.68700
C  28.25300 -5.23400 46.58900
C  28.02300 -4.15100 45.61800
C  26.59300 -4.30300 45.38400
C  29.51300 -5.52800 47.22200
C  28.56000 -3.04400 44.82800
O  29.63700 -2.56700 44.69500
C  27.35900 -2.44500 44.03100
C  27.19700 -0.95500 44.22000
O  26.68200 -0.46100 45.19400
O  27.75200 -0.30400 43.19800
C  27.70500 1.09500 43.07900
H  20.78000 -4.44800 42.76300
H  21.56900 -9.55100 46.42500
H  27.58900 -7.65700 47.87900
H  24.86600 -1.33400 43.02700
H  22.52500 -2.47000 41.77700
H  22.83000 -0.96900 44.38700
H  21.40500 -2.00800 44.28000
H  21.62900 -0.76900 43.04900
H  24.47100 -3.08400 40.58500
H  25.84500 -3.43700 41.54800
H  27.10800 -1.78200 40.90600
H  25.74700 -0.63500 41.11800
H  18.62800 -6.97100 42.40900
H  18.79400 -5.25900 42.72500
H  17.95900 -6.10300 43.93800
H  19.24500 -9.86300 46.84400
H  19.99500 -10.71400 45.38200
H  18.24400 -10.70500 45.85700
H  23.89600 -10.61200 46.77400
H  25.56600 -9.28700 48.95100
H  23.57400 -10.43100 49.60300
H  22.50700 -11.14200 48.43200
H  22.31000 -9.48000 48.92100
H  27.47000 -10.05200 47.03700
H  26.09200 -11.08500 46.66000
H  26.98200 -12.37800 47.96700
H  26.19700 -11.36300 49.33700
H  27.97000 -11.20100 48.83700
H  29.88000 -4.67800 47.79700
H  30.27000 -5.72500 46.46200
H  29.54700 -6.40900 47.86200
H  27.65500 -2.64100 43.00000
H  28.68200 1.57800 43.06500
H  27.29500 1.52700 43.99200
H  27.07000 1.42400 42.25600
Mg -11.62000 16.49900 42.61600
C  -8.45100 15.08300 41.79800
C  -10.38600 19.51400 41.20400
C  -14.71600 17.54700 42.35500
C  -12.79800 13.23000 43.10100
N  -9.60200 17.20300 41.62300
C  -8.48000 16.45500 41.48400
C  -7.26300 17.36300 41.07000
C  -7.93700 18.75000 40.88700
C  -9.43600 18.47700 41.24200
C  -7.33900 19.96900 41.69000
C  -6.61800 16.78800 39.78600
C  -5.16800 16.51100 39.82800
H  -4.59100 15.39100 38.86300
N  -12.40000 18.34200 42.08600
C  -11.75800 19.48400 41.56300
C  -12.72800 20.53700 41.47400
C  -13.97400 20.00400 41.84900
C  -13.71500 18.59200 42.15600
C  -12.28800 21.90800 41.02900
C  -15.25500 20.71600 41.80600
O  -15.27200 21.96600 41.66000
C  -16.62200 20.09100 42.07300
N  -13.42900 15.44400 42.50100
C  -14.61300 16.14200 42.52400
C  -15.88500 15.23800 42.51500
C  -15.22600 13.88100 42.99400
C  -13.71100 14.20100 42.83200
C  -17.09500 15.78000 43.39300
C  -15.61300 12.60000 42.14900
C  -16.08300 11.42700 43.08500
N  -10.82100 14.58700 42.57800
C  -11.43100 13.36900 42.84800
C  -10.44100 12.39600 42.92400
C  -9.21600 13.04700 42.54900
C  -9.55400 14.37900 42.21700
C  -10.67600 11.04700 43.36600
C  -7.81600 12.81400 42.35800
O  -7.22300 11.78200 42.46600
C  -7.23800 14.15600 41.88600
C  -6.36100 14.59100 42.96700
O  -6.71800 14.92900 44.04600
O  -5.05000 14.53200 42.57100
C  -4.08800 15.01300 43.63100
H  -10.05400 20.51500 40.92200
H  -15.75400 17.88400 42.32000
H  -13.11400 12.24000 43.43600
H  -6.57900 17.47900 41.91000
H  -7.87900 19.06700 39.84600
H  -7.28700 20.86600 41.07300
H  -6.34900 19.71200 42.06500
H  -7.96100 20.30100 42.52200
H  -6.81300 17.57200 39.05500
H  -7.18700 15.99800 39.29700
H  -4.88100 16.13500 40.81100
H  -4.63200 17.43900 39.63100
H  -12.33800 22.02500 39.94600
H  -11.26300 22.21700 41.23200
H  -12.93700 22.67200 41.45800
H  -16.64500 19.76900 43.11400
H  -16.70600 19.36300 41.26600
H  -17.36800 20.88500 42.06400
H  -16.13000 15.06000 41.46800
H  -15.46000 13.66400 44.03600
H  -16.87500 16.78000 43.76800
H  -17.28000 15.24700 44.32600
H  -18.03000 15.85600 42.83700
H  -14.81500 12.32500 41.45900
H  -16.48000 12.83700 41.53300
H  -16.49200 11.71700 44.05300
H  -15.31200 10.69700 43.33400
H  -16.93100 10.93300 42.61200
H  -9.83800 10.42000 43.67100
H  -11.24800 10.54200 42.58700
H  -11.32100 11.02900 44.24400
H  -6.69800 13.94700 40.96200
H  -4.46000 14.86000 44.64400
H  -4.01600 16.09200 43.49600
H  -3.12500 14.51900 43.50700

