158

Mg 23.45600 -4.42700 44.74700
C  25.22100 -1.71100 43.42800
C  20.72500 -3.54100 43.00600
C  22.00400 -7.57500 45.45000
C  26.42800 -5.58600 46.17600
N  23.10700 -2.82500 43.16100
C  23.90700 -1.83400 42.88300
C  23.18700 -0.82200 41.92700
C  21.68100 -1.23200 42.17200
C  21.81800 -2.62300 42.76300
C  20.82200 -0.29000 43.00900
C  23.68700 -1.20200 40.52800
C  23.97000 -0.03900 39.46300
H  24.79800 -0.53100 38.25000
N  21.51500 -5.42400 44.30600
C  20.53400 -4.86200 43.54000
C  19.39800 -5.73900 43.55900
C  19.73000 -6.85300 44.42200
C  21.12800 -6.67700 44.73200
C  18.11100 -5.39100 42.95300
C  18.84100 -8.05500 44.68200
O  17.69300 -8.12700 44.22000
C  19.27300 -9.29400 45.34100
N  24.21400 -6.40600 45.62700
C  23.36800 -7.45700 45.85000
C  24.22000 -8.59900 46.55600
C  25.59100 -7.99000 46.67700
C  25.39500 -6.60300 46.11000
C  23.62200 -9.07600 47.91100
C  26.74200 -8.78200 45.93200
C  28.17000 -8.47200 46.50700
N  25.41800 -3.74200 44.95700
C  26.47800 -4.29300 45.66000
C  27.59900 -3.31300 45.63600
C  27.15100 -2.32900 44.68400
C  25.82100 -2.66200 44.27900
C  28.95200 -3.46900 46.33300
C  27.56500 -1.14400 43.96500
O  28.66200 -0.60700 43.99400
C  26.34200 -0.70100 43.03600
C  26.02300 0.73800 43.22300
O  25.54500 1.36800 44.17600
O  26.60700 1.30900 42.07800
C  26.62800 2.75500 41.91000
H  19.75400 -3.17400 42.66400
H  21.52300 -8.47200 45.84600
H  27.38600 -5.85500 46.62600
H  23.20500 0.26500 42.00300
H  21.09100 -1.37400 41.26600
H  20.43800 0.49500 42.35800
H  21.33700 0.20900 43.83000
H  19.92600 -0.83000 43.31700
H  22.78800 -1.71200 40.18100
H  24.48700 -1.94200 40.55300
H  24.50500 0.67700 40.08600
H  22.97900 0.22600 39.09300
H  17.55500 -6.22300 42.52200
H  18.18800 -4.65400 42.15400
H  17.52200 -4.92300 43.74300
H  18.39700 -9.88800 45.60200
H  19.59900 -9.01900 46.34400
H  20.03200 -9.70900 44.67800
H  24.22100 -9.37700 45.79200
H  25.88900 -7.90800 47.72200
H  24.08000 -8.68300 48.81800
H  23.76400 -10.14600 48.06700
H  22.54500 -8.91400 47.91700
H  26.72300 -8.34500 44.93400
H  26.51100 -9.84300 45.83600
H  28.73700 -9.35600 46.79900
H  28.22100 -7.88600 47.42500
H  28.71100 -7.95400 45.71500
H  28.82000 -3.02300 47.31900
H  29.61200 -2.83600 45.74000
H  29.23800 -4.52000 46.35700
H  26.67300 -1.01200 42.04500
H  25.66900 3.06900 41.49800
H  27.39300 3.05300 41.19300
H  26.84900 3.19000 42.88500
Mg 16.68000 -2.18100 27.71800
C  15.40900 0.02300 30.17400
C  18.77500 -3.47700 30.04800
C  18.09100 -3.99700 25.30000
C  14.80600 -0.31600 25.34700
N  16.98200 -1.79900 29.85000
C  16.31900 -0.94500 30.64000
C  16.63400 -1.17800 32.07200
C  17.93900 -2.04400 32.05100
C  17.96000 -2.49500 30.55500
C  19.30200 -1.32200 32.47600
C  15.46500 -1.71600 32.96400
C  15.11800 -0.86400 34.18000
H  16.19300 -0.05800 34.89100
N  18.10900 -3.59000 27.73100
C  18.89800 -4.03600 28.77100
C  19.80900 -5.04000 28.38700
C  19.56400 -5.23300 27.01000
C  18.52900 -4.25000 26.58800
C  20.80600 -5.71500 29.25100
C  20.24000 -6.14200 26.00000
O  20.08400 -6.10000 24.80000
C  21.04500 -7.43100 26.43200
N  16.53200 -2.07600 25.66300
C  17.20500 -2.97400 24.83400
C  16.94800 -2.75500 23.32200
C  15.75900 -1.77000 23.39600
C  15.70900 -1.27900 24.86500
C  18.16700 -2.13700 22.65800
C  14.38700 -2.20400 22.76800
C  14.21300 -2.02800 21.18200
N  15.34000 -0.50300 27.70000
C  14.68700 0.17700 26.65900
C  13.88200 1.24900 27.19600
C  14.15700 1.24800 28.57900
C  15.01100 0.19800 28.80400
C  12.86400 2.03700 26.42000
C  13.89400 1.90900 29.86400
O  13.24800 2.88900 30.12100
C  14.66900 1.10000 30.89500
C  15.54500 2.10100 31.61600
O  16.69300 2.40900 31.32100
O  14.78500 2.65500 32.59000
C  15.56300 3.78500 33.22500
H  19.44600 -3.96400 30.75900
H  18.43300 -4.53400 24.41300
H  14.28000 0.34200 24.65100
H  16.97800 -0.24400 32.51800
H  17.98700 -2.94700 32.65900
H  20.00000 -1.26400 31.64100
H  19.73200 -1.89500 33.29700
H  19.13300 -0.29400 32.79700
H  15.73400 -2.69800 33.35400
H  14.53000 -1.77300 32.40700
H  14.85100 -1.57100 34.96600
H  14.17900 -0.32400 34.05400
H  21.81200 -5.85000 28.85300
H  20.46000 -6.70400 29.55200
H  20.95200 -5.18400 30.19200
H  20.98200 -8.19000 25.65300
H  20.53700 -7.89100 27.27900
H  22.10900 -7.27400 26.60700
H  16.68700 -3.60900 22.69800
H  15.91700 -0.80300 22.91700
H  18.08800 -2.36300 21.59400
H  19.12100 -2.50500 23.03600
H  18.08600 -1.05100 22.71400
H  13.54100 -1.69400 23.22900
H  14.16600 -3.27000 22.80900
H  14.98900 -1.35700 20.81400
H  13.26600 -1.54400 20.94400
H  14.26100 -2.99900 20.68900
H  12.71500 1.66100 25.40800
H  13.11900 3.09600 26.38000
H  11.89800 1.91200 26.91100
H  13.95500 0.67800 31.60200
H  16.58500 3.52400 33.49800
H  15.06500 4.01700 34.16700
H  15.58100 4.72100 32.66600

