158

Mg 2.84100 -2.09700 44.96800
C  5.71600 -0.30200 43.85400
C  0.91800 -0.39300 42.75400
C  0.48600 -4.33300 45.36900
C  5.13000 -4.21700 46.72700
N  3.30000 -0.64500 43.49800
C  4.49200 0.06300 43.27200
C  4.27600 1.03400 42.20200
C  2.72800 1.08900 41.92000
C  2.28300 -0.01300 42.84100
C  2.05100 2.53000 42.08300
C  5.06400 0.65500 40.89300
C  5.78200 1.86100 40.24500
H  6.37200 1.49400 38.88700
N  0.87500 -2.29100 44.32100
C  0.25000 -1.36200 43.51400
C  -1.11000 -1.65300 43.46100
C  -1.30300 -2.91400 44.03900
C  0.04100 -3.21200 44.65600
C  -2.15600 -0.84100 42.82200
C  -2.56400 -3.86600 44.01000
O  -3.48600 -3.48400 43.25700
C  -2.69900 -5.10300 44.76800
N  2.82300 -3.97200 46.00400
C  1.65700 -4.72600 46.00200
C  1.75400 -5.97300 46.84700
C  3.28500 -6.02300 47.20000
C  3.83400 -4.69200 46.53300
C  0.82300 -5.96700 48.17700
C  4.01400 -7.32800 46.89200
C  3.83400 -8.00000 45.50800
N  4.97000 -2.25400 45.29400
C  5.72000 -3.06800 46.14000
C  7.14600 -2.56400 46.25300
C  7.17900 -1.54700 45.25500
C  5.86600 -1.42700 44.70300
C  8.29700 -3.11700 47.10300
C  8.07500 -0.54500 44.64500
O  9.24000 -0.34000 44.76200
C  7.12000 0.29100 43.73500
C  7.14900 1.60400 44.26100
O  7.10300 1.84800 45.45000
O  7.37400 2.55200 43.26600
C  7.51600 3.93300 43.76400
H  0.23000 0.15300 42.10500
H  -0.33100 -5.05100 45.47100
H  5.89500 -4.80100 47.24300
H  4.63200 1.98300 42.60300
H  2.44400 0.66400 40.95700
H  1.65600 2.83500 41.11400
H  2.83400 3.28400 42.17000
H  1.37000 2.50400 42.93400
H  4.39100 0.18200 40.17700
H  5.83100 -0.07600 41.14800
H  6.70100 2.03700 40.80300
H  5.13400 2.72900 40.12300
H  -2.90900 -0.73300 43.60200
H  -2.45300 -1.35900 41.91000
H  -1.71900 0.15300 42.73000
H  -2.50900 -4.80700 45.80000
H  -1.89600 -5.69300 44.32500
H  -3.61400 -5.67900 44.63300
H  1.47600 -6.89300 46.33300
H  3.22700 -5.83500 48.27200
H  -0.22300 -5.90300 47.87700
H  0.93600 -5.10100 48.82800
H  1.07100 -6.85100 48.76600
H  3.63800 -8.04800 47.61900
H  5.07600 -7.11600 47.01900
H  3.47500 -7.13700 44.94700
H  3.20400 -8.88900 45.50400
H  4.84200 -8.23900 45.16600
H  8.59400 -4.03600 46.59600
H  7.86800 -3.19300 48.10200
H  9.14000 -2.43200 47.18100
H  7.54100 0.28700 42.72900
H  8.57500 4.19000 43.75800
H  6.92500 4.07800 44.66900
H  7.00100 4.49000 42.98100
Mg 10.26400 47.23900 26.25100
C  8.22900 47.29000 29.14200
C  12.77800 48.54500 28.06200
C  12.16500 47.30000 23.41700
C  7.37300 46.82700 24.32100
N  10.50500 47.58500 28.40400
C  9.54700 47.60800 29.40000
C  10.10800 48.16000 30.77600
C  11.36600 48.91700 30.20600
C  11.62500 48.22900 28.85100
C  11.18100 50.51200 30.11700
C  10.45000 47.06000 31.81000
C  10.61200 47.41900 33.32900
H  10.41900 46.22400 34.31300
N  12.20400 47.70000 25.86500
C  13.11000 48.19100 26.74300
C  14.41400 48.30200 26.13600
C  14.28600 47.83000 24.77000
C  12.80100 47.61200 24.60100
C  15.67700 48.71800 26.82000
C  15.30500 47.69600 23.57500
O  15.05100 47.47300 22.37800
C  16.86200 47.88400 23.88100
N  9.86600 46.94400 24.12200
C  10.81400 47.08700 23.11400
C  10.13300 46.83700 21.74800
C  8.67500 46.46700 22.16400
C  8.64200 46.86500 23.62400
C  10.30100 47.97900 20.75200
C  8.10400 45.01500 21.82300
C  8.78800 43.84000 22.53000
N  8.27300 47.04500 26.66500
C  7.20200 46.79800 25.75200
C  6.01800 46.41800 26.48700
C  6.38400 46.71100 27.81500
C  7.72600 47.07400 27.84500
C  4.63300 45.99400 25.90600
C  5.89900 46.70600 29.22900
O  4.83300 46.48000 29.66800
C  7.11500 47.11000 30.10400
C  7.33700 45.91000 31.00300
O  7.81600 44.83000 30.71600
O  6.76300 46.16800 32.21700
C  6.87900 45.02000 33.18300
H  13.58100 49.04800 28.60400
H  12.81600 47.41200 22.54800
H  6.43400 46.84700 23.76400
H  9.42200 48.86500 31.24600
H  12.27300 48.77000 30.79100
H  11.46100 50.81200 29.10700
H  11.84100 50.94500 30.86900
H  10.21100 50.93100 30.38200
H  11.36000 46.67600 31.34900
H  9.76100 46.23800 31.61700
H  9.95300 48.21600 33.67300
H  11.62000 47.82300 33.41800
H  16.51800 48.03700 26.94300
H  15.43100 49.05300 27.82800
H  16.13100 49.63500 26.44400
H  17.03400 48.87700 24.29700
H  17.38300 47.65700 22.95100
H  17.26500 47.23200 24.65600
H  10.60600 45.99000 21.24900
H  7.93800 47.12000 21.69700
H  10.89600 48.71800 21.28800
H  9.33200 48.44000 20.56100
H  10.92100 47.75500 19.88400
H  8.22200 44.78100 20.76500
H  7.05300 44.99300 22.11100
H  9.39000 44.13700 23.38900
H  9.36000 43.16500 21.89400
H  8.01600 43.15100 22.87300
H  4.15300 46.85700 25.44400
H  3.93700 45.46800 26.55900
H  4.90800 45.24200 25.16600
H  6.86200 48.09200 30.50500
H  6.59300 45.11600 34.23100
H  7.95200 44.83200 33.18100
H  6.27700 44.14800 32.92600

