158

Mg 35.45800 2.80100 29.64500
C  33.16500 3.63600 32.10500
C  38.03700 2.92200 32.12200
C  37.97800 2.07800 27.38100
C  33.13900 3.20400 27.23700
N  35.54900 3.08500 31.87800
C  34.46200 3.40200 32.64700
C  34.85400 3.39100 34.11400
C  36.40200 3.57400 34.05800
C  36.68300 3.15400 32.61400
C  36.87300 4.91900 34.57800
C  34.27500 2.11400 34.77600
C  33.81300 2.30200 36.22100
H  34.45900 3.38900 37.08800
N  37.56500 2.37600 29.76100
C  38.38800 2.52700 30.84300
C  39.73900 2.11000 30.60100
C  39.85600 1.98800 29.17600
C  38.41500 2.17500 28.69400
C  40.80600 2.09000 31.70700
C  41.05000 1.78900 28.30300
O  40.97700 1.51100 27.13400
C  42.51300 1.86800 28.90400
N  35.56100 2.56900 27.60200
C  36.69900 2.23000 26.83700
C  36.44700 2.39700 25.36800
C  34.86500 2.56400 25.38800
C  34.43100 2.82800 26.84100
C  37.25600 3.56300 24.68700
C  34.02800 1.42100 24.75900
C  33.87400 1.43900 23.21300
N  33.49600 3.21900 29.59000
C  32.59200 3.37000 28.59400
C  31.20100 3.57300 29.06600
C  31.37900 3.71500 30.44100
C  32.76800 3.48800 30.73200
C  29.95300 3.83000 28.22500
C  30.70300 3.93600 31.76000
O  29.52600 4.05800 31.98800
C  31.84900 3.93100 32.91300
C  31.84700 5.17600 33.69400
O  32.53200 6.15500 33.49900
O  31.01400 4.93800 34.74700
C  31.08600 5.88400 35.87200
H  38.82300 3.29800 32.78100
H  38.79400 2.16100 26.66000
H  32.45000 3.32600 26.39800
H  34.36700 4.21200 34.64100
H  36.87800 2.86900 34.74000
H  37.43900 5.56400 33.90700
H  37.38100 4.80600 35.53500
H  36.00600 5.51900 34.85500
H  35.11800 1.42400 34.80600
H  33.44100 1.84000 34.13000
H  33.91000 1.33600 36.71600
H  32.74500 2.46700 36.08000
H  40.40300 1.67100 32.62900
H  41.23300 3.07800 31.87900
H  41.58100 1.36300 31.46600
H  43.27800 2.39100 28.33200
H  42.84000 0.83600 29.03200
H  42.41000 2.38100 29.86100
H  36.85100 1.46600 24.97200
H  34.70500 3.46300 24.79300
H  37.45100 4.30800 25.45800
H  36.69700 4.04600 23.88600
H  38.16500 3.05200 24.37000
H  33.03100 1.37200 25.19700
H  34.53200 0.48300 24.99200
H  34.68900 2.06700 22.85200
H  32.94700 1.82300 22.78700
H  34.08700 0.45700 22.79100
H  29.22900 3.09900 28.58600
H  30.09100 3.67300 27.15600
H  29.55300 4.83100 28.38700
H  31.73900 3.15800 33.67300
H  30.25600 5.71100 36.55700
H  31.19200 6.93600 35.60800
H  31.97200 5.55600 36.41700
Mg 1.27800 41.16200 26.74400
C  3.28000 41.99300 29.41300
C  -1.09700 40.06000 29.02200
C  -0.66000 40.26900 24.06900
C  3.82800 42.10200 24.54900
N  1.05700 41.13300 28.97200
C  2.00900 41.52800 29.84300
C  1.52300 41.62200 31.21300
C  0.21000 40.77600 31.16600
C  -0.02000 40.70300 29.64600
C  0.41000 39.38600 31.74600
C  1.27500 43.14000 31.66500
C  1.82600 43.46000 33.03200
H  1.58900 42.39800 34.12800
N  -0.60000 40.27600 26.55700
C  -1.41100 39.80600 27.60500
C  -2.45100 38.90600 27.02200
C  -2.27600 38.97700 25.58200
C  -1.11100 39.90300 25.36700
C  -3.37900 38.16500 27.91300
C  -3.03600 38.14300 24.49800
O  -2.79600 38.19400 23.28100
C  -4.19000 37.22700 24.99800
N  1.41600 41.41300 24.65200
C  0.49500 41.01000 23.78700
C  0.99800 41.30700 22.35600
C  2.43400 41.91500 22.52100
C  2.56300 41.80100 24.00300
C  0.96700 40.06900 21.34900
C  2.67200 43.35800 22.01400
C  2.18900 44.54600 22.86700
N  3.18400 41.91800 26.87700
C  4.17000 42.18400 25.94000
C  5.29300 42.79600 26.56600
C  5.02100 42.67100 27.95000
C  3.71000 42.17100 28.11100
C  6.51100 43.40600 25.95200
C  5.64600 42.78100 29.24100
O  6.79000 43.06100 29.56400
C  4.48600 42.38300 30.24700
C  4.91700 41.15000 30.99300
O  5.04100 39.94700 30.63100
O  5.24100 41.47600 32.26800
C  5.35900 40.40500 33.17600
H  -1.81600 39.53200 29.65300
H  -1.36400 40.01400 23.27400
H  4.61600 42.37700 23.84500
H  2.33800 41.12100 31.73500
H  -0.57800 41.23800 31.76000
H  -0.38100 38.95300 32.35900
H  1.32800 39.33000 32.33100
H  0.55600 38.66000 30.94600
H  0.18700 43.19000 31.70300
H  1.73800 43.82800 30.95700
H  1.47700 44.44400 33.34700
H  2.89500 43.65200 32.94100
H  -3.45100 37.07900 27.84400
H  -4.36500 38.51800 27.61200
H  -3.35200 38.60600 28.90900
H  -3.87100 36.30500 25.48300
H  -4.77100 36.97700 24.11000
H  -4.76000 37.95900 25.57000
H  0.32100 42.06100 21.95500
H  3.14300 41.20900 22.08900
H  0.43400 39.16700 21.64900
H  1.98300 39.70700 21.19400
H  0.46900 40.42300 20.44600
H  2.22500 43.45700 21.02500
H  3.75900 43.44200 22.02800
H  3.03400 45.09200 23.28800
H  1.65400 44.21600 23.75800
H  1.56200 45.23400 22.30100
H  6.35200 43.75700 24.93200
H  7.36300 42.73700 26.07700
H  6.87300 44.22700 26.57000
H  4.38700 43.25700 30.89100
H  6.32600 39.90700 33.11500
H  4.56700 39.65600 33.14200
H  5.29400 40.85500 34.16700

