158

Mg 8.88600 2.85300 27.02600
C  10.12700 1.48300 30.05000
C  6.96100 4.90000 28.75600
C  7.34100 3.61100 24.15800
C  10.67100 0.22500 25.31600
N  8.39000 2.88200 29.24200
C  9.14500 2.47900 30.29500
C  8.70700 3.09100 31.64900
C  7.64000 4.13300 31.17600
C  7.62900 3.98200 29.57400
C  6.22700 4.13800 31.87300
C  9.95800 3.58200 32.40000
C  9.92500 4.56000 33.59500
H  10.49000 3.98500 34.89800
N  7.39600 4.12200 26.53100
C  6.71000 4.89700 27.38400
C  5.80100 5.75400 26.64900
C  5.95200 5.40200 25.27700
C  6.89900 4.33100 25.25800
C  4.95700 6.80600 27.31200
C  5.22500 5.88500 24.08200
O  5.41300 5.50400 22.93800
C  4.18500 6.86000 24.28200
N  9.00700 1.99600 25.06600
C  8.30900 2.59300 24.00400
C  8.73700 2.01300 22.67100
C  9.65700 0.81200 23.11600
C  9.83800 1.07200 24.59100
C  7.63700 1.70600 21.54900
C  10.94200 0.67900 22.23800
C  10.93600 -0.27100 21.07600
N  10.19700 1.23900 27.53200
C  10.85700 0.34300 26.70200
C  11.69900 -0.54600 27.56400
C  11.46300 -0.14900 28.90500
C  10.46700 0.90500 28.82200
C  12.69700 -1.47900 27.08000
C  11.78600 -0.39100 30.25800
O  12.54900 -1.25700 30.74300
C  10.86900 0.57500 31.07700
C  9.99000 -0.21600 31.99100
O  8.96400 -0.79900 31.63400
O  10.48700 -0.18100 33.29900
C  9.51000 -0.73300 34.17100
H  6.43300 5.58400 29.42200
H  6.82600 3.83100 23.22100
H  11.18400 -0.61800 24.85000
H  8.19400 2.39500 32.31400
H  8.08400 5.10700 31.37900
H  6.39400 4.65300 32.81900
H  5.92000 3.11600 32.09300
H  5.43600 4.68500 31.35900
H  10.66700 4.08300 31.74200
H  10.41800 2.65500 32.74500
H  8.85600 4.71600 33.74300
H  10.47800 5.42300 33.22500
H  3.92100 6.48300 27.21600
H  5.07800 7.71500 26.72300
H  5.26800 7.05900 28.32600
H  3.72300 7.26700 23.38200
H  4.47500 7.79800 24.75600
H  3.45100 6.43400 24.96500
H  9.23600 2.91500 22.31500
H  8.96800 -0.02000 22.97000
H  6.71900 1.33100 22.00200
H  7.94700 1.00000 20.77800
H  7.35600 2.64200 21.06700
H  11.80400 0.45300 22.86600
H  11.13200 1.69500 21.89200
H  11.79000 -0.94700 21.11200
H  11.06200 0.23800 20.12100
H  10.00300 -0.83500 21.05200
H  12.95700 -1.18400 26.06300
H  12.41200 -2.52100 26.93500
H  13.56500 -1.43900 27.73800
H  11.45800 1.12100 31.81300
H  8.58400 -0.22600 33.90100
H  9.65400 -0.32600 35.17200
H  9.45200 -1.82000 34.13600
Mg 25.81200 0.83100 29.29900
C  27.84800 0.31500 32.18400
C  23.10800 0.91800 31.38600
C  23.98400 1.28000 26.61400
C  28.71100 0.19100 27.22200
N  25.56000 0.61600 31.48300
C  26.50700 0.57000 32.46100
C  25.83600 0.74100 33.89200
C  24.25300 0.58900 33.55100
C  24.34200 0.73200 32.03200
C  23.57100 -0.71800 34.10300
C  26.34600 2.03500 34.67000
C  26.50900 1.80100 36.21800
H  25.78200 2.82400 37.16300
N  23.78400 1.18300 29.11200
C  22.80900 1.21700 30.02000
C  21.54500 1.48700 29.42700
C  21.76800 1.46800 28.02200
C  23.24600 1.23000 27.83400
C  20.20600 1.47600 30.14800
C  20.71300 1.58900 26.91800
O  20.99000 1.47900 25.70400
C  19.22500 1.81600 27.19200
N  26.31400 0.70200 27.20000
C  25.30700 1.07300 26.31000
C  25.82300 1.29900 24.87500
C  27.25800 0.73900 25.05400
C  27.48000 0.48000 26.56300
C  24.99000 0.73500 23.69200
C  28.36700 1.61100 24.43800
C  28.42400 3.04900 24.96700
N  27.84000 0.20500 29.59000
C  28.86900 0.06200 28.66900
C  30.12600 -0.22800 29.42100
C  29.75900 0.01600 30.82200
C  28.42100 0.24400 30.84300
C  31.38000 -0.54800 28.79800
C  30.31500 0.04900 32.20500
O  31.44600 -0.08000 32.61700
C  29.04800 0.38400 33.07800
C  29.07000 -0.49700 34.27100
O  28.58000 -1.61400 34.28900
O  29.77700 0.03200 35.27300
C  29.87600 -0.83300 36.46300
H  22.20100 0.96400 31.99200
H  23.31600 1.61200 25.81600
H  29.67300 0.15100 26.70800
H  26.09700 -0.15300 34.45800
H  23.66000 1.45200 33.85300
H  24.33600 -1.39100 34.49200
H  22.80800 -1.22600 33.51400
H  22.98900 -0.45500 34.98600
H  25.61800 2.84600 34.70700
H  27.27400 2.38800 34.22000
H  27.59600 1.85100 36.28100
H  26.17200 0.80200 36.49500
H  19.55400 2.33800 30.01200
H  20.30200 1.42300 31.23300
H  19.65300 0.65300 29.69500
H  18.76000 1.04800 27.81000
H  18.53000 1.96600 26.36600
H  19.03400 2.75100 27.71900
H  25.84600 2.38700 24.81700
H  27.28300 -0.17200 24.45700
H  24.36900 -0.08500 24.05200
H  25.62700 0.32500 22.90800
H  24.36100 1.49900 23.23600
H  28.00400 1.64100 23.41000
H  29.31900 1.08300 24.37400
H  29.49700 3.24200 24.98000
H  27.96600 3.07000 25.95600
H  27.79700 3.67800 24.33600
H  31.56400 -0.19400 27.78400
H  31.46700 -1.63300 28.74600
H  32.15200 -0.06400 29.39700
H  29.09100 1.38700 33.50200
H  30.63000 -0.36200 37.09400
H  30.12400 -1.87700 36.27400
H  28.97600 -0.94500 37.06800

