158

Mg 36.57200 49.18400 25.10600
C  36.65200 47.25800 28.08900
C  35.17600 51.87700 27.01900
C  35.84300 50.87000 22.35400
C  37.67500 46.46700 23.32300
N  36.01000 49.48600 27.30300
C  36.22200 48.54200 28.32800
C  35.96700 49.19600 29.67300
C  35.31100 50.57400 29.33000
C  35.48100 50.67100 27.78900
C  33.80700 50.79400 29.83000
C  37.34300 49.44800 30.44000
C  37.32800 49.10800 31.91100
H  36.00500 49.32700 32.68200
N  35.67100 51.11000 24.68600
C  35.19300 52.01200 25.62200
C  34.73500 53.13900 24.91200
C  34.99500 52.92800 23.56700
C  35.47600 51.54500 23.51800
C  34.17400 54.38000 25.53000
C  34.88200 53.85900 22.32900
O  35.02000 53.44100 21.18300
C  34.55700 55.22800 22.50200
N  36.71500 48.76900 23.05100
C  36.37200 49.63300 22.09600
C  36.92800 49.11200 20.73000
C  37.59000 47.79700 21.06300
C  37.37000 47.68100 22.54300
C  35.79400 49.11500 19.61500
C  39.05400 47.59800 20.60000
C  40.13300 48.45900 21.31600
N  36.93700 47.29800 25.57400
C  37.47000 46.31100 24.70500
C  37.92700 45.14100 25.55500
C  37.37800 45.39600 26.81100
C  36.90200 46.77900 26.79100
C  38.44400 43.83200 25.07500
C  37.27700 44.86500 28.14200
O  37.53600 43.72900 28.51200
C  36.84800 46.06500 29.00600
C  35.52900 45.78600 29.76500
O  34.44800 45.83400 29.23200
O  35.82200 45.36300 31.06600
C  34.64900 45.12100 31.88500
H  34.73200 52.70400 27.57600
H  35.69400 51.26500 21.34700
H  38.21200 45.71300 22.74500
H  35.26400 48.64500 30.29700
H  35.86600 51.36500 29.83400
H  33.26000 49.89400 30.11000
H  33.29900 51.09500 28.91400
H  33.63800 51.64000 30.49600
H  37.71800 50.47100 30.46800
H  38.05500 48.72400 30.04400
H  37.93200 49.73300 32.57000
H  37.57500 48.06000 32.07600
H  33.69100 54.19000 26.48800
H  33.34500 54.63300 24.87000
H  34.86600 55.22100 25.58600
H  33.50600 55.25900 22.79200
H  34.57100 55.68200 21.51200
H  35.26300 55.75300 23.14600
H  37.76900 49.78500 20.56700
H  36.98900 47.04200 20.55600
H  35.80800 50.01200 18.99600
H  34.85100 49.16000 20.15900
H  35.86200 48.24000 18.96800
H  39.06600 48.00100 19.58800
H  39.43300 46.57800 20.65000
H  40.85400 48.94000 20.65400
H  40.78800 47.83400 21.92300
H  39.67500 49.23700 21.92700
H  39.48600 43.98100 24.79400
H  37.88200 43.58900 24.17300
H  38.39200 43.11100 25.89100
H  37.56300 46.30200 29.79400
H  33.93000 45.93900 31.84500
H  34.95500 45.07700 32.93000
H  34.13100 44.21800 31.56200
Mg -1.80900 33.17700 27.45600
C  -3.45300 31.49900 29.92900
C  -0.38600 35.07100 29.87700
C  -0.30700 34.78900 25.08900
C  -3.77500 31.60200 25.03300
N  -1.84500 33.11600 29.70700
C  -2.64000 32.44900 30.51600
C  -2.46000 32.80000 32.00900
C  -1.58100 34.04100 31.89200
C  -1.29200 34.14700 30.38600
C  -2.13900 35.36600 32.48100
C  -1.81400 31.56400 32.68600
C  -1.14000 31.68600 34.05600
H  -1.55500 30.72600 35.14200
N  -0.46000 34.73500 27.52200
C  0.03700 35.33800 28.58400
C  1.08200 36.24700 28.13300
C  1.18000 36.19700 26.67600
C  0.13900 35.20900 26.39100
C  1.75000 37.16600 29.08000
C  2.02600 37.10000 25.73900
O  2.04000 36.97100 24.49600
C  2.93200 38.12400 26.34300
N  -2.01800 33.20800 25.34300
C  -1.25600 33.97000 24.53200
C  -1.53500 33.83600 23.03200
C  -2.68600 32.81200 23.03700
C  -2.82700 32.51800 24.53100
C  -1.65600 35.09500 22.11100
C  -2.53500 31.51600 22.09700
C  -1.79600 30.38900 22.62400
N  -3.26300 31.77100 27.45000
C  -4.01700 31.27900 26.39700
C  -4.89500 30.19900 26.93000
C  -4.70800 30.27500 28.31100
C  -3.71300 31.25100 28.53400
C  -5.81500 29.37100 26.16600
C  -5.14500 29.81900 29.54400
O  -5.93900 28.93300 29.79900
C  -4.43600 30.58000 30.63000
C  -5.45900 31.36200 31.41600
O  -6.15900 32.20500 30.95200
O  -5.48800 31.01400 32.73800
C  -6.39800 31.60000 33.69400
H  -0.09400 35.77300 30.66100
H  0.27300 35.24900 24.28500
H  -4.46700 31.09300 24.35900
H  -3.41400 33.01500 32.49100
H  -0.64100 33.75400 32.36300
H  -2.91300 35.08000 33.19300
H  -2.50300 36.03700 31.70300
H  -1.37400 35.84200 33.09500
H  -1.17100 30.88500 32.12600
H  -2.67200 30.95700 32.97400
H  -1.25600 32.69200 34.46000
H  -0.05200 31.66400 34.00300
H  2.81300 37.30600 28.88300
H  1.79100 36.81700 30.11200
H  1.29500 38.15400 29.01700
H  3.64200 37.61600 26.99500
H  2.35600 38.82700 26.94400
H  3.56700 38.63700 25.62000
H  -0.62800 33.31700 22.72300
H  -3.58800 33.34000 22.72700
H  -2.41700 35.04500 21.33300
H  -0.72600 34.99300 21.55100
H  -1.83300 36.07800 22.54800
H  -2.06300 31.87800 21.18400
H  -3.48300 31.14500 21.70600
H  -1.05400 30.14900 21.86300
H  -2.48400 29.54500 22.67300
H  -1.29300 30.60400 23.56600
H  -5.54800 28.35800 26.46600
H  -5.66300 29.51100 25.09600
H  -6.81200 29.70600 26.45300
H  -3.91400 29.93300 31.33600
H  -7.01800 32.41600 33.32200
H  -5.88500 31.87100 34.61600
H  -7.11200 30.84100 34.01600

