158

Mg 0.88200 7.83400 27.39200
C  1.58500 10.09500 30.11600
C  1.01200 5.35200 29.85200
C  0.60700 5.58600 25.00700
C  1.47000 10.39600 25.33300
N  1.20500 7.79800 29.74900
C  1.29000 8.83000 30.56800
C  1.17400 8.48500 32.03700
C  1.38000 6.92400 31.89500
C  1.19200 6.62800 30.42200
C  2.63700 6.34400 32.47800
C  -0.13900 8.77400 32.83100
C  -0.04400 8.86800 34.37700
H  1.09900 8.13200 35.09100
N  0.75900 5.73500 27.44000
C  0.75800 4.92200 28.48500
C  0.53400 3.53600 28.03500
C  0.36300 3.61700 26.62000
C  0.47300 5.00100 26.31100
C  0.48500 2.30800 29.03600
C  0.21900 2.55200 25.58100
O  0.17900 2.73700 24.37700
C  0.13000 1.15900 26.11700
N  1.52000 7.91300 25.39900
C  1.01800 6.87300 24.57300
C  1.03800 7.28200 23.13100
C  1.05900 8.83800 23.26900
C  1.34800 9.07000 24.79600
C  2.31300 6.77100 22.39600
C  -0.12700 9.62800 22.59200
C  -1.38400 9.79600 23.49500
N  1.44200 9.83100 27.62600
C  1.64200 10.80600 26.68500
C  1.95800 12.09300 27.25200
C  1.98600 11.82100 28.68200
C  1.72200 10.45400 28.79100
C  2.05100 13.42800 26.64000
C  2.19200 12.41500 29.98400
O  2.41300 13.53900 30.33300
C  1.83900 11.28100 30.98000
C  2.92500 11.23800 31.92700
O  4.08500 11.07000 31.64300
O  2.42700 11.46800 33.20000
C  3.40200 11.25700 34.24600
H  1.16700 4.45700 30.45800
H  0.25600 5.04400 24.12600
H  1.38700 11.26300 24.67500
H  2.03700 8.83600 32.60300
H  0.65600 6.39700 32.51700
H  3.34100 7.12200 32.77600
H  3.10000 5.76400 31.68000
H  2.37900 5.65200 33.27900
H  -0.96300 8.09000 32.62900
H  -0.51300 9.76000 32.55500
H  -0.94800 8.41500 34.78500
H  -0.17300 9.91300 34.65600
H  -0.17800 2.59600 29.85200
H  1.42800 2.11600 29.54800
H  0.24300 1.33400 28.61100
H  -0.65400 1.10000 26.87100
H  1.14700 0.91600 26.42400
H  -0.22400 0.53600 25.29600
H  0.04500 6.98000 22.79600
H  1.90600 9.21000 22.69300
H  2.90800 7.51200 21.86300
H  2.21700 6.03900 21.59500
H  2.96500 6.36200 23.16800
H  -0.35400 9.06800 21.68500
H  0.11000 10.62700 22.22700
H  -2.29300 9.74600 22.89500
H  -1.59600 10.80900 23.83800
H  -1.45100 9.20500 24.40800
H  2.92600 13.46200 25.99000
H  2.07000 14.27800 27.32300
H  1.19500 13.70800 26.02700
H  0.89300 11.54600 31.45200
H  4.16600 10.54200 33.94100
H  2.85400 10.97900 35.14500
H  3.92900 12.18600 34.46500
Mg 16.72700 51.45300 26.10300
C  18.63600 50.06700 28.71800
C  14.33400 52.58100 28.42300
C  14.99900 52.63600 23.59200
C  19.19700 50.15700 23.89100
N  16.40800 51.10000 28.30700
C  17.47300 50.75900 29.09200
C  17.12600 51.24500 30.56400
C  15.52700 51.41200 30.41000
C  15.39500 51.77200 28.97200
C  14.75900 50.13300 30.83800
C  17.95900 52.44600 31.05500
C  17.38600 53.03100 32.37500
H  16.55300 52.11900 33.30600
N  14.91500 52.46700 25.98400
C  14.10000 52.82400 27.04600
C  13.03000 53.62400 26.47100
C  13.13600 53.56500 25.09800
C  14.37900 52.89500 24.79600
C  11.99200 54.36400 27.28800
C  12.27100 54.31100 23.98500
O  12.67300 54.26100 22.86200
C  11.00800 55.15500 24.38000
N  17.11500 51.39900 24.03000
C  16.23100 52.01400 23.18900
C  16.66900 51.94400 21.67900
C  18.03500 51.27300 21.80700
C  18.19100 50.92100 23.30000
C  15.71400 51.25600 20.65500
C  19.27300 52.13400 21.21400
C  19.65700 53.45000 21.93900
N  18.51900 50.20700 26.18500
C  19.34700 49.75000 25.21700
C  20.38000 48.95100 25.85400
C  20.19600 49.13200 27.15200
C  18.98000 49.87600 27.37500
C  21.57400 48.37900 25.20300
C  20.81200 48.90500 28.49700
O  21.83800 48.36400 28.88700
C  19.78000 49.49300 29.58000
C  19.43200 48.41100 30.47500
O  19.30200 47.20300 30.17200
O  19.20600 48.91700 31.74700
C  18.66200 47.93700 32.67000
H  13.52300 52.87100 29.09500
H  14.58200 52.87800 22.61200
H  19.87000 49.77100 23.12300
H  17.35900 50.36900 31.16900
H  15.03300 52.17900 31.00600
H  14.07900 50.34500 31.66400
H  15.30400 49.24400 31.15400
H  14.05900 49.79300 30.07500
H  17.88900 53.23500 30.30600
H  18.99800 52.11400 31.06600
H  16.77500 53.92900 32.28500
H  18.23600 53.25700 33.01900
H  11.80200 55.40900 27.04300
H  12.49700 54.47200 28.24800
H  11.08300 53.78300 27.44200
H  11.19300 56.02600 25.00800
H  10.35800 54.50600 24.96700
H  10.57700 55.47500 23.43200
H  16.81200 52.96800 21.33400
H  18.06700 50.39200 21.16400
H  14.94700 51.96900 20.35300
H  15.21700 50.44300 21.18600
H  16.29300 50.96800 19.77700
H  18.93400 52.46300 20.23200
H  20.07500 51.39700 21.16600
H  18.77900 53.49200 22.58400
H  19.77100 54.32100 21.29400
H  20.53900 53.26100 22.55000
H  22.49600 48.61600 25.73400
H  21.66600 48.65500 24.15200
H  21.65100 47.29300 25.17500
H  20.31100 50.29400 30.09500
H  18.93400 48.45700 33.58800
H  19.25000 47.01900 32.67600
H  17.59400 47.76900 32.53000

