158

Mg 36.48900 50.03400 24.67100
C  36.61600 48.21100 27.75900
C  34.55600 52.44900 26.45500
C  35.62300 51.45900 21.77900
C  37.87400 47.27500 23.05600
N  35.64500 50.21400 26.91700
C  35.89100 49.43800 27.97200
C  35.44300 49.92100 29.30500
C  34.56900 51.23200 28.87800
C  34.89900 51.31200 27.30800
C  33.07700 51.46000 29.16100
C  36.59500 50.28600 30.33400
C  36.65100 49.65600 31.70900
H  35.25500 49.45100 32.26900
N  35.37400 51.77500 24.21400
C  34.67200 52.63300 25.07300
C  34.23900 53.75900 24.26400
C  34.52900 53.52900 22.86800
C  35.14500 52.16500 22.87400
C  33.65600 54.90800 24.94800
C  34.25800 54.38300 21.62300
O  34.59400 54.06900 20.46600
C  33.60500 55.81800 21.74800
N  36.76200 49.46000 22.68300
C  36.44100 50.31100 21.67200
C  36.98400 49.66900 20.34200
C  37.93200 48.49200 20.79500
C  37.56800 48.36800 22.26500
C  35.73800 49.32200 19.44300
C  39.47200 48.58600 20.28200
C  40.50800 49.03300 21.38000
N  37.18100 48.12400 25.24100
C  37.70400 47.14200 24.46600
C  38.10000 46.03600 25.23000
C  37.72000 46.38800 26.54900
C  37.13000 47.69200 26.50200
C  38.67700 44.71600 24.78700
C  37.72000 45.85700 27.91200
O  38.09700 44.76200 28.40000
C  37.05300 47.08200 28.78900
C  36.02100 46.65800 29.73900
O  34.83000 46.72300 29.56000
O  36.63400 45.92500 30.74500
C  35.75300 45.31900 31.80000
H  34.13200 53.25900 27.05300
H  35.42200 51.91300 20.80600
H  38.40700 46.43100 22.61400
H  34.70700 49.22800 29.71200
H  35.03200 52.04700 29.43500
H  32.79300 50.54300 29.67600
H  32.50200 51.54200 28.23900
H  32.91300 52.29600 29.84100
H  36.60000 51.35900 30.52600
H  37.56000 50.09800 29.86400
H  37.28800 50.14200 32.44800
H  37.12500 48.67400 31.68200
H  34.09300 55.86500 24.66300
H  33.98800 54.92800 25.98600
H  32.57200 54.84800 24.85700
H  34.26400 56.42700 22.36700
H  32.61600 55.74600 22.19900
H  33.49900 56.28200 20.76700
H  37.62900 50.37100 19.81400
H  37.43100 47.57600 20.48200
H  34.78000 49.38000 19.96100
H  35.80800 48.26700 19.18000
H  35.66600 49.87700 18.50800
H  39.57400 49.38700 19.54900
H  39.80100 47.65600 19.81900
H  41.40000 48.47000 21.10300
H  40.20100 48.86600 22.41200
H  40.73500 50.09100 21.24800
H  38.41200 43.88400 25.44000
H  39.74300 44.86500 24.61600
H  38.31900 44.32700 23.83400
H  37.88700 47.37300 29.42700
H  35.46700 44.33000 31.44200
H  34.87700 45.92400 32.03600
H  36.41300 45.33200 32.66800
Mg 27.08000 50.00900 26.63100
C  25.05400 51.14500 29.23900
C  29.27800 49.11800 28.85000
C  29.30300 49.67000 23.97100
C  24.98900 51.83300 24.33300
N  27.06300 50.13600 28.79600
C  26.15600 50.47700 29.75600
C  26.66500 50.29000 31.17900
C  28.13300 50.01100 30.91000
C  28.16500 49.76800 29.37100
C  29.03200 51.23800 31.27300
C  25.85200 49.25800 32.00100
C  25.11600 49.81300 33.19500
H  25.87400 50.08500 34.52200
N  28.98500 49.32400 26.49100
C  29.70100 48.86300 27.49700
C  30.96500 48.34700 26.99200
C  31.03300 48.57000 25.58100
C  29.75400 49.24300 25.29500
C  31.99700 47.67200 27.85700
C  32.11400 48.06000 24.64300
O  31.97200 48.31700 23.42000
C  33.35200 47.28200 25.18800
N  27.12400 50.64600 24.42000
C  28.09800 50.25900 23.53400
C  27.73600 50.44600 22.03000
C  26.36700 51.18600 22.25400
C  26.09300 51.18400 23.73800
C  28.69700 51.17800 21.13300
C  25.15300 50.68000 21.44100
C  24.37800 49.48800 22.00800
N  25.35000 51.16000 26.71500
C  24.58700 51.77900 25.68100
C  23.45600 52.54800 26.33200
C  23.60100 52.26500 27.68100
C  24.79300 51.47700 27.87500
C  22.42500 53.31100 25.59100
C  22.98400 52.51500 28.95800
O  21.96700 53.07400 29.21300
C  24.01400 51.90100 30.02700
C  24.66600 53.10200 30.66600
O  25.84100 53.46800 30.49400
O  23.90500 53.48000 31.71600
C  24.62200 54.47400 32.59600
H  29.94800 48.70600 29.60700
H  29.98400 49.46300 23.14300
H  24.29500 52.13700 23.54700
H  26.56300 51.23400 31.71300
H  28.52000 49.11300 31.39000
H  29.10300 51.94800 30.44900
H  30.01600 51.03700 31.69600
H  28.52600 51.78700 32.06700
H  26.53000 48.47900 32.35000
H  25.15800 48.73500 31.34300
H  24.32700 49.09900 33.42800
H  24.55100 50.72700 33.01500
H  32.01300 46.65200 27.47300
H  31.79900 47.58800 28.92500
H  32.87000 48.31700 27.76200
H  33.99700 47.20900 24.31300
H  32.93100 46.34600 25.55500
H  33.82400 47.91800 25.93700
H  27.58200 49.44500 21.62700
H  26.37700 52.25700 22.05500
H  28.32000 52.10500 20.70200
H  28.76300 50.59400 20.21500
H  29.60400 51.40100 21.69500
H  25.52600 50.51800 20.43000
H  24.37000 51.42900 21.32000
H  24.96800 48.94800 22.74900
H  24.28600 48.84700 21.13100
H  23.46600 49.86800 22.46800
H  22.28600 54.33700 25.93400
H  21.52700 52.69800 25.66700
H  22.70200 53.36400 24.53800
H  23.46600 51.46400 30.86200
H  25.50100 53.98500 33.01700
H  23.92800 54.85500 33.34500
H  24.93200 55.31700 31.98000

