158

Mg 2.55700 -1.31400 44.24300
C  6.05200 -1.22500 43.81400
C  2.23200 1.37300 42.21600
C  -0.74200 -1.95500 44.25000
C  3.12000 -4.20300 46.24300
N  4.01600 -0.21900 43.03200
C  5.39800 -0.24900 43.04100
C  5.98200 0.85300 42.25800
C  4.69000 1.92700 42.16500
C  3.53500 1.00900 42.53200
C  4.78900 3.09100 43.18700
C  6.54900 0.54500 40.84200
C  7.68600 1.37000 40.26200
H  7.41700 2.43300 39.18600
N  0.93700 -0.42600 43.33700
C  1.04800 0.67300 42.51900
C  -0.32500 1.03900 42.20700
C  -1.16600 0.11600 42.72400
C  -0.37400 -0.84500 43.47400
C  -0.53700 2.42100 41.50000
C  -2.75200 0.16300 42.62000
O  -3.29600 1.14300 42.05800
C  -3.61300 -0.77800 43.27600
N  1.35500 -2.97200 44.89300
C  -0.01100 -2.81400 44.96400
C  -0.69400 -3.92000 45.75300
C  0.56700 -4.69600 46.35300
C  1.82600 -3.92800 45.81300
C  -1.69900 -3.50100 46.80900
C  0.57200 -6.24300 46.16400
C  1.11000 -7.01600 47.38600
N  4.22000 -2.42000 44.92400
C  4.27300 -3.53200 45.75500
C  5.65000 -3.91900 46.05700
C  6.41400 -2.92500 45.37600
C  5.49800 -2.12900 44.63800
C  6.26900 -5.09400 46.94400
C  7.76700 -2.51400 45.10700
O  8.79900 -2.89700 45.67800
C  7.53300 -1.41500 43.99400
C  8.16900 -0.20300 44.69400
O  8.14200 0.02800 45.88500
O  8.89700 0.60600 43.81600
C  9.36200 1.95300 44.36600
H  2.21200 2.25200 41.56900
H  -1.80700 -1.98400 44.48900
H  3.32900 -5.09500 46.83700
H  6.63200 1.35800 42.97200
H  4.56700 2.31500 41.15400
H  5.28200 3.87900 42.61800
H  5.25200 2.64200 44.06600
H  3.82200 3.46300 43.52600
H  5.73000 0.60000 40.12600
H  6.88100 -0.49300 40.81200
H  8.52200 0.72700 39.98700
H  8.00100 1.87600 41.17400
H  -1.53600 2.79600 41.27500
H  -0.14900 2.33700 40.48500
H  0.00900 3.21500 42.01000
H  -4.58000 -0.65900 42.78700
H  -3.60200 -0.44800 44.31500
H  -3.34500 -1.82300 43.12500
H  -1.27300 -4.50700 45.04000
H  0.46100 -4.35300 47.38300
H  -1.83300 -2.42100 46.75000
H  -1.41400 -3.83200 47.80700
H  -2.66600 -3.97500 46.64000
H  1.24200 -6.50800 45.34600
H  -0.42500 -6.58900 45.89000
H  0.50100 -7.90800 47.53500
H  1.16000 -6.35200 48.24900
H  2.11700 -7.31400 47.09200
H  6.72100 -5.80400 46.25100
H  5.43700 -5.59900 47.43500
H  6.98300 -4.67500 47.65300
H  8.17700 -1.57000 43.12800
H  10.19900 1.75400 45.03500
H  8.58200 2.46700 44.92900
H  9.72700 2.61600 43.58100
Mg -11.17500 16.08100 42.17800
C  -7.82000 16.91700 41.67000
C  -12.00000 19.16100 41.10500
C  -14.23500 14.91900 41.82500
C  -10.10300 12.77600 43.05700
N  -9.98200 17.85700 41.48000
C  -8.68200 18.03000 41.45200
C  -8.36000 19.55700 41.04600
C  -9.66100 20.26100 41.44300
C  -10.60900 19.04500 41.33800
C  -9.60900 20.88900 42.83800
C  -7.92700 19.85900 39.61900
C  -6.98600 21.06900 39.38700
H  -5.74400 20.72200 38.55900
N  -12.87500 16.91700 41.29800
C  -13.02400 18.18000 41.01800
C  -14.34400 18.38100 40.54400
C  -15.03800 17.16500 40.74700
C  -14.06500 16.24500 41.29500
C  -14.83900 19.68100 40.01600
C  -16.44000 16.90200 40.27800
O  -17.19700 17.86100 40.00800
C  -16.84600 15.48700 40.07200
N  -12.09300 14.14600 42.47600
C  -13.41400 13.97600 42.37700
C  -13.80400 12.48300 42.88000
C  -12.38700 11.79700 43.16600
C  -11.50900 12.96700 42.89200
C  -14.81000 12.46400 44.13300
C  -12.16500 10.58000 42.22900
C  -11.77500 9.22800 42.82500
N  -9.35000 14.99100 42.38600
C  -9.08500 13.68500 42.80500
C  -7.60900 13.54500 42.74900
C  -7.09400 14.78700 42.42400
C  -8.21600 15.62900 42.14000
C  -6.94900 12.27100 42.98700
C  -5.81000 15.51700 42.26500
O  -4.64800 15.11500 42.39900
C  -6.26400 16.95000 41.70900
C  -5.70300 17.92500 42.68600
O  -6.07300 17.94800 43.83800
O  -4.92000 18.81500 42.06000
C  -4.28000 19.84100 42.83700
H  -12.33300 20.19500 40.98800
H  -15.26900 14.57700 41.90900
H  -9.95700 11.72600 43.31700
H  -7.54700 19.93800 41.66400
H  -9.98700 20.96100 40.67400
H  -9.78100 21.96200 42.76000
H  -8.70000 20.66800 43.39800
H  -10.39600 20.45400 43.45400
H  -8.81300 20.03700 39.01000
H  -7.39500 18.95800 39.31200
H  -6.59700 21.49600 40.31200
H  -7.40700 21.91400 38.84300
H  -14.39300 20.58400 40.43200
H  -15.84600 19.77000 40.42500
H  -14.86000 19.69800 38.92600
H  -17.63600 15.45500 39.32100
H  -17.22800 14.92700 40.92600
H  -16.01000 14.91200 39.67400
H  -14.28900 11.96300 42.05500
H  -12.32600 11.53900 44.22400
H  -15.10100 13.42000 44.57000
H  -14.62600 11.79800 44.97600
H  -15.77100 12.08300 43.78700
H  -11.56400 10.94300 41.39500
H  -13.10500 10.41000 41.70200
H  -11.88000 9.30000 43.90800
H  -10.74300 8.91200 42.67200
H  -12.33700 8.35200 42.50100
H  -7.15700 11.52900 42.21600
H  -7.22500 11.85000 43.95300
H  -5.87900 12.47300 43.04800
H  -5.94100 17.12200 40.68300
H  -3.85400 19.30500 43.68500
H  -4.86900 20.70100 43.15600
H  -3.50100 20.15200 42.14000

