158

Mg 49.00600 34.72100 27.97700
C  46.89400 32.97900 30.26200
C  49.46600 37.12100 30.38200
C  50.33100 36.78400 25.51100
C  48.02400 32.48500 25.46500
N  48.36200 34.89600 30.11200
C  47.58300 34.04900 30.87000
C  47.70200 34.43500 32.30200
C  48.12300 35.93700 32.22900
C  48.73000 35.96700 30.84400
C  47.05400 37.12000 32.38600
C  48.74100 33.55700 33.11500
C  48.57000 33.38700 34.61200
H  47.95300 34.48700 35.39200
N  49.88100 36.67400 28.00600
C  50.07200 37.39600 29.10200
C  50.81400 38.60000 28.74400
C  51.04700 38.54200 27.32000
C  50.36600 37.30100 26.88200
C  51.08300 39.69100 29.80800
C  51.86100 39.51800 26.42200
O  51.90800 39.50200 25.21000
C  52.43600 40.69000 27.08900
N  49.20500 34.68200 25.76000
C  49.89500 35.52300 25.04600
C  50.15800 35.10600 23.58900
C  49.42900 33.65300 23.58600
C  48.83000 33.58500 25.02200
C  49.69400 36.07200 22.54800
C  50.34200 32.38400 23.28000
C  50.37700 32.02300 21.81600
N  47.83700 33.02000 27.90100
C  47.50400 32.26000 26.77900
C  46.65800 31.09300 27.23500
C  46.30900 31.42600 28.53100
C  47.08700 32.56400 28.93000
C  46.18500 29.99800 26.43200
C  45.42600 31.09300 29.67000
O  44.57600 30.23100 29.81900
C  45.75000 32.06900 30.84300
C  46.07600 31.36100 32.10900
O  46.69900 30.33300 32.21700
O  45.56100 32.07500 33.17400
C  45.46300 31.43500 34.55900
H  49.52700 37.90900 31.13500
H  50.85400 37.42100 24.79600
H  47.76800 31.78400 24.66800
H  46.68400 34.40500 32.68800
H  48.84200 36.12100 33.02700
H  45.97800 36.94300 32.40800
H  47.34100 37.83900 31.61900
H  47.17300 37.56100 33.37600
H  49.74800 33.93700 32.94200
H  48.72900 32.53200 32.74300
H  49.55700 33.21200 35.04100
H  47.92500 32.53100 34.80800
H  52.08100 40.11700 29.71300
H  50.98700 39.38700 30.85100
H  50.41700 40.52500 29.58400
H  53.44100 40.58900 27.49800
H  51.75800 40.98800 27.88900
H  52.67200 41.38200 26.28100
H  51.24700 35.08000 23.60600
H  48.61500 33.84800 22.88800
H  48.63100 35.89000 22.39100
H  50.26300 36.00400 21.62100
H  49.88300 37.09900 22.86100
H  49.99400 31.52000 23.84500
H  51.37900 32.57200 23.55600
H  51.40000 31.74300 21.56400
H  49.97800 32.83500 21.20700
H  49.68500 31.23900 21.50900
H  46.54200 28.99100 26.64900
H  46.51900 30.15100 25.40600
H  45.09600 30.00200 26.45700
H  44.90500 32.70100 31.11600
H  45.16200 32.22000 35.25300
H  46.43800 30.97200 34.71100
H  44.65600 30.71700 34.41800
Mg -10.97800 38.51700 41.84700
C  -8.77200 35.83600 41.04700
C  -8.63300 40.65100 40.29700
C  -13.13600 40.90200 42.15700
C  -13.36100 36.07400 43.08600
N  -8.90100 38.25300 40.75300
C  -8.29500 37.04700 40.48600
C  -7.03100 37.22800 39.65600
C  -6.93900 38.78800 39.59600
C  -8.21700 39.31500 40.29600
C  -5.61900 39.35400 40.08300
C  -7.01700 36.45000 38.32000
C  -5.76500 35.61300 37.97400
H  -5.13800 35.85300 36.60400
N  -10.81300 40.56800 41.48500
C  -9.79000 41.27400 40.87200
C  -10.17400 42.68200 40.81400
C  -11.44100 42.78800 41.36700
C  -11.82600 41.43000 41.73400
C  -9.42400 43.71600 39.94200
C  -12.30000 44.05100 41.60200
O  -11.86600 45.12100 41.14600
C  -13.59200 44.13200 42.28800
N  -12.98100 38.50600 42.44700
C  -13.67900 39.66300 42.49700
C  -15.11600 39.41100 42.94100
C  -15.24200 37.86500 43.10000
C  -13.76800 37.44200 42.81400
C  -15.42900 40.12600 44.20600
C  -16.34400 37.08000 42.31000
C  -17.45100 36.38200 43.15800
N  -11.13700 36.31700 42.06000
C  -12.09600 35.52900 42.71100
C  -11.49400 34.19900 42.91800
C  -10.20800 34.24900 42.27900
C  -10.05100 35.57800 41.77700
C  -12.06500 33.07500 43.66000
C  -9.00300 33.50600 41.95100
O  -8.67000 32.36200 42.23800
C  -8.02400 34.52000 41.11200
C  -6.72600 34.56700 41.84500
O  -5.70100 34.03900 41.57900
O  -6.82100 35.42200 42.94600
C  -5.51800 35.84000 43.63000
H  -7.91500 41.31300 39.80900
H  -13.89500 41.68600 42.12800
H  -14.03500 35.38800 43.60300
H  -6.30900 36.83300 40.37000
H  -7.01100 39.17800 38.58100
H  -5.68500 39.91800 41.01300
H  -5.02500 40.02600 39.46400
H  -4.95000 38.49400 40.11300
H  -7.23300 37.13100 37.49700
H  -7.91700 35.83900 38.25100
H  -6.05100 34.56300 38.03600
H  -4.97000 35.85600 38.67900
H  -8.40900 43.34300 39.80800
H  -9.31400 44.61500 40.54800
H  -9.87400 44.14300 39.04500
H  -13.37700 43.63700 43.23600
H  -14.31800 43.60400 41.67000
H  -13.98000 45.14600 42.38200
H  -15.82600 39.75400 42.18800
H  -15.54600 37.73500 44.13900
H  -14.46400 40.19100 44.70900
H  -16.08800 39.54700 44.85300
H  -15.90900 41.08300 44.00400
H  -15.89400 36.32200 41.66800
H  -16.94500 37.78100 41.73100
H  -17.71300 35.46600 42.62900
H  -18.34300 37.00200 43.24400
H  -17.10100 36.06700 44.14100
H  -11.58500 32.12500 43.42300
H  -13.14900 33.16900 43.60300
H  -11.84200 33.32000 44.69800
H  -7.90300 34.07200 40.12600
H  -5.73500 36.29400 44.59700
H  -4.98800 36.57700 43.02700
H  -4.88100 34.96600 43.76600

