158

Mg 43.17000 2.95100 47.81500
C  41.52600 5.71200 47.22900
C  40.31700 1.01300 47.42200
C  45.10300 0.19100 47.47700
C  46.14200 4.73400 47.84000
N  41.15300 3.32800 47.49000
C  40.64100 4.55300 47.19500
C  39.05700 4.46600 46.92500
C  38.78500 3.02100 47.54000
C  40.15100 2.40800 47.52000
C  37.98200 2.97800 48.86600
C  38.80000 4.58600 45.39300
C  38.35700 5.99000 44.85500
H  38.96500 6.41100 43.56300
N  42.75300 0.95700 47.38100
C  41.51200 0.36700 47.31500
C  41.62200 -1.07400 46.99500
C  43.03700 -1.34700 47.00700
C  43.68100 -0.05700 47.43400
C  40.44600 -1.94200 46.68200
C  43.56600 -2.69900 46.59600
O  42.74300 -3.56300 46.34900
C  45.00200 -2.95800 46.64600
N  45.32700 2.47300 47.83700
C  45.89600 1.28600 47.71100
C  47.41000 1.29600 47.78300
C  47.71500 2.80300 47.70800
C  46.33100 3.38900 47.72100
C  47.94600 0.58000 48.98800
C  48.45300 3.29300 46.38100
C  49.94500 3.02700 46.37000
N  43.73200 4.82200 47.69700
C  44.95300 5.41300 47.75400
C  44.84800 6.82300 47.69500
C  43.45100 7.01300 47.46900
C  42.84600 5.79300 47.52000
C  45.87900 7.87000 47.85800
C  42.36900 7.99100 47.28300
O  42.37200 9.23000 47.25400
C  41.02400 7.13800 47.05500
C  40.11600 7.54400 48.19700
O  40.00000 6.87900 49.27400
O  39.36400 8.61100 47.99300
C  38.23500 8.89500 48.90800
H  39.39300 0.45600 47.25400
H  45.54900 -0.80300 47.40700
H  47.03000 5.36000 47.94700
H  38.67400 5.28200 47.53700
H  38.26800 2.46600 46.75800
H  37.65000 3.98500 49.11800
H  38.67700 2.58000 49.60500
H  37.11800 2.35400 48.63900
H  38.02800 3.87800 45.09200
H  39.64000 4.34000 44.74300
H  38.37100 6.76700 45.61900
H  37.28900 5.96900 44.63900
H  39.47100 -1.47200 46.81600
H  40.47300 -2.85400 47.27900
H  40.61200 -2.25400 45.65100
H  45.53000 -2.30900 45.94700
H  45.04500 -4.01300 46.37500
H  45.28900 -2.98600 47.69700
H  47.88800 0.82800 46.92200
H  48.31400 3.28400 48.48100
H  47.18700 0.12500 49.62300
H  48.67000 1.10700 49.60900
H  48.51900 -0.23700 48.54800
H  48.28400 4.36900 46.38600
H  48.07900 2.88600 45.44200
H  50.53000 3.59400 45.64500
H  49.91800 1.96600 46.12000
H  50.35300 3.08800 47.37900
H  46.87000 7.46000 47.66000
H  45.78100 8.09700 48.92000
H  45.62100 8.71100 47.21400
H  40.64700 7.44500 46.07900
H  37.61100 8.01700 49.07700
H  37.70700 9.77300 48.53800
H  38.59700 9.13900 49.90700
Mg 35.76800 49.50600 25.25300
C  35.83700 47.52100 28.12100
C  35.04100 52.30800 27.22800
C  35.38200 51.20700 22.39100
C  36.36400 46.61600 23.36500
N  35.24100 49.81600 27.30100
C  35.54800 48.86700 28.33600
C  35.41200 49.56900 29.72800
C  34.83000 51.01800 29.42100
C  35.14000 51.07800 27.85300
C  33.32500 51.07500 29.90900
C  36.85000 49.57600 30.36900
C  36.84100 49.42700 31.89800
H  35.68000 49.93600 32.74300
N  35.43500 51.47000 24.88300
C  35.15700 52.52600 25.80600
C  35.01000 53.76500 25.07800
C  35.12000 53.45100 23.67800
C  35.34300 51.97900 23.58300
C  34.88900 55.05700 25.73900
C  35.05200 54.38200 22.53100
O  35.07600 53.98000 21.34200
C  35.05700 55.88000 22.83000
N  36.03500 49.03700 23.20000
C  35.63200 49.86100 22.19200
C  35.64800 49.21300 20.83300
C  36.21600 47.83800 21.14900
C  36.26500 47.84200 22.68900
C  34.29200 49.19400 19.92000
C  37.61800 47.50000 20.63800
C  38.03200 46.00400 20.40800
N  36.01800 47.42900 25.61000
C  36.28600 46.38600 24.75900
C  36.40800 45.21600 25.51000
C  36.22600 45.61300 26.86300
C  35.95900 46.96100 26.85400
C  36.72300 43.88300 24.90000
C  36.29900 45.16100 28.20300
O  36.63100 44.06500 28.62300
C  35.98300 46.35600 29.07400
C  34.71100 46.12400 29.79600
O  33.60400 46.36300 29.36200
O  35.05100 45.72000 31.03900
C  33.91000 45.76000 31.96800
H  34.76800 53.17200 27.83600
H  35.16600 51.76900 21.48000
H  36.60700 45.78600 22.69900
H  34.77900 48.98900 30.40000
H  35.43600 51.71800 29.99700
H  33.09300 52.11100 30.15600
H  33.26800 50.57600 30.87700
H  32.50300 50.80300 29.24800
H  37.36700 50.45100 29.97400
H  37.41800 48.75400 29.93400
H  37.69000 50.05400 32.17200
H  37.21200 48.44300 32.18400
H  35.73500 55.71500 25.53800
H  34.77300 55.05700 26.82300
H  33.99600 55.59500 25.42000
H  34.11800 56.11100 23.33400
H  35.03900 56.43200 21.89100
H  35.99100 56.10100 23.34500
H  36.36000 49.64400 20.12900
H  35.57400 47.10800 20.65700
H  33.43000 49.67300 20.38400
H  34.00800 48.17600 19.65400
H  34.48600 49.61900 18.93500
H  38.40000 47.94100 21.25500
H  37.77700 47.89500 19.63500
H  38.87500 45.97500 19.71800
H  37.29200 45.49800 19.78900
H  38.22800 45.47500 21.34100
H  37.24800 43.24200 25.60800
H  37.46400 43.92700 24.10200
H  35.89700 43.37500 24.40400
H  36.83400 46.36400 29.75400
H  34.23000 45.27800 32.89200
H  33.01300 45.20700 31.68800
H  33.61200 46.76300 32.27500

