158

Mg -0.19800 6.67800 26.95600
C  0.91100 9.12000 29.15700
C  -0.81600 4.51300 29.48000
C  -1.23000 4.56200 24.58900
C  1.19500 8.67700 24.28500
N  0.20300 6.74300 29.10600
C  0.48600 7.88500 29.82600
C  0.47900 7.67200 31.30400
C  0.33200 6.12100 31.34900
C  -0.18400 5.74900 29.92000
C  1.56000 5.20600 31.70100
C  -0.69900 8.46200 32.04600
C  -0.70000 8.55200 33.66600
H  0.56700 8.19800 34.35000
N  -0.87300 4.76200 27.03900
C  -1.26800 4.07800 28.16700
C  -1.99400 2.83700 27.80600
C  -2.05900 2.83300 26.37800
C  -1.35900 4.09300 25.91900
C  -2.59000 1.92800 28.95800
C  -2.82400 1.85600 25.56100
O  -2.90000 1.96900 24.36700
C  -3.56100 0.63000 26.16400
N  0.12400 6.53500 24.79900
C  -0.56500 5.60700 24.07700
C  -0.66500 6.07100 22.59500
C  0.25300 7.24300 22.47800
C  0.61800 7.48800 23.91200
C  -0.46800 4.94300 21.61500
C  -0.45000 8.45400 21.78700
C  0.42400 9.40400 20.91800
N  0.78200 8.56100 26.71300
C  1.24400 9.27400 25.57300
C  1.66700 10.61200 26.04600
C  1.54800 10.60600 27.40900
C  1.11000 9.33300 27.74400
C  2.08300 11.70200 25.15100
C  1.62000 11.45900 28.59500
O  1.94000 12.62600 28.69400
C  1.17600 10.53700 29.79400
C  2.29500 10.40800 30.78400
O  3.39300 9.93500 30.55100
O  1.96000 10.87100 32.04100
C  3.02400 10.89600 33.05200
H  -1.04300 3.76400 30.24100
H  -1.55200 3.84900 23.82600
H  1.35200 9.41000 23.49100
H  1.40700 8.04300 31.73900
H  -0.50400 5.86600 32.00100
H  1.59900 4.34300 31.03700
H  1.34800 4.78100 32.68200
H  2.51200 5.73600 31.73200
H  -1.58600 7.88400 31.78900
H  -0.79500 9.46600 31.63300
H  -1.45400 7.83600 33.99300
H  -0.93600 9.54200 34.05600
H  -2.11400 0.94900 29.00100
H  -3.67700 1.84900 28.91200
H  -2.40800 2.29200 29.96900
H  -2.79800 -0.01900 26.59300
H  -3.92300 0.12900 25.26600
H  -4.39800 0.74500 26.85300
H  -1.73300 6.23600 22.45200
H  1.11100 7.01100 21.84600
H  -1.22400 4.16800 21.48600
H  0.50400 4.48000 21.78500
H  -0.35100 5.43400 20.64900
H  -0.73300 9.00400 22.68400
H  -1.36500 8.13200 21.29000
H  1.26100 8.79700 20.57200
H  0.60500 10.31600 21.48800
H  -0.21000 9.64800 20.06600
H  3.10400 12.02200 25.35900
H  1.48400 12.59500 25.32500
H  2.07200 11.37400 24.11100
H  0.32000 10.92100 30.34900
H  3.81500 11.51800 32.63300
H  3.38900 9.96700 33.49000
H  2.57800 11.58800 33.76600
Mg -1.63600 34.52500 26.71700
C  -3.34200 32.61500 29.06600
C  -0.77900 36.77400 29.17800
C  -0.80400 36.63000 24.29600
C  -3.10400 32.39300 24.17800
N  -1.90100 34.61000 28.92200
C  -2.53900 33.63200 29.66000
C  -2.46400 34.04200 31.17800
C  -1.75500 35.45300 31.16500
C  -1.49000 35.66300 29.67800
C  -2.68200 36.53600 31.88800
C  -1.73600 33.01700 32.18000
C  -2.40500 32.68300 33.58000
H  -1.63600 32.59300 34.88700
N  -0.68600 36.27900 26.70400
C  -0.35900 37.03900 27.82000
C  0.47800 38.14300 27.32100
C  0.44000 38.25000 25.93500
C  -0.37500 37.00900 25.57200
C  1.25700 38.94900 28.31500
C  1.03000 39.17200 24.98700
O  0.91600 38.99000 23.78700
C  1.95400 40.37500 25.48800
N  -1.77500 34.45000 24.53500
C  -1.44900 35.46300 23.81400
C  -1.70200 35.23700 22.29700
C  -2.27800 33.80600 22.26100
C  -2.32300 33.45500 23.76200
C  -2.59900 36.41900 21.60400
C  -1.59800 32.87400 21.30600
C  -0.38000 32.08000 21.90000
N  -2.79700 32.79000 26.62500
C  -3.32900 32.08100 25.53900
C  -4.14100 30.96400 26.04900
C  -4.22100 31.16900 27.42900
C  -3.39200 32.28100 27.76300
C  -4.89700 29.95200 25.23100
C  -4.77200 30.68700 28.66200
O  -5.53900 29.79500 28.82500
C  -4.08800 31.53800 29.80200
C  -5.15200 32.01600 30.76800
O  -5.92700 32.94700 30.66400
O  -5.20300 31.13100 31.79700
C  -6.19600 31.45100 32.83300
H  -0.52700 37.49300 29.96000
H  -0.52600 37.34000 23.51400
H  -3.59100 31.85500 23.36100
H  -3.48500 34.15200 31.54500
H  -0.82600 35.41300 31.73500
H  -3.54000 36.02100 32.32100
H  -3.09600 37.22300 31.14900
H  -1.99500 37.00000 32.59500
H  -0.71200 33.25000 32.47400
H  -1.78600 32.07200 31.63800
H  -3.05200 31.80800 33.51200
H  -3.03300 33.56400 33.70900
H  1.21500 38.65300 29.36300
H  0.88600 39.97200 28.27100
H  2.30100 38.93500 28.00100
H  2.80800 39.91700 25.98800
H  1.39600 40.91600 26.25200
H  2.46700 41.04100 24.79500
H  -0.75100 35.18500 21.76700
H  -3.30500 33.91000 21.90900
H  -2.02700 36.74600 20.73600
H  -2.70500 37.28300 22.26100
H  -3.54500 35.98600 21.27900
H  -1.26100 33.28500 20.35500
H  -2.36300 32.15300 21.01900
H  -0.07200 32.45600 22.87600
H  0.46700 32.25500 21.23600
H  -0.65300 31.04100 22.08700
H  -4.26600 29.78700 24.35800
H  -5.87100 30.33200 24.92100
H  -4.97200 28.97800 25.71400
H  -3.39000 30.82700 30.24500
H  -7.23500 31.26100 32.56300
H  -6.21200 32.48600 33.17700
H  -5.97300 30.85300 33.71600

