158

Mg 8.59800 47.73800 25.08700
C  6.49200 47.78600 27.88900
C  11.16100 48.82200 27.21000
C  10.68400 47.95500 22.38700
C  5.94000 47.31000 22.98000
N  8.74200 48.31700 27.38500
C  7.76800 48.12400 28.30400
C  8.32500 48.42400 29.75300
C  9.78600 48.88400 29.43700
C  9.93900 48.71900 27.88400
C  10.18600 50.25300 30.06700
C  8.10900 47.24500 30.74900
C  9.10000 47.02500 31.94300
H  8.41100 46.42000 33.22300
N  10.65200 48.30300 24.78900
C  11.53000 48.67500 25.75100
C  12.82600 48.74300 25.15700
C  12.74600 48.43200 23.80600
C  11.28200 48.27500 23.59900
C  14.03700 49.13000 26.03700
C  13.80600 48.48100 22.80900
O  13.62700 48.21700 21.62800
C  15.30800 48.45400 23.19800
N  8.29700 47.77200 22.87600
C  9.36300 47.69400 22.00600
C  8.83400 47.23800 20.61000
C  7.27800 47.00800 20.85000
C  7.11900 47.33000 22.30900
C  9.40300 48.13900 19.43100
C  6.93000 45.61400 20.43400
C  5.50300 45.36300 19.88200
N  6.68900 47.46800 25.34500
C  5.66100 47.43300 24.39900
C  4.34400 47.43700 25.04100
C  4.68500 47.38700 26.37900
C  6.08900 47.43500 26.52100
C  2.94800 47.46600 24.36000
C  4.07800 47.35200 27.71100
O  2.87800 47.27700 27.98600
C  5.23600 47.58400 28.74300
C  5.16100 46.42400 29.72700
O  5.41900 45.25600 29.47200
O  4.65100 46.84800 30.94500
C  4.26400 45.75300 31.84300
H  11.93700 49.15700 27.90100
H  11.38100 47.78300 21.56400
H  5.03400 47.16700 22.38700
H  7.79600 49.29500 30.14000
H  10.48900 48.12500 29.77900
H  9.31100 50.86500 30.28300
H  10.83800 50.75100 29.35000
H  10.81800 49.94500 30.90000
H  8.14100 46.31000 30.19000
H  7.12200 47.45800 31.16000
H  9.53400 48.00300 32.15300
H  9.96400 46.42500 31.65700
H  13.86600 49.33800 27.09300
H  14.37400 50.09700 25.66200
H  14.86300 48.43700 26.19300
H  15.72200 49.29100 23.76200
H  15.91400 48.27100 22.31100
H  15.46400 47.59200 23.84700
H  9.34100 46.29400 20.41000
H  6.73300 47.67600 20.18300
H  8.57900 48.76600 19.08900
H  9.73800 47.50000 18.61400
H  10.32800 48.61400 19.75900
H  6.86000 44.97400 21.31300
H  7.60700 45.26200 19.65600
H  5.51700 44.52300 19.18800
H  4.98400 46.23300 19.48200
H  4.95900 45.04400 20.77200
H  2.43400 46.57300 24.71500
H  3.06500 47.31000 23.28800
H  2.37400 48.38000 24.51500
H  5.13500 48.54700 29.24200
H  3.67300 46.18900 32.64900
H  5.08100 45.25800 32.36700
H  3.56500 45.06700 31.36400
Mg -0.20300 43.46700 24.72800
C  1.98900 43.10100 27.49000
C  -2.77600 42.72600 26.83100
C  -2.20900 43.57400 21.96500
C  2.65000 43.73500 22.59400
N  -0.38900 43.00500 26.87200
C  0.62400 43.04500 27.76100
C  0.06000 42.86600 29.19800
C  -1.43800 42.61900 29.05300
C  -1.56000 42.94100 27.53000
C  -1.88700 41.19200 29.55500
C  0.39100 44.03500 30.15500
C  0.42800 43.76100 31.68700
H  0.32900 42.33900 32.24600
N  -2.19300 43.09500 24.44500
C  -3.10100 42.83300 25.44000
C  -4.47300 42.73500 24.81900
C  -4.25100 42.87300 23.41800
C  -2.84700 43.26800 23.19700
C  -5.60700 42.25900 25.65000
C  -5.21800 42.53600 22.27500
O  -4.87600 42.64100 21.08300
C  -6.58800 42.16600 22.49000
N  0.18500 43.53400 22.59200
C  -0.80700 43.64100 21.64200
C  -0.30800 43.71500 20.13500
C  1.20300 43.93000 20.43400
C  1.39800 43.77500 21.96200
C  -0.67200 42.39000 19.50800
C  1.83400 45.17800 19.81800
C  1.62700 46.49700 20.61000
N  1.86900 43.46400 24.97500
C  2.89500 43.67200 24.05700
C  4.16500 43.61700 24.71900
C  3.84800 43.42400 26.06800
C  2.43500 43.30800 26.16800
C  5.51300 43.81500 24.09300
C  4.44200 43.09900 27.31000
O  5.57300 42.96400 27.62500
C  3.18400 42.91900 28.30500
C  3.41300 41.66400 29.13900
O  3.38800 40.52300 28.74700
O  3.64800 42.08300 30.43300
C  4.22500 41.07200 31.36400
H  -3.62700 42.45200 27.45800
H  -2.84300 43.66400 21.08000
H  3.57300 43.60300 22.02600
H  0.51800 41.98100 29.63900
H  -1.91700 43.42400 29.61200
H  -1.87400 40.37800 28.83100
H  -2.91300 41.24500 29.92100
H  -1.15100 40.78600 30.24900
H  -0.26400 44.87500 29.92400
H  1.36400 44.40100 29.82800
H  -0.42900 44.38200 31.94600
H  1.37600 44.16200 32.04600
H  -6.12000 43.15800 25.98900
H  -5.23500 41.60400 26.43800
H  -6.20700 41.62300 24.99900
H  -6.69500 41.15400 22.88100
H  -7.12500 42.28500 21.54900
H  -7.00100 42.84100 23.24000
H  -0.83000 44.58400 19.73300
H  1.79200 43.12500 19.99400
H  -0.39400 41.54900 20.14300
H  -0.11100 42.33900 18.57400
H  -1.75100 42.34200 19.36200
H  1.37500 45.40300 18.85500
H  2.87900 44.97500 19.58300
H  2.55500 46.81400 21.08500
H  0.90500 46.27100 21.39500
H  1.16900 47.26300 19.98400
H  5.65900 43.44900 23.07700
H  6.18500 43.20900 24.70000
H  5.73700 44.87200 24.23700
H  3.22000 43.77200 28.98300
H  3.57300 40.20700 31.47900
H  4.36400 41.51900 32.34900
H  5.17900 40.73200 30.95900

