158

Mg -9.86600 40.29600 42.59200
C  -9.16000 36.89800 41.78600
C  -7.02400 41.18200 40.93600
C  -10.90800 43.39800 42.96000
C  -13.08900 39.11800 43.76500
N  -8.33700 39.14900 41.40500
C  -8.17800 37.78100 41.29100
C  -6.93100 37.46300 40.43600
C  -6.22700 38.84900 40.39800
C  -7.25200 39.81100 40.93300
C  -4.89500 38.89500 41.22900
C  -7.33600 36.82400 38.96800
C  -6.38500 35.76200 38.38300
H  -5.53700 36.08300 37.13300
N  -9.11700 42.05600 41.98400
C  -7.91200 42.25500 41.39700
C  -7.57400 43.64900 41.44900
C  -8.71000 44.30100 41.90300
C  -9.62800 43.18100 42.30500
C  -6.38600 44.17000 40.68700
C  -8.94000 45.84500 41.89800
O  -8.10500 46.59300 41.44400
C  -10.21900 46.50400 42.45500
N  -11.70100 41.11000 43.36000
C  -11.82600 42.48300 43.42800
C  -13.18600 42.83000 44.04400
C  -13.84100 41.48200 44.24000
C  -12.86700 40.52200 43.74300
C  -12.95600 43.65200 45.32100
C  -15.29900 41.53900 43.61800
C  -16.29600 42.14900 44.61600
N  -10.95600 38.42000 42.69600
C  -12.17900 38.14400 43.25600
C  -12.38200 36.69000 43.27400
C  -11.23500 36.13900 42.69000
C  -10.39600 37.26200 42.33000
C  -13.46600 35.90100 43.94200
C  -10.55000 34.92200 42.38300
O  -10.79200 33.74100 42.58900
C  -9.20600 35.35800 41.68700
C  -8.04200 34.64000 42.30600
O  -7.86000 34.39400 43.55100
O  -7.25200 34.08900 41.33900
C  -6.09100 33.34100 41.71600
H  -6.06000 41.55200 40.58100
H  -11.22000 44.42900 43.14000
H  -14.06300 38.79600 44.14000
H  -6.27400 36.77400 40.96700
H  -6.05100 39.08000 39.34700
H  -4.89000 39.80400 41.83000
H  -4.07200 38.90300 40.51400
H  -4.88300 38.11400 41.98800
H  -7.34600 37.58600 38.18800
H  -8.32600 36.37500 39.04000
H  -6.98000 34.87500 38.16800
H  -5.65200 35.51000 39.14900
H  -6.48300 45.18400 40.29800
H  -6.11500 43.63300 39.77800
H  -5.54600 44.10400 41.37700
H  -10.34100 46.26100 43.51000
H  -11.07500 46.11000 41.90700
H  -10.19300 47.58900 42.35900
H  -13.70700 43.43900 43.30400
H  -14.07300 41.50700 45.30500
H  -12.02500 44.19900 45.17400
H  -12.80400 43.01200 46.19100
H  -13.76600 44.32500 45.60100
H  -15.64100 40.53900 43.35000
H  -15.33300 42.14100 42.71000
H  -15.79800 42.49800 45.52000
H  -16.96800 41.35200 44.93400
H  -16.88000 42.99300 44.24700
H  -14.38200 36.08200 43.38000
H  -13.58400 36.36400 44.92100
H  -13.36200 34.81900 44.02400
H  -9.26000 35.23100 40.60600
H  -5.88700 33.36700 42.78700
H  -5.20600 33.72000 41.20400
H  -6.20600 32.31300 41.37300
Mg -1.68300 35.09000 26.75700
C  -3.00700 32.74800 29.16000
C  -0.91500 37.16700 29.23100
C  -0.85300 37.22300 24.25200
C  -2.88400 32.93000 24.30300
N  -1.96200 34.94400 28.97100
C  -2.38400 33.85400 29.71300
C  -2.14800 34.16800 31.22900
C  -1.66000 35.66400 31.23200
C  -1.47700 35.98700 29.70900
C  -2.59500 36.73600 31.96100
C  -1.33600 33.11100 31.93100
C  -1.95400 32.63700 33.32900
H  -0.97200 32.44800 34.54300
N  -0.84000 36.87700 26.78500
C  -0.52400 37.56300 27.90400
C  0.08400 38.76700 27.46800
C  0.00900 38.82800 26.03800
C  -0.56700 37.60200 25.61500
C  0.59200 39.84800 28.43700
C  0.49000 39.97500 25.08400
O  0.49800 39.94000 23.86600
C  1.06500 41.27800 25.71100
N  -1.75000 34.99100 24.59400
C  -1.42100 36.02800 23.81000
C  -1.90000 35.74700 22.28200
C  -2.17600 34.21300 22.30800
C  -2.30400 34.05800 23.79700
C  -3.25000 36.38600 21.83100
C  -0.94900 33.34400 21.80900
C  0.24300 33.04400 22.77900
N  -2.84700 33.29800 26.65700
C  -3.11700 32.54500 25.57200
C  -3.78100 31.35000 25.96700
C  -3.84400 31.40200 27.37500
C  -3.19400 32.59300 27.75200
C  -4.36100 30.24500 25.08700
C  -4.32200 30.76300 28.67700
O  -4.86500 29.74200 28.92000
C  -3.75800 31.60700 29.89000
C  -4.88100 32.24500 30.68100
O  -5.41200 33.33100 30.43900
O  -5.20400 31.44900 31.69400
C  -6.08500 32.04200 32.68400
H  -0.65300 37.89300 30.00400
H  -0.62400 37.89500 23.42300
H  -3.21900 32.18100 23.58300
H  -3.12000 34.11700 31.72000
H  -0.68000 35.81200 31.68600
H  -3.35900 36.29300 32.60000
H  -2.94700 37.46900 31.23500
H  -1.89100 37.16800 32.67200
H  -0.34100 33.55000 32.00600
H  -1.25400 32.24500 31.27500
H  -2.44300 31.67200 33.19400
H  -2.73200 33.35100 33.59900
H  1.58500 40.16100 28.11500
H  0.60700 39.48800 29.46500
H  -0.00100 40.76200 28.43100
H  0.99800 41.98900 24.88700
H  2.11000 41.19500 26.00800
H  0.43800 41.72900 26.48100
H  -1.14600 35.88500 21.50700
H  -3.06000 33.92000 21.74200
H  -3.22300 36.50900 20.74900
H  -3.26700 37.42000 22.17500
H  -4.06300 35.78800 22.24500
H  -0.73600 33.71700 20.80700
H  -1.30400 32.35300 21.52600
H  0.48400 33.86000 23.46000
H  1.16600 32.86100 22.22900
H  0.07700 32.16800 23.40600
H  -5.42400 30.37600 24.88700
H  -4.25400 29.30100 25.62200
H  -3.74500 30.14500 24.19300
H  -3.02900 31.17700 30.57700
H  -5.48600 32.69900 33.31500
H  -6.50500 31.25800 33.31400
H  -6.85900 32.64600 32.21000

