158

Mg 24.75300 1.58600 29.98600
C  26.56900 1.56500 32.97600
C  21.84300 1.74800 31.92500
C  22.99000 1.17900 27.19500
C  27.72600 0.90400 28.15900
N  24.35000 1.90600 32.18100
C  25.24000 1.93800 33.21600
C  24.56100 2.00100 34.58900
C  23.03200 1.84800 34.23500
C  23.06200 1.79900 32.68000
C  22.21400 0.70000 34.86400
C  25.04300 3.24600 35.50500
C  26.04500 3.05700 36.74900
H  25.73900 3.89500 38.02100
N  22.68900 1.50700 29.61200
C  21.64300 1.69900 30.54100
C  20.38800 1.76300 29.80400
C  20.76400 1.66400 28.38500
C  22.21300 1.51200 28.30500
C  19.10700 2.08800 30.48200
C  19.79200 1.64700 27.21400
O  20.15800 1.82700 26.03100
C  18.27700 1.60700 27.42200
N  25.32400 1.16200 27.94300
C  24.38200 1.13300 26.98000
C  25.03900 0.81700 25.61500
C  26.53600 0.77300 25.94800
C  26.58200 0.92400 27.42400
C  24.32100 -0.46000 25.06100
C  27.39800 1.82700 25.26300
C  27.12000 3.36200 25.50800
N  26.71400 1.16200 30.37400
C  27.82900 1.00200 29.55400
C  28.98300 0.92500 30.37700
C  28.51400 1.15300 31.64800
C  27.14900 1.27500 31.69100
C  30.39000 0.94300 29.96700
C  28.99500 1.37300 32.95800
O  30.12300 1.27200 33.40200
C  27.80900 1.51700 33.91000
C  27.68700 0.51100 34.91400
O  26.90500 -0.43700 34.83800
O  28.58400 0.71200 35.89000
C  28.42300 -0.17600 37.01600
H  20.99400 1.80900 32.60900
H  22.28800 0.94100 26.39400
H  28.62900 0.79600 27.55500
H  24.96100 1.08700 35.02900
H  22.48200 2.73600 34.54500
H  21.82500 0.07400 34.06100
H  21.31800 1.14700 35.29600
H  22.87200 0.07400 35.46600
H  24.12900 3.65600 35.93500
H  25.57200 3.93000 34.84100
H  26.97700 3.42500 36.32200
H  26.27500 2.01100 36.95400
H  18.78700 2.97700 29.93900
H  19.27300 2.37700 31.52000
H  18.45300 1.21600 30.50000
H  17.87200 2.59800 27.62300
H  18.04200 0.85700 28.17800
H  17.77500 1.31100 26.50100
H  24.74200 1.60100 24.91700
H  26.95000 -0.19100 25.65200
H  23.72700 -0.95100 25.83100
H  25.21200 -1.03700 24.81400
H  23.84000 -0.17200 24.12600
H  27.15800 1.72500 24.20500
H  28.40900 1.48500 25.48400
H  27.88900 3.80800 26.13800
H  26.22800 3.55000 26.10700
H  27.06500 3.86200 24.54200
H  30.75300 -0.07500 29.82100
H  30.91400 1.35200 30.83100
H  30.57700 1.40600 28.99800
H  28.16100 2.48000 34.28000
H  28.89600 -1.12700 36.76800
H  27.43100 -0.45300 37.37400
H  28.93600 0.29700 37.85400
Mg 35.80900 49.31800 24.75400
C  36.06100 47.38100 27.65100
C  34.74000 51.86200 26.81500
C  34.88700 51.02200 21.94300
C  36.76900 46.55800 22.90500
N  35.31200 49.52000 26.91600
C  35.50900 48.63400 27.92700
C  35.23300 49.23600 29.24300
C  34.66100 50.64400 28.96300
C  34.90000 50.68400 27.46000
C  33.11900 50.82100 29.34700
C  36.63000 49.41000 30.03200
C  36.54300 49.46100 31.58700
H  35.13800 49.45400 32.27200
N  34.98400 51.16300 24.38700
C  34.69500 52.10900 25.41100
C  34.24700 53.37000 24.78100
C  34.24900 53.09800 23.31900
C  34.69600 51.71400 23.16900
C  33.78600 54.53900 25.48300
C  33.90900 54.08100 22.20500
O  33.73200 53.79300 21.02800
C  33.68600 55.55200 22.62900
N  36.02400 48.91400 22.70300
C  35.61800 49.78800 21.75800
C  35.89900 49.29800 20.33000
C  36.36000 47.80700 20.59900
C  36.47200 47.74200 22.13900
C  34.62900 49.30900 19.42400
C  37.75200 47.37700 19.92900
C  39.06000 47.85500 20.52700
N  36.37400 47.41400 25.14200
C  36.90000 46.42900 24.31000
C  37.35100 45.27400 25.06000
C  37.01900 45.58800 26.37200
C  36.43000 46.89800 26.38400
C  37.93600 44.09400 24.48300
C  37.08700 45.07900 27.67500
O  37.51800 43.96700 28.08900
C  36.47500 46.22500 28.56500
C  35.32700 45.64800 29.29600
O  34.15500 45.59200 28.93800
O  35.80600 45.30300 30.56900
C  34.81500 45.09900 31.62500
H  34.76000 52.67400 27.54500
H  34.68000 51.61100 21.04700
H  37.15100 45.72300 22.31400
H  34.55700 48.61700 29.83200
H  35.18100 51.43300 29.50600
H  32.61300 49.95100 29.76600
H  32.52400 50.95900 28.44500
H  33.04300 51.71500 29.96500
H  37.12400 50.27200 29.58400
H  37.13700 48.47300 29.80000
H  37.02100 50.40500 31.85100
H  37.15700 48.65300 31.98500
H  33.73700 54.46600 26.57000
H  32.79500 54.82700 25.13500
H  34.42900 55.39500 25.27800
H  33.66200 56.03000 21.64900
H  34.51100 55.98900 23.19200
H  32.68700 55.51300 23.06100
H  36.64700 50.01700 19.99700
H  35.61100 47.10700 20.22900
H  33.73000 48.95200 19.92600
H  34.83500 48.70000 18.54400
H  34.42100 50.32800 19.09600
H  37.66200 47.64000 18.87500
H  37.70200 46.28900 19.97800
H  39.55000 48.37400 19.70400
H  39.60300 46.97200 20.86600
H  38.96300 48.57600 21.33800
H  37.10700 43.38800 24.51200
H  38.67900 43.73500 25.19500
H  38.22800 44.07600 23.43300
H  37.34300 46.43200 29.19200
H  34.77400 44.03100 31.83800
H  33.80900 45.39100 31.32200
H  35.07400 45.64800 32.53000

