158

Mg 9.96000 48.24700 25.67800
C  8.09500 48.55000 28.67300
C  12.38200 50.11000 27.09700
C  11.58100 48.14700 22.73700
C  7.11200 46.95400 24.14100
N  10.23000 49.17800 27.67500
C  9.39200 49.10500 28.75800
C  10.03900 49.62800 29.99200
C  11.29800 50.40700 29.43000
C  11.35900 49.83300 27.98600
C  11.17300 51.98100 29.51300
C  10.45000 48.59700 31.11600
C  9.68500 48.54500 32.46600
H  10.28400 49.24500 33.73100
N  11.77100 48.93300 25.03700
C  12.67400 49.59600 25.76000
C  13.92500 49.73800 25.10800
C  13.76500 49.01900 23.85400
C  12.31800 48.65900 23.80700
C  15.17700 50.25900 25.83700
C  14.77600 48.68300 22.86700
O  14.41900 48.16600 21.81200
C  16.21100 49.02600 23.12700
N  9.32300 47.84200 23.64500
C  10.30000 47.72200 22.72400
C  9.81700 46.87200 21.56100
C  8.47400 46.34200 22.06400
C  8.29200 47.08400 23.40600
C  9.72300 47.45900 20.12000
C  8.38600 44.78900 22.18800
C  9.31700 43.99300 23.13300
N  7.95900 47.82100 26.23700
C  6.94600 47.33200 25.48500
C  5.78500 47.24000 26.35200
C  6.19700 47.62400 27.60600
C  7.51500 47.95500 27.51100
C  4.34800 46.94300 25.88000
C  5.79600 47.85400 28.94100
O  4.66100 47.77800 29.44900
C  7.05000 48.28300 29.77500
C  7.33100 47.09100 30.60100
O  8.16800 46.23300 30.34400
O  6.47300 46.96300 31.76000
C  6.81100 45.88300 32.71200
H  13.16300 50.80000 27.42200
H  12.19700 47.80600 21.90200
H  6.23600 46.40300 23.79100
H  9.27700 50.20800 30.51300
H  12.19300 50.13600 29.99100
H  11.16600 52.46200 28.53500
H  11.93800 52.42800 30.14900
H  10.23100 52.23000 30.00100
H  11.47800 48.86900 31.35300
H  10.36500 47.62700 30.62500
H  9.65100 47.48600 32.72200
H  8.65800 48.90100 32.39300
H  15.90000 50.80800 25.23300
H  15.64000 49.45200 26.40400
H  14.99600 51.09400 26.51400
H  16.46600 48.67500 24.12700
H  16.22600 50.09500 22.91600
H  16.79500 48.57700 22.32300
H  10.45000 45.98600 21.51600
H  7.63200 46.68900 21.46400
H  9.92100 48.52300 20.25200
H  8.70100 47.36900 19.75200
H  10.30800 47.09600 19.27500
H  8.61700 44.27500 21.25500
H  7.39100 44.37600 22.35500
H  9.82600 44.73000 23.75300
H  10.01100 43.30500 22.65000
H  8.81500 43.45000 23.93400
H  3.88100 47.83100 25.45300
H  3.72700 46.55400 26.68600
H  4.47000 46.13000 25.16500
H  6.80500 49.10000 30.45400
H  6.15800 45.01000 32.68800
H  6.72300 46.37800 33.67900
H  7.85200 45.56400 32.66300
Mg -10.33000 16.82500 40.98700
C  -6.77900 16.64100 41.09300
C  -9.95300 20.36100 40.58800
C  -13.50800 17.11000 40.11200
C  -10.33200 13.23300 40.79900
N  -8.61300 18.27500 40.98000
C  -7.29300 17.91700 40.88700
C  -6.41300 19.15200 40.55900
C  -7.39300 20.32300 40.96300
C  -8.74700 19.59200 40.77800
C  -7.10100 20.94700 42.33900
C  -6.02100 19.11100 39.02400
C  -4.63900 18.69300 38.57200
H  -4.40700 17.47000 37.74700
N  -11.61800 18.56200 40.43900
C  -11.25500 19.89200 40.40700
C  -12.42100 20.65100 40.07400
C  -13.53100 19.78600 39.95300
C  -12.92600 18.42700 40.17300
C  -12.36400 22.12300 39.93500
C  -14.98100 20.13000 39.59200
O  -15.36100 21.31400 39.57900
C  -15.97200 19.06500 39.21400
N  -11.75700 15.38200 40.48700
C  -13.02600 15.77600 40.28700
C  -13.99300 14.53700 40.27700
C  -12.91900 13.32200 40.26200
C  -11.58400 13.94600 40.53000
C  -15.03500 14.53000 41.36500
C  -12.79900 12.70500 38.80800
C  -13.90200 11.74000 38.41900
N  -8.93300 15.26300 41.16200
C  -9.06000 13.90100 41.12000
C  -7.74700 13.25100 41.24300
C  -6.87200 14.30300 41.21600
C  -7.58800 15.50800 41.17200
C  -7.43400 11.77400 41.28300
C  -5.46900 14.61400 41.11600
O  -4.51400 13.88400 40.98300
C  -5.34000 16.15400 41.17500
C  -4.82000 16.54100 42.53000
O  -5.33900 16.33200 43.62400
O  -3.54400 17.06600 42.29600
C  -2.62500 17.29100 43.41600
H  -9.87800 21.42600 40.35800
H  -14.57000 17.19000 39.87100
H  -10.43600 12.15300 40.92900
H  -5.46300 19.13500 41.09400
H  -7.29600 21.14000 40.24800
H  -7.73200 20.39800 43.03700
H  -7.36400 21.99600 42.47200
H  -6.03600 20.80900 42.52700
H  -6.18000 20.11300 38.62500
H  -6.69000 18.41200 38.52200
H  -3.95700 18.65400 39.42100
H  -4.24400 19.49500 37.94900
H  -13.31900 22.64700 39.93700
H  -11.96300 22.40300 38.96100
H  -11.76000 22.60300 40.70500
H  -15.41000 18.35600 38.60700
H  -16.93300 19.39100 38.81700
H  -16.22900 18.66300 40.19400
H  -14.46500 14.63100 39.29900
H  -13.28700 12.54800 40.93500
H  -15.06100 15.42400 41.98700
H  -14.89200 13.72900 42.09000
H  -16.07400 14.31100 41.11800
H  -11.86600 12.19000 38.57600
H  -12.95700 13.45300 38.03100
H  -13.41700 10.92500 37.88200
H  -14.65200 12.17700 37.75900
H  -14.35700 11.33500 39.32200
H  -6.65600 11.64200 42.03500
H  -6.97200 11.58400 40.31400
H  -8.45500 11.41800 41.41700
H  -4.72000 16.59200 40.39300
H  -1.97100 16.45300 43.65700
H  -3.10700 17.75300 44.27800
H  -2.07100 18.17900 43.11300

