158

Mg 35.70800 0.34600 30.20900
C  33.49300 1.78100 32.39800
C  38.10800 0.57100 32.82700
C  38.25700 -0.63500 28.08000
C  33.69700 0.86300 27.42600
N  35.74000 1.06100 32.31000
C  34.64500 1.49700 33.03800
C  34.92600 1.61000 34.49900
C  36.59800 1.67400 34.48900
C  36.87000 1.01000 33.13500
C  37.32000 3.09900 34.69000
C  34.36700 0.45500 35.32300
C  33.38500 0.83700 36.41400
H  33.59200 2.13800 37.22400
N  37.85800 -0.16000 30.47800
C  38.58100 0.00500 31.59800
C  39.97500 -0.42500 31.34800
C  39.94200 -0.98400 30.02200
C  38.66000 -0.53900 29.44100
C  41.06700 -0.45100 32.37300
C  40.98900 -1.72800 29.17700
O  40.79900 -2.13800 28.00600
C  42.26400 -2.09200 29.87300
N  36.08300 0.51100 27.97100
C  37.12400 -0.11400 27.41100
C  36.95800 -0.28700 25.89100
C  35.40300 0.10000 25.63600
C  35.03200 0.48400 27.11500
C  37.87200 0.52100 25.06000
C  34.47000 -0.97600 25.15700
C  33.43800 -0.52500 24.06500
N  33.95800 1.14000 29.87100
C  33.19200 1.20100 28.74700
C  31.85500 1.71800 29.06300
C  31.93600 1.93900 30.48200
C  33.23200 1.58600 30.94400
C  30.77200 1.87200 28.12100
C  31.26000 2.46400 31.61900
O  30.16600 2.95100 31.71500
C  32.20300 2.35000 32.88000
C  32.30400 3.61800 33.58000
O  33.05800 4.54400 33.27400
O  31.39400 3.76400 34.47800
C  31.35500 5.02800 35.29200
H  38.89600 0.56100 33.58200
H  38.81800 -1.23700 27.36100
H  32.97000 0.76700 26.61700
H  34.39900 2.49500 34.85600
H  36.99000 1.02900 35.27600
H  37.93500 3.51000 33.89000
H  37.85300 3.03000 35.63800
H  36.52500 3.81500 34.90100
H  35.13100 -0.09100 35.87600
H  33.63900 -0.09300 34.72400
H  33.47400 0.07600 37.19000
H  32.35900 0.81700 36.04800
H  41.26900 -1.52100 32.41000
H  40.66400 -0.21400 33.35800
H  41.96100 0.14200 32.18000
H  42.71100 -1.12200 30.08800
H  42.84900 -2.49200 29.04400
H  42.02600 -2.65600 30.77400
H  37.04600 -1.31100 25.52900
H  35.36600 0.98400 24.99900
H  38.82600 -0.00800 25.05300
H  37.92900 1.55500 25.40000
H  37.47400 0.49300 24.04600
H  34.04000 -1.41300 26.05700
H  35.02100 -1.82700 24.75800
H  32.46800 -0.74200 24.51200
H  33.52700 -1.17500 23.19400
H  33.29700 0.54300 23.90000
H  30.73500 0.88000 27.67200
H  31.06600 2.67500 27.44500
H  29.83400 2.06900 28.64100
H  31.74600 1.72500 33.64800
H  30.66300 5.85400 35.12900
H  32.34100 5.48300 35.38900
H  31.04600 4.66400 36.27100
Mg 47.52100 45.09800 42.40000
C  44.17400 44.33300 42.63600
C  48.13800 41.68600 41.76100
C  50.75800 45.84500 41.83000
C  46.69100 48.45500 42.29800
N  46.26100 43.29200 41.99900
C  44.97400 43.18900 42.29000
C  44.45900 41.78400 42.31000
C  45.74900 40.92000 42.16100
C  46.77300 42.00700 41.98100
C  46.01900 39.89600 43.25500
C  43.32000 41.49100 41.32500
C  43.17100 42.14200 39.98700
H  43.74100 41.56400 38.66800
N  49.26900 43.94000 42.00000
C  49.27800 42.57500 41.77600
C  50.67800 42.19500 41.53000
C  51.48800 43.36000 41.59100
C  50.50800 44.49200 41.77300
C  51.03700 40.77200 41.33400
C  52.96500 43.37900 41.47900
O  53.53400 42.36500 41.07900
C  53.79000 44.57300 41.93900
N  48.53700 46.87800 41.89100
C  49.91600 46.93200 41.91800
C  50.54800 48.38000 41.84200
C  49.14800 49.23300 41.89600
C  48.06400 48.12000 42.02400
C  51.56100 48.71900 42.86500
C  49.03900 50.13700 40.64100
C  48.31900 51.47800 40.77800
N  45.81600 46.22200 42.46500
C  45.60800 47.59100 42.45000
C  44.17800 47.85500 42.55400
C  43.58400 46.61900 42.78100
C  44.58300 45.63300 42.60500
C  43.61300 49.18300 42.52300
C  42.32000 45.91400 42.90200
O  41.14500 46.40700 42.89700
C  42.67700 44.41900 42.94600
C  42.26400 43.75800 44.19500
O  41.61700 42.72400 44.20800
O  42.66100 44.46900 45.30100
C  42.16600 43.93300 46.56500
H  48.32300 40.61200 41.83400
H  51.82500 46.07300 41.78400
H  46.54500 49.53400 42.37000
H  43.98200 41.69500 43.28600
H  45.77800 40.38500 41.21200
H  45.99700 38.92000 42.77100
H  45.35100 39.88400 44.11700
H  47.01800 39.94100 43.68700
H  42.34100 41.62000 41.78700
H  43.41300 40.42300 41.12800
H  43.83300 43.00000 40.09800
H  42.18900 42.59000 39.83300
H  51.84300 40.63800 40.61100
H  50.17000 40.29700 40.87500
H  51.30300 40.20400 42.22500
H  53.57700 45.38800 41.24700
H  54.82900 44.24600 41.90100
H  53.36900 44.92400 42.88100
H  51.00600 48.39500 40.85200
H  49.10000 49.76400 42.84600
H  52.35800 49.20600 42.30100
H  52.06500 47.86400 43.31500
H  51.15600 49.37800 43.63300
H  48.47100 49.59100 39.88700
H  50.05800 50.31000 40.29700
H  47.39700 51.37200 40.20600
H  48.86400 52.35900 40.43900
H  47.94000 51.70300 41.77500
H  44.04100 49.76400 41.70600
H  43.88100 49.81600 43.37000
H  42.53200 49.15900 42.38300
H  42.11600 44.03400 42.09400
H  43.01100 43.95000 47.25400
H  41.79100 42.92000 46.41400
H  41.45000 44.59400 47.05200

