158

Mg 40.81300 10.30200 30.42700
C  42.71300 11.65600 33.21800
C  38.60300 9.09500 32.71500
C  39.10100 9.01500 27.93900
C  43.37800 11.16700 28.37700
N  40.74800 10.32300 32.76100
C  41.53100 11.06400 33.67700
C  40.87800 10.97600 35.03800
C  39.58700 10.07700 34.89100
C  39.67500 9.74600 33.35600
C  39.46300 8.73500 35.64800
C  40.63500 12.34200 35.67200
C  39.66800 12.45000 36.91000
H  39.85800 13.44500 37.98800
N  39.14300 9.27500 30.32900
C  38.34300 8.84700 31.37100
C  37.16400 8.17800 30.87000
C  37.18600 8.21500 29.43600
C  38.52400 8.83500 29.17900
C  36.14200 7.56700 31.81300
C  36.16200 7.70600 28.36400
O  36.30100 7.90000 27.16500
C  34.85500 7.03800 28.80500
N  41.25500 9.97200 28.45900
C  40.33000 9.55000 27.52700
C  40.81200 9.55800 26.09900
C  42.27500 10.28100 26.31300
C  42.34000 10.42700 27.86900
C  40.79200 8.20300 25.32400
C  42.32700 11.56400 25.54100
C  41.58000 12.82800 25.95800
N  42.62600 11.23400 30.66200
C  43.62300 11.46800 29.72900
C  44.69200 12.19900 30.30800
C  44.36000 12.29900 31.64200
C  43.11800 11.63300 31.81600
C  45.98000 12.64700 29.67400
C  44.84300 12.78500 32.85600
O  45.92100 13.29100 33.08400
C  43.76600 12.49600 33.99700
C  44.39900 11.71400 35.02000
O  44.77600 10.59200 34.79100
O  44.49100 12.41100 36.22800
C  44.92000 11.55000 37.35700
H  37.77700 8.78000 33.35700
H  38.59500 8.59000 27.06900
H  44.10000 11.47900 27.61900
H  41.54800 10.48900 35.74700
H  38.64500 10.61600 34.99500
H  39.15100 7.91000 35.00900
H  38.57600 8.79000 36.27900
H  40.29100 8.38800 36.26600
H  40.35200 13.03500 34.87900
H  41.53900 12.78100 36.09400
H  39.49100 11.47000 37.35200
H  38.77000 12.66200 36.33000
H  35.84900 8.20900 32.64400
H  36.62300 6.80000 32.42000
H  35.28700 7.16300 31.27100
H  34.26900 7.76000 29.37400
H  35.08900 6.16200 29.40900
H  34.26100 6.80800 27.92000
H  40.22100 10.27000 25.52200
H  43.10700 9.66500 25.97200
H  41.69200 8.00100 24.74300
H  39.86400 8.22200 24.75300
H  40.70800 7.37000 26.02100
H  41.90100 11.36400 24.55700
H  43.40500 11.62200 25.39200
H  41.09400 12.78300 26.93300
H  40.76500 12.99800 25.25600
H  42.17700 13.73400 25.85300
H  46.04200 12.11300 28.72600
H  46.72300 12.33500 30.40700
H  45.85600 13.72000 29.52200
H  43.35600 13.44300 34.34800
H  44.43400 11.85700 38.28300
H  45.99600 11.40000 37.45500
H  44.59700 10.51900 37.21000
Mg 48.10600 17.13800 29.45300
C  45.80700 17.06100 32.01800
C  50.21700 19.11300 31.23900
C  50.04800 17.46900 26.72900
C  45.42900 15.84800 27.32000
N  48.10800 17.76200 31.48000
C  47.03500 17.69100 32.33600
C  47.49100 18.16500 33.79400
C  48.92600 18.80200 33.50700
C  49.16700 18.55800 31.96200
C  49.12700 20.22700 33.96200
C  47.43200 16.94500 34.80100
C  47.36300 17.21800 36.34200
H  47.44100 18.61600 37.02100
N  49.90800 18.21100 29.02100
C  50.58900 18.93100 29.93600
C  51.87700 19.30500 29.35700
C  51.87700 18.84000 28.01500
C  50.58900 18.13600 27.82500
C  52.91700 20.07500 30.03000
C  52.85600 19.06000 26.91900
O  52.74400 18.74500 25.73700
C  54.20100 19.64100 27.31300
N  47.77900 16.65200 27.38600
C  48.80800 16.89800 26.46000
C  48.41000 16.39700 25.07500
C  47.02100 15.66300 25.27700
C  46.71900 16.02700 26.74000
C  48.23300 17.44500 23.92800
C  47.16400 14.17300 25.06000
C  45.86000 13.38500 25.06400
N  46.08300 16.40200 29.61900
C  45.12000 16.07400 28.68600
C  43.86900 15.74800 29.28500
C  44.08100 16.17800 30.63000
C  45.46900 16.60500 30.76900
C  42.60300 15.29700 28.67400
C  43.46700 16.40900 31.82000
O  42.32300 16.13600 32.15000
C  44.50900 16.80800 32.82200
C  43.91500 17.92200 33.65200
O  43.89800 19.12000 33.38400
O  43.51000 17.36600 34.82800
C  42.86100 18.24200 35.77000
H  50.86100 19.71100 31.88700
H  50.67500 17.61000 25.84600
H  44.65100 15.32100 26.76300
H  46.91400 18.99100 34.21100
H  49.76700 18.34700 34.03100
H  49.20900 20.84800 33.07000
H  49.99200 20.41000 34.59800
H  48.25300 20.55700 34.52400
H  48.29600 16.31000 34.60100
H  46.66700 16.22400 34.51300
H  48.12700 16.55000 36.73800
H  46.41800 16.80000 36.68900
H  53.29600 20.99500 29.58500
H  53.72900 19.41100 30.32600
H  52.60700 20.40700 31.02000
H  54.33500 20.63500 27.74000
H  54.76500 19.63900 26.38000
H  54.76900 18.98500 27.97200
H  49.14700 15.72300 24.63900
H  46.24800 16.04600 24.61100
H  49.16100 17.40100 23.35800
H  48.19500 18.45000 24.34800
H  47.38900 17.28200 23.25800
H  47.66800 13.77300 25.94000
H  47.69200 13.90600 24.14400
H  44.95200 13.96500 24.90000
H  45.75500 12.92600 26.04700
H  45.91600 12.63900 24.27100
H  42.90000 14.50500 27.98700
H  42.15900 16.15400 28.16800
H  41.83200 14.81200 29.27200
H  44.71400 16.02300 33.55100
H  41.79500 18.22200 35.54200
H  43.07700 19.31000 35.79300
H  42.93700 17.87500 36.79400

