158

Mg 17.12900 -1.59200 27.79700
C  15.98700 0.21300 30.53500
C  18.61900 -3.82600 30.11100
C  18.43200 -3.40700 25.25600
C  15.48800 0.50100 25.60900
N  17.35100 -1.76400 30.09500
C  16.76400 -0.88900 30.93200
C  17.06600 -1.26900 32.43100
C  18.02400 -2.48400 32.28400
C  18.03700 -2.73600 30.74300
C  19.52000 -2.43400 32.73600
C  15.88300 -1.51000 33.37000
C  16.09600 -1.59100 34.96400
H  17.25700 -0.71600 35.48300
N  18.45700 -3.24800 27.73300
C  18.91300 -4.06600 28.74700
C  19.60200 -5.23300 28.26100
C  19.58300 -5.12600 26.84200
C  18.78700 -3.89700 26.52300
C  20.31300 -6.25400 29.19100
C  20.11500 -6.02900 25.75100
O  20.18300 -5.68900 24.58200
C  20.77700 -7.34300 26.15700
N  16.96800 -1.56400 25.76600
C  17.66800 -2.27400 24.92900
C  17.32100 -1.92700 23.44500
C  16.46100 -0.63600 23.64300
C  16.26400 -0.55600 25.11300
C  18.58500 -1.63700 22.66000
C  15.15600 -0.52500 22.68300
C  13.97200 -1.44000 23.00000
N  15.87200 -0.04700 28.03500
C  15.21300 0.69600 27.03000
C  14.58800 1.83300 27.59500
C  14.82400 1.60100 29.01400
C  15.61700 0.51300 29.21100
C  13.74000 2.85000 26.89700
C  14.35800 2.14900 30.30700
O  13.54700 3.00400 30.58100
C  15.32100 1.34300 31.32400
C  16.40400 2.29700 31.78500
O  17.54500 2.33800 31.35600
O  16.03800 2.96900 32.93300
C  17.08800 3.64500 33.66200
H  18.95900 -4.50200 30.89700
H  18.68800 -3.97900 24.36200
H  15.03800 1.12200 24.83200
H  17.59900 -0.46400 32.93700
H  17.67900 -3.39100 32.77900
H  20.16900 -2.87600 31.98100
H  19.55600 -2.97000 33.68400
H  19.84200 -1.39700 32.83200
H  15.44700 -2.41000 32.93800
H  15.09900 -0.79200 33.13000
H  16.16700 -2.66900 35.11000
H  15.14200 -1.28100 35.39000
H  19.85600 -7.23700 29.06600
H  20.19400 -6.08100 30.26100
H  21.38400 -6.22700 28.99100
H  21.14100 -7.80000 25.23600
H  20.08500 -7.97500 26.71200
H  21.64500 -7.21800 26.80400
H  16.76900 -2.68100 22.88400
H  17.03100 0.27400 23.45500
H  18.34000 -1.43300 21.61700
H  19.19700 -2.53800 22.70800
H  19.22700 -0.88400 23.11700
H  15.58900 -0.68600 21.69500
H  14.76700 0.48200 22.83000
H  14.26600 -2.13900 23.78400
H  13.59900 -1.97900 22.12900
H  13.14000 -0.86200 23.40000
H  13.97200 3.82700 27.32100
H  12.70600 2.50500 26.91100
H  13.97900 2.84000 25.83400
H  14.80400 1.07200 32.24500
H  18.12300 3.59900 33.32500
H  17.12100 3.22400 34.66700
H  16.71100 4.66300 33.77000
Mg -2.65000 35.33900 26.87700
C  -3.99200 33.33000 29.37200
C  -1.02200 37.24300 29.19400
C  -1.39900 37.20900 24.36900
C  -4.57800 33.63800 24.57200
N  -2.55200 35.29100 28.99800
C  -3.21100 34.40900 29.86100
C  -2.83500 34.72800 31.34300
C  -1.93500 35.95600 31.22100
C  -1.81300 36.25400 29.70000
C  -2.41300 37.19000 32.07900
C  -2.20300 33.56600 32.20700
C  -2.97600 33.08100 33.42100
H  -2.26800 32.84700 34.79400
N  -1.35800 36.96200 26.79700
C  -0.77600 37.64500 27.86000
C  0.31500 38.41300 27.32100
C  0.27900 38.41100 25.92000
C  -0.85800 37.48100 25.64000
C  1.31100 39.13800 28.22900
C  1.18600 39.06500 24.89600
O  1.06100 38.98800 23.70600
C  2.43200 39.77300 25.37500
N  -3.17400 35.52700 24.73700
C  -2.44400 36.31000 23.90700
C  -3.01400 36.30700 22.48600
C  -3.82100 35.01800 22.49200
C  -3.90200 34.66400 23.98000
C  -3.87000 37.57500 22.14500
C  -3.09300 33.90200 21.76500
C  -3.21700 33.91700 20.26200
N  -4.04900 33.81800 26.91800
C  -4.69300 33.12500 25.89600
C  -5.39300 32.01900 26.41600
C  -5.16300 32.06100 27.75700
C  -4.30800 33.15400 28.03900
C  -6.15800 31.06500 25.66800
C  -5.53700 31.44000 28.91200
O  -6.27000 30.46200 29.07000
C  -4.73900 32.22100 30.11900
C  -5.77400 32.84200 31.02100
O  -6.29300 33.87400 30.84500
O  -5.89800 32.09500 32.22000
C  -6.89700 32.68800 33.19700
H  -0.37700 37.61400 29.99300
H  -0.92000 37.81700 23.59900
H  -5.13000 33.13100 23.77800
H  -3.81200 34.98600 31.75100
H  -0.89600 35.77100 31.49300
H  -3.11500 36.94500 32.87600
H  -2.79800 37.90400 31.35100
H  -1.48600 37.53300 32.53900
H  -1.20000 33.71100 32.60900
H  -2.07200 32.74900 31.49700
H  -3.34200 32.06400 33.27400
H  -3.89200 33.66500 33.51700
H  0.95900 40.13900 27.97800
H  2.35500 39.13000 27.91500
H  1.23000 38.93800 29.29800
H  2.01400 40.64000 25.88700
H  3.06800 40.09700 24.55100
H  3.00800 39.06700 25.97300
H  -2.21200 36.29200 21.74800
H  -4.78400 35.08100 21.98600
H  -4.90700 37.50500 22.47400
H  -3.65100 37.70300 21.08400
H  -3.56200 38.44700 22.72200
H  -3.62300 33.00300 22.07800
H  -2.06700 33.79700 22.12100
H  -3.56800 34.88100 19.89500
H  -3.87900 33.10000 19.97700
H  -2.18600 33.72700 19.96400
H  -6.23600 31.13000 24.58300
H  -7.09700 30.94200 26.20700
H  -5.58000 30.14600 25.76200
H  -3.95800 31.65900 30.63200
H  -7.82200 32.86200 32.64800
H  -6.56300 33.58500 33.71900
H  -7.11800 32.04900 34.05100

