158

Mg 46.98100 24.86100 28.44500
C  47.68500 27.17000 30.98900
C  45.59500 22.87400 30.75100
C  46.79800 22.57000 25.94900
C  48.91400 26.85400 26.23800
N  46.72400 25.07600 30.67800
C  46.95400 26.13100 31.46300
C  46.47700 25.93100 32.88200
C  45.92400 24.44300 32.79800
C  46.07800 24.09200 31.31400
C  46.56200 23.48100 33.72300
C  45.44600 27.08500 33.30400
C  45.67800 27.74000 34.69700
H  46.32700 26.86200 35.86800
N  46.24500 23.04800 28.35400
C  45.66200 22.39600 29.39500
C  45.20900 21.09300 28.89400
C  45.46900 20.99400 27.45000
C  46.21900 22.29000 27.20400
C  44.64500 20.19400 29.82200
C  45.22000 19.86400 26.54300
O  45.65300 19.83800 25.33000
C  44.19400 18.87000 26.95300
N  47.87000 24.66800 26.44900
C  47.54900 23.63400 25.57700
C  47.97100 23.93800 24.15100
C  48.54200 25.42500 24.17400
C  48.52800 25.63000 25.70800
C  49.07000 22.95900 23.73300
C  47.78000 26.48100 23.26600
C  48.67100 27.33300 22.35700
N  47.91700 26.68800 28.50500
C  48.71000 27.33400 27.50500
C  49.14300 28.58100 28.09600
C  48.79800 28.47800 29.43600
C  48.07200 27.34800 29.67700
C  49.89500 29.73700 27.33100
C  48.90800 29.25200 30.65500
O  49.29800 30.37600 30.90000
C  48.25000 28.36900 31.69600
C  49.26900 28.13600 32.76800
O  50.16800 27.30900 32.73500
O  49.05400 28.99500 33.79100
C  49.96300 28.91600 34.92500
H  44.97900 22.28900 31.43700
H  46.78200 21.84400 25.13400
H  49.58500 27.36800 25.54700
H  47.35800 25.95500 33.52300
H  44.84600 24.47600 32.95500
H  47.43000 23.78600 34.30800
H  46.79300 22.55500 33.19700
H  45.76100 23.23000 34.41800
H  44.43400 26.68000 33.29900
H  45.36600 27.76000 32.45200
H  44.74300 28.08400 35.14000
H  46.37000 28.58100 34.64200
H  45.31100 19.98300 30.65800
H  44.47800 19.20200 29.40200
H  43.67800 20.44000 30.26000
H  43.93900 18.26400 26.08400
H  43.39000 19.38000 27.48400
H  44.87300 18.30000 27.58700
H  47.23900 23.82600 23.35100
H  49.55900 25.32100 23.79600
H  48.68800 21.94800 23.59200
H  50.03600 22.88900 24.23300
H  49.30800 23.38600 22.75900
H  47.26900 27.22600 23.87600
H  47.03100 25.91000 22.71800
H  48.42700 27.29900 21.29500
H  49.73100 27.15800 22.54000
H  48.37700 28.34100 22.65200
H  49.42400 29.98600 26.38100
H  50.91300 29.38900 27.15300
H  49.76100 30.61800 27.95800
H  47.44200 28.98800 32.08500
H  50.52100 27.98200 34.99200
H  49.35100 29.05500 35.81600
H  50.61400 29.78300 34.81300
Mg 7.29600 53.62700 42.22200
C  6.85700 50.15100 41.48500
C  10.52500 53.29800 41.08400
C  7.51300 57.04500 42.10900
C  3.90000 53.89300 42.97100
N  8.47700 51.92400 41.35300
C  8.13300 50.60500 41.22700
C  9.30000 49.83000 40.69000
C  10.53500 50.75200 40.99200
C  9.79900 52.07200 41.15900
C  11.49800 50.33600 42.16800
C  9.16500 49.47400 39.17000
C  8.65100 50.51200 38.14800
H  8.07500 50.05200 36.85600
N  8.71500 54.98500 41.46700
C  10.06600 54.65000 41.16500
C  10.81900 55.88000 40.94300
C  9.94500 56.98300 41.32100
C  8.65500 56.36500 41.64500
C  12.29600 55.93000 40.44300
C  10.40100 58.43500 41.29600
O  11.55400 58.75700 40.96500
C  9.43300 59.57900 41.57500
N  5.91500 55.21400 42.48600
C  6.26700 56.52200 42.47500
C  5.03500 57.41500 42.66700
C  3.89700 56.46800 42.87700
C  4.59100 55.06900 42.80200
C  5.09400 58.50900 43.71600
C  2.67900 56.54100 41.91700
C  1.35300 55.84900 42.21300
N  5.74400 52.32600 42.38300
C  4.41600 52.57700 42.80600
C  3.77400 51.33200 42.97200
C  4.63800 50.33400 42.43700
C  5.85400 51.00000 42.08400
C  2.38100 51.05000 43.52300
C  4.83600 48.92900 42.12400
O  4.03400 48.00200 42.34800
C  6.27500 48.72200 41.54800
C  6.11800 48.13900 40.19400
O  5.43600 48.62400 39.28000
O  6.87900 47.03000 40.12800
C  6.64400 46.26400 38.95600
H  11.60700 53.20500 40.96900
H  7.62300 58.12800 42.19500
H  2.83000 53.90800 43.19000
H  9.43100 48.89500 41.23400
H  11.10600 50.80000 40.06500
H  12.18500 49.51200 41.97700
H  10.89600 50.19900 43.06600
H  12.04500 51.24500 42.42000
H  8.59800 48.55400 39.02300
H  10.17600 49.38900 38.77200
H  9.41800 51.23000 37.85800
H  7.83000 51.09700 38.56400
H  12.30000 56.37900 39.45000
H  12.70200 54.91900 40.41900
H  13.01400 56.53900 40.99200
H  8.63500 59.46500 40.84100
H  10.11400 60.42000 41.44400
H  9.02400 59.55900 42.58500
H  4.91900 57.87500 41.68600
H  3.55600 56.54700 43.90900
H  6.07600 58.97500 43.63100
H  5.00000 58.06400 44.70700
H  4.49700 59.40800 43.55800
H  3.05500 56.06900 41.00900
H  2.51700 57.53900 41.50900
H  0.51400 56.50600 41.98500
H  1.43500 55.51000 43.24600
H  1.29500 54.93300 41.62500
H  1.79900 51.97000 43.57500
H  2.48100 50.66500 44.53800
H  1.69100 50.46100 42.91900
H  7.00900 48.10200 42.06300
H  7.17000 46.59500 38.06000
H  5.55900 46.21800 38.85700
H  6.80300 45.18800 39.01800

