158

Mg 17.26700 -1.29400 27.76900
C  16.12100 0.66500 30.46400
C  19.42200 -2.75000 29.82700
C  18.66600 -2.71100 24.98000
C  15.20600 0.70400 25.66600
N  17.75300 -1.01100 29.93500
C  17.04000 -0.27300 30.86400
C  17.38200 -0.73000 32.27200
C  18.55400 -1.71300 32.01600
C  18.59700 -1.83900 30.47800
C  19.91700 -1.34000 32.75900
C  16.15300 -1.34100 33.09200
C  16.14300 -0.73100 34.54600
H  17.45700 -0.28600 35.26400
N  18.88300 -2.65800 27.47400
C  19.57600 -3.21300 28.51300
C  20.32700 -4.33300 27.94800
C  20.17000 -4.31400 26.56300
C  19.20100 -3.17300 26.28500
C  21.16200 -5.24900 28.88700
C  20.78000 -5.22400 25.50300
O  20.52800 -5.12800 24.29600
C  21.76200 -6.29200 25.86000
N  16.96500 -1.07400 25.67800
C  17.66200 -1.77100 24.69700
C  17.24300 -1.29700 23.29600
C  16.14700 -0.30300 23.53300
C  15.99100 -0.26400 25.05900
C  18.54000 -0.94600 22.45100
C  14.75300 -0.45200 22.81300
C  14.68400 0.26600 21.46000
N  15.87700 0.31200 27.93100
C  15.14900 0.98900 27.03500
C  14.28700 1.92800 27.69600
C  14.66100 1.86200 29.00600
C  15.66100 0.88800 29.14300
C  13.29000 2.83200 27.01400
C  14.41700 2.38400 30.33500
O  13.61500 3.20300 30.71000
C  15.31300 1.57700 31.33900
C  16.18400 2.55000 32.17300
O  17.15300 3.14800 31.84900
O  15.61400 2.56900 33.41600
C  16.27300 3.38300 34.40300
H  20.11400 -3.35400 30.41700
H  19.18900 -3.09500 24.10200
H  14.59200 1.29500 24.98400
H  17.72500 0.11700 32.86600
H  18.27900 -2.73000 32.29500
H  20.12000 -2.19800 33.39900
H  19.93200 -0.45600 33.39600
H  20.69200 -1.14000 32.01900
H  16.30100 -2.42000 33.03900
H  15.25500 -0.96600 32.60100
H  15.61100 -1.49600 35.11100
H  15.41400 0.07700 34.48600
H  20.90100 -6.27700 28.63400
H  21.03200 -5.14500 29.96400
H  22.24400 -5.14900 28.79700
H  21.26900 -7.07600 26.43500
H  22.39200 -5.81900 26.61200
H  22.26000 -6.56500 24.92900
H  16.85000 -2.12700 22.70900
H  16.58700 0.67100 23.32000
H  19.47400 -1.14400 22.97600
H  18.40900 0.11700 22.24400
H  18.64300 -1.47500 21.50400
H  13.98100 -0.18100 23.53300
H  14.65000 -1.52500 22.65500
H  15.67300 0.70700 21.33900
H  13.99300 1.10900 21.45100
H  14.49500 -0.59600 20.82000
H  12.35700 2.28400 26.88300
H  13.65400 3.10100 26.02200
H  13.18600 3.84800 27.39400
H  14.63800 1.00700 31.97800
H  15.99600 4.39300 34.10100
H  17.32100 3.10300 34.29700
H  15.84900 3.00300 35.33300
Mg 5.81200 53.86000 38.80700
C  5.05600 50.42900 39.02200
C  9.07100 53.10000 38.00100
C  6.28300 57.12200 38.18200
C  2.38400 54.57500 39.59900
N  6.87200 52.01100 38.28900
C  6.34600 50.73600 38.53500
C  7.44800 49.67300 38.32500
C  8.72700 50.49600 38.35800
C  8.22100 51.96000 38.20000
C  9.54800 50.19900 39.71100
C  7.39700 48.93000 36.94800
C  7.00400 49.75700 35.73500
H  5.74100 49.50100 34.94900
N  7.44300 54.97900 38.16600
C  8.72400 54.45300 38.05300
C  9.60300 55.56100 37.84200
C  8.88100 56.80000 37.90500
C  7.47900 56.32300 38.10900
C  11.13100 55.43500 37.60600
C  9.40400 58.23500 37.61200
O  10.61300 58.46300 37.43100
C  8.49300 59.36800 37.47200
N  4.47300 55.56200 38.71000
C  4.90700 56.80800 38.41100
C  3.80500 57.86800 38.68500
C  2.57700 56.97300 39.00600
C  3.18200 55.61500 39.16400
C  4.04100 58.87300 39.73400
C  1.45000 56.98200 37.82000
C  -0.02000 57.01500 38.30400
N  4.06900 52.77900 39.35100
C  2.76700 53.23900 39.65100
C  2.03200 52.09500 40.07500
C  2.80500 50.92700 39.91300
C  4.06900 51.42800 39.37200
C  0.59800 52.12900 40.55500
C  2.97400 49.46100 39.98300
O  2.12100 48.63600 40.35700
C  4.38100 49.14500 39.32300
C  4.06200 48.23600 38.18000
O  3.80100 48.62900 37.02500
O  4.13300 46.93600 38.58000
C  4.24400 45.91400 37.52400
H  10.13200 52.85700 38.09100
H  6.48400 58.19000 38.07600
H  1.33400 54.79500 39.80200
H  7.46500 48.95600 39.14500
H  9.41300 50.25800 37.54500
H  10.46800 49.67500 39.45200
H  9.05900 49.51800 40.40800
H  9.70200 51.07700 40.33800
H  6.81500 48.01000 36.99700
H  8.39100 48.49900 36.82600
H  7.75100 49.61400 34.95400
H  7.01100 50.81200 36.00700
H  11.34300 55.45200 36.53700
H  11.46200 54.47900 38.01200
H  11.64500 56.18700 38.20500
H  7.70200 59.07600 36.78200
H  8.96500 60.28500 37.11900
H  8.03800 59.56900 38.44100
H  3.75900 58.33000 37.69900
H  2.00900 57.18700 39.91100
H  4.95700 58.58400 40.25000
H  3.22900 59.09700 40.42600
H  4.32400 59.75700 39.16300
H  1.71300 56.08400 37.26000
H  1.53300 57.84700 37.16300
H  -0.73800 56.32700 37.85900
H  -0.42400 57.94600 37.90500
H  -0.12600 57.00100 39.38800
H  0.51100 51.60100 41.50400
H  0.00000 51.68700 39.75800
H  0.23200 53.14900 40.66800
H  4.92100 48.50200 40.01900
H  3.26100 45.78500 37.07300
H  4.63700 45.06300 38.08000
H  4.99000 46.30400 36.83000

