158

Mg 3.07800 -0.60000 44.50500
C  6.39100 0.37600 43.56600
C  1.85200 2.04500 42.73500
C  0.08200 -2.13900 44.52200
C  4.58000 -3.60900 45.94300
N  4.01000 1.12900 43.34300
C  5.35800 1.31100 43.10000
C  5.56000 2.59000 42.19100
C  4.11900 3.25100 42.17500
C  3.22700 2.09600 42.83100
C  3.91900 4.56600 42.91700
C  6.01100 2.16300 40.82200
C  7.40900 2.59300 40.29000
H  7.40900 3.29200 38.87800
N  1.17400 -0.04400 43.91200
C  0.90800 1.10000 43.17100
C  -0.52000 1.20800 43.03000
C  -1.12200 -0.01200 43.52100
C  0.06700 -0.83900 44.02400
C  -1.24200 2.36300 42.19900
C  -2.56700 -0.36900 43.59400
O  -3.46800 0.28300 43.08200
C  -3.05200 -1.73300 44.23100
N  2.51200 -2.56000 45.14400
C  1.18500 -2.91500 45.02100
C  0.92400 -4.36500 45.53600
C  2.36200 -4.87000 45.78100
C  3.24000 -3.59700 45.63300
C  0.17200 -4.32000 46.92100
C  2.77900 -6.00600 44.71700
C  2.67700 -7.43200 45.32400
N  5.11000 -1.49100 44.77400
C  5.50500 -2.62300 45.46500
C  6.91700 -2.54700 45.61200
C  7.33500 -1.45000 44.83100
C  6.16300 -0.80200 44.39500
C  7.73200 -3.46600 46.43100
C  8.48200 -0.72300 44.32000
O  9.64500 -0.87300 44.53400
C  7.96400 0.41400 43.44400
C  8.54400 1.63100 43.97400
O  9.31600 2.35800 43.35200
O  8.02600 1.97200 45.22200
C  8.24300 3.27800 45.76300
H  1.41800 2.84500 42.13200
H  -0.81700 -2.72900 44.71100
H  4.89900 -4.51900 46.45400
H  6.36700 3.13200 42.68400
H  3.78600 3.43200 41.15300
H  4.77000 4.94000 43.48600
H  3.00400 4.42100 43.49200
H  3.76400 5.30200 42.12800
H  5.29400 2.45100 40.05300
H  5.95600 1.07400 40.80300
H  8.11500 1.76400 40.23500
H  7.67800 3.37900 40.99700
H  -1.89100 1.83900 41.49700
H  -0.56400 3.09100 41.75300
H  -1.88200 3.02900 42.77800
H  -4.11600 -1.66800 44.46000
H  -2.62500 -1.96200 45.20800
H  -2.86400 -2.47500 43.45500
H  0.33900 -4.97700 44.85000
H  2.47600 -5.26800 46.78900
H  -0.71600 -3.79000 46.57500
H  0.61300 -3.63000 47.64000
H  -0.10600 -5.24700 47.42200
H  3.80600 -5.74600 44.45800
H  2.13800 -5.93700 43.83900
H  2.20200 -7.37800 46.30300
H  3.68000 -7.83600 45.46500
H  2.07300 -7.97900 44.60000
H  7.16500 -3.55500 47.35700
H  8.75700 -3.15200 46.62800
H  7.85500 -4.43100 45.94000
H  8.26100 0.40700 42.39500
H  7.41700 3.95500 45.54300
H  9.14600 3.70800 45.33000
H  8.24700 3.24300 46.85300
Mg 25.96500 0.37300 28.86100
C  27.89100 -0.20900 31.93300
C  23.32900 0.74200 30.82400
C  24.31200 0.94800 26.07100
C  28.92600 -0.30300 27.11100
N  25.66500 0.27600 31.19800
C  26.54200 -0.02400 32.23900
C  25.86500 0.18600 33.57000
C  24.28900 0.14700 33.11200
C  24.42500 0.46700 31.61400
C  23.55400 -1.11700 33.31400
C  26.42900 1.57100 34.20300
C  27.00700 1.43400 35.64100
H  26.46600 2.46300 36.71400
N  24.04700 0.83900 28.52600
C  23.09500 0.89200 29.40800
C  21.86300 1.23300 28.73400
C  22.10400 1.34400 27.33900
C  23.49700 0.96600 27.23700
C  20.61100 1.49200 29.51300
C  21.18600 1.74400 26.30300
O  21.53700 1.94800 25.14700
C  19.77000 2.00600 26.62600
N  26.50700 0.05900 26.90300
C  25.63500 0.55300 25.94200
C  26.25700 0.54300 24.52300
C  27.77300 0.33300 24.89400
C  27.76300 0.00700 26.38100
C  25.68900 -0.46000 23.52900
C  28.70800 1.43100 24.36500
C  29.67300 0.90900 23.33500
N  27.96900 -0.18000 29.34800
C  29.01900 -0.36100 28.52100
C  30.20300 -0.74600 29.33200
C  29.82400 -0.56500 30.65600
C  28.47500 -0.29200 30.65600
C  31.47600 -1.14100 28.78400
C  30.23700 -0.54500 31.99000
O  31.34000 -0.75500 32.46400
C  29.02700 -0.17900 32.91500
C  28.80200 -1.32000 33.88300
O  28.42900 -2.41900 33.57400
O  29.02400 -0.91900 35.20400
C  28.76700 -1.91300 36.26300
H  22.45600 0.72400 31.47900
H  23.83200 1.23500 25.13400
H  29.86300 -0.46900 26.57600
H  26.08500 -0.63700 34.25000
H  23.71200 0.86800 33.69100
H  23.12900 -1.54500 32.40600
H  22.73700 -0.89700 34.00100
H  24.13000 -1.89400 33.81600
H  25.66000 2.34200 34.17300
H  27.23800 1.96200 33.58700
H  28.07700 1.59000 35.50000
H  26.72000 0.44700 36.00300
H  20.29000 2.52600 29.39000
H  20.67300 1.16900 30.55200
H  19.89100 0.81400 29.05400
H  19.12300 2.27100 25.79000
H  19.78900 2.90500 27.24300
H  19.36700 1.12200 27.12000
H  26.08400 1.54300 24.12400
H  28.06700 -0.61800 24.44800
H  26.43200 -0.46800 22.73200
H  24.72500 -0.18500 23.10200
H  25.67700 -1.47600 23.92300
H  29.24300 2.03100 25.10200
H  28.05300 2.21100 23.97700
H  29.36100 0.08100 22.69900
H  30.52000 0.62300 23.95900
H  30.19400 1.66600 22.74900
H  32.27400 -0.52200 29.19300
H  31.68800 -1.18300 27.71500
H  31.66400 -2.12500 29.21200
H  29.17400 0.78900 33.39500
H  29.67500 -2.37100 36.65600
H  27.99700 -2.60100 35.91400
H  28.29900 -1.44700 37.13100

