158

Mg 45.48800 4.17700 46.72500
C  43.24800 6.85900 46.84500
C  42.75700 2.04200 46.58200
C  47.65000 1.70600 46.01600
C  48.15000 6.56500 46.60600
N  43.28600 4.49100 46.75700
C  42.59700 5.62900 46.73600
C  41.05400 5.40000 46.72100
C  40.98800 3.83900 46.63500
C  42.45800 3.38300 46.75700
C  40.02700 3.10600 47.56400
C  40.21600 6.17000 45.58500
C  40.82100 6.42100 44.21400
H  39.99600 5.94000 43.02000
N  45.21900 2.12800 46.36800
C  44.00700 1.45000 46.38500
C  44.29200 0.05400 46.12500
C  45.73100 -0.02600 45.92200
C  46.30500 1.28800 46.10100
C  43.18700 -1.03700 46.23300
C  46.51500 -1.27400 45.51000
O  45.92600 -2.35600 45.45900
C  47.92000 -1.26100 45.10900
N  47.63600 4.14600 46.43300
C  48.31600 2.96600 46.24900
C  49.84300 3.21400 46.12900
C  49.95900 4.75700 46.22200
C  48.57800 5.19400 46.59600
C  50.65100 2.42700 47.22400
C  50.63500 5.41100 44.96300
C  49.65200 5.77700 43.82200
N  45.71800 6.30200 46.79500
C  46.81800 7.09900 46.71800
C  46.49100 8.50600 46.84800
C  45.05300 8.44800 46.98100
C  44.66300 7.09400 46.97300
C  47.38600 9.69700 46.76500
C  43.86500 9.25500 47.14200
O  43.72800 10.43800 47.31500
C  42.63300 8.25200 47.04200
C  41.84300 8.17400 48.30900
O  42.22300 7.54000 49.30600
O  40.61700 8.64900 48.03600
C  39.51500 8.55500 49.04100
H  41.83600 1.45700 46.62700
H  48.34800 0.86900 46.07200
H  49.06000 7.16700 46.65800
H  40.67600 5.70200 47.69800
H  40.75700 3.42900 45.65100
H  39.45000 3.87100 48.08400
H  40.42900 2.46700 48.35000
H  39.22800 2.67800 46.95800
H  40.13100 7.12000 46.11300
H  39.23900 5.69400 45.50400
H  41.72400 5.81700 44.12500
H  41.12900 7.44700 44.01300
H  42.90400 -1.48600 47.18500
H  43.42900 -1.96400 45.71300
H  42.26100 -0.73000 45.74700
H  48.18500 -2.07500 44.43400
H  48.43800 -1.27700 46.06700
H  48.12900 -0.35600 44.53900
H  50.05900 2.89700 45.10800
H  50.49900 5.01600 47.13300
H  51.24100 3.17900 47.74600
H  51.40100 1.84300 46.69000
H  49.99400 1.82300 47.85000
H  51.31900 4.63600 44.61800
H  51.07900 6.35500 45.28100
H  48.61400 5.74100 44.15100
H  49.85500 5.03600 43.04900
H  49.90600 6.80900 43.57900
H  46.70000 10.54200 46.83100
H  47.89600 9.64600 45.80200
H  48.16400 9.74000 47.52700
H  42.03700 8.50200 46.16500
H  38.94400 9.47200 49.18800
H  39.85900 8.24000 50.02600
H  38.83700 7.80300 48.63700
Mg -1.86800 33.90100 26.59000
C  -3.66700 32.58800 29.24500
C  -0.26900 35.92200 28.68500
C  -0.62400 35.37300 23.90800
C  -3.90100 31.79200 24.44100
N  -2.01300 34.23300 28.68100
C  -2.71100 33.55000 29.58100
C  -2.41400 34.03400 31.00100
C  -1.34400 35.14500 30.77600
C  -1.18000 35.17200 29.28700
C  -1.68800 36.50800 31.43400
C  -1.93900 32.95900 31.92300
C  -2.66700 32.75400 33.23200
H  -1.79000 32.33100 34.49100
N  -0.52900 35.35700 26.35600
C  0.06700 36.03300 27.40000
C  1.03200 36.92400 26.80900
C  0.92100 36.81900 25.37900
C  -0.08000 35.75600 25.16400
C  1.91000 37.87900 27.58300
C  1.65500 37.60800 24.35900
O  1.45500 37.50800 23.13800
C  2.71500 38.46100 24.80200
N  -2.27200 33.58700 24.40200
C  -1.60900 34.34200 23.53900
C  -1.96700 33.99900 22.10300
C  -2.76500 32.62000 22.30900
C  -3.01200 32.64000 23.78000
C  -2.72100 35.21900 21.32400
C  -2.03900 31.32000 21.88500
C  -1.50000 31.16900 20.43900
N  -3.39700 32.48000 26.78700
C  -4.08600 31.69800 25.85400
C  -4.96800 30.79300 26.54600
C  -4.88700 31.16000 27.92800
C  -3.92100 32.16700 27.93800
C  -5.85800 29.79000 25.90200
C  -5.40400 30.84900 29.21800
O  -6.19900 30.00100 29.62600
C  -4.57900 31.74800 30.17400
C  -5.67400 32.57400 30.84100
O  -6.03700 33.63300 30.48600
O  -6.03900 31.91800 32.02000
C  -7.14300 32.59800 32.76600
H  0.24800 36.49700 29.45600
H  -0.15000 35.73300 22.99200
H  -4.38900 31.10300 23.74900
H  -3.35500 34.47000 31.33600
H  -0.37900 34.70900 31.03600
H  -0.77100 36.91000 31.86500
H  -2.39900 36.37000 32.24800
H  -2.05200 37.22600 30.70000
H  -0.86400 33.02700 32.08700
H  -2.06300 32.07600 31.29700
H  -3.35600 31.94200 32.99800
H  -3.23400 33.66000 33.44400
H  1.64100 37.85100 28.63900
H  1.85300 38.92100 27.26800
H  2.90200 37.43600 27.49100
H  3.45300 37.92000 25.39600
H  2.25000 39.27500 25.35800
H  3.20300 39.02400 24.00700
H  -0.98400 33.83100 21.66200
H  -3.72500 32.65800 21.79400
H  -1.91700 35.52500 20.65400
H  -3.05000 35.98400 22.02700
H  -3.64900 34.86600 20.87400
H  -2.75400 30.52300 22.09000
H  -1.24600 31.13300 22.60900
H  -0.44100 31.42500 20.43000
H  -1.99600 31.84600 19.74300
H  -1.60100 30.09500 20.28800
H  -5.30700 28.85100 25.86000
H  -6.27000 30.08900 24.93900
H  -6.69100 29.60600 26.58100
H  -3.94200 31.13800 30.81400
H  -6.91400 33.63000 33.03100
H  -7.39600 32.00900 33.64700
H  -8.08300 32.67800 32.22000

