158

Mg 49.14400 45.33000 42.62100
C  45.73800 45.77100 41.71000
C  48.80700 42.02000 42.03400
C  52.49100 45.03100 42.49600
C  49.46900 48.87900 42.38600
N  47.42000 44.12400 41.84600
C  46.13100 44.42100 41.61800
C  45.29200 43.17900 41.19600
C  46.26000 41.96200 41.54300
C  47.58700 42.75600 41.80000
C  45.91500 41.08800 42.75100
C  44.54900 43.24800 39.80700
C  45.32400 44.10200 38.69200
H  45.67900 43.27100 37.42600
N  50.50300 43.77000 42.44000
C  50.13100 42.46900 42.34400
C  51.30200 41.64200 42.28600
C  52.44400 42.47200 42.42800
C  51.82400 43.80500 42.43100
C  51.22600 40.18000 42.24200
C  53.96800 42.04200 42.54900
O  54.30000 40.87800 42.48500
C  55.06400 43.01700 42.86100
N  50.68800 46.73100 42.28200
C  51.99900 46.36800 42.47200
C  52.89400 47.60400 42.64300
C  51.98000 48.82000 42.50400
C  50.61800 48.11800 42.34500
C  53.70000 47.54200 43.93700
C  52.31000 49.84000 41.39300
C  51.93500 51.27300 41.71400
N  47.86900 47.05500 42.37400
C  48.10400 48.40200 42.33300
C  46.85700 49.12400 42.26500
C  45.92500 48.13500 42.04200
C  46.60400 46.82500 42.06300
C  46.76500 50.62800 42.36900
C  44.55000 47.92200 41.72500
O  43.67000 48.77700 41.68600
C  44.37800 46.40600 41.34200
C  43.25200 45.85300 42.17800
O  42.36500 45.10600 41.72900
O  43.26300 46.23800 43.49500
C  42.14600 45.77900 44.42600
H  48.64500 40.94100 41.98300
H  53.56300 44.88900 42.64900
H  49.58400 49.96500 42.38600
H  44.54900 43.12900 41.99100
H  46.32100 41.26900 40.70400
H  46.05000 40.02300 42.56000
H  44.88100 41.26300 43.04800
H  46.56200 41.27900 43.60700
H  43.53600 43.59900 40.00500
H  44.43100 42.20900 39.49900
H  46.33200 44.44100 38.93300
H  44.71500 44.96500 38.42300
H  51.03400 40.06000 41.17600
H  50.40300 39.71600 42.78600
H  52.16800 39.66200 42.42200
H  54.88100 43.52800 43.80600
H  55.13200 43.70800 42.02100
H  56.07000 42.59700 42.86800
H  53.60300 47.61800 41.81500
H  51.78300 49.39000 43.41200
H  53.64700 46.62400 44.52200
H  53.39600 48.40600 44.52900
H  54.69900 47.86500 43.64700
H  51.84700 49.49200 40.47000
H  53.39200 49.80200 41.26200
H  52.74700 51.98500 41.57000
H  51.45600 51.44300 42.67900
H  51.25700 51.45600 40.88000
H  47.17000 51.06100 43.28300
H  45.74300 51.00700 42.36600
H  47.24700 51.14400 41.53800
H  44.15800 46.16700 40.30100
H  41.22000 45.89800 43.86300
H  42.15500 46.38500 45.33200
H  42.21100 44.72700 44.70300
Mg -12.06700 16.48300 41.14900
C  -8.93000 14.97000 41.00500
C  -10.85600 19.30500 39.99000
C  -15.25300 17.55000 40.94200
C  -13.29600 13.26100 42.12600
N  -10.09600 16.94400 40.39600
C  -8.91100 16.29100 40.53000
C  -7.74800 17.13600 40.16700
C  -8.39900 18.54700 40.15500
C  -9.90100 18.26300 40.14000
C  -7.95700 19.35600 41.38000
C  -7.05200 16.69100 38.84300
C  -5.50100 16.94100 38.76500
H  -5.02400 17.24400 37.30400
N  -12.99800 18.16900 40.47700
C  -12.30800 19.24300 40.00700
C  -13.20300 20.28200 39.68700
C  -14.52000 19.80900 39.93100
C  -14.31200 18.49200 40.50300
C  -12.62500 21.56200 39.14500
C  -15.72100 20.58600 39.73600
O  -15.78500 21.69700 39.20300
C  -17.04300 19.99600 39.92800
N  -14.09200 15.42400 41.16500
C  -15.17700 16.18900 41.29400
C  -16.36000 15.44600 41.95000
C  -15.67100 14.15000 42.43400
C  -14.26900 14.26100 41.80200
C  -17.20300 16.22900 43.00800
C  -16.43400 12.82500 42.25200
C  -16.76800 12.06300 43.52800
N  -11.34500 14.39700 41.37500
C  -11.92200 13.27900 41.87300
C  -10.93000 12.24200 42.15500
C  -9.67700 12.89200 41.83100
C  -10.02000 14.17900 41.35300
C  -11.24600 10.90000 42.62200
C  -8.24800 12.68800 41.76300
O  -7.53000 11.72500 42.08400
C  -7.71200 14.00700 41.06700
C  -6.53900 14.58800 41.79300
O  -6.55200 14.85600 42.95400
O  -5.42400 14.50200 41.00600
C  -4.20700 14.88900 41.66100
H  -10.40700 20.28500 39.81400
H  -16.23500 17.97200 41.16900
H  -13.79600 12.41100 42.59700
H  -7.00100 17.02300 40.95300
H  -8.11000 19.05700 39.23700
H  -8.83800 19.56600 41.98600
H  -7.44800 20.25400 41.02600
H  -7.29200 18.77800 42.02100
H  -7.53800 17.15200 37.98300
H  -7.17000 15.62100 38.67700
H  -4.95400 16.03200 39.01300
H  -5.41000 17.78800 39.44500
H  -11.72100 21.40200 38.55800
H  -12.34900 22.22200 39.96700
H  -13.31200 22.12100 38.51100
H  -17.85700 20.49300 39.39900
H  -17.21900 19.88500 40.99800
H  -16.92800 19.02800 39.44000
H  -16.98500 15.25300 41.07800
H  -15.40700 14.31700 43.47800
H  -16.73000 17.19600 43.17900
H  -17.22200 15.67600 43.94700
H  -18.15200 16.47100 42.52900
H  -15.82600 12.19400 41.60500
H  -17.36600 13.02900 41.72400
H  -16.51600 12.65900 44.40600
H  -16.30000 11.07900 43.50300
H  -17.84400 11.90700 43.60000
H  -10.30800 10.36400 42.76400
H  -11.92700 10.25500 42.06500
H  -11.77000 10.84800 43.57600
H  -7.35200 13.58500 40.12900
H  -3.57500 14.01200 41.52100
H  -4.17000 14.99000 42.74600
H  -3.82200 15.80100 41.20400

