158

Mg 47.19200 24.33300 28.61300
C  48.22400 26.68800 30.99600
C  46.27300 22.22800 31.08300
C  46.87600 21.96700 26.24200
C  48.71100 26.41300 26.06900
N  47.37500 24.40600 30.82400
C  47.64500 25.48600 31.60100
C  47.25200 25.24100 33.06200
C  46.83400 23.72400 33.08600
C  46.77600 23.48700 31.60900
C  47.74800 22.67800 33.91000
C  46.21300 26.26900 33.62600
C  46.47500 26.75300 35.09600
H  45.25300 26.79000 36.04200
N  46.42900 22.41200 28.61300
C  46.19700 21.73300 29.77700
C  45.70800 20.39200 29.39800
C  46.03600 20.23200 28.02600
C  46.47200 21.58100 27.52700
C  45.15400 19.43100 30.44000
C  46.03900 18.99300 27.11700
O  46.34800 18.99300 25.92900
C  45.44600 17.77800 27.66300
N  47.78900 24.20200 26.38200
C  47.37300 23.09900 25.69900
C  47.58000 23.37500 24.22200
C  47.91500 24.91800 24.15900
C  48.15200 25.22200 25.63700
C  48.42400 22.35000 23.47900
C  46.80000 25.73700 23.51600
C  45.51300 25.98700 24.25300
N  48.29000 26.16600 28.46800
C  48.78500 26.88800 27.43900
C  49.42300 28.04200 27.89400
C  49.19200 28.06400 29.29400
C  48.54800 26.83600 29.60300
C  49.89900 29.17900 27.06200
C  49.27300 28.79000 30.55400
O  49.73300 29.92400 30.70800
C  48.62200 27.90700 31.64200
C  49.73400 27.59700 32.62700
O  50.62200 26.77700 32.42300
O  49.59500 28.36400 33.76200
C  50.45400 27.97100 34.88900
H  45.82200 21.61000 31.86200
H  46.71400 21.26500 25.42100
H  48.91900 27.16000 25.30000
H  48.11400 25.41100 33.70700
H  45.85400 23.75900 33.56200
H  47.27400 22.07800 34.68800
H  48.60000 23.15400 34.39500
H  48.25600 22.00300 33.22200
H  45.30900 25.67400 33.75000
H  46.18800 27.19500 33.05100
H  46.89400 27.74800 34.94500
H  47.27100 26.21800 35.61400
H  45.94800 18.81500 30.86400
H  44.32100 18.78100 30.17200
H  44.62100 20.01400 31.19100
H  45.33400 16.96600 26.94400
H  44.44000 17.99800 28.02000
H  46.04100 17.30200 28.44200
H  46.57600 23.17900 23.84400
H  48.83700 25.04100 23.59000
H  47.91900 21.86400 22.64400
H  48.75200 21.50300 24.08200
H  49.37500 22.78600 23.17200
H  46.54400 25.21700 22.59300
H  47.15000 26.75600 23.35200
H  45.63200 26.92600 24.79400
H  45.25600 25.24500 25.00900
H  44.64600 26.14200 23.61100
H  50.35000 28.85900 26.12200
H  50.55800 29.70700 27.75000
H  48.95300 29.67600 26.85100
H  47.81500 28.44600 32.13800
H  50.54400 28.76300 35.63200
H  51.49300 27.71000 34.69200
H  50.07600 27.08300 35.39400
Mg 48.04300 34.31800 27.22300
C  46.19100 32.93000 29.86900
C  48.40900 37.19400 29.14900
C  48.94800 36.07900 24.48300
C  47.13700 31.66500 25.15300
N  47.35200 35.01100 29.19800
C  46.75000 34.17700 30.17500
C  46.94500 34.74800 31.59200
C  47.33000 36.20300 31.25000
C  47.79400 36.13600 29.78100
C  46.21100 37.23200 31.41400
C  48.13000 33.89500 32.25300
C  48.05000 33.70900 33.74700
H  47.17000 34.75800 34.53300
N  48.68800 36.28900 26.95200
C  48.78400 37.34100 27.81600
C  49.31200 38.56300 27.17300
C  49.52100 38.21000 25.77700
C  49.03500 36.78100 25.72000
C  49.59400 39.89300 27.92400
C  50.00800 39.12600 24.59000
O  50.16000 38.71900 23.45800
C  50.51900 40.50500 24.82700
N  47.88900 33.98700 25.09800
C  48.43700 34.81600 24.19800
C  48.64300 34.25800 22.78500
C  47.99800 32.82900 22.96900
C  47.64300 32.80500 24.49300
C  48.13600 35.10500 21.56700
C  48.96700 31.72300 22.59100
C  50.26200 31.64200 23.40900
N  46.98500 32.57600 27.41600
C  46.75500 31.56600 26.51700
C  46.03500 30.52400 27.22500
C  45.63800 31.07400 28.50800
C  46.33800 32.33200 28.61900
C  45.85100 29.17500 26.70800
C  44.91400 30.82000 29.67100
O  44.23300 29.86900 29.99400
C  45.08000 32.13700 30.52000
C  45.29500 31.72300 31.90600
O  46.08800 30.86600 32.30600
O  44.46300 32.40400 32.73700
C  44.35700 31.95300 34.14400
H  48.62200 38.12400 29.68200
H  49.22500 36.66100 23.60200
H  46.70000 30.92300 24.48100
H  46.00600 34.66400 32.13900
H  48.25200 36.53200 31.72900
H  46.75800 38.16900 31.51600
H  45.50700 37.01700 32.21800
H  45.64600 37.36500 30.49200
H  49.01400 34.50000 32.05300
H  48.26200 32.94400 31.73700
H  49.06500 33.86700 34.11000
H  47.75900 32.67000 33.90300
H  50.34700 40.54300 27.47800
H  49.90400 39.60500 28.92900
H  48.59900 40.32000 28.05200
H  51.49400 40.41200 25.30500
H  49.74100 41.09500 25.31200
H  50.79700 40.88800 23.84500
H  49.72800 34.24800 22.67500
H  47.12700 32.59400 22.35900
H  47.38500 35.86800 21.77500
H  47.68900 34.45200 20.81700
H  49.00200 35.61500 21.14600
H  49.27000 31.99400 21.57900
H  48.47700 30.76900 22.39600
H  50.37500 32.45900 24.12200
H  51.11500 31.63800 22.73000
H  50.26700 30.70700 23.97000
H  45.45100 28.54800 27.50500
H  46.81800 28.80000 26.37100
H  45.09400 29.09900 25.92700
H  44.13600 32.66900 30.40000
H  44.06100 30.90400 34.14400
H  43.61500 32.59600 34.61800
H  45.34900 32.07000 34.58000

