158

Mg 41.46600 40.54900 26.96200
C  40.92400 43.06700 29.41100
C  42.22800 38.42300 29.45000
C  42.70700 38.46900 24.59400
C  41.20300 43.10500 24.51500
N  41.59600 40.82400 29.16800
C  41.19900 41.87900 30.01400
C  41.08500 41.45800 31.52400
C  41.67900 39.97100 31.41600
C  41.87800 39.72800 29.86600
C  43.00200 39.60200 32.25300
C  39.63400 41.51200 32.11500
C  39.34200 42.76700 33.02500
H  38.62100 42.59300 34.38700
N  42.13700 38.59700 27.06600
C  42.31400 37.86900 28.15100
C  42.59100 36.51500 27.74500
C  42.99600 36.49600 26.36900
C  42.60600 37.91100 25.95100
C  42.60000 35.31400 28.73600
C  43.72200 35.48800 25.56100
O  44.14000 35.64000 24.37800
C  43.98900 34.15300 26.13800
N  41.93000 40.74200 24.90000
C  42.32000 39.69100 24.11000
C  42.18300 39.95500 22.66400
C  41.46300 41.38100 22.62000
C  41.56100 41.78700 24.09500
C  43.44800 39.83100 21.92000
C  40.02400 41.50900 22.01200
C  38.93700 40.66200 22.63100
N  41.19000 42.62500 26.90100
C  40.93700 43.45100 25.80500
C  40.34500 44.68300 26.36000
C  40.39800 44.58700 27.72900
C  40.93000 43.35200 28.00400
C  39.71800 45.83300 25.56400
C  40.00900 45.32100 28.87400
O  39.67000 46.45400 29.11800
C  40.31500 44.29300 30.05800
C  41.30400 44.92400 31.00900
O  42.49200 44.71500 30.90000
O  40.68300 45.65600 32.00400
C  41.53700 46.24000 33.03700
H  42.42300 37.68300 30.22900
H  42.88700 37.66500 23.87700
H  40.84300 43.73700 23.70000
H  41.83100 42.00900 32.09700
H  40.97700 39.21700 31.77100
H  43.88600 39.57900 31.61600
H  42.85900 38.61800 32.69800
H  43.05300 40.39200 33.00200
H  39.33800 40.67200 32.74300
H  38.97400 41.65000 31.25900
H  38.62900 43.43900 32.54700
H  40.29300 43.28900 33.13200
H  43.63300 35.01800 28.92100
H  42.06800 34.47000 28.29700
H  42.14300 35.42000 29.72100
H  44.50500 34.25800 27.09200
H  44.51300 33.37800 25.57800
H  43.01900 33.74700 26.42400
H  41.49400 39.22200 22.24400
H  42.08400 42.02300 21.99600
H  43.38300 40.54400 21.09800
H  43.46300 38.80700 21.54500
H  44.32300 40.08500 22.51800
H  40.04700 41.23800 20.95700
H  39.83600 42.58200 21.97500
H  38.52000 39.99000 21.88000
H  38.19000 41.36700 22.99400
H  39.18700 39.89600 23.36600
H  39.33700 45.45900 24.61400
H  40.52500 46.54900 25.40700
H  38.87500 46.27800 26.09200
H  39.34500 44.15200 30.53400
H  42.37500 46.66500 32.48400
H  41.72000 45.40800 33.71700
H  40.91800 47.06800 33.38300
Mg -2.35500 34.71200 26.64200
C  -3.42000 32.99800 29.56400
C  -1.08400 37.02600 28.61100
C  -2.14100 36.57800 23.91300
C  -4.20100 32.26200 24.73900
N  -2.17400 34.89900 28.83700
C  -2.63000 34.08400 29.83000
C  -2.18500 34.59000 31.23700
C  -1.43300 35.89700 30.82000
C  -1.62000 35.99100 29.34400
C  -1.77600 37.22500 31.61600
C  -1.38400 33.49700 32.06600
C  -1.96300 33.05100 33.46200
H  -1.03800 33.02800 34.66300
N  -1.50500 36.34100 26.26400
C  -1.03100 37.22700 27.17500
C  -0.34200 38.38300 26.60300
C  -0.74100 38.34700 25.21500
C  -1.50500 37.05300 25.05400
C  0.31900 39.40900 27.47300
C  -0.44400 39.32700 24.08200
O  -0.86900 39.27300 22.92500
C  0.50400 40.46500 24.42800
N  -3.13500 34.47100 24.60800
C  -2.96600 35.45300 23.74300
C  -3.64000 35.08300 22.38900
C  -3.99200 33.52000 22.56000
C  -3.72400 33.33900 24.06300
C  -4.86700 35.95800 21.90300
C  -3.20000 32.53600 21.67500
C  -1.90300 32.02400 22.24500
N  -3.52500 33.05500 27.01700
C  -4.14900 32.11100 26.14100
C  -4.78100 31.12500 26.93600
C  -4.52300 31.46600 28.25400
C  -3.72600 32.60400 28.24600
C  -5.50700 29.89800 26.47100
C  -4.80200 31.01700 29.56900
O  -5.44400 30.09100 29.99900
C  -4.01900 32.00300 30.47100
C  -4.95700 32.68000 31.29000
O  -5.78800 33.46400 30.84800
O  -5.03600 32.21700 32.59700
C  -5.96600 32.81000 33.52400
H  -0.62500 37.75900 29.27800
H  -2.19500 37.21500 23.02800
H  -4.71900 31.47000 24.19500
H  -3.11700 34.87000 31.72700
H  -0.38200 35.67500 31.00600
H  -0.90100 37.69900 32.06100
H  -2.43500 37.09100 32.47400
H  -2.15600 38.02100 30.97600
H  -0.36200 33.86200 32.16500
H  -1.30900 32.57400 31.49000
H  -2.43600 32.07600 33.34200
H  -2.84700 33.66200 33.64500
H  1.31500 39.04800 27.73100
H  -0.27300 39.59900 28.36800
H  0.43800 40.36100 26.95500
H  0.89800 40.90800 23.51300
H  1.30100 39.90900 24.92200
H  -0.12700 41.12100 25.02600
H  -2.83100 35.14300 21.66100
H  -5.05500 33.43700 22.33300
H  -5.11700 36.77900 22.57500
H  -5.73200 35.30600 21.78300
H  -4.76800 36.27100 20.86400
H  -2.93700 32.98100 20.71500
H  -3.83800 31.65300 21.71400
H  -1.59900 32.45700 23.19800
H  -1.03800 32.14100 21.59200
H  -1.97200 30.96000 22.47100
H  -5.20500 29.05200 27.08800
H  -5.12000 29.77500 25.45900
H  -6.56500 30.11300 26.31700
H  -3.20300 31.49600 30.98600
H  -6.49900 33.69900 33.18700
H  -5.38000 33.05500 34.40900
H  -6.71200 32.02700 33.66600

