158

Mg 40.35500 9.45800 29.62700
C  41.96600 10.91800 32.44700
C  38.14600 7.97800 31.84000
C  38.93200 7.98900 26.92500
C  43.15200 10.30900 27.73500
N  40.12500 9.49900 31.89700
C  40.88700 10.14100 32.77200
C  40.41200 9.97400 34.19700
C  39.34300 8.81800 34.01900
C  39.18800 8.66900 32.48100
C  39.67800 7.50300 34.74800
C  39.91400 11.33300 34.79800
C  40.70400 11.75100 36.04800
H  39.93800 12.46400 37.10300
N  38.75800 8.17900 29.41300
C  37.95000 7.70900 30.42600
C  36.85600 7.02900 29.78100
C  36.99000 7.19700 28.33700
C  38.28100 7.80200 28.19500
C  35.72300 6.44900 30.57800
C  36.08000 6.76300 27.16200
O  36.22600 7.14700 25.96700
C  34.89600 5.94300 27.43400
N  41.01600 9.12900 27.65100
C  40.16400 8.61100 26.69800
C  40.56200 9.06500 25.28500
C  42.09200 9.48800 25.56400
C  42.14400 9.56700 27.08700
C  40.50600 7.98900 24.21400
C  42.36600 10.82400 24.83600
C  41.47400 12.08100 25.11000
N  42.18400 10.36700 29.94700
C  43.16300 10.72700 29.06500
C  44.24500 11.46900 29.74500
C  43.81600 11.56300 31.06400
C  42.52600 10.91300 31.11100
C  45.58400 11.89900 29.08700
C  44.08500 12.11700 32.36900
O  45.00000 12.80400 32.74800
C  42.93500 11.58600 33.34200
C  43.56600 10.76300 34.40000
O  43.77200 9.53500 34.25300
O  44.25600 11.53000 35.26000
C  44.86700 10.76900 36.38100
H  37.35700 7.66500 32.52600
H  38.42900 7.55500 26.05900
H  43.90300 10.76200 27.08400
H  41.24500 9.53900 34.74900
H  38.35000 9.05400 34.40300
H  39.78200 6.69200 34.02800
H  38.84000 7.31400 35.41900
H  40.65200 7.35100 35.21200
H  38.87400 11.18700 35.08900
H  40.06400 12.12000 34.05900
H  41.40500 12.47200 35.62800
H  41.37300 11.00000 36.46900
H  35.88200 5.37900 30.45000
H  34.77600 6.78000 30.15300
H  35.86800 6.65600 31.63800
H  34.28800 5.96700 26.53000
H  34.24800 6.37800 28.19500
H  35.18500 4.89900 27.55500
H  39.95400 9.88400 24.90200
H  42.68200 8.71400 25.07300
H  39.48200 7.70700 23.97100
H  41.08300 7.11600 24.52200
H  40.90600 8.32600 23.25800
H  42.16500 10.68300 23.77400
H  43.42200 11.09400 24.87000
H  41.28800 12.58600 24.16200
H  42.09400 12.74300 25.71500
H  40.51400 11.86200 25.57800
H  45.49300 12.44500 28.14800
H  46.17600 11.00100 28.90700
H  46.08700 12.46200 29.87300
H  42.57400 12.48600 33.84000
H  44.11500 10.61000 37.15400
H  45.70600 11.29500 36.83700
H  45.29500 9.83000 36.02900
Mg 7.79200 53.30700 42.01000
C  7.13900 50.00200 41.36100
C  10.97600 52.90000 40.89400
C  8.05500 56.70100 41.77100
C  4.42000 53.79600 42.88000
N  8.83900 51.61900 40.99800
C  8.47400 50.34300 40.98200
C  9.66900 49.40400 40.47500
C  10.93400 50.29100 40.53100
C  10.25900 51.68900 40.79200
C  11.96800 49.76700 41.55900
C  9.45500 48.75600 39.11700
C  9.11000 49.56200 37.90300
H  8.01100 48.95900 36.96300
N  9.34000 54.59700 41.55100
C  10.55100 54.20300 41.14600
C  11.35600 55.37500 40.95500
C  10.52100 56.50100 40.90000
C  9.22400 55.96300 41.41800
C  12.81100 55.25800 40.57100
C  10.91200 57.97700 40.57100
O  12.05100 58.16600 40.19100
C  10.05200 59.29000 40.73400
N  6.44200 54.98900 42.30000
C  6.85900 56.32300 42.25100
C  5.63900 57.29300 42.38100
C  4.45100 56.33100 42.60100
C  5.14400 54.92900 42.67100
C  5.83500 58.32100 43.49400
C  3.46100 56.32100 41.40900
C  2.00900 56.74200 41.74700
N  6.07600 52.20000 42.11600
C  4.78900 52.46000 42.56100
C  4.06700 51.20000 42.62900
C  4.91300 50.23000 42.29500
C  6.12200 50.84600 41.89100
C  2.58900 50.97700 43.02600
C  5.13800 48.79500 42.20000
O  4.45000 47.86500 42.54600
C  6.48700 48.58600 41.48000
C  6.34800 47.79900 40.26200
O  6.20000 48.23300 39.12800
O  6.27800 46.48100 40.69600
C  6.36300 45.59200 39.53700
H  12.01800 52.73500 40.61300
H  8.16700 57.78800 41.75800
H  3.40600 54.06200 43.18600
H  9.69500 48.51700 41.10800
H  11.39200 50.35300 39.54300
H  11.99200 50.22900 42.54600
H  12.92600 49.86100 41.04800
H  11.82000 48.69700 41.70300
H  8.76400 47.91800 39.20600
H  10.42800 48.31600 38.89700
H  9.91800 49.60100 37.17200
H  8.83000 50.58500 38.15300
H  13.38100 54.34700 40.75700
H  13.24400 56.07500 41.14900
H  13.00700 55.49600 39.52600
H  9.04300 59.39100 40.33200
H  10.54400 60.06300 40.14400
H  9.96000 59.59200 41.77700
H  5.47600 57.95000 41.52600
H  3.91900 56.53400 43.53000
H  5.77500 59.32700 43.08000
H  6.77700 58.19600 44.02800
H  5.03700 58.32200 44.23700
H  3.47200 55.41700 40.80000
H  3.76400 57.15400 40.77600
H  1.87100 56.55800 42.81300
H  1.31600 56.13300 41.16700
H  1.86600 57.78100 41.45100
H  2.06100 51.92700 43.11200
H  2.66500 50.44200 43.97300
H  2.14600 50.18900 42.41700
H  7.10200 47.97600 42.14200
H  7.24600 45.89400 38.97500
H  5.38200 45.52600 39.06500
H  6.60400 44.60900 39.94100

