158

Mg 42.69400 42.02100 26.72200
C  41.59800 44.06600 29.36400
C  43.78200 39.75200 28.89500
C  43.73900 40.22600 24.02300
C  42.08900 44.69900 24.58000
N  42.56200 41.91400 28.84300
C  41.92400 42.76000 29.71100
C  41.92300 42.18500 31.17000
C  42.91100 40.99800 31.01300
C  43.07700 40.81100 29.46700
C  44.23900 41.11500 31.76800
C  40.48700 41.77700 31.67400
C  39.91400 42.65100 32.89500
H  39.49600 41.99900 34.24600
N  43.79000 40.24800 26.54300
C  44.05400 39.42900 27.56800
C  44.78700 38.35700 27.02500
C  44.71200 38.41600 25.64000
C  44.07600 39.72500 25.32200
C  45.55100 37.28900 27.86300
C  45.25200 37.47900 24.59700
O  44.98100 37.57500 23.40500
C  46.11000 36.32300 25.00800
N  42.78400 42.40900 24.48600
C  43.27500 41.49200 23.68200
C  43.28000 42.06700 22.22600
C  42.86400 43.53000 22.38100
C  42.48300 43.56700 23.87700
C  44.54500 41.97800 21.46800
C  41.74600 43.98900 21.39600
C  40.29000 44.03000 21.89600
N  41.89400 43.96800 26.86900
C  41.74000 44.90100 25.89600
C  41.21700 46.18000 26.49000
C  41.13100 45.81000 27.84900
C  41.66600 44.52900 28.02900
C  40.71600 47.46400 25.79600
C  40.79300 46.33700 29.21500
O  40.21400 47.35500 29.62500
C  41.01000 45.18500 30.19500
C  42.00600 45.67300 31.15100
O  43.22900 45.69900 30.87300
O  41.42500 46.12800 32.32800
C  42.23700 46.90600 33.26900
H  44.11700 39.04300 29.65400
H  44.06600 39.58800 23.19900
H  42.05100 45.63700 24.02200
H  42.27400 42.93800 31.87600
H  42.37600 40.14200 31.42300
H  44.50200 42.08200 32.19800
H  45.05600 40.82800 31.10600
H  44.20300 40.27200 32.45800
H  40.36800 40.71700 31.90000
H  39.82700 41.88800 30.81400
H  39.06000 43.20800 32.51100
H  40.66300 43.41700 33.09700
H  45.01600 36.34600 27.75400
H  45.37100 37.56400 28.90200
H  46.59600 37.28400 27.55400
H  46.17700 35.70000 24.11600
H  45.64100 35.72900 25.79300
H  47.09200 36.58500 25.40200
H  42.54500 41.55700 21.60300
H  43.67400 44.24700 22.25100
H  45.27900 42.58400 21.99800
H  44.50500 42.41600 20.47100
H  44.90400 40.95000 21.51000
H  41.86800 43.59200 20.38800
H  41.85200 45.05300 21.18500
H  40.17700 43.26400 22.66200
H  39.68400 43.66200 21.06800
H  40.04900 45.00500 22.32000
H  41.46700 47.37600 25.01100
H  40.91400 48.35800 26.38700
H  39.73500 47.33000 25.33900
H  40.04200 44.98800 30.65500
H  41.53800 47.54800 33.80500
H  42.94100 47.54700 32.73800
H  42.64700 46.15500 33.94400
Mg 26.85500 49.70600 25.79500
C  24.96800 50.61600 28.52400
C  29.27400 48.43200 28.13900
C  29.00200 48.85500 23.20900
C  24.68400 50.98700 23.56900
N  27.22000 49.70600 28.16500
C  26.14200 49.90900 29.01100
C  26.42900 49.40100 30.45100
C  27.92600 49.06800 30.30400
C  28.11000 48.90700 28.72300
C  28.87500 50.13000 30.83200
C  25.51700 48.28800 31.02000
C  25.01700 48.32900 32.45900
H  25.67600 49.26700 33.62500
N  28.85800 48.80400 25.68500
C  29.62600 48.41800 26.76800
C  30.88600 47.93700 26.22000
C  30.89300 48.24900 24.83400
C  29.48200 48.57500 24.54400
C  31.88800 47.27700 27.13300
C  32.05600 48.10500 23.84300
O  31.96200 48.41300 22.66300
C  33.37800 47.62000 24.40200
N  26.87600 50.02900 23.69600
C  27.80400 49.45500 22.85300
C  27.46100 49.67900 21.38700
C  25.94800 50.27500 21.51600
C  25.78900 50.43200 23.01100
C  28.52400 50.49200 20.66800
C  24.76400 49.31000 21.00700
C  23.74200 49.88200 19.95100
N  25.24800 50.71000 26.00800
C  24.43300 51.23100 24.94900
C  23.35300 51.99500 25.59600
C  23.48900 51.62000 26.95300
C  24.68300 50.90900 27.16200
C  22.25000 52.80300 24.93800
C  22.82600 51.75100 28.20300
O  21.74100 52.24400 28.54800
C  23.68400 51.00700 29.29500
C  23.94500 51.92000 30.51700
O  24.04800 53.12000 30.54300
O  23.78900 51.11100 31.67100
C  23.32400 51.80400 32.89200
H  29.98400 47.91100 28.78600
H  29.56100 48.30700 22.44800
H  23.93200 51.31700 22.84900
H  26.10400 50.25100 31.05100
H  28.42400 48.19000 30.71500
H  29.29300 49.74800 31.76400
H  28.41500 51.06700 31.14400
H  29.66900 50.28200 30.10100
H  26.04600 47.34000 30.92500
H  24.71800 48.28000 30.27900
H  25.16200 47.34400 32.90200
H  23.93800 48.47900 32.51700
H  32.66400 47.95800 27.48200
H  32.38000 46.37800 26.76100
H  31.49500 46.88700 28.07300
H  34.08700 47.60300 23.57400
H  33.24600 46.58400 24.71300
H  33.74700 48.20700 25.24300
H  27.39800 48.67700 20.96400
H  25.91200 51.19200 20.92600
H  29.43100 50.42900 21.26800
H  28.21100 51.53600 20.66400
H  28.58900 50.09900 19.65300
H  24.18700 48.95300 21.86100
H  25.25600 48.45300 20.54700
H  23.85500 50.96300 19.87300
H  22.75200 49.54700 20.26100
H  23.87000 49.68700 18.88600
H  22.60400 53.16700 23.97300
H  22.10200 53.66700 25.58600
H  21.36300 52.19100 24.77500
H  23.17200 50.14900 29.73000
H  23.96400 52.67400 33.03900
H  23.31600 51.15700 33.77000
H  22.27000 52.04900 32.76200

