158

Mg 48.79900 35.65900 28.00500
C  46.81500 33.93900 30.41600
C  48.49100 38.49900 30.04200
C  50.36700 37.35800 25.65900
C  48.12400 33.06000 25.83200
N  47.85000 36.16900 30.00900
C  47.22900 35.22300 30.86000
C  47.12400 35.78700 32.26700
C  47.27800 37.28300 32.06400
C  47.95800 37.35400 30.62100
C  46.07200 38.18300 32.17100
C  48.10700 35.09500 33.25300
C  47.60600 34.82400 34.68400
H  48.00800 35.90200 35.65900
N  49.55300 37.69000 27.97500
C  49.17400 38.64700 28.80400
C  49.92600 39.80600 28.41300
C  50.44900 39.59000 27.06200
C  50.18700 38.15000 26.86100
C  49.96200 41.06700 29.20700
C  51.17100 40.53400 26.01700
O  51.57000 40.05400 24.96400
C  51.34500 41.94400 26.34000
N  49.13100 35.35900 26.06100
C  49.91200 36.11900 25.32400
C  50.24500 35.59000 23.89600
C  49.54600 34.16900 24.09000
C  48.96000 34.11800 25.45100
C  49.70800 36.40500 22.72200
C  50.35400 32.89800 23.78800
C  49.71500 31.96100 22.76900
N  47.72600 33.82100 28.05800
C  47.53700 32.86300 27.07200
C  46.72200 31.74600 27.55300
C  46.43500 32.15700 28.87200
C  47.01800 33.39100 29.13600
C  46.33500 30.46900 26.80000
C  45.68200 31.69000 30.06800
O  45.02100 30.72400 30.37000
C  45.94300 32.82500 31.12400
C  46.59800 32.21700 32.31500
O  47.74800 31.87800 32.25400
O  45.71600 32.07800 33.32600
C  46.30300 31.64000 34.61900
H  48.52400 39.42000 30.62700
H  50.93100 37.78900 24.82900
H  48.00100 32.35200 25.01000
H  46.10300 35.61500 32.60800
H  47.97600 37.64600 32.81900
H  46.15800 38.78100 33.07700
H  45.18500 37.58100 32.36700
H  45.85800 38.79800 31.29700
H  49.01000 35.70600 33.25100
H  48.41300 34.12200 32.86800
H  48.07700 33.86900 34.91500
H  46.52600 34.67500 34.68200
H  50.92400 41.25400 29.68500
H  49.25100 41.28100 30.00500
H  49.75000 41.83600 28.46400
H  50.35200 42.37700 26.21800
H  51.90700 42.24800 25.45700
H  51.84200 42.01000 27.30800
H  51.29200 35.47700 23.61200
H  48.69200 34.07700 23.41900
H  50.49800 36.39800 21.97100
H  49.51800 37.43500 23.02400
H  48.79300 36.01900 22.27400
H  50.43500 32.28300 24.68500
H  51.37900 33.20200 23.57600
H  49.71700 32.43600 21.78800
H  48.75900 31.56300 23.11100
H  50.26900 31.07200 22.46900
H  46.23900 29.61400 27.46900
H  47.04000 30.16100 26.02700
H  45.47000 30.68100 26.17200
H  44.98200 33.16600 31.51000
H  45.53200 30.89600 34.82000
H  46.18800 32.42700 35.36500
H  47.31800 31.24700 34.55600
Mg 26.98000 50.46700 26.11000
C  24.91200 51.53800 28.82700
C  29.30800 49.55300 28.51400
C  29.11500 49.93300 23.60200
C  24.76500 51.93300 23.94600
N  27.02400 50.52600 28.47000
C  26.08100 50.95900 29.32500
C  26.44900 50.61300 30.80100
C  27.97100 50.19800 30.65000
C  28.18700 50.16600 29.07500
C  29.04000 51.01100 31.42300
C  25.51800 49.54700 31.51600
C  24.97900 49.63000 32.97700
H  25.82300 50.23700 34.13000
N  28.89400 49.64200 26.05700
C  29.67500 49.30600 27.10400
C  30.89800 48.78000 26.56600
C  30.82400 48.92600 25.17900
C  29.61500 49.57400 24.89100
C  31.92000 48.15200 27.46800
C  31.74100 48.33000 24.08800
O  31.75300 48.74300 22.90700
C  32.92400 47.51600 24.55100
N  26.97900 50.89400 24.05100
C  27.93500 50.56700 23.19500
C  27.48000 50.75500 21.76200
C  26.00400 51.31700 21.89000
C  25.89100 51.40400 23.38200
C  28.37600 51.73400 20.95300
C  24.82000 50.52500 21.04000
C  23.86700 51.29800 20.09000
N  25.23800 51.57600 26.32600
C  24.47900 52.11600 25.32300
C  23.38100 52.85500 25.95400
C  23.52600 52.65500 27.33000
C  24.63500 51.79900 27.49400
C  22.30000 53.59900 25.22300
C  22.85200 52.87700 28.54000
O  21.81400 53.44900 28.71800
C  23.79300 52.24200 29.61400
C  24.45600 53.31900 30.39900
O  25.39200 53.98500 30.14000
O  23.79000 53.51600 31.51700
C  24.52000 54.14900 32.65400
H  30.07300 49.29500 29.24900
H  29.74000 49.63200 22.75800
H  23.97700 52.30200 23.28500
H  26.31700 51.51900 31.39200
H  28.10900 49.21000 31.09000
H  29.74000 51.44100 30.70700
H  29.64300 50.29300 31.97900
H  28.65800 51.84800 32.00700
H  25.87300 48.51600 31.52100
H  24.68100 49.39400 30.83400
H  24.92000 48.57900 33.26000
H  23.94800 49.98300 33.01300
H  31.90400 47.09600 27.19900
H  31.69200 48.21700 28.53200
H  32.92900 48.52600 27.29500
H  33.63400 47.42000 23.72900
H  32.64000 46.51800 24.88500
H  33.25800 48.14300 25.37800
H  27.36900 49.77400 21.30000
H  25.88700 52.36900 21.62900
H  29.23100 52.05500 21.54800
H  27.85800 52.63500 20.62600
H  28.68000 51.13800 20.09200
H  24.26400 49.93300 21.76800
H  25.35800 49.81000 20.41800
H  23.37900 52.21900 20.41200
H  23.08400 50.62300 19.74500
H  24.54200 51.44100 19.24700
H  21.80500 53.00800 24.45300
H  22.74100 54.54400 24.90400
H  21.50000 53.77900 25.94100
H  23.43900 51.42700 30.24500
H  24.12800 53.71000 33.57200
H  24.21900 55.19500 32.71800
H  25.60200 54.04600 32.73200

