158

Mg -2.50700 17.25800 27.70700
C  -2.64600 15.37100 30.59400
C  -3.05300 20.09700 29.62900
C  -2.36100 19.18800 24.84300
C  -2.19300 14.37800 25.69200
N  -2.81500 17.67100 29.87400
C  -2.76300 16.77000 30.92900
C  -2.63500 17.45300 32.29900
C  -2.95100 18.93800 31.95700
C  -2.96300 18.91400 30.41000
C  -4.24200 19.59100 32.62300
C  -1.29700 17.18800 33.13200
C  -0.95800 18.03200 34.41200
H  -0.77300 17.40700 35.82800
N  -2.69800 19.31000 27.22600
C  -2.86200 20.29200 28.21300
C  -2.65700 21.60900 27.54100
C  -2.57000 21.40200 26.17800
C  -2.60000 19.86900 26.00900
C  -2.49300 22.92600 28.27100
C  -2.28600 22.41600 25.01000
O  -2.13200 22.13600 23.82500
C  -2.08500 23.76500 25.34800
N  -2.23500 16.80900 25.59700
C  -2.24700 17.80300 24.63100
C  -2.09900 17.16900 23.30200
C  -1.56400 15.73700 23.61400
C  -2.12400 15.59600 25.01800
C  -3.42500 17.21900 22.40800
C  -0.04300 15.40500 23.52200
C  0.97800 16.39100 24.10400
N  -2.51300 15.29700 28.05200
C  -2.37100 14.20400 27.14900
C  -2.43700 12.98500 27.94400
C  -2.40800 13.36100 29.23400
C  -2.49100 14.78900 29.26300
C  -2.38800 11.60600 27.43800
C  -2.44300 12.85800 30.60700
O  -2.68400 11.71300 30.97200
C  -2.50900 14.10200 31.54400
C  -1.24700 13.94600 32.34300
O  -0.10800 14.07400 31.92400
O  -1.58600 13.60700 33.66300
C  -0.45300 13.16700 34.41200
H  -3.19200 20.97400 30.26500
H  -2.30900 19.80100 23.94100
H  -2.11800 13.51000 25.03400
H  -3.38500 17.06200 32.98700
H  -2.15400 19.58600 32.32200
H  -4.61600 18.86100 33.34100
H  -5.05600 19.80800 31.93200
H  -4.00900 20.44100 33.26500
H  -0.53600 17.33600 32.36600
H  -1.08200 16.15800 33.42000
H  -1.77400 18.75500 34.42200
H  -0.07500 18.58900 34.10100
H  -3.26800 23.59100 27.89100
H  -1.56000 23.44500 28.05100
H  -2.55000 22.71700 29.33900
H  -1.86600 24.45900 24.53700
H  -1.23900 23.71000 26.03200
H  -2.99700 24.11500 25.83000
H  -1.35800 17.65600 22.66700
H  -2.13900 15.02600 23.02200
H  -4.09400 17.91300 22.91700
H  -3.93700 16.25800 22.46000
H  -3.19800 17.56200 21.39900
H  0.21300 15.43800 22.46300
H  0.17100 14.39100 23.85900
H  0.47500 17.20500 24.62600
H  1.54600 16.85000 23.29500
H  1.69800 15.85200 24.71900
H  -1.91900 11.62700 26.45400
H  -3.40600 11.24800 27.27900
H  -1.97800 11.02900 28.26600
H  -3.41900 13.93500 32.11900
H  -0.69500 12.54100 35.27100
H  -0.10100 14.11900 34.80900
H  0.37300 12.73400 33.84800
Mg 44.73700 4.42200 45.77100
C  42.86800 7.58400 45.84400
C  41.71500 2.85500 45.35600
C  46.51300 1.71300 45.12000
C  47.58800 6.42800 45.21600
N  42.54000 5.21000 45.50300
C  42.00800 6.44500 45.62000
C  40.48900 6.37300 45.53100
C  40.20500 4.84300 45.48700
C  41.59200 4.24000 45.47300
C  39.24400 4.27000 46.53800
C  39.85200 7.13800 44.37600
C  40.70600 7.43400 43.10100
H  40.09400 7.01700 41.78200
N  44.21900 2.47800 45.47000
C  42.91100 2.01300 45.30200
C  42.97500 0.62200 44.91400
C  44.37100 0.27500 44.96400
C  45.10300 1.49600 45.22400
C  41.75600 -0.22000 44.69800
C  44.86300 -1.16800 44.63500
O  44.04700 -2.04700 44.30400
C  46.33900 -1.50900 44.54700
N  46.76600 4.18700 45.03700
C  47.24200 2.88800 45.03900
C  48.74600 2.88000 44.71100
C  49.04300 4.41900 44.77400
C  47.76100 5.05900 44.97200
C  49.64000 2.02500 45.65200
C  49.75500 4.91600 43.54100
C  51.11500 5.39200 43.77100
N  45.21900 6.54500 45.76500
C  46.44800 7.18300 45.59500
C  46.26000 8.66900 45.71800
C  44.89900 8.86000 45.96200
C  44.30100 7.53200 45.94800
C  47.32000 9.71200 45.61200
C  43.88200 9.85600 46.19800
O  43.95600 11.06800 46.31500
C  42.51600 9.08800 46.02500
C  41.76000 9.31800 47.27400
O  41.90800 8.63000 48.29400
O  40.94500 10.40700 47.14700
C  40.15000 10.65100 48.37800
H  40.77500 2.32600 45.18700
H  47.03100 0.76500 44.96000
H  48.53800 6.96500 45.18200
H  40.14400 6.79000 46.47600
H  39.74500 4.57200 44.53700
H  39.83700 3.66200 47.22100
H  38.44200 3.64700 46.14300
H  38.79600 5.05100 47.15200
H  39.64900 8.10500 44.83400
H  38.98100 6.58400 44.02600
H  41.69500 7.01700 43.29000
H  40.82000 8.51800 43.10500
H  41.93800 -0.95500 43.91400
H  40.89000 0.33800 44.34200
H  41.49400 -0.68400 45.64900
H  46.30500 -2.58500 44.37600
H  46.77200 -1.36700 45.53700
H  46.84200 -0.97000 43.74400
H  48.74800 2.48500 43.69600
H  49.57500 4.74900 45.66600
H  48.90700 1.70900 46.39400
H  50.50900 2.60600 45.96000
H  50.02400 1.16800 45.10000
H  49.28300 5.70900 42.96100
H  49.95000 4.05400 42.90300
H  51.80900 4.72900 43.25600
H  51.37100 5.22800 44.81800
H  51.39400 6.42600 43.56700
H  46.90400 10.69100 45.84900
H  47.66100 9.81800 44.58200
H  48.08400 9.55000 46.37300
H  41.93000 9.48900 45.19800
H  40.70200 10.40900 49.28600
H  39.16400 10.18900 48.32900
H  39.94800 11.72200 48.34900

