158

Mg 54.18500 22.83500 45.41600
C  51.85700 24.98400 43.68400
C  52.43000 20.17100 44.15000
C  56.88500 21.19700 46.01400
C  55.86500 25.91000 46.30800
N  52.37200 22.66000 44.12800
C  51.62700 23.63000 43.53100
C  50.41300 23.07600 42.72700
C  50.42200 21.48400 43.22200
C  51.88200 21.42100 43.78000
C  49.33400 21.10600 44.30900
C  50.52500 23.10400 41.21200
C  49.11700 23.26900 40.46300
H  49.01700 22.55900 39.11000
N  54.60700 20.91900 45.09500
C  53.69600 19.91000 44.72600
C  54.47700 18.64700 44.74700
C  55.78700 18.97600 45.24900
C  55.83700 20.39600 45.48700
C  53.89200 17.39200 44.20800
C  56.86100 17.91900 45.41500
O  56.60900 16.72900 45.15800
C  58.32200 18.16700 45.97700
N  56.12200 23.56800 46.14300
C  57.06600 22.57500 46.35100
C  58.43300 23.21300 46.72800
C  57.96100 24.66900 47.08800
C  56.60200 24.76800 46.43300
C  59.42600 22.45700 47.68900
C  58.90700 25.84000 46.57600
C  59.11400 26.90300 47.63200
N  53.91900 25.01200 45.11100
C  54.62800 26.08300 45.60600
C  53.97800 27.32700 45.22500
C  52.84800 26.96900 44.47300
C  52.89300 25.54900 44.39400
C  54.45300 28.58700 45.76700
C  51.75100 27.42800 43.69900
O  51.42300 28.57300 43.53300
C  51.05700 26.16500 43.15200
C  51.27200 26.31300 41.70500
O  52.33700 26.16000 41.11300
O  50.12800 26.73600 41.10700
C  50.26700 27.27700 39.82200
H  51.87900 19.28300 43.83300
H  57.68600 20.52300 46.32700
H  56.37900 26.79900 46.67900
H  49.48600 23.51800 43.09000
H  50.08900 20.78500 42.45500
H  49.13900 20.03700 44.22000
H  48.43100 21.70800 44.20800
H  49.70900 21.33200 45.30700
H  50.84000 22.12100 40.86100
H  51.26900 23.86900 40.99100
H  48.90600 24.32600 40.30300
H  48.32400 22.88500 41.10500
H  52.94100 17.50900 43.68900
H  53.93900 16.57100 44.92400
H  54.61200 17.01100 43.48400
H  58.85500 19.00500 45.52800
H  58.92100 17.26000 45.89800
H  58.18700 18.25300 47.05500
H  58.88900 23.25400 45.73800
H  57.94200 24.83600 48.16500
H  59.64800 23.11800 48.52700
H  60.28000 22.24500 47.04500
H  59.04400 21.45000 47.85500
H  58.55200 26.32600 45.66700
H  59.92500 25.45200 46.61300
H  60.19600 27.02400 47.69700
H  58.49100 26.83500 48.52300
H  58.71500 27.80700 47.17100
H  55.41900 28.82800 45.32300
H  54.59700 28.50100 46.84400
H  53.68700 29.31300 45.49500
H  50.01700 26.19700 43.47800
H  50.86300 28.18200 39.93800
H  49.26500 27.55200 39.48900
H  50.70000 26.57400 39.11100
Mg 35.62500 49.44700 24.40700
C  35.67100 48.06600 27.42000
C  34.45200 52.38800 25.86700
C  35.14700 50.85100 21.28000
C  36.42000 46.48800 22.86700
N  35.02000 50.13900 26.45900
C  35.39100 49.41800 27.54000
C  35.30700 50.23600 28.84300
C  34.92600 51.67000 28.22200
C  34.76800 51.39200 26.77600
C  33.63600 52.42100 28.85500
C  36.62800 50.36600 29.63700
C  36.44100 49.97900 31.10500
H  35.19900 50.58900 31.83000
N  34.99000 51.42500 23.63200
C  34.52800 52.42200 24.43500
C  34.17600 53.50800 23.54000
C  34.23400 53.01500 22.19600
C  34.80300 51.71600 22.30000
C  33.65300 54.89600 24.05000
C  33.73500 53.66000 20.93500
O  34.14400 53.36800 19.83800
C  32.89900 54.83600 20.99600
N  35.55000 48.67700 22.21600
C  35.58200 49.56300 21.17500
C  35.86700 48.77500 19.87100
C  36.24000 47.33800 20.42300
C  36.06200 47.47500 21.87200
C  34.70200 48.68500 18.98500
C  37.61900 46.86800 20.02900
C  38.84100 47.28600 20.99400
N  35.91600 47.61400 25.01000
C  36.26800 46.46800 24.26100
C  36.61700 45.42900 25.24100
C  36.29600 45.99000 26.46700
C  35.88600 47.31400 26.28800
C  37.16000 44.14800 24.82600
C  36.24400 45.76800 27.89400
O  36.61500 44.71900 28.47500
C  35.72000 47.04900 28.55200
C  34.51700 46.84600 29.39900
O  33.38800 46.69100 28.94900
O  34.82400 46.87400 30.74400
C  33.82300 46.52600 31.66500
H  34.06100 53.25700 26.40000
H  35.26800 51.27400 20.28000
H  36.90800 45.64900 22.36700
H  34.48500 49.79900 29.40800
H  35.73400 52.39400 28.31600
H  33.44300 52.16500 29.89700
H  32.75000 52.35600 28.22400
H  33.96200 53.44400 29.04600
H  37.02000 51.38100 29.69600
H  37.37400 49.69700 29.20900
H  37.31500 50.42900 31.57600
H  36.46000 48.89300 31.19300
H  32.58600 54.70700 24.16800
H  33.72000 55.71800 23.33700
H  34.05500 55.10900 25.04100
H  32.17900 54.66900 21.79800
H  32.32200 55.00200 20.08600
H  33.48000 55.75700 20.99900
H  36.67300 49.23100 19.29600
H  35.46300 46.69400 20.01000
H  34.17600 49.61300 18.76200
H  33.87800 48.04700 19.30400
H  34.92600 48.29400 17.99200
H  37.79400 46.98600 18.96000
H  37.56300 45.78700 20.16200
H  38.97900 46.35600 21.54500
H  38.66900 48.12100 21.67300
H  39.74900 47.40700 20.40300
H  37.95900 43.93100 25.53500
H  37.57500 44.16900 23.81900
H  36.26200 43.53100 24.84000
H  36.55700 47.27000 29.21500
H  32.92400 46.01400 31.32300
H  33.61900 47.44100 32.22100
H  34.33800 45.81200 32.30800

