158

Mg 44.25800 4.00800 47.60200
C  42.19300 6.73800 47.10400
C  41.65700 1.94800 46.77900
C  46.35400 1.36400 47.43400
C  47.02200 6.22700 47.75900
N  42.21700 4.35500 47.00300
C  41.63100 5.50700 46.80600
C  40.20400 5.36300 46.35200
C  39.92400 3.84200 46.47000
C  41.39400 3.31600 46.73400
C  39.17500 3.38800 47.76400
C  40.07200 5.88900 44.89300
C  38.70500 6.56600 44.43100
H  38.16400 5.98400 43.06700
N  43.99300 1.91100 47.38000
C  42.86200 1.27900 47.11100
C  42.98400 -0.06700 47.13200
C  44.35700 -0.29600 47.36600
C  44.95200 1.01900 47.50800
C  41.89900 -1.09200 46.86100
C  45.00700 -1.61900 47.28000
O  44.21500 -2.58100 47.05900
C  46.42900 -1.96700 47.42600
N  46.36100 3.85800 47.29900
C  46.96600 2.62800 47.43600
C  48.51300 2.84000 47.86600
C  48.75900 4.34200 47.94200
C  47.30600 4.83200 47.60400
C  48.91300 2.07500 49.14900
C  49.87000 4.92700 47.02700
C  51.17100 5.38000 47.81500
N  44.60800 6.03300 47.36400
C  45.80200 6.79100 47.51000
C  45.43100 8.19700 47.48400
C  44.04500 8.22400 47.39600
C  43.57300 6.91000 47.34900
C  46.24500 9.38800 47.64100
C  42.89600 9.08800 47.28900
O  42.83900 10.34300 47.15200
C  41.60900 8.17300 47.13200
C  40.71700 8.54800 48.31400
O  40.63800 7.96600 49.38800
O  39.80900 9.55300 47.89100
C  38.70900 9.74900 48.85600
H  40.72600 1.39000 46.65700
H  46.97400 0.46600 47.47100
H  47.83500 6.91700 47.99600
H  39.63300 5.97700 47.04900
H  39.42100 3.31600 45.65900
H  38.50300 2.54200 47.61500
H  38.58300 4.22100 48.14300
H  39.93400 3.22100 48.52900
H  40.29100 5.11900 44.15300
H  40.85100 6.64600 44.80800
H  38.79400 7.64800 44.33700
H  37.93300 6.32800 45.16300
H  42.04100 -2.02500 47.40600
H  41.74000 -1.28000 45.79900
H  40.94000 -0.70700 47.20800
H  47.00100 -1.50500 46.62100
H  46.50900 -3.04000 47.24500
H  46.83300 -1.90100 48.43600
H  49.20300 2.37800 47.16000
H  48.99800 4.58900 48.97600
H  48.91200 1.03200 48.83300
H  48.15400 2.17500 49.92600
H  49.87200 2.39900 49.55400
H  49.42900 5.73000 46.43600
H  50.10600 4.15400 46.29500
H  52.05200 4.85200 47.44900
H  50.99200 5.30000 48.88800
H  51.34600 6.40900 47.50300
H  45.85800 10.05100 48.41500
H  46.22600 9.78400 46.62600
H  47.24300 9.10200 47.97100
H  41.10700 8.55100 46.24200
H  38.05900 8.87600 48.81300
H  38.12300 10.63000 48.59700
H  39.16600 10.00200 49.81300
Mg 46.65500 24.41000 28.57600
C  47.21600 26.98900 30.88000
C  45.63300 22.33500 31.04800
C  46.57600 22.10700 26.26900
C  47.82900 26.68900 26.06800
N  46.34400 24.69900 30.72100
C  46.61300 25.83300 31.49200
C  46.32800 25.52400 32.96500
C  45.55600 24.10200 32.89900
C  45.89700 23.66900 31.47200
C  45.88700 23.02900 33.92300
C  45.55600 26.65500 33.73000
C  44.50500 26.17400 34.82400
H  44.34400 26.87800 36.21100
N  46.14500 22.46400 28.61200
C  45.79100 21.78600 29.72400
C  45.70400 20.38300 29.35400
C  46.00600 20.20700 28.02500
C  46.25600 21.63600 27.53200
C  45.34700 19.40400 30.50400
C  45.94300 19.03400 27.08200
O  46.19000 19.04500 25.90300
C  45.48200 17.72100 27.65100
N  46.93800 24.49900 26.42800
C  46.80100 23.32500 25.72100
C  47.13300 23.53700 24.26200
C  47.44500 25.08100 24.26000
C  47.44900 25.47200 25.65300
C  48.28800 22.71300 23.67000
C  46.33000 25.90300 23.43900
C  44.95400 25.91400 24.13800
N  47.34500 26.41300 28.45500
C  47.85900 27.16500 27.37600
C  48.40500 28.37100 27.84000
C  48.20000 28.35200 29.22500
C  47.55700 27.12700 29.55800
C  49.13900 29.40300 27.13500
C  48.39700 29.04300 30.44300
O  48.95100 30.09900 30.61500
C  47.72200 28.20200 31.55900
C  48.63900 27.99800 32.64800
O  49.48300 27.12000 32.78800
O  48.34500 28.89700 33.58400
C  48.96100 28.75900 34.91100
H  45.08000 21.72300 31.76400
H  46.66300 21.34700 25.49000
H  48.20200 27.32600 25.26400
H  47.28000 25.47700 33.49200
H  44.49100 24.32100 32.96700
H  46.70700 22.35700 33.66800
H  45.08600 22.41000 34.32800
H  46.24900 23.60200 34.77600
H  45.21900 27.49100 33.11700
H  46.39800 27.04100 34.30300
H  44.68600 25.11700 35.02200
H  43.53700 26.12700 34.32700
H  44.32300 19.50800 30.86200
H  46.11300 19.48400 31.27600
H  45.35500 18.39000 30.10400
H  45.19000 16.96800 26.92000
H  44.60200 17.98300 28.23900
H  46.27300 17.31900 28.28400
H  46.19400 23.47300 23.71200
H  48.46400 25.31300 23.95000
H  47.94000 22.10500 22.83500
H  48.59500 22.08000 24.50200
H  49.21400 23.19300 23.35200
H  46.21200 25.35200 22.50500
H  46.70300 26.91200 23.26300
H  44.99700 26.54400 25.02600
H  44.77200 24.88100 24.43500
H  44.16700 26.43200 23.59100
H  48.69200 29.63800 26.16900
H  50.14400 28.99800 27.01700
H  49.21800 30.20200 27.87100
H  46.86200 28.74100 31.95800
H  49.96800 29.16200 34.80300
H  48.89400 27.74100 35.29500
H  48.49600 29.42000 35.64200

