158

Mg 49.44200 34.99100 28.16800
C  47.28600 33.49900 30.44300
C  49.62600 37.83600 30.13700
C  51.24200 36.46300 25.77300
C  49.14100 32.09100 26.24200
N  48.53600 35.57200 29.97900
C  47.84300 34.73300 30.87100
C  47.97400 35.25600 32.35500
C  48.26200 36.81400 32.07500
C  48.81400 36.75400 30.65700
C  47.01800 37.76100 32.32800
C  49.18000 34.56700 33.12500
C  49.27400 34.69000 34.69200
H  48.24600 35.49600 35.40600
N  50.37900 36.88300 27.99300
C  50.28400 37.90600 28.89800
C  51.14100 38.96400 28.45800
C  51.65800 38.61100 27.12100
C  51.10300 37.25400 26.85000
C  51.32700 40.25500 29.29200
C  52.61300 39.33200 26.23200
O  53.00100 38.86800 25.18400
C  52.98400 40.73000 26.57000
N  49.95700 34.43300 26.13300
C  50.82400 35.16700 25.39300
C  51.32000 34.31600 24.20100
C  50.76200 32.88900 24.50600
C  49.87400 33.16400 25.69100
C  50.98700 34.91500 22.85800
C  51.88000 31.83200 24.79000
C  51.83900 30.58800 23.86000
N  48.29400 33.23100 28.17700
C  48.30800 32.16700 27.36500
C  47.57100 31.13300 27.90500
C  47.05500 31.61800 29.06200
C  47.50600 32.92700 29.21400
C  47.43600 29.74600 27.39900
C  46.16000 31.38500 30.13400
O  45.50200 30.44100 30.45600
C  46.17700 32.65700 31.14800
C  46.53600 32.25500 32.52500
O  47.47900 31.58800 32.84500
O  45.47200 32.60900 33.36500
C  45.69000 32.45200 34.80100
H  49.68200 38.74800 30.73500
H  51.89300 36.80200 24.96400
H  49.42900 31.15800 25.75300
H  47.01900 35.02600 32.82600
H  49.09100 37.20600 32.66500
H  46.56800 38.11000 31.39900
H  47.18300 38.68900 32.87500
H  46.28200 37.10400 32.79200
H  50.12000 35.02000 32.81000
H  49.15800 33.53000 32.78900
H  50.20900 35.21200 34.89400
H  49.27700 33.69100 35.12800
H  52.38900 40.49800 29.33700
H  50.93900 40.33500 30.30700
H  50.93400 41.08400 28.70400
H  51.99100 41.16300 26.68900
H  53.47800 41.13800 25.68800
H  53.70400 40.69500 27.38700
H  52.40300 34.42400 24.24800
H  50.20100 32.47500 23.66800
H  51.97000 35.03100 22.40200
H  50.41100 35.82000 23.05200
H  50.40800 34.23300 22.23500
H  51.90400 31.57000 25.84700
H  52.83800 32.32100 24.61300
H  51.44900 29.82600 24.53500
H  52.80500 30.30100 23.44200
H  51.10500 30.75600 23.07200
H  48.08100 29.05400 27.94000
H  47.91800 29.79500 26.42200
H  46.40900 29.38400 27.35900
H  45.18500 33.10300 31.22300
H  46.76900 32.43200 34.95200
H  45.25500 31.55500 35.24200
H  45.40000 33.34900 35.34900
Mg -1.86800 33.90100 26.59000
C  -3.66700 32.58800 29.24500
C  -0.26900 35.92200 28.68500
C  -0.62400 35.37300 23.90800
C  -3.90100 31.79200 24.44100
N  -2.01300 34.23300 28.68100
C  -2.71100 33.55000 29.58100
C  -2.41400 34.03400 31.00100
C  -1.34400 35.14500 30.77600
C  -1.18000 35.17200 29.28700
C  -1.68800 36.50800 31.43400
C  -1.93900 32.95900 31.92300
C  -2.66700 32.75400 33.23200
H  -1.79000 32.33100 34.49100
N  -0.52900 35.35700 26.35600
C  0.06700 36.03300 27.40000
C  1.03200 36.92400 26.80900
C  0.92100 36.81900 25.37900
C  -0.08000 35.75600 25.16400
C  1.91000 37.87900 27.58300
C  1.65500 37.60800 24.35900
O  1.45500 37.50800 23.13800
C  2.71500 38.46100 24.80200
N  -2.27200 33.58700 24.40200
C  -1.60900 34.34200 23.53900
C  -1.96700 33.99900 22.10300
C  -2.76500 32.62000 22.30900
C  -3.01200 32.64000 23.78000
C  -2.72100 35.21900 21.32400
C  -2.03900 31.32000 21.88500
C  -1.50000 31.16900 20.43900
N  -3.39700 32.48000 26.78700
C  -4.08600 31.69800 25.85400
C  -4.96800 30.79300 26.54600
C  -4.88700 31.16000 27.92800
C  -3.92100 32.16700 27.93800
C  -5.85800 29.79000 25.90200
C  -5.40400 30.84900 29.21800
O  -6.19900 30.00100 29.62600
C  -4.57900 31.74800 30.17400
C  -5.67400 32.57400 30.84100
O  -6.03700 33.63300 30.48600
O  -6.03900 31.91800 32.02000
C  -7.14300 32.59800 32.76600
H  0.24800 36.49700 29.45600
H  -0.15000 35.73300 22.99200
H  -4.38900 31.10300 23.74900
H  -3.35500 34.47000 31.33600
H  -0.37900 34.70900 31.03600
H  -0.77100 36.91000 31.86500
H  -2.39900 36.37000 32.24800
H  -2.05200 37.22600 30.70000
H  -0.86400 33.02700 32.08700
H  -2.06300 32.07600 31.29700
H  -3.35600 31.94200 32.99800
H  -3.23400 33.66000 33.44400
H  1.64100 37.85100 28.63900
H  1.85300 38.92100 27.26800
H  2.90200 37.43600 27.49100
H  3.45300 37.92000 25.39600
H  2.25000 39.27500 25.35800
H  3.20300 39.02400 24.00700
H  -0.98400 33.83100 21.66200
H  -3.72500 32.65800 21.79400
H  -1.91700 35.52500 20.65400
H  -3.05000 35.98400 22.02700
H  -3.64900 34.86600 20.87400
H  -2.75400 30.52300 22.09000
H  -1.24600 31.13300 22.60900
H  -0.44100 31.42500 20.43000
H  -1.99600 31.84600 19.74300
H  -1.60100 30.09500 20.28800
H  -5.30700 28.85100 25.86000
H  -6.27000 30.08900 24.93900
H  -6.69100 29.60600 26.58100
H  -3.94200 31.13800 30.81400
H  -6.91400 33.63000 33.03100
H  -7.39600 32.00900 33.64700
H  -8.08300 32.67800 32.22000

