158

Mg 24.46000 -4.86500 45.37800
C  27.04800 -2.66300 43.93500
C  22.19300 -3.33600 43.25200
C  22.52900 -7.48300 45.88900
C  27.08300 -6.23500 47.41300
N  24.65800 -3.16100 43.78400
C  25.76600 -2.37900 43.39500
C  25.36000 -1.30500 42.45500
C  23.80000 -1.52300 42.39100
C  23.48500 -2.77000 43.21500
C  22.91300 -0.31700 42.91000
C  25.95900 -1.33600 40.96900
C  26.00600 0.00900 40.13800
H  25.20300 -0.06100 38.80300
N  22.54300 -5.35100 44.62700
C  21.75900 -4.55800 43.81100
C  20.62200 -5.34400 43.57800
C  20.69200 -6.55900 44.26800
C  21.97000 -6.56000 44.95400
C  19.49400 -4.92800 42.63700
C  19.58600 -7.68400 44.21700
O  18.61300 -7.57800 43.46100
C  19.72600 -8.94100 45.06000
N  24.69900 -6.47000 46.63400
C  23.72700 -7.44700 46.63500
C  24.14500 -8.57700 47.61200
C  25.40600 -7.99200 48.30700
C  25.79300 -6.85800 47.39500
C  23.08300 -9.11700 48.57500
C  26.52000 -8.96900 48.58400
C  26.97600 -9.21600 50.04900
N  26.56700 -4.54700 45.68100
C  27.53500 -5.19000 46.55100
C  28.81800 -4.53300 46.44700
C  28.58700 -3.51900 45.48500
C  27.27500 -3.62400 44.95000
C  30.10500 -4.86700 47.25900
C  29.30800 -2.45700 44.81000
O  30.42400 -2.08800 45.03600
C  28.30700 -1.87300 43.77400
C  28.15600 -0.44400 44.02300
O  28.06600 0.03000 45.14800
O  28.13500 0.22400 42.85700
C  28.10600 1.69200 42.98900
H  21.44700 -2.81900 42.64500
H  22.00100 -8.43800 45.90000
H  27.83500 -6.62100 48.10400
H  25.50400 -0.36600 42.98900
H  23.53100 -1.59500 41.33700
H  23.55000 0.53700 43.13800
H  22.48200 -0.67200 43.84700
H  22.15100 -0.06400 42.17200
H  25.40500 -2.09800 40.42100
H  26.99500 -1.67300 40.96700
H  27.03400 0.31000 39.93800
H  25.69900 0.86900 40.73200
H  19.49100 -5.47500 41.69400
H  19.55800 -3.84800 42.50300
H  18.55400 -5.16000 43.13700
H  19.73900 -8.79600 46.14100
H  20.58400 -9.48400 44.66300
H  18.84600 -9.55200 44.86400
H  24.53200 -9.39900 47.00900
H  25.13800 -7.44500 49.21100
H  22.19200 -8.50600 48.42800
H  23.33500 -9.07200 49.63400
H  22.81800 -10.16100 48.41000
H  27.46300 -8.73000 48.09300
H  26.33900 -10.00400 48.29300
H  26.40500 -10.01700 50.51900
H  26.90900 -8.25600 50.56100
H  28.02800 -9.49800 50.06000
H  30.73600 -3.97800 47.25700
H  30.59900 -5.72000 46.79400
H  29.67700 -5.08000 48.23900
H  28.70700 -2.03300 42.77300
H  29.09400 2.15200 43.02300
H  27.60900 2.06800 43.88300
H  27.64900 2.04600 42.06500
Mg 28.24300 56.46900 40.40200
C  25.85900 53.85900 39.53200
C  30.79400 54.38000 39.32300
C  30.28900 59.03500 40.41800
C  25.54300 58.73000 40.41800
N  28.27300 54.42500 39.25600
C  27.22300 53.52100 39.17600
C  27.67600 52.17600 38.59800
C  29.24600 52.28900 38.91400
C  29.50400 53.79400 39.18400
C  29.73800 51.39700 40.18600
C  27.32100 52.01100 37.15000
C  26.72400 53.20500 36.35500
H  26.93100 53.19900 34.87800
N  30.29300 56.61600 40.19100
C  31.12300 55.67100 39.70100
C  32.47900 56.16600 39.77300
C  32.37200 57.48900 40.24100
C  30.96300 57.76900 40.36800
C  33.66600 55.38500 39.38900
C  33.45200 58.50900 40.53600
O  34.59200 58.17200 40.26700
C  33.34300 59.80600 41.18000
N  27.95200 58.60900 40.42800
C  28.94200 59.47300 40.42300
C  28.49400 60.91100 40.61300
C  26.95600 60.81300 40.54100
C  26.78000 59.31000 40.47700
C  29.14400 61.66600 41.92400
C  26.42500 61.55000 39.22300
C  26.28800 63.04300 39.29600
N  26.25200 56.30200 40.27400
C  25.25600 57.32300 40.32000
C  23.93500 56.71300 40.27300
C  24.17100 55.35800 40.08800
C  25.56100 55.14500 40.04600
C  22.65500 57.45500 40.46200
C  23.48700 54.07100 40.09100
O  22.36700 53.72300 40.36200
C  24.58300 53.07400 39.61900
C  24.67300 52.01400 40.67000
O  24.02700 50.95500 40.67400
O  25.37100 52.49700 41.82200
C  25.63400 51.44700 42.85600
H  31.65300 53.70700 39.28400
H  30.88400 59.94200 40.28800
H  24.70400 59.42900 40.42300
H  27.21400 51.34100 39.12400
H  29.81600 52.01700 38.02600
H  30.04000 51.99000 41.05000
H  30.64600 50.84800 39.93500
H  28.97700 50.74500 40.61300
H  26.59900 51.19700 37.08100
H  28.21900 51.73200 36.59800
H  26.88600 54.17100 36.83300
H  25.64800 53.13900 36.51400
H  33.49500 54.66900 38.58600
H  34.02700 54.75400 40.20100
H  34.43500 56.10000 39.09800
H  32.42800 59.76800 41.77300
H  33.18100 60.53200 40.38300
H  34.23200 60.09500 41.74000
H  28.94600 61.47200 39.79500
H  26.44500 61.27200 41.38700
H  29.87600 62.43300 41.67000
H  29.69600 60.95300 42.53600
H  28.45500 62.05000 42.67700
H  25.47100 61.11000 38.93100
H  27.14500 61.34300 38.43200
H  26.86800 63.40200 40.14600
H  25.23500 63.31000 39.38200
H  26.77800 63.39400 38.38800
H  22.51700 57.73800 39.41800
H  22.58800 58.32800 41.11100
H  21.84800 56.78400 40.75700
H  24.18600 52.58400 38.73000
H  24.80800 50.73800 42.90600
H  25.65800 51.97600 43.80900
H  26.62000 50.99100 42.76900

