158

Mg 1.91100 -1.63000 45.15600
C  5.25700 -0.73100 44.62500
C  0.95200 1.28500 43.51500
C  -1.23200 -2.84800 45.22700
C  3.13200 -4.79000 46.42800
N  3.03300 0.03600 44.10900
C  4.37400 0.25400 44.14300
C  4.74700 1.68300 43.46200
C  3.34400 2.29900 43.36700
C  2.34300 1.19000 43.74700
C  3.12900 3.65400 44.08600
C  5.40100 1.55500 42.11100
C  6.03400 2.93800 41.55300
H  5.79200 3.31200 40.03900
N  0.17300 -0.90500 44.33900
C  -0.04600 0.34200 43.75700
C  -1.44800 0.43100 43.51900
C  -2.14900 -0.72400 43.98300
C  -1.06600 -1.58400 44.48800
C  -2.04200 1.77000 42.97900
C  -3.59300 -0.94800 43.85600
O  -4.23400 -0.01200 43.40400
C  -4.28900 -2.20000 44.37900
N  1.10500 -3.54100 45.66600
C  -0.23400 -3.65500 45.78600
C  -0.67000 -4.94700 46.46100
C  0.69700 -5.64800 46.81100
C  1.75100 -4.67900 46.22300
C  -1.64700 -4.85400 47.62100
C  0.77100 -7.06200 46.18200
C  1.40500 -8.14400 47.03600
N  3.77900 -2.56700 45.56100
C  4.08900 -3.80800 46.07600
C  5.49900 -4.03300 46.02000
C  6.00600 -2.80300 45.50900
C  4.90500 -1.92700 45.20000
C  6.19300 -5.24100 46.48200
C  7.22500 -2.08200 45.15400
O  8.42400 -2.44600 45.35100
C  6.80900 -0.75200 44.47900
C  7.46700 0.41700 45.13400
O  7.73300 0.52200 46.32400
O  7.91700 1.25800 44.14100
C  8.65300 2.37200 44.74100
H  0.68700 2.33900 43.41000
H  -2.26000 -3.16100 45.42300
H  3.45900 -5.76500 46.79500
H  5.30700 2.33300 44.13500
H  3.11800 2.60800 42.34700
H  2.43000 4.35600 43.63200
H  4.09400 4.16000 44.10000
H  2.89500 3.51100 45.14100
H  4.66400 1.04900 41.48700
H  6.21800 0.84200 42.22100
H  7.07100 2.60300 41.54800
H  5.85300 3.76000 42.24500
H  -2.49500 1.58700 42.00500
H  -1.26400 2.51800 42.82800
H  -2.81200 2.28600 43.55400
H  -4.09000 -2.37700 45.43600
H  -3.82500 -3.02800 43.84200
H  -5.36900 -2.10500 44.27200
H  -1.23200 -5.52200 45.72500
H  0.75500 -5.72800 47.89600
H  -1.69200 -3.81100 47.93600
H  -1.33100 -5.54200 48.40600
H  -2.65800 -5.16400 47.35400
H  1.38200 -7.00700 45.28000
H  -0.25700 -7.34900 45.96400
H  1.81000 -7.73700 47.96200
H  2.23300 -8.69300 46.58800
H  0.58000 -8.81600 47.27200
H  7.16600 -4.81100 46.71800
H  6.26400 -5.91500 45.62900
H  5.70500 -5.71800 47.33200
H  7.09400 -0.85700 43.43200
H  7.92700 3.05000 45.19100
H  9.26300 2.92300 44.02600
H  9.34300 2.00300 45.49900
Mg 9.91900 48.10300 25.64500
C  7.92400 48.21800 28.56200
C  12.49300 49.47500 27.32100
C  11.73400 47.86100 22.85200
C  7.02700 47.35200 23.82800
N  10.15500 48.68000 27.70700
C  9.23800 48.65100 28.75300
C  9.92400 49.09000 29.99200
C  11.09700 49.93700 29.56400
C  11.24700 49.37300 28.04600
C  10.89500 51.47000 29.53000
C  10.31400 47.83000 30.82900
C  10.31000 47.99500 32.43700
H  10.14900 46.72100 33.25100
N  11.91600 48.51800 25.18700
C  12.84600 49.08900 26.03700
C  14.16400 49.00200 25.39700
C  13.91000 48.56600 24.01500
C  12.47600 48.27300 23.97200
C  15.41300 49.29300 26.11700
C  14.80400 48.32400 22.79900
O  14.40500 47.84300 21.77000
C  16.21400 48.65900 22.95900
N  9.42300 47.72600 23.62500
C  10.36000 47.67100 22.68200
C  9.74000 47.33600 21.31300
C  8.25400 46.90800 21.70600
C  8.24200 47.34700 23.09600
C  9.75400 48.61600 20.38700
C  7.84400 45.38000 21.56400
C  8.70600 44.37000 22.30900
N  7.86300 47.88300 26.02800
C  6.78600 47.64800 25.19000
C  5.58500 47.61800 25.96800
C  6.01600 47.73200 27.31900
C  7.37500 47.98500 27.30100
C  4.24600 47.29400 25.42600
C  5.53600 47.75200 28.65000
O  4.43000 47.54500 29.10000
C  6.79200 48.05700 29.55800
C  7.02700 46.90600 30.55400
O  7.52800 45.82200 30.31500
O  6.41600 47.25200 31.77900
C  6.39400 46.08700 32.67400
H  13.30600 50.00900 27.81600
H  12.15900 47.74800 21.85300
H  6.18700 47.11700 23.17200
H  9.22600 49.70000 30.56600
H  11.92200 49.68300 30.23100
H  9.94700 51.70700 30.01400
H  10.75400 51.83600 28.51300
H  11.72100 51.93900 30.06500
H  11.35000 47.64600 30.54600
H  9.74900 46.98200 30.44200
H  9.54900 48.67800 32.81400
H  11.29000 48.46100 32.53900
H  15.36500 48.99200 27.16300
H  15.64700 50.35600 26.05200
H  16.21000 48.69900 25.66900
H  16.73600 48.54900 22.00800
H  16.58000 47.98000 23.72900
H  16.21200 49.70300 23.27100
H  10.11600 46.47400 20.76000
H  7.53600 47.53300 21.17500
H  10.56400 48.64200 19.65800
H  9.69400 49.52700 20.98300
H  8.80500 48.52200 19.85900
H  7.79500 45.02900 20.53300
H  6.83300 45.33200 21.96700
H  9.42500 44.89000 22.94200
H  9.38800 43.80700 21.67200
H  8.17000 43.63100 22.90600
H  3.82500 46.47500 26.00800
H  4.27200 46.99200 24.37900
H  3.53200 48.08900 25.64200
H  6.64400 48.97600 30.12500
H  5.51600 45.48900 32.43200
H  6.17300 46.33900 33.71100
H  7.25900 45.42600 32.60600

