158

Mg 16.16200 -1.80900 27.30500
C  15.08600 0.21000 29.91700
C  18.31200 -3.36800 29.45800
C  17.53900 -3.23300 24.71600
C  14.19000 0.34900 25.10500
N  16.63300 -1.52000 29.41000
C  16.00500 -0.79400 30.35000
C  16.67300 -0.88700 31.74000
C  17.80600 -1.96600 31.50500
C  17.59600 -2.31600 29.98900
C  19.25800 -1.54200 31.80400
C  15.72500 -1.09800 32.91200
C  16.05700 -0.63000 34.35900
H  17.55100 -0.41200 34.75100
N  17.66300 -3.25900 27.11900
C  18.44400 -3.77800 28.12800
C  19.33800 -4.78200 27.56800
C  19.03600 -4.84100 26.17700
C  18.05800 -3.74200 25.93800
C  20.37800 -5.44000 28.39900
C  19.60700 -5.76700 25.17900
O  19.35800 -5.70600 24.02300
C  20.50100 -6.89300 25.47700
N  15.93700 -1.48600 25.19200
C  16.51500 -2.31000 24.29800
C  16.12700 -2.04200 22.83700
C  15.05000 -0.88000 23.04500
C  15.04100 -0.64300 24.56500
C  17.34600 -1.54900 22.00100
C  13.59700 -1.32700 22.49700
C  13.10500 -0.43100 21.28500
N  14.81000 -0.15300 27.48000
C  14.09100 0.53700 26.51900
C  13.31000 1.54700 27.13200
C  13.64000 1.47000 28.47100
C  14.59100 0.42100 28.61500
C  12.37600 2.38000 26.32300
C  13.47000 1.97900 29.76800
O  12.87500 2.98600 30.25900
C  14.38100 1.18900 30.74400
C  15.21700 2.19900 31.48300
O  16.20400 2.76700 31.02500
O  14.68100 2.38200 32.72700
C  15.26400 3.59600 33.33900
H  18.90000 -3.90800 30.20300
H  17.78400 -3.80000 23.81600
H  13.49800 0.82000 24.40300
H  17.06100 0.10800 31.95700
H  17.60800 -2.82000 32.15300
H  19.72100 -2.24200 32.49900
H  19.38400 -0.49800 32.09100
H  19.90900 -1.67900 30.94000
H  15.69300 -2.18000 33.03700
H  14.71700 -0.78600 32.63900
H  15.61400 -1.35800 35.04000
H  15.67200 0.36300 34.59500
H  21.36700 -5.22400 27.99300
H  20.12500 -6.47800 28.61500
H  20.40500 -5.00200 29.39700
H  20.52800 -7.61200 24.65900
H  20.06000 -7.28800 26.39300
H  21.52900 -6.57300 25.65100
H  15.71800 -2.96900 22.43600
H  15.34300 -0.02600 22.43400
H  17.37000 -0.46200 22.07600
H  17.36200 -1.85700 20.95600
H  18.29100 -1.83900 22.46000
H  12.89200 -1.24100 23.32400
H  13.50900 -2.39400 22.29100
H  12.33900 0.27400 21.60800
H  12.73300 -1.18100 20.58700
H  13.94700 0.02000 20.76000
H  12.13200 3.27800 26.89100
H  11.47400 1.79200 26.15500
H  12.72400 2.85000 25.40300
H  13.66600 0.74800 31.43800
H  15.42100 4.46500 32.70000
H  16.21300 3.34000 33.80900
H  14.60000 3.74400 34.19100
Mg 1.38900 42.17800 25.52700
C  2.78500 42.02500 28.59400
C  -1.67700 41.23300 26.80700
C  0.15900 42.00400 22.32900
C  4.56200 42.33400 24.13600
N  0.69400 41.62100 27.47100
C  1.39200 41.87700 28.58500
C  0.48600 41.95000 29.79800
C  -0.87100 41.46200 29.24300
C  -0.61700 41.28000 27.77000
C  -1.35000 40.04700 29.92900
C  0.44200 43.29800 30.65900
C  0.93700 42.91800 32.09300
H  0.03100 43.12100 33.36200
N  -0.47100 41.79100 24.71700
C  -1.60700 41.44700 25.37700
C  -2.69900 41.27100 24.53800
C  -2.26200 41.42600 23.21900
C  -0.79900 41.72900 23.39600
C  -4.05900 40.94100 25.00800
C  -3.03700 41.28100 21.91100
O  -2.52200 41.27600 20.81500
C  -4.59600 41.02800 21.90600
N  2.26800 42.17900 23.54500
C  1.51800 42.21900 22.40400
C  2.38800 42.36400 21.14400
C  3.77400 42.72800 21.77800
C  3.53600 42.45200 23.25000
C  2.48400 41.11500 20.22500
C  4.17100 44.16600 21.36600
C  5.04100 44.29600 20.15900
N  3.30500 42.09700 26.21200
C  4.49700 42.17200 25.54200
C  5.60500 42.06000 26.52800
C  4.98900 42.13400 27.79000
C  3.57800 42.06500 27.51800
C  7.10100 42.18500 26.14900
C  5.15600 42.10200 29.22100
O  6.17500 42.04600 29.90500
C  3.68100 42.08300 29.83200
C  3.53300 41.04300 30.82000
O  3.26000 39.86300 30.64100
O  3.98500 41.58400 32.05100
C  4.20200 40.62500 33.13800
H  -2.56100 40.98500 27.39700
H  -0.14500 42.00500 21.28100
H  5.53000 42.72500 23.81500
H  0.92300 41.05000 30.23100
H  -1.68500 42.17300 29.38500
H  -2.43000 40.12200 30.05900
H  -0.77000 39.75700 30.80600
H  -1.09500 39.35700 29.12500
H  -0.54000 43.76600 30.58700
H  1.02100 44.02200 30.08600
H  1.83000 43.53500 32.18700
H  1.27700 41.90100 32.29300
H  -4.28800 39.94000 24.64200
H  -4.84300 41.65500 24.75500
H  -4.04100 40.95300 26.09800
H  -4.95500 41.02500 20.87700
H  -5.07100 41.86000 22.42400
H  -4.90300 40.07200 22.33100
H  1.97600 43.16500 20.53000
H  4.46800 41.94800 21.46700
H  2.28300 40.18400 20.75600
H  3.46700 41.07100 19.75600
H  1.84900 41.15300 19.34100
H  4.55700 44.72000 22.22200
H  3.28700 44.70000 21.01700
H  4.52600 44.42800 19.20800
H  5.62600 43.37700 20.10900
H  5.76500 45.09800 20.30000
H  7.51200 43.18800 26.02800
H  7.31500 41.62500 25.23900
H  7.69600 41.65800 26.89500
H  3.53700 43.06000 30.29200
H  4.65900 41.24900 33.90700
H  4.90100 39.82500 32.89500
H  3.21300 40.29600 33.45800

