158

Mg 27.43300 49.72700 26.48400
C  25.18800 50.62900 29.12000
C  29.72800 49.02100 28.96900
C  29.59900 49.40700 24.05200
C  25.12500 51.00500 24.23300
N  27.41000 49.65100 28.72500
C  26.36200 50.04400 29.60600
C  26.72500 49.80600 31.07900
C  28.30800 49.38000 31.01500
C  28.49900 49.43400 29.45400
C  29.26800 50.24400 31.93100
C  25.71800 48.76700 31.75000
C  24.95300 49.31200 32.97100
H  25.06000 48.55000 34.25900
N  29.31300 49.09700 26.51400
C  30.11000 48.85900 27.59500
C  31.45200 48.56100 27.13200
C  31.44900 48.66900 25.71700
C  30.08100 49.07900 25.36100
C  32.60900 48.24500 28.07700
C  32.62900 48.52800 24.68700
O  32.47200 48.62200 23.51500
C  34.04400 48.19500 25.30200
N  27.42900 50.18500 24.50500
C  28.39400 49.84800 23.67100
C  28.08000 50.15400 22.22800
C  26.53200 50.60300 22.24800
C  26.33400 50.60600 23.77500
C  29.03400 51.15400 21.49000
C  25.60400 49.71300 21.34200
C  24.66900 48.64100 22.00200
N  25.55400 50.65600 26.58900
C  24.77000 51.09800 25.58100
C  23.51300 51.61200 26.15400
C  23.68900 51.51800 27.53200
C  24.92400 50.90700 27.75800
C  22.47300 52.20000 25.30000
C  23.04200 51.76100 28.79700
O  21.95200 52.21300 29.11000
C  24.03400 51.21400 29.84500
C  24.39300 52.24800 30.86600
O  25.16000 53.20200 30.64500
O  23.70400 52.12400 32.01500
C  23.92800 53.16700 33.08700
H  30.46500 48.86900 29.76000
H  30.31700 49.17400 23.26300
H  24.45000 51.42300 23.48300
H  26.56800 50.74900 31.60300
H  28.36100 48.30800 31.20900
H  28.73100 51.07600 32.38800
H  29.97400 50.72800 31.25600
H  29.80600 49.68000 32.69300
H  26.14100 47.77400 31.90700
H  24.98900 48.50200 30.98400
H  23.89700 49.45700 32.74100
H  25.37000 50.28400 33.23300
H  33.04900 47.32400 27.69300
H  32.23700 48.14400 29.09700
H  33.34600 49.04700 28.11400
H  34.28700 48.86200 26.12900
H  34.89400 48.19300 24.62000
H  34.06500 47.18800 25.71900
H  28.28200 49.15200 21.84700
H  26.43500 51.62500 21.88100
H  29.82600 51.54200 22.13000
H  28.48800 51.98500 21.04400
H  29.42300 50.64900 20.60500
H  26.15700 49.16000 20.58200
H  24.95300 50.32100 20.71300
H  24.87800 48.64600 23.07100
H  24.84600 47.68800 21.50400
H  23.62700 48.96000 22.01500
H  21.48600 52.31100 25.74800
H  22.31600 51.63700 24.38000
H  22.87200 53.17900 25.03300
H  23.50900 50.43000 30.39100
H  24.76100 52.90800 33.74000
H  23.04500 53.18100 33.72700
H  23.94700 54.14100 32.59900
Mg 10.21500 47.82400 25.81800
C  8.23700 48.10000 28.70100
C  12.95400 48.95300 27.62100
C  12.13300 47.23300 23.10800
C  7.30200 47.49900 23.92800
N  10.59100 48.34500 27.99300
C  9.61400 48.33300 28.98100
C  10.16800 48.86200 30.31500
C  11.50200 49.58800 29.78000
C  11.76500 48.93500 28.37300
C  11.46500 51.16400 29.71800
C  10.45800 47.72100 31.36900
C  9.69000 47.95100 32.66700
H  9.57100 46.77600 33.66700
N  12.29600 48.02800 25.43800
C  13.25400 48.49000 26.32200
C  14.54300 48.41400 25.64500
C  14.33600 47.80000 24.35000
C  12.85500 47.65600 24.25000
C  15.83300 48.93200 26.20000
C  15.29400 47.28300 23.28200
O  14.92000 46.51200 22.40900
C  16.74600 47.56700 23.43500
N  9.75400 47.54300 23.79400
C  10.74900 47.14200 22.91200
C  10.24000 46.55800 21.58600
C  8.69100 46.83500 21.78700
C  8.50800 47.28000 23.26100
C  10.63200 47.34200 20.29300
C  7.90200 45.53900 21.43200
C  7.79400 44.41500 22.50000
N  8.16100 47.72600 26.20500
C  7.10000 47.61800 25.31700
C  5.84900 47.63000 26.06000
C  6.23700 47.80600 27.40700
C  7.62100 47.88100 27.46000
C  4.52000 47.32400 25.43600
C  5.81300 47.94200 28.71800
O  4.68400 47.70700 29.14900
C  7.03800 48.12200 29.63800
C  7.03800 46.95500 30.66100
O  7.83000 46.01200 30.57500
O  6.16400 47.18700 31.73700
C  5.93200 46.03700 32.65900
H  13.78200 49.46200 28.11900
H  12.71800 46.82600 22.28100
H  6.48700 47.35000 23.21700
H  9.54900 49.64600 30.75100
H  12.33300 49.37900 30.45400
H  10.46100 51.49300 29.98800
H  11.49600 51.45300 28.66800
H  12.28100 51.54100 30.33600
H  11.51400 47.72700 31.63900
H  10.28600 46.73000 30.94800
H  8.68700 48.34600 32.50600
H  10.24800 48.73400 33.18100
H  15.72400 49.35700 27.19800
H  16.37900 49.70700 25.66200
H  16.56000 48.12900 26.32300
H  16.90100 48.63700 23.57700
H  17.28100 47.27500 22.53100
H  16.93000 46.98400 24.33700
H  10.55000 45.51300 21.57200
H  8.34300 47.72600 21.26400
H  9.76700 47.63500 19.69800
H  11.24700 46.65300 19.71500
H  11.18600 48.23700 20.57800
H  8.21500 45.11400 20.47900
H  6.86100 45.79400 21.23200
H  7.99200 43.48800 21.96200
H  6.78000 44.45500 22.89900
H  8.63600 44.46000 23.19000
H  4.15000 46.45000 25.97200
H  4.53900 47.26000 24.34800
H  3.82600 48.13700 25.65000
H  7.05500 49.03700 30.23000
H  6.18500 46.28600 33.69000
H  6.39300 45.09300 32.36700
H  4.86500 45.83900 32.75200

