158

Mg -1.05200 18.16500 27.45100
C  -1.67500 15.99800 30.18100
C  -1.69600 20.85000 29.57600
C  -0.73900 20.10400 24.87800
C  -1.23400 15.25000 25.40100
N  -1.50000 18.36300 29.74900
C  -1.70900 17.30900 30.65600
C  -1.98000 17.88400 32.05400
C  -2.42300 19.33600 31.68100
C  -1.79100 19.56500 30.25000
C  -3.95600 19.49400 31.82800
C  -0.82900 17.78100 33.09100
C  -1.30000 17.27900 34.46100
H  -0.56100 17.64700 35.67800
N  -1.25500 20.11200 27.26200
C  -1.52300 21.10800 28.20900
C  -1.42900 22.41500 27.62600
C  -1.23200 22.19800 26.24800
C  -1.06500 20.75700 26.06500
C  -1.63400 23.69600 28.36500
C  -1.19700 23.21300 25.12300
O  -1.06100 22.89000 23.95300
C  -1.34200 24.70600 25.37500
N  -1.04900 17.72700 25.39400
C  -0.71100 18.74200 24.51300
C  -0.47000 18.25600 23.10500
C  -0.61300 16.71200 23.22800
C  -0.97400 16.49100 24.76100
C  -1.48300 18.85500 22.05600
C  0.60600 15.82900 22.80700
C  1.75800 15.57900 23.73300
N  -1.29500 16.05500 27.69900
C  -1.27300 15.01000 26.78700
C  -1.46700 13.75200 27.43600
C  -1.63600 14.03800 28.76200
C  -1.53200 15.45700 28.88800
C  -1.42000 12.44500 26.78300
C  -1.86200 13.49200 30.03300
O  -2.12900 12.33800 30.34400
C  -1.91400 14.71000 30.97200
C  -0.92000 14.49000 32.16100
O  0.28000 14.79000 32.10100
O  -1.55400 13.89600 33.28600
C  -0.80100 13.55800 34.44300
H  -1.88000 21.66100 30.28300
H  -0.59900 20.67800 23.95900
H  -1.12100 14.32700 24.82700
H  -2.80700 17.28100 32.43100
H  -1.91300 20.00400 32.37500
H  -4.37400 18.58400 32.26000
H  -4.38000 19.62900 30.83200
H  -4.13500 20.39000 32.42200
H  -0.23000 18.68700 33.18700
H  -0.14400 16.99600 32.77200
H  -1.24700 16.19700 34.58000
H  -2.36300 17.50900 34.52400
H  -0.76300 24.33300 28.21200
H  -1.75900 23.56500 29.43900
H  -2.45500 24.25300 27.91100
H  -2.32400 24.83900 25.83000
H  -1.20400 25.44300 24.58400
H  -0.62500 25.00700 26.14000
H  0.52100 18.56800 22.77600
H  -1.52300 16.45400 22.68600
H  -1.90000 19.84000 22.26600
H  -2.21800 18.12600 21.71300
H  -0.91600 19.08900 21.15500
H  1.00000 16.24100 21.87800
H  0.22100 14.89200 22.40500
H  1.66000 16.24300 24.59100
H  2.71600 15.91600 23.33700
H  1.93900 14.55400 24.05700
H  -0.63700 12.28200 26.04300
H  -2.41000 12.39600 26.33000
H  -1.48500 11.73200 27.60500
H  -2.95500 14.51700 31.22900
H  -0.57800 12.49200 34.48200
H  -1.42800 13.86300 35.28100
H  0.17400 14.03900 34.51000
Mg 6.54100 54.65100 39.84600
C  6.24600 51.13400 39.77000
C  9.86300 54.24100 39.02100
C  6.75600 57.94800 39.31500
C  3.08400 54.80400 40.31800
N  7.83700 52.88200 39.25400
C  7.54600 51.59400 39.43900
C  8.75900 50.77700 39.22900
C  9.89400 51.75800 39.51200
C  9.18700 53.03300 39.25200
C  10.58400 51.65600 40.86900
C  8.76500 50.03900 37.81500
C  8.52700 50.99000 36.64600
H  7.19500 50.94200 35.96200
N  8.11300 55.90600 39.18200
C  9.42000 55.58300 38.96200
C  10.25100 56.74800 38.78600
C  9.35700 57.85000 38.87700
C  7.97600 57.28300 39.10400
C  11.72900 56.79400 38.43700
C  9.75100 59.31900 38.53500
O  10.87200 59.66300 38.38500
C  8.63900 60.44600 38.58100
N  5.08300 56.21200 39.67200
C  5.42700 57.51800 39.57200
C  4.20300 58.43600 39.55700
C  3.08600 57.44700 40.10100
C  3.75800 56.06000 40.03900
C  4.45100 59.67900 40.46400
C  1.83600 57.53700 39.27500
C  0.49800 57.71300 39.94900
N  4.94900 53.29400 39.97700
C  3.61000 53.46900 40.22600
C  2.93800 52.17200 40.56200
C  3.95200 51.24800 40.37500
C  5.11800 51.97000 40.02500
C  1.48300 52.00700 40.98700
C  4.28200 49.80600 40.41700
O  3.60600 48.85200 40.77100
C  5.80000 49.63300 39.98600
C  5.62900 48.94600 38.63100
O  4.95000 49.29800 37.66700
O  6.32600 47.77000 38.68200
C  6.17200 46.77700 37.59900
H  10.94800 54.12700 39.07700
H  6.72200 59.03700 39.24300
H  2.01400 54.87600 40.52700
H  8.77300 50.05300 40.04400
H  10.65900 51.58600 38.75600
H  10.60300 52.64300 41.33100
H  11.60700 51.29800 40.74900
H  10.11500 50.91300 41.51400
H  7.91500 49.37300 37.66400
H  9.68100 49.47100 37.65200
H  9.17900 50.60700 35.86100
H  8.81200 52.00200 36.93300
H  11.62900 57.07800 37.39000
H  12.13200 55.78400 38.36100
H  12.41000 57.49300 38.92300
H  9.11100 61.40500 38.36600
H  8.19600 60.44600 39.57700
H  7.96200 60.19400 37.76400
H  3.98400 58.74200 38.53500
H  2.88200 57.68500 41.14500
H  4.10700 60.52000 39.86400
H  5.47200 59.83100 40.81500
H  3.89500 59.61000 41.39900
H  1.80300 56.68500 38.59600
H  1.95400 58.44500 38.68400
H  0.58400 57.44500 41.00200
H  -0.20100 57.05700 39.43100
H  0.14500 58.73100 39.78400
H  0.91500 52.54200 40.22500
H  1.30500 52.38300 41.99400
H  1.29900 50.93300 40.97800
H  6.33300 48.96500 40.66200
H  7.10500 46.21900 37.51300
H  5.84400 47.26200 36.68000
H  5.42800 46.08300 37.98900

