158

Mg 40.67700 9.25900 28.95400
C  42.06000 10.54100 31.76900
C  38.24900 7.72300 30.86600
C  39.39900 7.75100 26.09700
C  43.51700 10.18000 27.08000
N  40.14300 9.28700 31.03400
C  40.82800 9.92700 32.00100
C  40.15100 9.84200 33.32700
C  39.09700 8.70100 33.07400
C  39.06200 8.60000 31.56100
C  39.36300 7.48000 33.85600
C  39.56500 11.19500 33.72600
C  38.98300 11.28100 35.12400
H  39.82300 12.01500 36.19800
N  39.11000 7.88300 28.58400
C  38.22500 7.45400 29.48100
C  37.19900 6.59900 28.81900
C  37.44700 6.66800 27.41700
C  38.66700 7.49300 27.28200
C  36.02200 5.92300 29.59900
C  36.60200 6.20900 26.29100
O  36.91700 6.37800 25.06100
C  35.34000 5.45200 26.59800
N  41.35800 9.00000 26.86700
C  40.62700 8.46600 25.93600
C  41.40300 8.52200 24.54400
C  42.66100 9.19500 24.88000
C  42.52000 9.51600 26.33000
C  41.55500 7.21200 23.70200
C  42.96300 10.50600 24.06000
C  42.37600 11.81600 24.61200
N  42.48800 10.14800 29.28100
C  43.48400 10.57400 28.44200
C  44.43100 11.36600 29.25700
C  43.97200 11.33600 30.50000
C  42.70700 10.68000 30.47700
C  45.70300 12.05000 28.78800
C  44.17900 11.72600 31.87900
O  45.08500 12.40300 32.33200
C  42.97100 11.18300 32.70000
C  43.52400 10.29300 33.65300
O  44.31500 9.39500 33.35400
O  42.97300 10.42300 34.97500
C  43.46500 9.47900 36.07200
H  37.42000 7.26900 31.41200
H  38.83600 7.46300 25.20700
H  44.41900 10.49700 26.55100
H  40.87400 9.54700 34.08700
H  38.06100 8.97600 33.27200
H  38.51200 7.06600 34.39700
H  40.12600 7.63700 34.61800
H  39.71900 6.64800 33.24900
H  38.73100 11.37300 33.04600
H  40.38800 11.90500 33.64000
H  38.56400 10.32700 35.44700
H  38.18300 11.99100 34.91600
H  35.03000 6.19200 29.23800
H  36.03900 5.98600 30.68700
H  36.11800 4.84500 29.46900
H  35.68900 4.74800 27.35400
H  34.84300 4.99400 25.74300
H  34.63200 6.15400 27.04000
H  40.81700 9.14600 23.87000
H  43.50700 8.50800 24.84200
H  41.30200 6.38700 24.36800
H  42.52900 6.99100 23.26700
H  40.86100 7.10800 22.86700
H  42.62700 10.52400 23.02300
H  44.04000 10.67800 24.07000
H  41.90300 12.37600 23.80700
H  43.23100 12.26800 25.11500
H  41.56600 11.42400 25.22800
H  45.70200 11.89400 27.70900
H  46.61000 11.51900 29.07800
H  45.71100 13.11800 29.00500
H  42.45600 12.02100 33.17100
H  44.31300 9.95600 36.56400
H  43.72300 8.47500 35.73600
H  42.61500 9.32500 36.73700
Mg 30.30800 58.25200 39.53900
C  27.24200 56.39200 38.55000
C  32.02600 55.51700 38.37600
C  32.94900 60.20800 39.86300
C  28.10200 61.04500 40.08800
N  29.54000 56.19200 38.66100
C  28.37100 55.66500 38.29800
C  28.56500 54.24300 37.68000
C  30.10300 54.06300 37.61000
C  30.63600 55.36200 38.26100
C  30.64200 52.74800 38.24700
C  27.67800 53.88500 36.47100
C  27.42300 55.01300 35.47100
H  28.05000 54.90300 34.08000
N  32.26000 57.94300 39.18300
C  32.77600 56.71500 38.77500
C  34.18000 56.87600 38.74300
C  34.57800 58.19500 39.16800
C  33.24400 58.84900 39.47400
C  35.08900 55.87200 38.32000
C  36.00800 58.69800 39.25700
O  37.02900 58.12500 38.96500
C  36.15700 60.04100 39.72900
N  30.47000 60.28300 40.09700
C  31.75900 60.86100 40.18800
C  31.60200 62.37600 40.30600
C  30.08500 62.59300 40.63400
C  29.47100 61.27200 40.19700
C  32.57000 62.97900 41.34400
C  29.54200 63.91500 40.00900
C  28.24800 64.57900 40.46300
N  28.15600 58.64500 39.58700
C  27.40700 59.82500 39.78300
C  26.01700 59.60500 39.58300
C  25.90800 58.30600 39.14300
C  27.21700 57.74800 39.15400
C  24.97700 60.64400 39.81200
C  24.93800 57.29800 38.71300
O  23.73500 57.31000 38.72600
C  25.76500 56.00800 38.47500
C  25.28500 54.83700 39.37700
O  25.55000 54.68400 40.57300
O  24.59800 53.89900 38.62500
C  23.98500 52.75800 39.27000
H  32.59500 54.64000 38.06000
H  33.75300 60.94400 39.93300
H  27.44400 61.91500 40.13800
H  28.23300 53.51300 38.41700
H  30.43200 53.97900 36.57400
H  31.36100 52.42600 37.49300
H  29.79300 52.09300 38.44300
H  31.14800 53.03600 39.16800
H  26.75600 53.46900 36.87700
H  28.06300 52.98500 35.99000
H  27.89000 55.95800 35.74700
H  26.34700 55.08200 35.30900
H  34.61500 54.96300 37.95200
H  35.65200 55.52400 39.18700
H  35.84300 56.10900 37.56900
H  35.54900 60.15200 40.62600
H  35.71100 60.58100 38.89400
H  37.19800 60.25300 39.97400
H  31.89000 62.81500 39.35000
H  30.00200 62.58100 41.72000
H  33.44500 63.45000 40.89700
H  32.81100 62.31200 42.17200
H  32.02900 63.74400 41.90000
H  29.49600 63.77200 38.92900
H  30.30500 64.64200 40.28500
H  27.45300 64.51200 39.72000
H  28.35200 65.66000 40.55100
H  27.89100 64.08000 41.36500
H  24.06000 60.29800 39.33400
H  25.33800 61.58100 39.38700
H  24.88700 60.73800 40.89400
H  25.57300 55.58000 37.49200
H  24.61000 51.86500 39.25300
H  23.06900 52.48500 38.74600
H  23.70100 53.02700 40.28700

