158

Mg 6.97900 2.92900 28.14500
C  8.57700 1.51400 30.95200
C  5.47900 5.18700 30.09400
C  5.31100 3.80500 25.45200
C  8.53100 0.29200 26.12500
N  7.09000 3.22200 30.34500
C  7.75800 2.63100 31.32900
C  7.53600 3.28400 32.72800
C  6.44500 4.40500 32.34600
C  6.27400 4.25500 30.81200
C  5.09900 4.25200 33.16300
C  8.87000 3.98400 33.24200
C  9.38200 3.32500 34.54500
H  10.02700 4.21900 35.68900
N  5.65500 4.40100 27.80000
C  5.12800 5.28500 28.71300
C  4.31900 6.23800 28.05100
C  4.19200 5.78800 26.69900
C  5.02800 4.59400 26.62800
C  3.67300 7.40300 28.73800
C  3.39200 6.35000 25.50800
O  3.30900 5.70900 24.43100
C  2.70600 7.72500 25.65700
N  6.87700 2.08000 26.15700
C  6.16200 2.71400 25.21400
C  6.30200 2.21000 23.79000
C  7.40000 1.09800 23.96100
C  7.68000 1.14800 25.48000
C  4.94500 1.60400 23.12100
C  8.58900 1.41900 23.02200
C  9.15600 0.11100 22.42400
N  8.25900 1.22000 28.42500
C  8.83300 0.34000 27.53800
C  9.79700 -0.55000 28.25800
C  9.66700 -0.16000 29.62600
C  8.72300 0.94600 29.63300
C  10.84500 -1.56900 27.71100
C  10.09800 -0.41300 30.98900
O  10.85300 -1.26400 31.47900
C  9.41800 0.64800 31.90000
C  8.55000 -0.07700 32.93200
O  7.47800 -0.57800 32.75100
O  9.19600 -0.23200 34.08400
C  8.49900 -0.73700 35.25900
H  4.97300 5.95200 30.68700
H  4.85500 4.10700 24.50600
H  8.95700 -0.45200 25.44800
H  7.06000 2.55000 33.37800
H  6.71500 5.40400 32.68900
H  5.26500 3.73600 34.10900
H  4.48100 3.65800 32.49000
H  4.50100 5.14200 33.35600
H  8.76000 5.06200 33.36500
H  9.65000 3.87600 32.48800
H  10.26400 2.74900 34.26300
H  8.61400 2.65300 34.92800
H  3.95200 8.37300 28.32700
H  4.00300 7.37000 29.77700
H  2.60100 7.20400 28.74400
H  2.18300 7.86200 24.71000
H  3.52800 8.42900 25.78200
H  1.96100 7.63600 26.44800
H  6.72200 2.85600 23.01900
H  6.99000 0.10500 23.77500
H  4.07300 1.74100 23.76100
H  4.96200 0.53000 22.93800
H  4.84600 2.21700 22.22600
H  9.39000 1.92900 23.55500
H  8.38800 2.03500 22.14500
H  8.91800 -0.78500 22.99700
H  10.18400 0.13800 22.06100
H  8.54200 0.05400 21.52500
H  11.42000 -1.92000 28.56800
H  11.40500 -1.01400 26.95900
H  10.43700 -2.41900 27.16400
H  10.23500 1.17900 32.38800
H  7.88000 -1.61200 35.06000
H  7.99400 0.13900 35.66500
H  9.32500 -0.93500 35.94100
Mg 16.52100 51.75500 25.91000
C  18.36100 50.27400 28.43300
C  14.18100 52.63600 28.12000
C  14.80000 53.21900 23.35800
C  19.02000 50.90600 23.67700
N  16.32300 51.40400 27.99700
C  17.15900 50.76500 28.89300
C  16.70200 50.92600 30.38800
C  15.21300 51.43000 30.16300
C  15.26800 51.91500 28.65600
C  14.10600 50.29500 30.35800
C  17.58400 51.97700 31.15200
C  17.99200 51.49900 32.58000
H  17.26200 52.22600 33.75800
N  14.69400 52.75000 25.73000
C  13.91300 52.97700 26.77900
C  12.79500 53.75900 26.34700
C  13.01400 54.12600 24.99200
C  14.15800 53.32000 24.60200
C  11.72900 54.20300 27.24700
C  12.26700 55.08200 24.07800
O  12.63300 55.38800 22.97200
C  11.07600 55.96000 24.59600
N  16.89800 51.96100 23.77700
C  15.99300 52.53500 22.96300
C  16.52100 52.69800 21.49300
C  17.88600 51.98200 21.54100
C  17.98400 51.60700 23.08400
C  15.58000 52.10600 20.39800
C  19.03500 52.87400 21.03400
C  19.48000 54.01900 21.97100
N  18.18600 50.64300 25.90800
C  19.17300 50.37700 24.97300
C  20.29100 49.63800 25.47200
C  19.98000 49.61700 26.85200
C  18.75900 50.24000 27.09100
C  21.52100 49.16600 24.83300
C  20.46100 49.09600 28.11500
O  21.44600 48.40700 28.39300
C  19.46800 49.61900 29.24800
C  19.06000 48.61300 30.23700
O  18.23500 47.72500 30.17600
O  19.93600 48.68500 31.36300
C  19.48600 47.78300 32.53500
H  13.45800 52.71700 28.93500
H  14.29700 53.66100 22.49500
H  19.81500 50.59100 22.99700
H  16.79600 49.98000 30.92200
H  14.97600 52.31700 30.75100
H  14.45800 49.49200 31.00500
H  13.84400 49.89200 29.38000
H  13.24800 50.77600 30.82800
H  16.90800 52.82600 31.25900
H  18.47700 52.08400 30.53600
H  19.06400 51.64200 32.72200
H  17.87800 50.43700 32.79600
H  12.00600 53.93900 28.26800
H  10.74100 53.82500 26.98200
H  11.62200 55.28500 27.17300
H  10.64300 56.50000 23.75500
H  11.41400 56.63600 25.38200
H  10.32800 55.24400 24.93700
H  16.59300 53.76100 21.26300
H  18.01100 51.08000 20.94200
H  16.09200 51.53600 19.62200
H  15.07500 52.93000 19.89500
H  14.83300 51.47600 20.88000
H  18.82400 53.32500 20.06400
H  19.90300 52.22600 20.91700
H  20.17500 53.59600 22.69600
H  18.64000 54.50900 22.46300
H  19.92900 54.80400 21.36300
H  22.25000 49.04200 25.63300
H  21.89100 49.90100 24.11800
H  21.19900 48.24100 24.35500
H  19.98300 50.44900 29.73100
H  19.82600 46.76400 32.35100
H  18.44300 47.76200 32.85100
H  20.02700 48.20300 33.38400

