158

Mg 8.39300 3.45700 28.05500
C  9.87300 2.14600 30.85900
C  6.32300 5.38500 30.07000
C  6.74800 4.49000 25.18900
C  10.23400 1.26800 26.01900
N  8.18700 3.73700 30.23600
C  8.94100 3.13000 31.16400
C  8.62800 3.74800 32.62700
C  7.36800 4.56300 32.38300
C  7.32700 4.61300 30.78900
C  6.11400 3.92700 32.96600
C  9.86900 4.65200 33.02000
C  10.57000 4.19900 34.32500
H  10.72500 5.22000 35.41300
N  6.80900 4.81400 27.68900
C  6.09300 5.48400 28.64400
C  5.16200 6.33100 27.98300
C  5.27200 6.09500 26.58700
C  6.29100 5.02800 26.45000
C  4.31900 7.25500 28.82500
C  4.56500 6.81700 25.41300
O  4.84600 6.58200 24.23500
C  3.70400 7.93300 25.80200
N  8.40300 2.98600 25.92200
C  7.59500 3.44000 24.95700
C  7.96000 2.92700 23.53600
C  9.24000 2.07900 23.79300
C  9.30400 2.15100 25.33900
C  6.84200 2.16300 22.83700
C  10.58900 2.46100 23.18200
C  11.29800 1.33200 22.27200
N  9.76700 2.01100 28.30300
C  10.39600 1.19100 27.39200
C  11.32900 0.35700 28.12300
C  11.21400 0.73000 29.45500
C  10.22900 1.70000 29.54000
C  11.91400 -0.88600 27.60200
C  11.70500 0.45000 30.74000
O  12.50700 -0.39000 31.13100
C  10.88500 1.41000 31.72300
C  10.31900 0.44800 32.72900
O  9.31800 -0.22500 32.61800
O  11.05100 0.57600 33.85700
C  10.34700 0.23200 35.12800
H  5.72300 5.98300 30.75900
H  6.12300 4.73700 24.32800
H  10.75000 0.58100 25.34400
H  8.44200 2.96700 33.36300
H  7.44400 5.55500 32.82800
H  6.37900 3.03800 33.53900
H  5.28500 3.72000 32.29000
H  5.74400 4.58400 33.75400
H  9.45100 5.65500 33.10300
H  10.60800 4.70500 32.22100
H  11.42500 3.53500 34.20000
H  9.83000 3.67400 34.93000
H  4.68600 8.25000 28.57500
H  4.20800 7.08900 29.89700
H  3.30700 7.08200 28.46000
H  2.76500 7.54700 26.19600
H  3.48400 8.46700 24.87800
H  4.04000 8.75700 26.43300
H  8.27400 3.79400 22.95500
H  9.13000 1.06400 23.40900
H  5.98500 1.86500 23.44000
H  7.19700 1.29500 22.28200
H  6.32100 2.81900 22.13800
H  11.24400 2.76500 23.99800
H  10.43600 3.32500 22.53600
H  11.22700 1.58000 21.21300
H  10.85200 0.34800 22.41200
H  12.36600 1.20100 22.44100
H  11.24800 -1.53500 27.03300
H  12.33800 -1.51400 28.38500
H  12.77300 -0.66100 26.97000
H  11.62800 2.08700 32.14600
H  10.28300 -0.85500 35.19100
H  9.44500 0.81200 35.32200
H  10.98800 0.57900 35.93700
Mg 0.99700 42.29200 25.68300
C  2.49900 42.17800 28.95700
C  -1.85600 41.10800 27.02500
C  -0.11900 41.69100 22.56400
C  4.24700 43.13100 24.47300
N  0.38300 41.81700 27.72700
C  1.16200 41.87400 28.92400
C  0.31000 41.46800 30.11800
C  -1.05600 40.94800 29.44800
C  -0.86000 41.36400 27.99700
C  -1.21000 39.35600 29.38600
C  0.13000 42.69800 31.02700
C  -0.18500 42.41400 32.53200
H  -0.56600 40.97000 32.94700
N  -0.78800 41.65800 24.87200
C  -1.89700 41.23400 25.65100
C  -3.03500 40.99300 24.72200
C  -2.50800 41.33400 23.40900
C  -1.06000 41.51800 23.57100
C  -4.34800 40.49400 25.11900
C  -3.23300 41.26000 22.07500
O  -2.67700 41.31100 20.99500
C  -4.79500 41.25100 22.04100
N  1.95000 42.42500 23.82300
C  1.20300 42.21400 22.66900
C  2.09600 42.46400 21.35500
C  3.28000 43.34800 21.97000
C  3.23300 42.92100 23.51900
C  2.56100 41.13400 20.63900
C  3.16800 44.87700 21.61800
C  3.38100 45.27100 20.16700
N  2.99400 42.49800 26.50200
C  4.21700 42.92400 25.83800
C  5.22500 43.15000 26.87200
C  4.58900 42.81300 28.09500
C  3.24000 42.45400 27.78700
C  6.59000 43.67000 26.64300
C  4.79400 42.79600 29.55900
O  5.76600 43.03100 30.26100
C  3.44600 42.14100 30.15900
C  3.73600 40.85500 30.69200
O  4.19500 39.89600 30.04800
O  3.33300 40.80400 31.97300
C  3.09800 39.43200 32.51000
H  -2.82900 40.72200 27.33800
H  -0.44900 41.70100 21.52300
H  5.18700 43.56000 24.11800
H  0.81400 40.60200 30.54600
H  -1.90700 41.47500 29.88000
H  -0.98500 39.07300 28.35800
H  -2.24800 39.02600 29.39400
H  -0.61100 38.80000 30.10800
H  -0.67500 43.13600 30.43800
H  0.95900 43.34900 30.74900
H  -0.90100 43.22500 32.67100
H  0.75400 42.60700 33.05000
H  -4.54900 39.66900 24.43600
H  -5.08800 41.26500 24.90300
H  -4.39800 40.22900 26.17500
H  -5.15300 40.22600 22.13900
H  -4.99100 41.61100 21.03100
H  -5.15800 41.93400 22.80800
H  1.52000 43.01800 20.61300
H  4.21900 43.05200 21.50300
H  3.64000 40.98200 20.67000
H  2.19200 41.30900 19.62900
H  1.94400 40.32300 21.02800
H  3.82900 45.44500 22.27300
H  2.15900 45.16100 21.91800
H  3.24900 44.37800 19.55700
H  4.29200 45.85900 20.05500
H  2.63400 45.93700 19.73500
H  6.62100 44.51600 25.95600
H  7.23500 42.86300 26.29500
H  7.05400 44.13600 27.51100
H  3.17100 42.92300 30.86700
H  2.13000 39.05500 32.18200
H  3.01100 39.71400 33.55900
H  3.97300 38.81300 32.31000

