158

Mg 16.29100 51.82000 26.21900
C  18.02200 50.33400 29.02200
C  13.99600 52.92200 28.44800
C  14.81100 53.29800 23.68000
C  18.80900 50.55800 24.18500
N  16.01400 51.51100 28.48500
C  16.90500 51.09000 29.40900
C  16.46000 51.44400 30.89000
C  15.03300 51.99600 30.63700
C  15.00200 52.14300 29.10200
C  13.95600 50.98300 31.10400
C  17.46800 52.53900 31.41200
C  17.68600 52.43200 32.88600
H  16.82800 51.51700 33.73100
N  14.59700 53.02300 26.03800
C  13.79800 53.30700 27.05600
C  12.64700 54.16300 26.45300
C  12.77200 54.08000 25.02900
C  14.08600 53.45100 24.84600
C  11.66900 54.89000 27.30800
C  11.98200 54.72900 23.90000
O  12.38500 54.73700 22.73800
C  10.63200 55.37600 24.22600
N  16.71500 51.88200 24.18700
C  15.97600 52.62300 23.29500
C  16.50000 52.44300 21.83600
C  17.89200 51.76700 22.08100
C  17.79900 51.40500 23.58400
C  15.58700 51.63100 20.83400
C  19.05100 52.76000 21.73700
C  20.33800 52.14800 21.11900
N  17.93700 50.64600 26.47500
C  18.88800 50.22000 25.53900
C  19.89600 49.37300 26.15900
C  19.53300 49.43300 27.54300
C  18.40200 50.22000 27.67700
C  21.14000 48.86900 25.48200
C  19.98600 48.97700 28.77900
O  20.92200 48.30400 29.10700
C  19.10500 49.70800 29.81500
C  18.75700 48.71900 30.86500
O  18.14200 47.70100 30.57000
O  19.29400 49.06200 32.06400
C  19.11800 48.04800 33.15000
H  13.25500 53.35700 29.12100
H  14.44500 53.73300 22.74800
H  19.59900 50.26700 23.48900
H  16.39100 50.50100 31.43100
H  14.85000 52.96600 31.10000
H  13.37100 51.48600 31.87400
H  14.32600 50.02600 31.47200
H  13.29700 50.76400 30.26500
H  17.23200 53.59500 31.27600
H  18.38000 52.35500 30.84400
H  17.49200 53.41600 33.31300
H  18.74800 52.22900 33.02400
H  11.93900 55.94500 27.25100
H  11.67700 54.52200 28.33400
H  10.68400 54.68200 26.89100
H  9.97700 55.54000 23.37000
H  10.71200 56.30200 24.79600
H  10.16200 54.56200 24.77700
H  16.56000 53.39300 21.30500
H  18.08600 50.89900 21.45200
H  16.09100 51.54500 19.87100
H  14.63400 52.13100 20.66300
H  15.30000 50.67800 21.27900
H  19.40000 53.16200 22.68800
H  18.87100 53.59700 21.06300
H  20.34900 51.05800 21.08500
H  21.17500 52.55600 21.68600
H  20.43100 52.53000 20.10300
H  22.01000 49.51500 25.60400
H  20.93700 48.79500 24.41400
H  21.42500 47.90000 25.89300
H  19.72100 50.47600 30.28300
H  18.07300 48.01600 33.45900
H  19.78400 48.39800 33.93800
H  19.49200 47.05300 32.90600
Mg 0.20300 43.47100 26.94400
C  2.75400 43.69500 29.34400
C  -2.05800 42.89000 29.36200
C  -2.04000 42.54800 24.61600
C  2.74200 43.74600 24.44200
N  0.35200 43.37000 29.08900
C  1.45800 43.52500 29.85900
C  1.07900 43.45100 31.33700
C  -0.38800 42.94200 31.31600
C  -0.75200 43.10300 29.81900
C  -0.75300 41.56000 31.89500
C  1.29200 44.78100 32.08500
C  1.52100 44.70300 33.64000
H  1.26500 43.31900 34.41800
N  -1.90200 43.14300 27.02400
C  -2.63900 42.96200 28.14400
C  -3.99100 42.64800 27.75900
C  -3.99700 42.50900 26.30300
C  -2.58100 42.68700 25.89800
C  -5.02600 42.34900 28.77400
C  -5.12100 42.18500 25.33700
O  -5.02700 42.10200 24.11000
C  -6.58600 41.96300 25.92200
N  0.31500 43.26700 24.84400
C  -0.72900 42.77000 24.13100
C  -0.28400 42.40000 22.70900
C  0.99700 43.29200 22.58300
C  1.45000 43.40000 24.06100
C  -0.07100 40.85800 22.56200
C  0.77600 44.80300 22.16200
C  1.13300 45.20400 20.70900
N  2.31200 43.74000 26.79300
C  3.20800 43.93600 25.76600
C  4.56800 44.06400 26.22400
C  4.43500 44.00400 27.66300
C  3.06900 43.83700 27.93100
C  5.78500 44.11700 25.34900
C  5.17000 43.98800 28.91600
O  6.41400 43.98400 29.03600
C  4.05500 44.04600 30.06400
C  4.52700 42.97000 31.03300
O  4.75900 41.78100 30.78600
O  4.67200 43.55100 32.26300
C  5.24900 42.78900 33.32400
H  -2.81200 42.66900 30.12000
H  -2.85600 42.24900 23.95400
H  3.49800 43.81200 23.65700
H  1.75000 42.69800 31.75000
H  -1.05100 43.68600 31.75900
H  -1.49400 41.66000 32.68800
H  0.15900 41.12300 32.30000
H  -1.09300 40.79900 31.19200
H  0.39300 45.39600 32.07000
H  2.01900 45.45600 31.63400
H  0.89000 45.46300 34.10000
H  2.52700 45.08500 33.81900
H  -5.81600 43.09900 28.81200
H  -4.68300 42.33900 29.80900
H  -5.38500 41.32500 28.67100
H  -6.61200 41.17800 26.67800
H  -7.15500 41.65800 25.04400
H  -7.06000 42.90800 26.18700
H  -1.09000 42.69500 22.03800
H  1.72700 42.80200 21.93800
H  -0.65400 40.40500 21.76000
H  -0.40800 40.44600 23.51300
H  0.98600 40.62100 22.43500
H  1.34400 45.39100 22.88300
H  -0.24700 45.07000 22.42600
H  0.29800 44.88200 20.08700
H  2.08500 44.73800 20.45300
H  1.30900 46.27900 20.74900
H  5.69000 43.41200 24.52300
H  6.63000 43.96100 26.02000
H  5.83100 45.12100 24.92900
H  4.22500 45.08100 30.36200
H  6.30800 42.55000 33.22900
H  4.57600 41.93400 33.39600
H  5.25300 43.40500 34.22300

