158

Mg -1.12000 17.58300 27.26200
C  -1.64000 15.17500 29.74200
C  -1.59000 20.03100 29.48800
C  -0.55900 19.87100 24.71400
C  -0.50900 14.95000 24.90900
N  -1.57900 17.60600 29.35400
C  -1.79200 16.48400 30.23500
C  -2.02100 16.98000 31.71800
C  -2.05700 18.51600 31.49700
C  -1.83700 18.75700 30.00200
C  -3.31400 19.26400 32.18600
C  -0.86700 16.50000 32.65700
C  -0.55400 17.33700 33.92200
H  -0.12600 16.45100 35.12800
N  -1.19400 19.65400 27.07300
C  -1.43200 20.50300 28.13300
C  -1.38800 21.91200 27.67300
C  -0.99500 21.80600 26.27400
C  -0.97100 20.37700 25.94700
C  -1.73700 23.08300 28.53500
C  -0.88600 22.92200 25.25900
O  -0.66900 22.81700 24.03200
C  -1.24600 24.29500 25.85100
N  -0.71700 17.43800 25.12400
C  -0.57600 18.54000 24.26500
C  -0.37400 18.03600 22.82400
C  -0.14000 16.53400 23.01300
C  -0.43100 16.28200 24.46800
C  -1.62800 18.46900 21.89400
C  1.26700 16.04100 22.58100
C  2.46300 16.20700 23.50100
N  -1.17500 15.50900 27.25400
C  -0.83600 14.55400 26.29300
C  -1.11500 13.21400 26.76600
C  -1.37800 13.36600 28.13000
C  -1.38000 14.78700 28.36200
C  -0.96800 11.92000 26.01200
C  -1.65600 12.74600 29.40900
O  -1.69500 11.55900 29.68000
C  -1.88000 13.89100 30.47000
C  -0.94600 13.42400 31.57400
O  0.26600 13.47100 31.51200
O  -1.67000 12.69700 32.50000
C  -0.82000 12.17900 33.56300
H  -1.86500 20.82200 30.18900
H  -0.47200 20.45000 23.79200
H  -0.18400 14.18400 24.20200
H  -2.96500 16.57700 32.08500
H  -1.15200 18.98600 31.88200
H  -2.98300 19.97100 32.94700
H  -3.87800 18.48800 32.70400
H  -3.99100 19.78400 31.50800
H  -0.03100 16.26700 31.99700
H  -1.25300 15.57300 33.08100
H  -1.46100 17.91300 34.10500
H  0.20900 18.08800 33.71700
H  -2.55000 23.60300 28.02900
H  -0.86400 23.71500 28.70000
H  -2.09700 22.83500 29.53300
H  -2.31500 24.34300 26.05400
H  -1.09900 25.05800 25.08600
H  -0.53600 24.45900 26.66200
H  0.50100 18.52800 22.39900
H  -0.92000 15.96000 22.51300
H  -1.81200 19.52500 22.09400
H  -2.45900 17.94800 22.36800
H  -1.50900 18.29100 20.82500
H  1.57600 16.52200 21.65300
H  1.29500 14.96300 22.42600
H  3.38500 16.39500 22.95100
H  2.54900 15.43500 24.26600
H  2.43400 17.15600 24.03700
H  -0.31600 12.11100 25.15900
H  -1.98400 11.68200 25.69800
H  -0.72400 11.06600 26.64400
H  -2.90200 13.90200 30.84900
H  -0.37800 11.21100 33.32300
H  -1.35500 12.14600 34.51200
H  0.01500 12.84600 33.77800
Mg 26.16500 0.90500 29.36400
C  27.87600 0.55200 32.31300
C  23.16600 1.29200 31.18600
C  24.39600 0.94300 26.48500
C  29.14200 -0.03500 27.52900
N  25.62100 0.75900 31.57300
C  26.49500 0.73300 32.54300
C  25.78300 1.17100 33.88000
C  24.23900 1.07300 33.48100
C  24.32100 1.06200 31.92700
C  23.38200 -0.14100 34.05700
C  26.15200 2.56400 34.38000
C  27.03000 2.64400 35.64600
H  26.54600 3.63900 36.69300
N  24.06200 1.14300 28.84300
C  22.99600 1.27400 29.77700
C  21.74200 1.41900 29.03100
C  22.12100 1.42700 27.62500
C  23.54900 1.10900 27.58300
C  20.36800 1.50800 29.70500
C  21.21900 1.71700 26.43000
O  21.66000 1.67400 25.26200
C  19.79700 2.11800 26.52500
N  26.63400 0.45000 27.32700
C  25.74600 0.59800 26.31900
C  26.46900 0.23200 24.97800
C  27.88600 -0.25000 25.36300
C  27.90700 0.06700 26.83100
C  25.62000 -0.66400 24.02400
C  28.97900 0.30600 24.52200
C  29.27000 1.78500 24.79200
N  28.14500 0.43300 29.73700
C  29.25200 0.13100 28.97900
C  30.45500 0.14700 29.75700
C  29.93100 0.27900 31.07900
C  28.57000 0.47300 30.98100
C  31.81400 -0.30100 29.35100
C  30.25300 0.36200 32.44500
O  31.31300 0.16700 33.02400
C  28.97500 0.59600 33.30300
C  28.75600 -0.46800 34.39000
O  28.55900 -1.64500 34.21800
O  29.01200 0.13700 35.58400
C  28.85700 -0.73900 36.74500
H  22.21600 1.58100 31.64100
H  23.87600 0.99900 25.52700
H  30.07200 -0.00300 26.95800
H  26.09600 0.56500 34.72900
H  23.71100 2.00500 33.68400
H  22.75000 -0.60600 33.30100
H  22.73600 0.27400 34.83000
H  23.89100 -0.94000 34.59600
H  25.21900 3.06700 34.63700
H  26.70100 3.15000 33.64400
H  28.05900 2.89500 35.38900
H  27.02700 1.67300 36.14000
H  19.92800 2.48800 29.52300
H  20.49400 1.43000 30.78500
H  19.64500 0.77200 29.35200
H  19.82300 3.02400 27.13100
H  19.26700 1.27600 26.97100
H  19.44000 2.46000 25.55400
H  26.62300 1.15400 24.41900
H  27.85800 -1.33900 25.40400
H  26.11900 -1.58200 23.71300
H  25.38700 -0.08000 23.13400
H  24.70900 -1.01400 24.51000
H  28.76200 0.15700 23.46500
H  29.86300 -0.28700 24.75800
H  28.36500 2.29100 25.13000
H  29.70500 2.32900 23.95300
H  30.15200 1.78500 25.43200
H  31.88200 -0.45500 28.27400
H  31.89000 -1.27500 29.83300
H  32.51600 0.45800 29.69500
H  28.99900 1.62400 33.66600
H  27.84900 -1.15300 36.73100
H  29.20000 -0.28600 37.67600
H  29.65800 -1.47600 36.67900

