158

Mg 5.98800 53.44900 40.74100
C  5.67800 49.87700 40.75300
C  8.87000 52.99600 39.09800
C  5.65500 56.52900 39.52800
C  2.56200 53.49200 41.73100
N  7.07200 51.65900 39.99000
C  6.83300 50.35700 40.16000
C  7.92600 49.47400 39.51700
C  9.08100 50.47300 39.60000
C  8.33200 51.81900 39.56300
C  10.06000 50.37800 40.75800
C  7.64600 48.99400 38.00400
C  6.68200 49.82200 37.15700
H  7.14800 51.04800 36.47700
N  7.20600 54.72800 39.66200
C  8.38500 54.32000 39.01100
C  8.96800 55.36700 38.21400
C  8.00000 56.40200 38.33900
C  6.84300 55.93100 39.17400
C  10.46500 55.33600 37.62900
C  8.14200 57.74700 37.59400
O  9.00700 57.95000 36.75100
C  7.12200 58.81800 37.76300
N  4.26100 54.80500 40.56900
C  4.42200 56.07900 40.13700
C  3.23900 57.02200 40.41900
C  2.23600 55.97100 41.02600
C  3.04600 54.66700 41.14100
C  3.65000 58.25100 41.24300
C  0.96100 55.73200 40.21400
C  -0.29500 55.48800 41.10600
N  4.48500 52.02800 41.46700
C  3.21200 52.25600 41.85400
C  2.70300 51.03900 42.43700
C  3.57800 50.02200 41.90600
C  4.67300 50.70900 41.35100
C  1.38800 50.87700 43.19900
C  3.83300 48.60600 41.77900
O  3.26400 47.66000 42.31700
C  5.19600 48.48700 40.98400
C  4.75600 47.77300 39.80000
O  4.05200 48.20600 38.88200
O  5.28100 46.47900 39.87700
C  4.98500 45.59300 38.76200
H  9.84400 52.83800 38.63100
H  5.50600 57.57100 39.23700
H  1.53100 53.48800 42.09100
H  8.07800 48.61800 40.17400
H  9.63100 50.38100 38.66400
H  11.01700 49.95700 40.45200
H  9.72600 49.71000 41.55100
H  10.30500 51.36300 41.15600
H  7.31300 47.95600 38.01900
H  8.61300 49.06600 37.50500
H  5.82200 50.11700 37.75900
H  6.33600 49.11500 36.40300
H  10.97000 54.37500 37.72700
H  11.02200 56.15000 38.09300
H  10.49500 55.50800 36.55300
H  6.97000 59.04900 38.81700
H  6.20300 58.42600 37.32700
H  7.58800 59.64300 37.22400
H  2.82200 57.25900 39.44000
H  2.14200 56.21300 42.08400
H  2.93900 58.31300 42.06700
H  3.52300 59.08200 40.54900
H  4.70300 58.34900 41.50800
H  1.06200 54.90500 39.51200
H  0.75500 56.55600 39.53000
H  -0.09000 55.30900 42.16100
H  -0.82600 54.62500 40.70700
H  -0.84500 56.41800 40.96000
H  0.95200 51.83100 43.49400
H  1.36100 50.11500 43.97800
H  0.69800 50.53700 42.42600
H  5.87300 47.86500 41.56900
H  5.33800 45.94200 37.79100
H  3.92900 45.32500 38.76800
H  5.51300 44.64600 38.88000
Mg -1.95700 34.64500 27.03800
C  -3.64700 32.80000 29.38700
C  -0.59100 36.50800 29.53600
C  -1.01700 36.81000 24.64000
C  -3.88000 32.91900 24.53400
N  -2.16700 34.67400 29.18800
C  -2.82200 33.75000 29.95900
C  -2.60800 34.00800 31.47200
C  -1.70100 35.26200 31.45900
C  -1.39500 35.43500 29.88800
C  -2.10500 36.59500 32.13300
C  -1.88600 32.82900 32.31100
C  -2.62700 32.67500 33.69200
H  -1.72300 32.52000 34.88300
N  -0.85900 36.37500 27.02000
C  -0.35600 36.97000 28.20600
C  0.49300 38.11400 27.82600
C  0.35800 38.23600 26.39900
C  -0.60200 37.16400 25.94600
C  1.32200 38.93500 28.79000
C  1.01000 39.27500 25.49300
O  0.84300 39.24700 24.25700
C  1.88600 40.37300 25.90600
N  -2.48300 34.88800 24.88600
C  -1.86700 35.85400 24.08500
C  -2.31200 35.63800 22.58300
C  -3.16500 34.35400 22.69600
C  -3.13700 33.98100 24.13500
C  -3.01000 36.85900 22.05200
C  -2.86700 33.27700 21.59500
C  -3.99500 32.96000 20.54900
N  -3.38100 33.13700 26.92600
C  -3.96200 32.48800 25.89100
C  -4.78000 31.43900 26.33300
C  -4.70400 31.50100 27.71400
C  -3.81900 32.53400 28.03600
C  -5.38700 30.44300 25.43600
C  -5.15900 30.91200 28.91400
O  -5.97200 30.05300 29.14400
C  -4.44600 31.67300 30.07500
C  -5.42900 32.39600 30.92000
O  -6.06300 33.34300 30.51400
O  -5.59100 31.73200 32.18500
C  -6.59200 32.46300 33.08000
H  -0.19300 37.03400 30.40600
H  -0.55100 37.41300 23.85700
H  -4.40300 32.49200 23.67600
H  -3.55500 34.34700 31.89300
H  -0.74100 34.99700 31.90100
H  -2.60800 37.24800 31.42000
H  -1.16400 36.94700 32.55600
H  -2.68400 36.37900 33.03100
H  -0.81300 32.99000 32.42200
H  -1.98500 31.97000 31.64700
H  -3.13700 31.71400 33.62400
H  -3.35800 33.47300 33.81600
H  2.36600 38.83400 28.49500
H  1.18600 38.62500 29.82600
H  1.07600 39.99700 28.76600
H  1.29900 41.00500 26.57200
H  2.29200 40.87300 25.02700
H  2.69600 39.97800 26.51900
H  -1.41900 35.55600 21.96300
H  -4.21000 34.64800 22.59700
H  -2.94300 37.66200 22.78600
H  -4.06600 36.64300 21.89000
H  -2.55600 37.18100 21.11500
H  -2.61900 32.32100 22.05600
H  -1.96700 33.62900 21.09000
H  -4.46700 31.99700 20.74700
H  -3.57800 32.85000 19.54800
H  -4.63900 33.83200 20.66300
H  -4.71200 30.29400 24.59300
H  -6.34200 30.69400 24.97500
H  -5.56200 29.49800 25.94900
H  -3.80600 31.00900 30.65600
H  -7.33400 33.09500 32.59300
H  -6.01400 33.11400 33.73600
H  -7.12000 31.77800 33.74300

