158

Mg 48.11400 34.60500 27.53500
C  46.33700 33.38900 30.31200
C  48.44100 37.60300 29.21100
C  49.46100 35.81300 24.79900
C  46.93100 31.77100 25.62800
N  47.60500 35.31100 29.60000
C  46.90400 34.66000 30.55300
C  46.72800 35.49500 31.78100
C  47.02600 36.91000 31.16400
C  47.76500 36.60400 29.93600
C  45.74400 37.79200 31.03700
C  47.85200 35.11300 32.88000
C  47.32500 34.64700 34.25000
H  47.68200 35.29500 35.51400
N  48.98100 36.32500 27.16600
C  49.05300 37.49000 27.94600
C  49.85400 38.53900 27.30200
C  50.37400 37.91800 26.07300
C  49.65900 36.56100 25.95800
C  50.17000 39.86200 27.94500
C  51.31200 38.39700 25.09600
O  51.70100 37.68200 24.15700
C  51.91300 39.73600 25.25100
N  48.12100 33.82300 25.41900
C  48.72400 34.61500 24.45300
C  48.76100 33.91000 23.09300
C  48.01300 32.55300 23.33900
C  47.60100 32.69300 24.85700
C  48.21100 34.76800 21.93200
C  48.81500 31.23300 23.11600
C  50.28100 31.23400 23.62800
N  46.89900 32.97300 27.81700
C  46.59600 31.83600 27.01300
C  45.69500 30.95700 27.83100
C  45.51700 31.53000 29.03400
C  46.32900 32.70600 29.03000
C  45.13100 29.65800 27.37100
C  44.90500 31.37100 30.32400
O  44.12800 30.52200 30.77200
C  45.22000 32.63900 31.12600
C  45.60000 32.20600 32.45800
O  46.60900 31.67200 32.86500
O  44.53300 32.49000 33.23500
C  44.58800 31.90400 34.57800
H  48.50100 38.58000 29.69700
H  49.81900 36.21300 23.84800
H  46.59200 30.93900 25.00700
H  45.72500 35.28100 32.15200
H  47.71500 37.40200 31.84900
H  45.68600 38.10600 29.99500
H  45.81400 38.59000 31.77600
H  44.84900 37.24000 31.32600
H  48.45000 35.97100 33.18600
H  48.46400 34.34300 32.41000
H  47.75700 33.66300 34.43700
H  46.24100 34.64300 34.13100
H  51.23300 39.89600 28.18800
H  49.42500 40.16500 28.68100
H  50.00000 40.59100 27.15200
H  51.06000 40.39600 25.09200
H  52.57900 39.91200 24.40600
H  52.33000 39.95500 26.23400
H  49.77500 33.65400 22.78700
H  47.14300 32.57200 22.68400
H  48.16700 35.84200 22.11500
H  47.20300 34.41700 21.71200
H  48.79400 34.65500 21.01800
H  48.66300 31.04200 22.05300
H  48.13700 30.49400 23.54400
H  50.64200 32.20900 23.95300
H  50.92100 30.99200 22.77900
H  50.49600 30.61200 24.49700
H  45.88500 29.00800 26.92600
H  44.39600 29.80500 26.58000
H  44.62000 29.23400 28.23500
H  44.35300 33.28900 31.23700
H  45.18900 32.55000 35.21800
H  45.04300 30.91300 34.59800
H  43.63700 31.80400 35.10000
Mg -5.28300 24.67800 25.84700
C  -3.71700 26.32900 28.48600
C  -6.72300 22.59300 28.28200
C  -7.02500 23.28800 23.48000
C  -3.50400 26.71500 23.62100
N  -5.23500 24.55700 28.12200
C  -4.60200 25.37600 28.97300
C  -5.12400 25.15600 30.43800
C  -5.83100 23.78100 30.29100
C  -5.93700 23.61200 28.77100
C  -5.01900 22.67900 31.04100
C  -6.05100 26.35600 30.86900
C  -6.02700 26.76200 32.32800
H  -5.61400 25.72500 33.40800
N  -6.72400 23.15500 25.89300
C  -7.19100 22.44500 26.93300
C  -8.25500 21.58500 26.45800
C  -8.29700 21.70600 25.07100
C  -7.36500 22.72600 24.75700
C  -9.10300 20.83100 27.47700
C  -9.22200 21.00800 24.03500
O  -9.31300 21.30000 22.82700
C  -10.18100 20.04000 24.60800
N  -5.20900 24.88500 23.78000
C  -6.10600 24.21100 23.00700
C  -5.87800 24.54700 21.50100
C  -4.80900 25.73700 21.57200
C  -4.51900 25.81300 23.03400
C  -5.18400 23.44100 20.55500
C  -5.25600 27.06900 21.03700
C  -4.37400 27.59300 19.92400
N  -3.88700 26.22100 25.98600
C  -3.27200 26.93200 24.99900
C  -2.45400 27.95500 25.64000
C  -2.52200 27.75700 27.00700
C  -3.41500 26.61800 27.12800
C  -1.67500 29.04600 25.04000
C  -2.06400 28.14900 28.37900
O  -1.33100 29.07000 28.69400
C  -2.76900 27.17900 29.38100
C  -1.81400 26.40300 30.19100
O  -1.00800 25.55000 29.80700
O  -1.99700 26.83900 31.43100
C  -1.30100 26.06600 32.45100
H  -7.05100 21.97300 29.11900
H  -7.64400 22.89200 22.67100
H  -2.84900 27.33600 23.00600
H  -4.26100 25.08900 31.10100
H  -6.83200 23.90300 30.70400
H  -5.08700 21.73800 30.49700
H  -5.53000 22.61300 32.00100
H  -3.99400 23.02300 31.17900
H  -7.07900 26.09200 30.62000
H  -5.78800 27.15300 30.17300
H  -6.99800 27.16100 32.62100
H  -5.30600 27.58000 32.33000
H  -10.15700 21.01400 27.26400
H  -8.95800 21.15200 28.50900
H  -8.94800 19.75400 27.41400
H  -9.71400 19.23400 25.17500
H  -10.74500 19.63800 23.76600
H  -10.84600 20.54900 25.30500
H  -6.81100 24.80800 21.00100
H  -3.82100 25.52700 21.16200
H  -5.88200 23.12200 19.78100
H  -4.85200 22.57200 21.12300
H  -4.28300 23.70800 20.00300
H  -5.49500 27.80500 21.80400
H  -6.15500 26.76700 20.49900
H  -4.91900 28.21100 19.21000
H  -3.98400 26.80500 19.28000
H  -3.52200 28.14700 20.32000
H  -1.40800 28.61400 24.07600
H  -0.85800 29.36300 25.68700
H  -2.26500 29.93300 24.80800
H  -3.37400 27.80600 30.03600
H  -0.73600 25.24700 32.00600
H  -2.15900 25.76500 33.05300
H  -0.70000 26.59300 33.19200

