158

Mg 2.44800 -1.45900 44.17600
C  5.78700 -0.31900 43.96600
C  1.54200 1.41500 42.48700
C  -0.60400 -2.75600 43.71300
C  3.65100 -4.55300 45.29000
N  3.51600 0.28000 43.34300
C  4.86800 0.57800 43.42200
C  5.26300 1.85600 42.61200
C  3.90600 2.53000 42.42800
C  2.89500 1.30800 42.78700
C  3.55900 3.88600 43.20900
C  5.97500 1.42400 41.29600
C  7.20800 2.24200 40.85800
H  6.94200 3.32300 39.81300
N  0.68200 -0.64500 43.36400
C  0.53400 0.49800 42.69700
C  -0.80100 0.56800 42.33300
C  -1.52100 -0.52200 42.74900
C  -0.45700 -1.31700 43.32100
C  -1.39500 1.86300 41.74500
C  -3.03900 -0.69300 42.56400
O  -3.72700 0.16100 42.02400
C  -3.79000 -1.79900 43.27000
N  1.66700 -3.41000 44.51000
C  0.33400 -3.64700 44.24200
C  0.00700 -5.16900 44.60200
C  1.30100 -5.65200 45.35800
C  2.25300 -4.44200 45.12400
C  -1.28100 -5.35700 45.41700
C  1.85000 -7.08000 44.85100
C  2.26700 -8.09800 45.90400
N  4.35100 -2.33200 44.59800
C  4.61600 -3.60600 45.02700
C  6.06100 -3.61300 45.28100
C  6.58500 -2.36700 44.83200
C  5.50800 -1.66000 44.34300
C  6.83200 -4.75500 45.94300
C  7.76300 -1.48200 44.74700
O  8.98400 -1.74400 44.88600
C  7.30100 -0.21300 43.93600
C  7.85100 0.89800 44.73900
O  7.46900 1.11900 45.85000
O  8.78300 1.58200 44.03000
C  9.20700 2.88500 44.63800
H  1.38300 2.33900 41.92800
H  -1.49400 -3.36800 43.55500
H  3.97700 -5.52700 45.66100
H  5.90500 2.57600 43.11900
H  3.74000 2.73500 41.37000
H  3.00100 4.57900 42.57900
H  4.50700 4.32700 43.51700
H  3.00500 3.69800 44.12900
H  5.21100 1.47200 40.52000
H  6.40500 0.42400 41.34800
H  8.00400 1.53700 40.61700
H  7.60000 2.87400 41.65500
H  -1.74400 1.55300 40.76100
H  -0.62900 2.60700 41.52400
H  -2.08800 2.30100 42.46400
H  -4.86400 -1.63600 43.18400
H  -3.45600 -1.77100 44.30700
H  -3.53300 -2.70500 42.72000
H  -0.11500 -5.77400 43.70300
H  1.17600 -5.60500 46.44000
H  -1.94500 -6.08100 44.94400
H  -1.82700 -4.44700 45.66600
H  -0.98200 -5.81600 46.35900
H  2.68000 -6.92300 44.16200
H  1.08500 -7.58600 44.26100
H  1.69600 -9.02500 45.86000
H  1.88700 -7.72000 46.85300
H  3.34600 -8.12200 45.74900
H  6.19600 -5.31800 46.62700
H  7.69700 -4.37200 46.48400
H  7.15300 -5.48400 45.19900
H  7.70900 -0.13200 42.92800
H  8.27900 3.45600 44.63600
H  10.03000 3.40500 44.14600
H  9.35000 2.89600 45.71900
Mg 35.57500 49.44600 25.75600
C  36.07100 47.54000 28.56000
C  34.08600 51.81900 27.86300
C  34.43400 51.04800 23.08000
C  36.27900 46.64300 23.85400
N  34.96000 49.53400 27.91800
C  35.48200 48.77700 28.86200
C  35.31500 49.31100 30.25700
C  34.43600 50.54500 30.03500
C  34.51400 50.69200 28.55000
C  33.03500 50.51200 30.67900
C  36.68300 49.54800 31.02400
C  36.79200 49.04000 32.46200
H  36.77100 50.11400 33.58500
N  34.59200 51.25800 25.49700
C  34.09800 52.09100 26.49600
C  33.52900 53.31100 25.85200
C  33.62200 53.09900 24.42800
C  34.25100 51.75700 24.26300
C  33.11800 54.52500 26.72600
C  33.36800 54.04700 23.23700
O  33.51000 53.82400 22.05200
C  32.88900 55.49100 23.65300
N  35.44000 48.99300 23.77200
C  35.00600 49.77800 22.81700
C  35.13900 49.21500 21.41800
C  35.85600 47.85100 21.69800
C  35.87700 47.79200 23.19600
C  33.92200 49.01400 20.58100
C  37.32400 47.58400 21.16400
C  37.56600 46.32400 20.42400
N  36.22900 47.52800 26.06000
C  36.46200 46.49500 25.20600
C  36.86600 45.33900 25.96400
C  36.86600 45.72200 27.31800
C  36.37400 47.07100 27.31100
C  37.28000 43.98200 25.42900
C  37.14400 45.28100 28.66100
O  37.59300 44.24200 29.02700
C  36.62400 46.46200 29.59000
C  35.65200 45.97200 30.53100
O  34.49000 45.80000 30.22900
O  36.18400 45.74800 31.76500
C  35.22700 45.50800 32.84200
H  33.56900 52.45400 28.58600
H  34.06000 51.54300 22.18100
H  36.66100 45.81100 23.25900
H  34.70500 48.61900 30.83600
H  35.03400 51.33900 30.48000
H  32.83800 49.57600 31.20100
H  32.18500 50.42000 30.00300
H  32.84800 51.41300 31.26300
H  36.88300 50.61800 31.07800
H  37.49600 49.17900 30.39800
H  37.80200 48.63100 32.48600
H  36.05500 48.28300 32.73500
H  32.05800 54.54500 26.98100
H  33.44800 55.47400 26.30400
H  33.70500 54.51000 27.64400
H  32.49100 56.12800 22.86300
H  33.79200 55.99900 23.99400
H  32.20200 55.41100 24.49500
H  35.74800 49.93800 20.87600
H  35.16600 47.07000 21.38100
H  33.89600 49.90200 19.94900
H  32.97100 49.16900 21.09100
H  34.06600 48.14900 19.93300
H  37.99500 47.65700 22.02100
H  37.65300 48.42400 20.55300
H  38.48600 46.44600 19.85300
H  36.69500 46.20700 19.77800
H  37.69700 45.46300 21.07900
H  37.69900 44.21300 24.45000
H  36.43000 43.30300 25.36200
H  38.05300 43.58400 26.08600
H  37.53200 46.75900 30.11400
H  35.58500 45.96500 33.76500
H  35.10600 44.43200 32.96900
H  34.23700 45.91300 32.63300

