158

Mg 9.02900 3.32900 27.32000
C  10.48500 1.84600 30.19600
C  7.68700 5.71700 29.15900
C  7.66000 4.58300 24.42500
C  10.09800 0.58800 25.52100
N  8.97100 3.64900 29.47600
C  9.72400 3.02100 30.50400
C  9.44300 3.63600 31.91900
C  8.34600 4.72400 31.44300
C  8.32000 4.71300 29.91000
C  7.00900 4.73600 32.14800
C  10.68800 4.12500 32.68300
C  10.46200 5.27000 33.66400
H  11.18100 5.17600 35.00700
N  7.82500 4.95000 26.85700
C  7.45700 5.89100 27.74200
C  6.74800 6.97400 27.03700
C  6.78200 6.64100 25.66600
C  7.40300 5.35500 25.59500
C  6.36900 8.26900 27.79900
C  6.38100 7.56200 24.51600
O  6.38000 7.14500 23.34400
C  5.79800 8.96600 24.74500
N  8.89300 2.68700 25.21800
C  8.36400 3.37100 24.23100
C  8.54900 2.61500 22.87100
C  9.33300 1.39500 23.32700
C  9.47400 1.59700 24.80200
C  7.23200 2.38900 22.14600
C  10.77800 1.38000 22.64500
C  11.02200 0.26700 21.56500
N  10.14600 1.59000 27.65300
C  10.50700 0.51600 26.84200
C  11.24600 -0.48600 27.54500
C  11.24700 0.06000 28.85800
C  10.49800 1.22600 28.87200
C  11.93400 -1.71800 27.03000
C  11.75400 -0.24000 30.22200
O  12.42600 -1.17300 30.59800
C  11.25200 0.89500 31.15000
C  10.37600 0.32100 32.24200
O  9.31200 -0.26200 32.07300
O  10.71300 0.79200 33.45300
C  9.90600 0.34200 34.58200
H  7.21400 6.54800 29.68600
H  7.19800 5.02000 23.53800
H  10.36800 -0.32300 24.98300
H  9.03700 2.78500 32.46500
H  8.60400 5.73600 31.75500
H  6.38800 5.52100 31.71700
H  7.22200 4.98700 33.18700
H  6.45900 3.79600 32.09900
H  11.52800 4.31200 32.01500
H  11.09900 3.34500 33.32400
H  9.39200 5.46300 33.74100
H  10.83900 6.18600 33.20900
H  6.50400 8.35300 28.87800
H  5.30700 8.44100 27.62800
H  6.94600 9.09300 27.38000
H  6.59000 9.68800 24.94400
H  5.01700 9.02700 25.50400
H  5.38500 9.08900 23.74400
H  9.20200 3.33900 22.38500
H  8.86100 0.43000 23.14300
H  7.07500 1.31000 22.12100
H  7.17200 2.75600 21.12100
H  6.42900 2.82600 22.73900
H  11.55300 1.18100 23.38500
H  10.94300 2.26800 22.03500
H  10.85000 0.53900 20.52400
H  10.39900 -0.59300 21.81200
H  12.07100 -0.03000 21.55200
H  11.55800 -1.93800 26.03100
H  11.54100 -2.52000 27.65400
H  13.01200 -1.63500 26.89400
H  12.09200 1.37200 31.65500
H  9.86100 1.13400 35.32900
H  10.36300 -0.57600 34.95400
H  8.88000 0.01800 34.40900
Mg 35.59600 49.01400 25.43100
C  35.73400 47.21200 28.37600
C  34.38800 51.66600 27.25300
C  35.22600 50.63800 22.55800
C  36.60200 46.11500 23.67400
N  35.16600 49.36700 27.60300
C  35.33200 48.50100 28.65400
C  35.11700 49.19400 30.00000
C  34.58500 50.62400 29.56300
C  34.87800 50.61400 28.07400
C  33.15600 51.02800 29.93200
C  36.26600 49.22200 31.05500
C  35.93700 48.76700 32.52300
H  35.43000 49.76600 33.44500
N  34.86000 50.94900 24.93600
C  34.38500 51.87000 25.86500
C  33.91500 53.04000 25.10100
C  34.10200 52.71400 23.72000
C  34.78300 51.39100 23.67700
C  33.36300 54.26100 25.85000
C  33.67600 53.55000 22.52300
O  33.92000 53.20000 21.32000
C  33.03000 54.85800 22.67400
N  35.81100 48.40600 23.41100
C  35.77600 49.33100 22.41800
C  36.32100 48.77500 21.09400
C  36.76900 47.33700 21.50900
C  36.41300 47.28000 22.95200
C  35.33100 48.62000 19.90700
C  38.27500 47.05400 21.27600
C  38.57800 45.79900 20.46100
N  36.10700 47.06300 25.83900
C  36.40200 45.97600 25.04100
C  36.65600 44.81000 25.83500
C  36.37100 45.22400 27.11000
C  36.04300 46.64000 27.12900
C  37.09300 43.40600 25.49100
C  36.31400 44.78900 28.46000
O  36.55600 43.72900 29.00200
C  36.09500 46.09500 29.29700
C  34.76800 45.82300 30.12100
O  33.63600 45.94300 29.68500
O  35.14300 45.42900 31.44400
C  34.04300 44.98800 32.24700
H  33.95600 52.46400 27.86000
H  35.31600 51.21800 21.63700
H  36.96300 45.19900 23.20100
H  34.23700 48.73500 30.44900
H  35.21600 51.44200 29.91300
H  32.54200 50.25700 30.39900
H  32.52600 51.19800 29.06000
H  33.15900 51.90000 30.58600
H  36.76900 50.18900 31.05600
H  36.91300 48.51600 30.53400
H  36.82500 48.44800 33.07000
H  35.20000 47.96800 32.44000
H  33.60700 55.17900 25.31700
H  33.84100 54.38500 26.82200
H  32.29600 54.18000 26.05600
H  33.65900 55.57200 23.20600
H  32.15300 54.69800 23.30100
H  32.76800 55.25700 21.69400
H  37.20800 49.34500 20.81900
H  36.23800 46.55100 20.97300
H  35.79300 49.17900 19.09400
H  34.41100 49.19000 20.03800
H  35.04400 47.61600 19.59200
H  38.75300 46.98400 22.25200
H  38.76300 47.93200 20.85200
H  39.25600 45.12500 20.98400
H  39.06400 46.00700 19.50800
H  37.71900 45.12800 20.44800
H  37.85600 43.49700 24.71800
H  36.25800 42.81900 25.10800
H  37.60700 43.06800 26.39100
H  36.86600 46.23100 30.05500
H  33.71900 43.94900 32.19200
H  33.19400 45.67200 32.21400
H  34.46700 45.05100 33.24900

