158

Mg -11.26100 39.95200 41.75000
C  -10.29000 36.76400 40.87800
C  -8.23000 41.13400 40.88700
C  -12.55600 43.02100 41.77100
C  -14.60200 38.59300 42.22700
N  -9.59100 39.09300 40.76500
C  -9.33800 37.77400 40.54900
C  -7.97500 37.59400 39.91500
C  -7.25700 38.91700 40.25500
C  -8.46700 39.77400 40.62200
C  -6.03800 38.94000 41.20500
C  -8.11000 37.11700 38.44200
C  -7.12000 36.06000 38.04800
H  -5.93600 36.52300 37.16700
N  -10.46600 41.85400 41.49600
C  -9.17900 42.13200 41.18600
C  -9.00700 43.52800 41.16300
C  -10.34500 44.08300 41.23700
C  -11.20200 42.94500 41.50600
C  -7.59600 44.13800 41.00800
C  -10.61800 45.59600 41.19900
O  -9.73000 46.41600 40.97100
C  -11.95500 46.17400 41.38100
N  -13.31300 40.75800 41.94200
C  -13.52300 42.04600 41.92600
C  -15.00300 42.39500 42.25700
C  -15.60200 40.99100 42.55500
C  -14.43900 40.04600 42.23000
C  -15.21100 43.42100 43.31900
C  -16.93700 40.72300 41.90500
C  -17.96900 40.03100 42.89900
N  -12.29300 38.04400 41.65400
C  -13.61200 37.62600 41.91400
C  -13.67600 36.19200 41.90800
C  -12.38400 35.79100 41.45400
C  -11.60100 36.95600 41.34900
C  -14.87700 35.36100 42.27300
C  -11.52400 34.68800 41.12500
O  -11.70700 33.49100 41.24300
C  -10.14700 35.26700 40.64300
C  -8.98200 34.63200 41.43200
O  -8.71000 34.98900 42.54700
O  -8.50400 33.57400 40.76800
C  -7.67400 32.67500 41.60200
H  -7.21200 41.50200 40.74000
H  -12.99400 44.01900 41.69500
H  -15.57100 38.23500 42.58000
H  -7.47700 36.84200 40.52600
H  -6.94200 39.29600 39.28200
H  -6.37800 39.53000 42.05600
H  -5.17900 39.43500 40.75200
H  -5.77800 37.90500 41.42700
H  -8.03900 38.03100 37.85200
H  -9.11400 36.70100 38.35700
H  -7.61600 35.33500 37.40300
H  -6.70600 35.45300 38.85400
H  -7.50300 45.22200 40.94000
H  -7.07700 43.75700 40.12900
H  -6.95300 43.87300 41.84800
H  -12.61200 45.66600 40.67500
H  -11.85800 47.22300 41.10100
H  -12.21300 46.07700 42.43500
H  -15.43700 42.80200 41.34400
H  -15.81300 40.81000 43.60900
H  -15.50800 44.34500 42.82100
H  -14.23800 43.69600 43.72500
H  -15.96000 43.14800 44.06200
H  -16.78200 40.08400 41.03500
H  -17.41200 41.68200 41.70100
H  -18.63000 40.75300 43.37700
H  -17.51900 39.37200 43.64200
H  -18.69100 39.52900 42.25500
H  -15.59700 35.96000 42.83100
H  -14.54600 34.51900 42.88000
H  -15.49100 35.08800 41.41500
H  -9.99600 35.08600 39.57900
H  -7.40300 31.95800 40.82700
H  -8.20900 32.09400 42.35300
H  -6.80200 33.19000 42.00300
Mg -2.09700 34.73900 27.40400
C  -3.61400 33.01800 30.18400
C  -0.35600 36.63300 29.44600
C  -1.24500 36.67100 24.75200
C  -3.98600 32.67700 25.23900
N  -2.10400 34.85300 29.60900
C  -2.72000 34.05600 30.58300
C  -2.15700 34.38200 31.94700
C  -1.38600 35.74500 31.63800
C  -1.21700 35.76300 30.12500
C  -1.98600 36.95200 32.29800
C  -1.33800 33.18100 32.48800
C  -1.95100 32.43800 33.64300
H  -1.25000 32.41000 34.96100
N  -0.90400 36.36500 27.10200
C  -0.19500 37.00200 28.12900
C  0.64200 38.07100 27.64100
C  0.32200 38.05500 26.22500
C  -0.59900 36.99700 25.93500
C  1.48400 39.01700 28.56700
C  0.89500 38.92700 25.17600
O  0.47100 38.86200 24.03600
C  1.98300 39.79300 25.49300
N  -2.66200 34.73100 25.37100
C  -2.25500 35.68900 24.52500
C  -2.69200 35.45100 23.00200
C  -3.46900 34.10300 23.17000
C  -3.34500 33.73800 24.63500
C  -3.49200 36.63600 22.30800
C  -2.84700 33.06200 22.19500
C  -1.60300 32.25600 22.70000
N  -3.48500 33.14400 27.64600
C  -4.01900 32.35100 26.66400
C  -4.83100 31.31100 27.30500
C  -4.73100 31.56800 28.69500
C  -3.86200 32.62400 28.83900
C  -5.63300 30.26500 26.65500
C  -5.16500 31.10000 30.01400
O  -5.87500 30.22100 30.41400
C  -4.42300 31.98600 31.02200
C  -5.54400 32.58700 31.84700
O  -6.35800 33.44300 31.43400
O  -5.63200 32.03800 33.09700
C  -6.85000 32.15700 33.84700
H  0.27800 37.17000 30.15400
H  -1.02100 37.22000 23.83500
H  -4.49800 32.05800 24.50000
H  -3.05600 34.59400 32.52700
H  -0.32900 35.70100 31.90000
H  -2.95500 37.13600 31.83600
H  -1.38800 37.82100 32.02000
H  -1.97300 36.87200 33.38500
H  -0.39300 33.65600 32.75300
H  -1.18000 32.52100 31.63500
H  -1.98900 31.43400 33.22000
H  -2.92400 32.90500 33.79900
H  1.23800 38.91100 29.62300
H  1.31100 40.05100 28.26900
H  2.51900 38.74700 28.35300
H  2.15200 40.46000 24.64700
H  2.88300 39.30300 25.86500
H  1.68600 40.53400 26.23600
H  -1.81900 35.30100 22.36600
H  -4.52600 34.30900 22.99700
H  -4.56000 36.45100 22.18900
H  -3.03500 36.87100 21.34700
H  -3.39700 37.44100 23.03700
H  -2.43300 33.43800 21.26000
H  -3.68900 32.39500 22.00500
H  -0.69800 32.37200 22.10200
H  -2.02700 31.25400 22.76700
H  -1.31900 32.53700 23.71400
H  -5.72000 30.43500 25.58200
H  -6.66900 30.36000 26.98000
H  -5.51500 29.19200 26.80900
H  -3.87700 31.27800 31.64700
H  -7.76200 32.34700 33.28100
H  -6.80300 32.89400 34.64800
H  -7.06000 31.15000 34.20900

