158

Mg 43.06000 41.38300 26.01600
C  41.87600 43.53800 28.43500
C  43.97200 39.21600 28.47800
C  44.34100 39.40000 23.71400
C  42.40900 43.83200 23.52000
N  42.96300 41.41200 28.24300
C  42.33500 42.37000 29.01600
C  42.52700 42.14200 30.58900
C  43.33400 40.77500 30.51600
C  43.47100 40.47600 29.03100
C  44.67200 40.80500 31.26500
C  41.15100 42.11700 31.32100
C  41.02900 42.83600 32.67800
H  40.55900 42.09700 33.94200
N  43.95800 39.49600 26.08600
C  44.19700 38.78500 27.20000
C  44.74200 37.51700 26.75600
C  44.83200 37.45400 25.36300
C  44.35900 38.81200 24.99000
C  45.06500 36.41000 27.75100
C  45.29200 36.34600 24.43900
O  45.31300 36.44200 23.20100
C  45.85600 35.09400 24.98600
N  43.62500 41.76100 23.96000
C  44.00700 40.65500 23.25900
C  43.82600 40.84300 21.79100
C  43.16000 42.28900 21.67100
C  43.04200 42.64000 23.07300
C  44.95900 40.57200 20.83100
C  41.84500 42.34100 20.86600
C  41.60300 43.69800 20.13300
N  42.32900 43.32500 25.94900
C  42.12400 44.18700 24.87500
C  41.62700 45.36500 25.33900
C  41.53300 45.23800 26.72100
C  41.90200 43.95400 27.05100
C  41.04700 46.48800 24.49700
C  41.21600 45.85900 27.98200
O  40.77800 46.99300 28.21000
C  41.48600 44.81800 29.17200
C  42.59400 45.34200 30.02300
O  43.80800 45.32100 29.64200
O  42.13000 45.85300 31.26000
C  43.21600 46.24300 32.21300
H  44.14600 38.48800 29.27300
H  44.75700 38.61100 23.08400
H  42.15800 44.54500 22.73200
H  43.03000 43.02700 30.98000
H  42.71700 39.97300 30.92200
H  45.48500 40.71500 30.54500
H  44.66900 39.98200 31.97900
H  44.65800 41.78300 31.74500
H  40.90000 41.10500 31.64000
H  40.41300 42.44400 30.58900
H  40.20800 43.55200 32.66000
H  41.89300 43.39900 33.03000
H  44.80900 36.57600 28.79800
H  46.13900 36.24500 27.66600
H  44.48600 35.53600 27.45100
H  46.62200 35.35100 25.71800
H  46.16200 34.29500 24.31200
H  44.94500 34.74200 25.47000
H  43.04000 40.13600 21.52400
H  43.89100 42.99300 21.27100
H  44.54500 39.77900 20.20800
H  45.97900 40.46300 21.19900
H  45.12600 41.46900 20.23500
H  40.99300 42.14000 21.51600
H  41.93600 41.54500 20.12600
H  41.17600 44.47800 20.76300
H  40.90700 43.39800 19.34900
H  42.51100 44.05200 19.64600
H  40.14000 46.91000 24.92800
H  40.78300 45.97400 23.57300
H  41.76600 47.27400 24.26400
H  40.59900 44.69200 29.79300
H  44.24400 46.31200 31.85800
H  43.15700 45.61600 33.10200
H  43.01300 47.26600 32.53100
Mg 36.30600 48.84700 25.30300
C  36.90000 46.56800 27.95500
C  34.86900 51.02000 27.53500
C  35.56900 50.76300 22.74200
C  37.22800 46.28200 23.07900
N  35.87700 48.70400 27.52700
C  36.36700 47.81200 28.40700
C  36.24700 48.29700 29.84600
C  35.30000 49.51700 29.67900
C  35.34200 49.80000 28.15700
C  33.88400 49.25500 30.26500
C  37.68300 48.56900 30.44400
C  37.98000 48.10700 31.93400
H  36.82100 48.19000 32.82100
N  35.36500 50.61300 25.17800
C  34.91500 51.48400 26.18600
C  34.61300 52.85600 25.69100
C  34.62700 52.62800 24.26900
C  35.18200 51.26300 23.98300
C  34.10300 53.85000 26.58200
C  34.12700 53.61500 23.15900
O  34.12800 53.35200 21.96700
C  33.57300 54.95900 23.64400
N  36.42500 48.53800 23.06500
C  36.21600 49.52900 22.26100
C  36.65700 49.19000 20.79400
C  37.34700 47.83000 21.03200
C  37.00300 47.50200 22.47800
C  35.47900 49.08300 19.79500
C  38.94200 47.72900 20.84200
C  39.76600 48.63000 21.71100
N  37.05300 46.87800 25.39700
C  37.36400 45.92100 24.43500
C  37.69900 44.68400 25.03800
C  37.62100 44.89700 26.40200
C  37.08400 46.23200 26.55000
C  38.02900 43.41900 24.31600
C  37.82300 44.30500 27.69700
O  38.15900 43.21100 28.07100
C  37.42100 45.39300 28.73100
C  36.31400 44.85500 29.54000
O  35.19500 44.59800 29.08900
O  36.74400 44.77200 30.86500
C  35.66800 44.51200 31.80200
H  34.31100 51.66700 28.21500
H  35.22700 51.40200 21.92600
H  37.51200 45.48200 22.39200
H  35.75000 47.61600 30.53700
H  35.72100 50.37600 30.20100
H  33.08300 49.76900 29.73400
H  33.86600 49.59200 31.30100
H  33.74900 48.17800 30.37000
H  38.03700 49.59100 30.30800
H  38.29800 47.99000 29.75600
H  38.63200 48.93900 32.20100
H  38.50400 47.16500 32.09500
H  34.86300 54.63100 26.62500
H  33.95500 53.55700 27.62100
H  33.17300 54.29300 26.22400
H  32.61300 54.85000 24.14800
H  33.54900 55.69500 22.84000
H  34.30800 55.25800 24.39100
H  37.29800 49.99900 20.44200
H  37.06800 47.07500 20.29800
H  34.50800 49.14900 20.28500
H  35.61900 48.23800 19.12100
H  35.47800 49.92800 19.10600
H  39.18100 48.02400 19.82000
H  39.18900 46.66800 20.86400
H  39.37500 48.77300 22.71800
H  39.79400 49.59700 21.20700
H  40.78600 48.24500 21.72700
H  39.10700 43.30500 24.20300
H  37.63000 43.42700 23.30200
H  37.62500 42.55600 24.84500
H  38.30200 45.60900 29.33500
H  34.82800 45.20500 31.74900
H  36.08100 44.36100 32.79900
H  35.28700 43.55300 31.45300

