158

Mg 23.90000 -6.64600 46.06800
C  26.27900 -4.29300 44.85500
C  21.56500 -5.05100 44.11600
C  21.98900 -9.25100 46.62700
C  26.53400 -8.12100 47.81500
N  23.99600 -4.87000 44.58800
C  25.06800 -4.14700 44.24800
C  24.70100 -3.29700 42.99900
C  23.13800 -3.31100 43.03700
C  22.86300 -4.45300 43.99600
C  22.48400 -1.98700 43.49700
C  25.31800 -3.91000 41.69000
C  25.87600 -3.00600 40.58900
H  25.25100 -3.04800 39.19500
N  21.97100 -7.11500 45.43000
C  21.12500 -6.31700 44.68300
C  19.79100 -6.87300 44.67400
C  19.89100 -8.07100 45.45900
C  21.31100 -8.18100 45.87700
C  18.60600 -6.31700 44.12300
C  18.74600 -8.99900 45.68600
O  17.69800 -8.85300 45.08700
C  18.88300 -10.27800 46.58100
N  24.21300 -8.38000 47.14900
C  23.23800 -9.33600 47.30400
C  23.67700 -10.50700 48.12200
C  25.13800 -10.11900 48.57200
C  25.30300 -8.71800 47.89400
C  22.64400 -10.95200 49.27800
C  26.32600 -11.07400 48.17800
C  27.33800 -11.47600 49.26100
N  26.00900 -6.34600 46.34000
C  26.96400 -6.96100 47.10700
C  28.27300 -6.29500 46.99400
C  28.06700 -5.27800 46.02600
C  26.65000 -5.31700 45.75400
C  29.48200 -6.76900 47.65000
C  28.71700 -4.20400 45.33500
O  29.86400 -3.74300 45.28200
C  27.50400 -3.41700 44.60900
C  27.35600 -2.05500 45.22100
O  26.69600 -1.16400 44.78600
O  28.00900 -1.98500 46.40900
C  27.96200 -0.66600 47.01600
H  20.83100 -4.48300 43.54100
H  21.33500 -10.10900 46.79200
H  27.30600 -8.72600 48.29500
H  25.13600 -2.29800 43.02300
H  22.65000 -3.55800 42.09400
H  22.15500 -2.01900 44.53600
H  21.57400 -1.96300 42.89800
H  23.12200 -1.13100 43.27900
H  24.52300 -4.50100 41.23600
H  26.14800 -4.56000 41.96700
H  26.94900 -3.18700 40.52600
H  25.77300 -1.96500 40.89700
H  18.48100 -6.88200 43.19900
H  18.67600 -5.23000 44.08800
H  17.83600 -6.58900 44.84600
H  19.26600 -9.97200 47.55400
H  19.59300 -10.87200 46.00500
H  17.98600 -10.87500 46.74200
H  23.73000 -11.33500 47.41500
H  25.15800 -10.06700 49.66100
H  21.77700 -10.29500 49.35700
H  23.02100 -11.10700 50.28900
H  22.15900 -11.87200 48.95200
H  26.83800 -10.70400 47.29000
H  25.86900 -12.03800 47.95800
H  27.63100 -12.51400 49.10400
H  26.86900 -11.42100 50.24300
H  28.19600 -10.80600 49.20900
H  30.29800 -6.73700 46.92800
H  29.22100 -7.79300 47.91600
H  29.78400 -6.24500 48.55700
H  27.77500 -3.14000 43.59000
H  26.96800 -0.27000 47.22100
H  28.56400 -0.06000 46.33900
H  28.46900 -0.82100 47.96800
Mg 8.76100 47.91800 25.17900
C  6.82500 48.08800 28.12300
C  11.38300 49.37900 26.99100
C  10.53100 48.08300 22.35400
C  5.95600 47.18600 23.34600
N  9.10600 48.47500 27.35600
C  8.17400 48.40000 28.38900
C  8.73600 48.92000 29.68500
C  9.85700 49.78100 29.18500
C  10.16400 49.16400 27.77200
C  9.41200 51.29600 29.05300
C  9.07100 47.79500 30.68400
C  8.61400 48.04200 32.14200
H  8.44900 46.86400 33.22600
N  10.68500 48.50100 24.79600
C  11.66400 48.96200 25.66800
C  12.98600 49.06000 24.98200
C  12.80400 48.65500 23.61700
C  11.29900 48.37100 23.57500
C  14.27500 49.53000 25.62800
C  13.64100 48.42200 22.45800
O  13.27400 47.88800 21.43400
C  15.10000 48.74900 22.64800
N  8.38500 47.53800 23.16400
C  9.22700 47.78100 22.14700
C  8.67100 47.42600 20.74900
C  7.23600 46.92500 21.17800
C  7.19300 47.26500 22.65200
C  8.86800 48.48900 19.66200
C  7.10100 45.40200 20.93500
C  5.75100 45.01500 20.16600
N  6.78200 47.59900 25.58600
C  5.75600 47.43200 24.74700
C  4.54100 47.39300 25.50800
C  4.89500 47.54400 26.85500
C  6.30300 47.70800 26.84000
C  3.14100 47.16100 24.99400
C  4.42700 47.61500 28.18200
O  3.27700 47.47900 28.66400
C  5.68000 47.90300 29.09000
C  5.78200 46.63900 29.92800
O  6.26000 45.58200 29.45400
O  5.57700 46.86400 31.25500
C  5.50200 45.62400 32.03000
H  12.12900 49.96400 27.53200
H  11.03900 47.97500 21.39400
H  5.02300 46.98400 22.81600
H  7.91300 49.50300 30.09700
H  10.82400 49.63400 29.66600
H  10.04300 51.89300 29.71000
H  8.35500 51.54500 29.15400
H  9.58100 51.57300 28.01200
H  10.15700 47.71000 30.70200
H  8.67800 46.83100 30.36100
H  7.66100 48.57000 32.15000
H  9.36900 48.72000 32.54000
H  14.09900 49.80300 26.66900
H  14.69900 50.43300 25.18900
H  14.92400 48.65500 25.60700
H  15.46400 48.12400 23.46300
H  15.24200 49.81500 22.82800
H  15.61200 48.55800 21.70500
H  9.26300 46.54000 20.52100
H  6.52800 47.56900 20.65600
H  8.02500 48.78300 19.03600
H  9.78900 48.28600 19.11600
H  9.10000 49.48400 20.03900
H  7.06500 44.82800 21.86100
H  7.88600 45.06000 20.26000
H  5.17500 45.85500 19.77800
H  5.11600 44.46800 20.86200
H  5.93200 44.33800 19.33100
H  3.26100 47.52100 23.97200
H  2.51500 47.96300 25.38800
H  2.72000 46.15600 25.02600
H  5.54600 48.69400 29.82800
H  6.50000 45.33500 32.36000
H  5.07400 44.78300 31.48400
H  4.86700 45.99400 32.83500

