158

Mg -1.54600 16.90700 26.08400
C  -1.92700 14.81400 28.85000
C  -1.78300 19.61500 28.14300
C  -1.87400 18.79900 23.24700
C  -1.70300 14.11000 23.91700
N  -1.76400 17.09600 28.24100
C  -1.80800 16.14300 29.21200
C  -2.02200 16.76600 30.58900
C  -1.99500 18.31400 30.26500
C  -1.94700 18.39600 28.79900
C  -3.17400 19.07000 30.84600
C  -1.18900 16.34400 31.76300
C  -0.88100 17.31500 32.86700
H  -0.39000 16.78700 34.18900
N  -1.69300 18.92000 25.73300
C  -1.75300 19.91300 26.70300
C  -1.73900 21.17400 26.04700
C  -1.85100 20.99400 24.65800
C  -1.86300 19.55200 24.48700
C  -1.65600 22.47000 26.83600
C  -2.03100 21.93900 23.53800
O  -2.11400 21.61100 22.34000
C  -2.13000 23.39500 23.84700
N  -1.80500 16.53500 23.88500
C  -1.81900 17.47300 22.96000
C  -1.88800 16.98400 21.46300
C  -1.53100 15.50100 21.73100
C  -1.58000 15.37200 23.29000
C  -3.25000 17.22500 20.77600
C  -0.15400 15.14100 21.21500
C  1.12600 15.85300 21.87600
N  -1.75100 14.96000 26.28500
C  -1.82500 13.94800 25.36000
C  -2.07800 12.62700 26.03500
C  -1.98300 12.93100 27.41200
C  -1.81100 14.35600 27.47600
C  -2.30500 11.33200 25.33100
C  -1.95300 12.36800 28.79800
O  -1.95700 11.19300 29.12100
C  -2.05600 13.56700 29.71000
C  -0.95900 13.29400 30.73900
O  0.23400 13.59900 30.72400
O  -1.50400 12.48500 31.81800
C  -0.51700 11.77300 32.57500
H  -1.79600 20.55400 28.70000
H  -2.00900 19.28500 22.27800
H  -1.80100 13.29900 23.19200
H  -3.06300 16.53200 30.81400
H  -1.02500 18.66500 30.61800
H  -3.82100 19.41600 30.03900
H  -2.80700 19.93100 31.40500
H  -3.72300 18.51800 31.60900
H  -0.16800 16.14500 31.43600
H  -1.63100 15.43000 32.16100
H  -1.76000 17.93000 33.05800
H  -0.15500 18.07000 32.56400
H  -0.78500 23.01500 26.47000
H  -1.54500 22.29000 27.90500
H  -2.45200 23.18100 26.61900
H  -1.28800 23.79500 24.41200
H  -3.12000 23.44400 24.30100
H  -2.24200 23.92300 22.90000
H  -1.10600 17.54300 20.95000
H  -2.26500 14.95700 21.13700
H  -3.92500 17.64100 21.52300
H  -3.72300 16.37000 20.29300
H  -3.09400 18.03200 20.06000
H  -0.13300 15.39500 20.15600
H  0.00200 14.07300 21.36200
H  1.73100 14.98700 22.14600
H  0.73400 16.27100 22.80300
H  1.53400 16.51800 21.11500
H  -1.37300 10.76900 25.37800
H  -2.70800 11.40500 24.32100
H  -3.06600 10.88900 25.97400
H  -3.01800 13.36900 30.18400
H  0.35800 12.39900 32.75000
H  0.00800 10.98700 32.03200
H  -0.90500 11.40700 33.52600
Mg 6.67800 53.74900 41.14600
C  6.58200 50.12300 41.37000
C  10.18000 53.36100 40.59000
C  6.83200 57.03100 40.38800
C  3.38600 53.82700 41.59000
N  8.19900 51.98900 40.90200
C  7.92100 50.64700 41.15700
C  9.22400 49.82100 40.82100
C  10.33800 50.86200 41.09900
C  9.54500 52.21700 40.85100
C  11.09400 50.88700 42.52300
C  9.34900 49.21200 39.41100
C  8.85500 50.09500 38.25900
H  7.54000 49.78600 37.58200
N  8.28900 55.03900 40.50000
C  9.65100 54.68600 40.48800
C  10.36300 55.84900 40.25000
C  9.45400 56.94000 39.91100
C  8.14200 56.38000 40.22600
C  11.94600 55.84200 40.03500
C  9.83000 58.40000 39.36700
O  10.98800 58.68300 39.28900
C  8.68000 59.40400 39.01900
N  5.36700 55.17300 40.81700
C  5.59900 56.49000 40.69700
C  4.35400 57.31800 40.85900
C  3.19500 56.32000 40.99000
C  4.02400 55.00800 41.18500
C  4.41500 58.23900 42.13900
C  2.29600 56.35500 39.71400
C  0.77600 56.39600 39.92500
N  5.16600 52.34900 41.38500
C  3.84400 52.51400 41.63700
C  3.21900 51.23100 42.01500
C  4.29400 50.28100 41.85900
C  5.41100 50.97900 41.46900
C  1.80200 51.04400 42.49400
C  4.54700 48.91900 41.99900
O  3.87100 47.99900 42.45100
C  6.05500 48.76300 41.67300
C  6.04500 47.87600 40.54900
O  5.66900 48.20500 39.44200
O  6.31200 46.61700 40.94000
C  6.22600 45.65400 39.85200
H  11.25400 53.16700 40.55800
H  6.94600 58.10000 40.19800
H  2.30900 54.00100 41.61800
H  9.16900 49.03000 41.56800
H  11.14300 50.78300 40.36900
H  10.70800 51.73900 43.08200
H  12.18200 50.82400 42.56700
H  10.75300 50.01500 43.08100
H  8.72100 48.32100 39.37300
H  10.41300 48.97900 39.37400
H  9.60800 49.98700 37.47800
H  8.77600 51.14600 38.53500
H  12.42200 55.07900 40.65100
H  12.36900 56.77500 40.40800
H  12.27100 55.77100 38.99700
H  8.21600 59.70100 39.96000
H  7.94800 58.98600 38.32800
H  9.16500 60.27100 38.57200
H  4.34200 57.94600 39.96900
H  2.66400 56.39500 41.93900
H  4.88700 59.19100 41.89500
H  5.04400 57.63600 42.79300
H  3.43100 58.30200 42.60400
H  2.53800 55.51200 39.06700
H  2.56700 57.27100 39.18800
H  0.23000 55.52200 39.57000
H  0.44200 57.29800 39.41200
H  0.51800 56.52000 40.97700
H  1.75500 50.10700 43.04900
H  1.04500 51.01300 41.71000
H  1.54500 51.84600 43.18700
H  6.57100 48.23800 42.47700
H  6.52300 44.62700 40.06800
H  6.73400 45.97700 38.94300
H  5.17800 45.67700 39.55400

