158

Mg 40.48200 9.47900 29.55200
C  42.32400 11.06500 32.12000
C  38.12700 8.41400 31.71000
C  39.06300 7.93200 26.90300
C  43.34800 10.16100 27.53700
N  40.33100 9.64300 31.61500
C  41.14500 10.41200 32.53900
C  40.41600 10.49200 33.81800
C  39.35000 9.38200 33.72200
C  39.27400 9.09200 32.24900
C  39.39400 8.07800 34.56100
C  39.88800 11.92900 34.12000
C  39.44400 12.10700 35.60000
H  40.39600 12.89000 36.53600
N  38.65200 8.52700 29.24900
C  37.83400 8.11800 30.34200
C  36.70300 7.45700 29.76100
C  36.94900 7.40200 28.38200
C  38.21900 7.93700 28.07500
C  35.59300 6.90700 30.66400
C  36.11800 6.71300 27.31100
O  36.51300 6.71100 26.14900
C  34.74800 6.10900 27.71500
N  41.19400 9.07600 27.53200
C  40.36900 8.46200 26.60500
C  40.93400 8.39000 25.17700
C  42.29600 9.24700 25.42800
C  42.29600 9.59100 26.92700
C  41.11600 6.99200 24.64500
C  42.56700 10.46900 24.42500
C  42.00700 11.92000 24.66000
N  42.54200 10.43800 29.70300
C  43.52000 10.60300 28.85600
C  44.51200 11.47000 29.31100
C  44.13900 11.63900 30.69500
C  42.91000 10.93900 30.83800
C  45.60300 12.07100 28.57100
C  44.48700 12.28400 31.94800
O  45.38000 13.06900 32.13500
C  43.28300 11.88800 32.96400
C  43.94300 11.05200 34.05700
O  44.78200 10.18300 33.82300
O  43.64100 11.59400 35.31900
C  44.04000 10.73000 36.46200
H  37.41600 8.10000 32.47700
H  38.64300 7.56600 25.96400
H  44.15800 10.47000 26.87300
H  41.06600 10.21400 34.64800
H  38.42900 9.86900 34.04100
H  40.26800 7.51200 34.24000
H  38.52800 7.44900 34.35700
H  39.36400 8.34600 35.61700
H  38.99200 12.12700 33.53100
H  40.63000 12.68900 33.87600
H  39.32900 11.13500 36.08100
H  38.45000 12.55400 35.60300
H  34.58000 7.03200 30.28100
H  35.54700 7.25700 31.69500
H  35.82100 5.84200 30.62200
H  34.09900 6.94100 27.99100
H  34.85400 5.36300 28.50200
H  34.37400 5.67300 26.78900
H  40.23500 8.99000 24.59500
H  43.15100 8.61200 25.19900
H  42.06800 6.83700 24.13500
H  40.30100 6.78000 23.95300
H  41.06000 6.23200 25.42400
H  42.29000 10.13400 23.42600
H  43.65600 10.42900 24.38500
H  41.12900 11.80800 25.29600
H  41.61400 12.36200 23.74500
H  42.77900 12.57000 25.07100
H  45.35500 12.40700 27.56500
H  46.31700 11.26100 28.42100
H  46.02700 12.97100 29.01700
H  42.78400 12.76900 33.36800
H  44.01200 9.70900 36.08300
H  43.25200 10.77000 37.21400
H  45.06200 10.93300 36.78000
Mg 36.62800 49.44200 25.12300
C  36.39200 47.63400 28.11600
C  35.15200 52.15900 26.75100
C  36.15500 51.05300 22.21000
C  37.77000 46.69100 23.55900
N  35.80700 49.77900 27.23500
C  35.92100 48.94300 28.29000
C  35.53400 49.62700 29.60200
C  35.12000 51.05000 29.15900
C  35.34000 51.00100 27.57200
C  33.59100 51.43700 29.55200
C  36.76800 49.72300 30.61400
C  36.51900 49.21000 32.05100
H  35.03600 49.15700 32.47800
N  35.79500 51.33500 24.64000
C  35.38100 52.31400 25.41900
C  35.30900 53.61900 24.70700
C  35.41700 53.26900 23.32200
C  35.76800 51.82300 23.35100
C  34.97100 54.92700 25.33700
C  35.30000 54.12200 22.05600
O  35.48900 53.71700 20.93400
C  35.08100 55.69200 22.17700
N  36.83700 48.92300 23.19900
C  36.63300 49.75700 22.14900
C  37.02300 49.09700 20.83400
C  37.82700 47.83000 21.33100
C  37.54700 47.82000 22.79200
C  35.82600 48.81900 19.84000
C  39.34800 47.78800 20.87200
C  40.25700 48.66600 21.68700
N  37.12400 47.61800 25.72700
C  37.64900 46.61100 24.95800
C  37.94400 45.41700 25.85100
C  37.48500 45.83300 27.06000
C  36.98100 47.13900 26.92500
C  38.61600 44.08500 25.54500
C  37.33100 45.31400 28.42300
O  37.70900 44.30200 29.00000
C  36.62000 46.50500 29.17500
C  35.33900 46.06100 29.81600
O  34.24900 46.09200 29.28500
O  35.59000 45.58400 31.06100
C  34.58100 44.66200 31.50500
H  34.74000 53.06700 27.19700
H  36.13700 51.49100 21.21000
H  38.24800 45.86900 23.02200
H  34.75300 48.93300 29.91300
H  35.74600 51.80300 29.63700
H  33.05900 50.64300 30.07400
H  32.93500 51.70100 28.72200
H  33.65200 52.18400 30.34300
H  37.12600 50.73900 30.77800
H  37.57200 49.17300 30.12500
H  37.00800 49.82200 32.80900
H  36.84500 48.17300 32.12200
H  34.00800 55.19800 24.90500
H  35.82700 55.55500 25.09000
H  34.95800 54.93200 26.42700
H  34.08400 55.78100 22.60700
H  35.01000 56.11900 21.17700
H  35.74100 56.26400 22.82800
H  37.72500 49.84200 20.45900
H  37.37900 46.91000 20.95600
H  34.87500 49.30400 20.06100
H  35.57100 47.76100 19.88400
H  36.17900 49.04700 18.83500
H  39.32800 48.07700 19.82100
H  39.70000 46.75700 20.92300
H  40.76100 49.33200 20.98700
H  41.11100 48.09600 22.05300
H  39.79500 49.26500 22.47200
H  37.99100 43.39200 24.98100
H  39.01900 43.54200 26.40000
H  39.45600 44.34200 24.89900
H  37.40400 46.73400 29.89700
H  33.91900 44.21500 30.76300
H  34.04700 45.22200 32.27200
H  35.17600 43.95200 32.08100

