158

Mg 30.51800 58.45100 40.10800
C  27.59500 56.65200 39.18800
C  32.46200 55.85300 38.92100
C  33.12500 60.59600 40.08200
C  28.35200 61.04300 41.07800
N  29.99900 56.47500 39.25400
C  28.82300 56.00400 38.92900
C  28.95200 54.55300 38.40800
C  30.36700 54.21500 38.97200
C  31.03500 55.61800 39.02600
C  30.43600 53.61500 40.40100
C  28.93400 54.61200 36.83100
C  27.64800 54.13100 36.22400
H  26.88000 55.04200 35.30900
N  32.53200 58.27900 39.68900
C  33.08800 57.11400 39.11000
C  34.53500 57.36900 39.03500
C  34.72600 58.75100 39.30800
C  33.47800 59.32300 39.76700
C  35.48800 56.37600 38.52700
C  36.08900 59.41000 39.17700
O  37.00700 58.77300 38.66600
C  36.41700 60.77600 39.65800
N  30.65700 60.49400 40.40600
C  31.90300 61.16900 40.35100
C  31.74600 62.60600 41.00500
C  30.28900 62.62500 41.54800
C  29.71900 61.35800 40.98000
C  32.77000 63.08300 42.03700
C  29.49900 63.97600 41.30200
C  28.43300 64.30700 42.43500
N  28.35900 58.77400 40.16700
C  27.65400 59.90300 40.53500
C  26.23600 59.65000 40.44800
C  26.11100 58.32700 39.88100
C  27.47600 57.88900 39.70400
C  25.22200 60.56500 41.05800
C  25.23600 57.28900 39.35600
O  24.03900 57.08900 39.17700
C  26.17300 56.12400 38.92600
C  25.70800 54.93900 39.74300
O  26.15600 54.62100 40.86600
O  24.88200 54.15200 38.89900
C  24.38600 52.96800 39.55500
H  32.89800 54.88000 38.68200
H  33.96500 61.29400 40.05600
H  27.79100 61.92800 41.38400
H  28.24800 53.84700 38.84800
H  30.95100 53.51700 38.37200
H  30.89400 52.62700 40.35400
H  29.47200 53.31800 40.81400
H  30.91700 54.32000 41.07900
H  29.70800 53.91000 36.52300
H  29.25400 55.55800 36.39500
H  27.02300 53.76800 37.04100
H  27.94300 53.33600 35.53900
H  35.56600 56.29000 37.44300
H  35.13100 55.37900 38.78500
H  36.49300 56.40500 38.94700
H  35.99200 60.89000 40.65600
H  35.97900 61.50300 38.97400
H  37.48700 60.97700 39.61000
H  31.77600 63.24800 40.12500
H  30.37900 62.43700 42.61700
H  32.28900 63.27100 42.99700
H  33.37600 63.93300 41.72600
H  33.39700 62.21500 42.23900
H  28.99500 63.90300 40.33900
H  30.27000 64.72700 41.13100
H  27.57700 64.85100 42.03500
H  28.91900 64.92600 43.18800
H  28.10500 63.43500 43.00000
H  24.51500 59.92400 41.58400
H  24.62700 61.08000 40.30300
H  25.74200 61.28500 41.69000
H  25.96000 56.00800 37.86300
H  25.13200 52.17600 39.48700
H  23.59800 52.65700 38.87000
H  23.92200 53.08400 40.53500
Mg -10.95400 37.25100 42.63400
C  -8.93800 34.97600 41.57300
C  -8.82000 39.76800 41.23100
C  -13.45100 39.52100 42.83400
C  -13.24100 34.73400 43.64800
N  -9.25600 37.40100 41.39000
C  -8.57400 36.22900 41.14200
C  -7.26600 36.52000 40.29400
C  -7.07100 38.10600 40.57200
C  -8.46100 38.45700 41.07400
C  -5.96500 38.56000 41.54400
C  -7.59400 36.01000 38.82000
C  -6.54500 35.34500 37.99100
H  -6.08300 36.10700 36.75300
N  -11.04000 39.36800 42.31100
C  -10.08400 40.19300 41.67300
C  -10.59300 41.52000 41.69400
C  -11.88300 41.52800 42.27200
C  -12.22500 40.12100 42.55700
C  -9.70600 42.65900 41.15900
C  -12.85300 42.74300 42.60900
O  -12.61200 43.82900 42.08900
C  -14.10300 42.55500 43.41600
N  -13.12200 37.09600 43.09200
C  -13.90100 38.21200 42.96900
C  -15.37000 37.78900 43.34900
C  -15.25400 36.26300 43.79900
C  -13.81200 35.97300 43.47600
C  -16.00100 38.63600 44.55100
C  -16.31900 35.29900 43.20800
C  -15.86300 34.44900 42.01100
N  -11.11400 35.26800 42.59300
C  -11.97000 34.39800 43.16900
C  -11.35500 33.07400 43.16500
C  -10.16400 33.26800 42.44500
C  -10.07500 34.63700 42.15600
C  -11.91100 31.75600 43.63900
C  -9.00800 32.53100 41.93500
O  -8.76700 31.29400 41.98500
C  -8.18300 33.66300 41.31900
C  -6.91600 33.64900 42.08600
O  -6.83100 33.97500 43.27300
O  -5.94000 33.07200 41.35700
C  -4.77100 32.62000 42.14000
H  -8.04800 40.50500 41.00200
H  -14.25400 40.19600 42.53100
H  -13.88000 33.94400 44.04700
H  -6.45900 35.93100 40.73100
H  -7.03900 38.70600 39.66200
H  -6.36600 39.11100 42.39500
H  -5.36300 39.30200 41.01900
H  -5.53500 37.68300 42.02800
H  -7.98500 36.91700 38.35900
H  -8.44700 35.33700 38.89900
H  -6.85300 34.32800 37.74600
H  -5.65900 35.20900 38.61000
H  -9.70100 42.45400 40.08900
H  -8.71200 42.69700 41.60400
H  -10.14100 43.65500 41.23900
H  -14.44100 43.49300 43.85800
H  -13.90200 41.78700 44.16300
H  -14.87300 42.12300 42.77700
H  -16.02200 37.79500 42.47600
H  -15.26600 36.06200 44.87000
H  -15.22200 39.32600 44.87700
H  -16.38500 37.97500 45.32800
H  -16.81400 39.20000 44.09400
H  -17.14300 36.00100 43.08300
H  -16.50600 34.55200 43.97900
H  -15.43800 33.55700 42.47100
H  -15.18900 34.90600 41.28700
H  -16.73500 34.14600 41.43000
H  -11.15200 30.97400 43.65600
H  -12.72100 31.53800 42.94400
H  -12.36200 31.76000 44.63200
H  -7.96500 33.41100 40.28200
H  -4.45900 31.64300 41.77200
H  -5.11900 32.57600 43.17200
H  -3.97800 33.33400 41.91800

