158

Mg 0.29000 7.21200 26.09500
C  0.89400 9.25700 28.93800
C  0.65800 4.41900 28.21700
C  0.25000 5.25500 23.37500
C  0.33700 10.09300 24.02600
N  0.76600 6.86900 28.40000
C  0.97300 7.89400 29.26000
C  1.08300 7.26500 30.66500
C  1.31700 5.67300 30.40900
C  0.91200 5.64300 28.94900
C  2.80100 5.22000 30.73400
C  -0.14800 7.57300 31.49900
C  0.08600 7.86800 32.96300
H  1.32700 7.23700 33.59100
N  0.36400 5.08900 25.79000
C  0.43400 4.17900 26.82000
C  0.33900 2.87500 26.20700
C  0.41300 3.06000 24.79200
C  0.33300 4.47500 24.57600
C  0.13600 1.58300 26.98700
C  0.39400 2.04300 23.66200
O  0.37900 2.31800 22.46600
C  0.47100 0.52200 23.98200
N  0.26900 7.62200 24.01200
C  0.14800 6.62300 23.10900
C  -0.25400 7.24100 21.70200
C  -0.21900 8.70900 21.92600
C  0.04700 8.83100 23.44100
C  0.73100 6.81400 20.60200
C  -1.43200 9.52700 21.51300
C  -1.14500 10.49300 20.33900
N  0.62200 9.21100 26.39800
C  0.56500 10.29800 25.45100
C  0.80000 11.50100 26.13800
C  0.91000 11.18400 27.54100
C  0.79600 9.76800 27.63500
C  0.90700 12.89500 25.49200
C  1.05600 11.71900 28.90800
O  1.30500 12.84300 29.22400
C  0.99000 10.49200 29.88100
C  2.14700 10.61600 30.73300
O  3.32500 10.53200 30.32300
O  1.77200 10.93400 32.05600
C  2.82600 10.96700 33.06800
H  0.73400 3.54800 28.87100
H  0.13600 4.61800 22.49500
H  0.32400 11.02400 23.45600
H  2.06100 7.61400 30.99500
H  0.66100 5.09000 31.05500
H  3.38800 5.95300 31.28700
H  3.35000 4.88900 29.85200
H  2.64700 4.37200 31.40100
H  -0.82200 6.72700 31.63600
H  -0.67200 8.41900 31.05500
H  -0.78500 7.46700 33.48000
H  0.19700 8.94100 33.11900
H  -0.76600 1.07300 26.64700
H  -0.07600 1.65700 28.05400
H  1.05100 1.00400 26.86700
H  0.91000 0.01800 23.12100
H  -0.58000 0.24300 24.06100
H  1.12600 0.38400 24.84200
H  -1.29200 6.95000 21.54600
H  0.64300 9.20600 21.48100
H  1.71800 6.74800 21.06000
H  0.64600 7.58200 19.83400
H  0.55900 5.77700 20.31400
H  -1.73800 10.07400 22.40500
H  -2.26400 8.91200 21.16900
H  -2.08000 10.71500 19.82500
H  -0.55000 10.02900 19.55200
H  -0.66400 11.42000 20.65200
H  -0.15200 13.14900 25.43500
H  1.42500 12.87100 24.53400
H  1.36800 13.61900 26.16400
H  0.17100 10.68300 30.57400
H  2.84800 12.00800 33.39100
H  3.76800 10.52500 32.74200
H  2.36900 10.33100 33.82600
Mg 16.88200 -1.18200 27.63300
C  15.97300 0.87900 30.27500
C  19.19700 -2.64400 29.79400
C  18.15100 -2.71900 25.02800
C  14.77600 0.72200 25.54700
N  17.50800 -0.90600 29.74300
C  16.91600 -0.01500 30.67800
C  17.47800 -0.25500 32.08500
C  18.74500 -1.13000 31.78600
C  18.48500 -1.61500 30.37200
C  20.23700 -0.52500 32.09000
C  16.39500 -0.89200 32.96000
C  16.10900 -0.14300 34.18300
H  17.26900 0.50500 34.79900
N  18.31600 -2.70800 27.55500
C  19.11500 -3.17600 28.54700
C  19.81900 -4.32800 27.97400
C  19.52900 -4.38600 26.61000
C  18.59100 -3.24800 26.25100
C  20.49400 -5.41000 28.87100
C  19.83400 -5.49200 25.58700
O  19.36500 -5.38000 24.49900
C  20.80900 -6.61500 25.90400
N  16.41600 -1.07700 25.61500
C  17.21300 -1.73700 24.71700
C  16.89400 -1.42600 23.27900
C  15.59500 -0.56800 23.43900
C  15.52200 -0.31900 24.92300
C  18.08500 -0.69400 22.55100
C  14.20000 -1.20000 22.86700
C  13.85000 -0.86400 21.44400
N  15.63600 0.46900 27.84700
C  14.80900 1.08800 26.93000
C  14.01800 2.09100 27.51500
C  14.54500 2.16200 28.80100
C  15.53200 1.13700 28.92200
C  12.92300 2.84200 26.77200
C  14.44700 2.85600 30.04700
O  13.78800 3.85700 30.39200
C  15.34700 2.00700 31.11600
C  16.33400 2.91600 31.70500
O  17.45300 3.08200 31.32100
O  15.85600 3.52300 32.82900
C  16.87900 4.36700 33.53000
H  20.02400 -3.04900 30.38000
H  18.49800 -3.24300 24.13500
H  14.23400 1.31200 24.80500
H  17.82500 0.72800 32.40500
H  18.61900 -2.03100 32.38600
H  20.61500 -1.30000 32.75600
H  20.14500 0.45300 32.56400
H  20.86400 -0.61700 31.20300
H  16.74700 -1.89400 33.20600
H  15.45500 -1.14100 32.46800
H  15.57900 -0.75100 34.91600
H  15.39100 0.63300 33.91800
H  19.86600 -6.30000 28.91500
H  20.49700 -4.99500 29.87900
H  21.52300 -5.60300 28.56800
H  21.83100 -6.24700 26.00000
H  20.72200 -7.30900 25.06800
H  20.37300 -7.17100 26.73300
H  16.56100 -2.34300 22.79300
H  15.87700 0.39300 23.00800
H  18.88700 -0.48800 23.26000
H  17.82900 0.26300 22.09800
H  18.41500 -1.38400 21.77500
H  13.39500 -0.89400 23.53500
H  14.17700 -2.27900 23.02000
H  14.32200 0.10500 21.28100
H  12.77900 -0.83300 21.24700
H  14.35300 -1.54800 20.76000
H  12.09800 2.81500 27.48500
H  12.53500 2.35600 25.87800
H  13.24600 3.85000 26.51000
H  14.89000 1.51500 31.97500
H  17.05500 5.31700 33.02600
H  17.87600 3.92600 33.52700
H  16.49000 4.50000 34.54000

