158

Mg 7.55700 2.65300 27.40100
C  9.22800 1.16400 30.15800
C  5.89600 4.74100 29.65600
C  6.12200 3.94700 24.78600
C  8.75000 0.01200 25.46400
N  7.42700 2.72200 29.67600
C  8.29800 2.14600 30.54800
C  8.17000 2.74700 31.98200
C  6.93000 3.77300 31.91900
C  6.76700 3.78300 30.29900
C  5.60700 3.30700 32.54200
C  9.45200 3.44600 32.50300
C  9.25000 4.32700 33.79200
H  10.27900 4.16000 34.87400
N  6.11100 4.17000 27.20800
C  5.53000 4.89500 28.22500
C  4.65400 5.91700 27.67400
C  4.79400 5.72100 26.25700
C  5.72100 4.57800 25.98200
C  3.84900 6.83500 28.43000
C  4.04800 6.41100 25.05400
O  4.29200 6.18100 23.85500
C  3.31600 7.55300 25.36500
N  7.33300 1.92600 25.45900
C  6.77700 2.73100 24.55200
C  6.94000 2.29700 23.06700
C  7.75600 1.02200 23.31000
C  8.01600 0.98200 24.80600
C  5.51100 1.92600 22.50400
C  9.15800 0.91900 22.60800
C  9.49600 -0.48000 21.95200
N  8.63600 0.93400 27.67600
C  9.02500 -0.08900 26.85600
C  9.88600 -1.04000 27.40800
C  10.01600 -0.54300 28.73200
C  9.25600 0.64400 28.87600
C  10.45800 -2.19700 26.73600
C  10.66000 -0.81400 29.98200
O  11.52200 -1.63300 30.40600
C  10.26500 0.39100 30.93200
C  9.74300 -0.16900 32.21600
O  8.71700 -0.86900 32.33800
O  10.70700 0.03500 33.22400
C  10.48000 -0.69300 34.46300
H  5.49000 5.58300 30.22100
H  5.67300 4.26800 23.84400
H  9.24000 -0.82500 24.96200
H  8.05700 1.96300 32.73100
H  7.15700 4.80300 32.19500
H  5.57600 2.25500 32.82700
H  4.92200 3.30400 31.69400
H  5.30400 4.04600 33.28400
H  9.85200 4.06800 31.70300
H  10.16400 2.63400 32.65200
H  8.29700 3.96900 34.18300
H  9.20000 5.37900 33.51400
H  3.80600 6.60000 29.49400
H  2.82100 6.66900 28.11100
H  4.30100 7.80100 28.20400
H  3.93500 8.35100 25.77600
H  2.44300 7.27200 25.95400
H  2.90400 8.02500 24.47300
H  7.46600 3.05800 22.49100
H  7.13300 0.17900 23.01200
H  4.76100 2.06200 23.28300
H  5.37400 0.89700 22.17200
H  5.38500 2.63500 21.68600
H  9.95700 1.16700 23.30700
H  9.18000 1.74700 21.90000
H  9.82000 -0.35100 20.91900
H  8.61700 -1.10700 22.10600
H  10.37100 -0.96900 22.38100
H  11.22100 -1.87200 26.02800
H  9.67800 -2.77300 26.23800
H  10.90700 -2.89100 27.44700
H  11.12600 1.03900 31.09800
H  9.88200 -1.59000 34.29600
H  9.87500 -0.13100 35.17400
H  11.47400 -0.76400 34.90400
Mg 49.53000 35.18900 27.86500
C  47.14800 34.03000 30.32100
C  49.90700 37.99000 29.74300
C  51.29700 36.31000 25.34300
C  48.70600 32.30900 25.93600
N  48.63000 35.89200 29.94200
C  47.87200 35.20300 30.80400
C  48.00700 35.83700 32.18000
C  48.46900 37.35400 31.87500
C  49.09400 37.04100 30.44600
C  47.41200 38.50100 31.85500
C  49.12400 35.13200 33.07600
C  48.92400 35.17400 34.55400
H  48.10100 36.36500 35.20900
N  50.38700 36.90500 27.56200
C  50.52200 37.92500 28.43800
C  51.39300 38.95200 27.92100
C  51.83900 38.52300 26.64000
C  51.16700 37.21800 26.42200
C  51.47600 40.27400 28.66000
C  52.90900 39.17300 25.75900
O  53.30500 38.77700 24.62800
C  53.65900 40.31600 26.41700
N  49.87000 34.35800 25.83600
C  50.79300 35.05900 25.09900
C  51.29900 34.13800 23.96500
C  50.58700 32.74900 24.20400
C  49.63200 33.12200 25.31800
C  51.18800 34.83300 22.56600
C  51.60000 31.61900 24.65900
C  51.29700 30.27300 24.04700
N  48.22200 33.51400 28.00100
C  48.00600 32.43900 27.16600
C  47.08900 31.47500 27.82600
C  46.70700 32.04300 29.03500
C  47.39900 33.29300 29.09500
C  46.74600 30.09900 27.26100
C  45.82300 31.94200 30.24500
O  45.02200 31.03300 30.53500
C  46.03900 33.18000 31.17200
C  46.40300 32.80400 32.54800
O  47.30100 32.05400 32.84700
O  45.56900 33.42100 33.39200
C  45.61600 33.20400 34.80700
H  50.20500 38.83100 30.37300
H  52.13800 36.57500 24.69900
H  48.54600 31.44300 25.29000
H  47.03700 35.78500 32.67500
H  49.28900 37.73300 32.48500
H  47.30900 38.68300 30.78600
H  47.63900 39.38400 32.45300
H  46.50000 38.07900 32.27700
H  50.02700 35.59800 32.68100
H  49.04100 34.06800 32.85500
H  49.81700 35.19900 35.17800
H  48.52000 34.18300 34.75900
H  51.68300 41.09300 27.97100
H  52.15800 40.27900 29.51000
H  50.56200 40.61100 29.14900
H  53.15000 41.23400 26.12400
H  54.57500 40.33800 25.82700
H  53.79400 40.10700 27.47800
H  52.35800 34.13600 24.21900
H  49.91000 32.38700 23.43000
H  52.18800 34.94400 22.14500
H  50.68900 35.80000 22.62100
H  50.74700 34.22700 21.77500
H  51.74700 31.50800 25.73400
H  52.54600 31.93000 24.21700
H  51.26200 29.56400 24.87400
H  52.11200 30.01000 23.37300
H  50.36800 30.29300 23.47600
H  47.16500 29.87200 26.28100
H  45.66300 29.98300 27.22100
H  47.21900 29.46100 28.00800
H  45.13100 33.78200 31.21200
H  46.62800 33.51700 35.06600
H  45.44900 32.13700 34.95600
H  44.90000 33.80300 35.36900

