158

Mg 0.08400 7.88200 26.02000
C  0.50900 9.99100 28.88400
C  0.14600 5.24500 28.11700
C  -0.65600 5.95200 23.34700
C  0.31800 10.68400 24.03200
N  0.30800 7.75000 28.26000
C  0.27500 8.67000 29.21100
C  0.36100 8.00100 30.66200
C  0.63600 6.50300 30.32200
C  0.38200 6.47600 28.79300
C  1.98700 5.98800 30.70900
C  -0.97400 8.35600 31.40000
C  -1.12200 7.93900 32.87900
H  0.04300 7.11600 33.47200
N  -0.32300 5.86600 25.73500
C  -0.24900 4.92500 26.72700
C  -0.41600 3.57900 26.20700
C  -0.64600 3.76200 24.85700
C  -0.54700 5.23100 24.56200
C  -0.34400 2.33300 26.94300
C  -0.94800 2.80100 23.75800
O  -1.19200 3.14500 22.63700
C  -0.75800 1.34200 24.05400
N  -0.07800 8.25200 24.03000
C  -0.51900 7.31200 23.10100
C  -0.77100 7.91000 21.71200
C  -0.67000 9.48800 21.98800
C  -0.09900 9.48900 23.41900
C  0.16700 7.29900 20.66200
C  -2.04900 10.16800 21.96400
C  -2.13400 11.57700 21.60100
N  0.47800 9.94900 26.29500
C  0.56900 10.93000 25.39000
C  0.77400 12.21500 26.01200
C  0.84300 11.83100 27.40000
C  0.54000 10.53600 27.52300
C  0.94600 13.60800 25.37200
C  1.02400 12.34900 28.75400
O  1.23500 13.48800 29.12300
C  0.67700 11.14300 29.75900
C  1.91200 11.02300 30.59800
O  3.07200 10.98800 30.23100
O  1.63800 10.86600 31.89700
C  2.70900 10.77800 32.85000
H  0.21500 4.40600 28.81300
H  -0.95700 5.35200 22.48600
H  0.21500 11.59100 23.43200
H  1.21000 8.48500 31.14600
H  -0.11400 5.99000 30.92400
H  2.28100 5.16600 30.05600
H  2.05300 5.35200 31.59300
H  2.80200 6.70100 30.58700
H  -1.80600 7.93100 30.83700
H  -1.09100 9.43900 31.39000
H  -2.04700 7.36900 32.96000
H  -1.23100 8.85600 33.45900
H  -1.27000 1.78100 26.77900
H  -0.22500 2.32500 28.02700
H  0.48300 1.69900 26.62200
H  -0.74500 0.74800 23.14000
H  -1.56400 1.01400 24.71100
H  0.25700 1.22700 24.43500
H  -1.79100 7.61300 21.47000
H  0.01400 9.98900 21.30300
H  -0.32500 6.45700 20.17400
H  1.16900 7.09900 21.04000
H  0.34800 8.04200 19.88500
H  -2.53200 10.01200 22.92900
H  -2.73600 9.68200 21.27100
H  -2.53800 11.73200 20.60100
H  -1.16300 12.07200 21.62400
H  -2.80800 12.07400 22.29800
H  2.01500 13.77600 25.23700
H  0.67200 14.27300 26.19100
H  0.38100 13.88700 24.48300
H  -0.25200 11.24800 30.31900
H  2.60800 11.58500 33.57500
H  3.69900 10.79200 32.39500
H  2.67600 9.90400 33.50100
Mg -11.18800 38.53300 41.45800
C  -9.46400 35.54100 40.76000
C  -8.67400 40.24600 39.71300
C  -13.23200 41.21000 41.15400
C  -13.83500 36.63300 42.66700
N  -9.43300 37.92900 40.21400
C  -8.87300 36.63200 40.14600
C  -7.45000 36.65200 39.62000
C  -7.22500 38.19000 39.29500
C  -8.54100 38.88300 39.80100
C  -5.88300 38.63900 39.87300
C  -7.28300 35.74400 38.39500
C  -6.06500 34.71100 38.56300
H  -4.87700 34.76400 37.51100
N  -10.92900 40.49200 40.74700
C  -9.81200 40.97700 40.03100
C  -10.03100 42.39400 39.69200
C  -11.29600 42.77200 40.18900
C  -11.87500 41.49300 40.73500
C  -9.02400 43.25400 39.00200
C  -11.92200 44.19700 40.06200
O  -11.17900 45.08300 39.64400
C  -13.30200 44.52200 40.51600
N  -13.28800 38.81300 41.56600
C  -13.90700 39.99800 41.49400
C  -15.39400 39.95400 41.77500
C  -15.54300 38.55900 42.39800
C  -14.11200 37.97600 42.29300
C  -16.03300 41.09100 42.63000
C  -16.62600 37.62100 41.67200
C  -17.33700 36.72400 42.68200
N  -11.60300 36.44800 41.75100
C  -12.69900 35.88500 42.32500
C  -12.41700 34.47300 42.46600
C  -11.18700 34.29800 41.82600
C  -10.70300 35.54800 41.40900
C  -13.41000 33.44900 42.98900
C  -10.22500 33.33100 41.43800
O  -10.25400 32.11400 41.50400
C  -9.01000 34.10800 40.88600
C  -7.85500 33.82900 41.80000
O  -7.09000 32.83100 41.70800
O  -7.53000 34.82000 42.77500
C  -6.55900 34.56200 43.85700
H  -7.76100 40.72800 39.35800
H  -13.85300 42.10100 41.04700
H  -14.67800 36.10100 43.11300
H  -6.64000 36.39600 40.30300
H  -7.01400 38.33900 38.23600
H  -5.09700 37.90400 39.69900
H  -6.03400 38.54400 40.94800
H  -5.73300 39.69500 39.64700
H  -7.29500 36.37000 37.50400
H  -8.23200 35.20800 38.36700
H  -6.49700 33.71300 38.63600
H  -5.52600 34.89200 39.49300
H  -8.92100 44.22700 39.48300
H  -8.99500 43.41600 37.92400
H  -8.05900 42.76400 39.13500
H  -13.50900 44.09900 41.49900
H  -14.00100 44.06500 39.81600
H  -13.50200 45.59300 40.47400
H  -15.72800 39.88100 40.74000
H  -15.68500 38.70400 43.46800
H  -16.57100 41.64200 41.85800
H  -15.39000 41.85000 43.07600
H  -16.72500 40.64900 43.34700
H  -16.09500 36.96600 40.98200
H  -17.27200 38.28900 41.10100
H  -18.34000 36.49400 42.32400
H  -17.54100 37.19400 43.64400
H  -16.88000 35.73500 42.69300
H  -13.78800 33.60400 43.99900
H  -13.09100 32.41000 42.90600
H  -14.24800 33.50500 42.29400
H  -8.72000 33.60200 39.96500
H  -6.85800 33.67800 44.42100
H  -6.57700 35.36900 44.58900
H  -5.58300 34.52400 43.37500

