158

Mg 6.78400 53.82400 41.16000
C  6.29400 50.33200 41.66600
C  9.89700 53.10100 39.78800
C  7.08900 56.99900 40.32700
C  3.70800 54.31500 42.73700
N  7.84300 51.98500 40.53300
C  7.49800 50.66500 41.02400
C  8.65400 49.75100 40.69300
C  9.88900 50.71000 40.53700
C  9.15000 52.04400 40.31200
C  10.90500 50.75200 41.71300
C  8.37200 48.91000 39.44600
C  7.34100 49.31300 38.40400
H  6.70800 48.23700 37.45500
N  8.20700 54.89400 40.05500
C  9.39000 54.40300 39.53700
C  10.14100 55.49200 39.03100
C  9.40000 56.70400 39.21600
C  8.18300 56.24200 39.89600
C  11.48600 55.29500 38.33000
C  9.88100 58.08000 38.77900
O  10.88800 58.12200 38.06000
C  9.22100 59.30600 39.27300
N  5.41900 55.41400 41.30200
C  5.87200 56.66700 40.98300
C  4.78100 57.68200 41.34500
C  3.84200 56.87000 42.30400
C  4.36300 55.42100 42.16200
C  5.34800 58.97600 41.89000
C  2.32100 56.96700 42.01600
C  1.32600 57.01200 43.14900
N  5.31200 52.59900 42.04500
C  4.09700 52.92900 42.68300
C  3.40500 51.71200 43.23100
C  4.31200 50.67900 42.89300
C  5.33300 51.29400 42.04800
C  2.20400 51.68400 44.03500
C  4.61600 49.21900 43.00300
O  3.97900 48.31900 43.56700
C  5.84800 48.93100 42.07800
C  5.68600 47.90700 41.00700
O  5.02900 48.11400 39.99300
O  6.30700 46.68900 41.36700
C  6.26700 45.63000 40.38600
H  10.90600 52.81900 39.47800
H  7.17900 58.08300 40.22600
H  2.72000 54.38400 43.19700
H  8.88400 49.08600 41.52500
H  10.38700 50.43200 39.60800
H  11.92500 50.54100 41.39500
H  10.56200 50.05700 42.47900
H  10.84500 51.77300 42.09200
H  8.05700 47.93500 39.81900
H  9.31500 48.86700 38.90100
H  7.96900 49.89000 37.72500
H  6.46600 49.78700 38.85000
H  11.57100 55.47700 37.25800
H  11.93000 54.31600 38.50600
H  12.16000 56.04500 38.74300
H  9.37000 59.43100 40.34600
H  8.18100 59.30300 38.94500
H  9.68000 60.16500 38.78400
H  4.03400 57.92800 40.59000
H  3.87500 57.17700 43.34900
H  6.40800 58.99400 42.14100
H  4.81300 59.12700 42.82800
H  5.16900 59.87200 41.29600
H  2.03000 56.04500 41.51400
H  2.11900 57.71000 41.24400
H  0.45800 57.60500 42.86200
H  1.84500 57.37800 44.03500
H  0.96200 56.03700 43.47500
H  1.87700 50.66500 44.24200
H  1.34800 52.26500 43.69100
H  2.40700 52.22700 44.95800
H  6.51300 48.38500 42.74700
H  6.36500 44.66700 40.88800
H  7.19900 45.79300 39.84400
H  5.40400 45.64900 39.72100
Mg -9.37000 39.98300 43.33900
C  -8.24000 36.91300 42.20000
C  -6.71600 41.52900 41.90800
C  -10.94900 42.90800 43.85400
C  -12.57600 38.32400 43.98900
N  -7.71300 39.27100 42.23200
C  -7.45900 37.97300 41.78600
C  -6.22600 37.95200 40.93200
C  -5.71100 39.45900 40.82700
C  -6.69400 40.14200 41.81700
C  -4.21600 39.73500 41.09600
C  -6.33300 37.29400 39.51700
C  -5.28300 36.12100 39.28200
H  -4.30700 36.40900 38.07900
N  -8.84700 41.97000 42.93000
C  -7.65500 42.38500 42.45600
C  -7.61300 43.89900 42.46700
C  -8.84800 44.32400 43.08800
C  -9.60600 43.04500 43.32200
C  -6.42500 44.73500 41.92700
C  -9.14200 45.69200 43.37000
O  -8.28200 46.53000 43.23100
C  -10.41300 46.11000 43.96700
N  -11.46900 40.52300 43.87400
C  -11.84300 41.81400 44.00500
C  -13.18200 41.97100 44.66600
C  -13.73300 40.52600 44.55400
C  -12.51700 39.73200 44.08200
C  -13.08800 42.39200 46.16100
C  -14.90000 40.30600 43.55100
C  -16.12000 39.71600 44.27400
N  -10.16900 38.02600 43.33100
C  -11.45800 37.52900 43.65800
C  -11.45800 36.06200 43.65000
C  -10.23100 35.75000 42.97500
C  -9.49900 36.99100 42.88800
C  -12.58600 35.16600 43.90100
C  -9.33600 34.73600 42.49600
O  -9.50200 33.52000 42.55800
C  -8.02100 35.38900 41.93000
C  -6.90300 34.88800 42.75300
O  -6.51200 35.23500 43.88300
O  -6.26200 33.98800 41.93300
C  -5.17900 33.13800 42.57400
H  -5.99100 42.03400 41.26600
H  -11.40300 43.88500 44.03700
H  -13.51600 37.88600 44.32900
H  -5.60200 37.42700 41.65600
H  -6.03800 39.80100 39.84500
H  -3.64700 38.83200 41.32100
H  -4.15500 40.29500 42.02900
H  -3.76800 40.19400 40.21400
H  -6.18400 37.99800 38.69900
H  -7.31400 36.85500 39.33200
H  -5.84100 35.22700 39.00400
H  -4.74100 35.88000 40.19700
H  -6.71300 45.28800 41.03400
H  -5.65000 44.02200 41.64500
H  -6.15500 45.39000 42.75600
H  -10.44600 47.19800 43.90900
H  -10.67400 45.76500 44.96700
H  -11.23500 45.77100 43.33700
H  -13.71300 42.74000 44.10500
H  -14.12500 40.19300 45.51500
H  -12.11100 42.82100 46.38600
H  -13.20200 41.56200 46.85800
H  -13.87900 43.08000 46.45600
H  -14.53800 39.66500 42.74700
H  -15.18500 41.19600 42.98900
H  -16.92300 40.22200 43.73700
H  -16.24400 39.94000 45.33400
H  -16.27400 38.65400 44.08500
H  -13.25300 34.91100 43.07700
H  -13.25100 35.61700 44.63700
H  -12.12500 34.26300 44.30000
H  -7.75100 35.17300 40.89700
H  -4.80000 32.25500 42.06000
H  -5.58800 32.78600 43.52100
H  -4.29500 33.72000 42.83700

