158

Mg 45.18200 4.11100 46.29400
C  43.43000 7.12200 46.28500
C  42.06100 2.50400 45.80200
C  46.69100 1.23600 45.48900
C  48.18000 5.90600 46.06900
N  42.99500 4.74800 45.95700
C  42.56000 6.06600 45.94500
C  41.03900 6.09400 45.81800
C  40.60600 4.60400 46.08900
C  41.92300 3.87600 45.97500
C  40.00000 4.35500 47.51300
C  40.50500 6.48100 44.48300
C  39.76800 7.81400 44.28900
H  40.29000 8.77000 43.22800
N  44.52000 2.15900 45.83700
C  43.19500 1.72100 45.66200
C  43.08000 0.24400 45.38100
C  44.44100 -0.15900 45.38100
C  45.33500 1.06700 45.56200
C  41.81600 -0.55200 45.07300
C  44.96200 -1.48600 45.04000
O  44.22100 -2.40500 44.68000
C  46.40600 -1.85500 44.91700
N  47.12600 3.69400 45.84500
C  47.51000 2.41100 45.65100
C  49.09400 2.29700 45.47200
C  49.55700 3.78900 45.57900
C  48.18300 4.53600 45.79800
C  49.84100 1.36800 46.51000
C  50.36700 4.41200 44.38200
C  51.61600 5.19300 44.75900
N  45.73000 6.12500 46.27100
C  46.98900 6.70700 46.22300
C  46.83600 8.14700 46.36900
C  45.44300 8.36900 46.43400
C  44.81400 7.10800 46.37500
C  47.87600 9.21800 46.41900
C  44.42100 9.40000 46.50400
O  44.47000 10.63100 46.59600
C  43.09500 8.59900 46.38500
C  42.35400 8.85700 47.63800
O  42.27400 8.07800 48.56200
O  41.62500 9.98800 47.45800
C  40.57000 10.31100 48.40700
H  41.11700 1.95600 45.75800
H  47.38400 0.43900 45.20900
H  49.19900 6.29600 46.01100
H  40.60600 6.73700 46.58400
H  39.83900 4.30700 45.37500
H  40.31200 5.17200 48.16300
H  40.30200 3.40600 47.95700
H  38.91300 4.27700 47.49000
H  39.89600 5.76900 43.92600
H  41.39400 6.73700 43.90800
H  39.81000 8.40400 45.20400
H  38.71200 7.57600 44.15900
H  40.95600 0.09500 45.25000
H  41.78200 -1.39200 45.76700
H  41.88300 -0.86800 44.03200
H  46.56500 -1.33600 43.97200
H  46.50800 -2.94000 44.94000
H  47.04700 -1.50300 45.72500
H  49.27800 1.96800 44.44900
H  50.10100 4.03100 46.49200
H  50.36600 0.61600 45.92200
H  49.10400 0.96600 47.20500
H  50.58400 2.00300 46.99300
H  49.65800 5.07300 43.88400
H  50.58500 3.67600 43.60900
H  51.87900 5.26600 45.81500
H  51.37400 6.11200 44.22500
H  52.52600 4.79300 44.31200
H  47.62400 10.21200 46.78800
H  48.38700 9.28100 45.45800
H  48.64000 8.86400 47.11100
H  42.52200 9.00400 45.55100
H  40.60200 9.92000 49.42400
H  39.73300 9.82800 47.90200
H  40.31500 11.35700 48.57100
Mg -4.91100 25.63500 25.82400
C  -3.59800 26.94600 28.82600
C  -6.64300 23.35000 27.70500
C  -5.66200 23.95100 22.98100
C  -2.75800 27.67500 24.06900
N  -5.00300 25.18400 27.99300
C  -4.43700 25.88900 29.04300
C  -5.06900 25.48400 30.38000
C  -5.86000 24.14900 29.95600
C  -5.80900 24.20500 28.41300
C  -5.38300 22.80100 30.45800
C  -5.91100 26.58800 31.01100
C  -5.66100 26.81100 32.50700
H  -5.18200 25.59200 33.40600
N  -6.17600 24.02300 25.37100
C  -6.83200 23.20600 26.28600
C  -7.82800 22.39600 25.61700
C  -7.59400 22.63300 24.20800
C  -6.39000 23.49100 24.07800
C  -8.76700 21.42800 26.35700
C  -8.30100 21.94600 23.01100
O  -8.03600 22.27600 21.85900
C  -9.32700 20.92600 23.23900
N  -4.46100 25.91000 23.74500
C  -4.84500 25.01400 22.73800
C  -4.13000 25.37900 21.44800
C  -3.36600 26.75600 21.71800
C  -3.55600 26.77900 23.27000
C  -3.21300 24.27000 20.94300
C  -4.10900 27.88700 21.00600
C  -3.19400 29.12200 20.63200
N  -3.47700 27.02800 26.26500
C  -2.66700 27.79200 25.43100
C  -1.75300 28.63800 26.30300
C  -2.14800 28.34700 27.61600
C  -3.13100 27.33000 27.55300
C  -0.73400 29.65000 25.95500
C  -1.86600 28.67700 28.94900
O  -1.08800 29.49800 29.42100
C  -2.86300 27.83700 29.82400
C  -2.15100 27.22700 30.90600
O  -1.75400 26.06100 30.85600
O  -2.07200 28.02700 31.95800
C  -1.36700 27.46600 33.09600
H  -7.29400 22.78700 28.37800
H  -5.90700 23.34900 22.10300
H  -2.08800 28.35000 23.53200
H  -4.24500 25.09300 30.97800
H  -6.90800 24.28300 30.22600
H  -4.50800 22.92300 31.09700
H  -4.99800 22.22000 29.62100
H  -6.12500 22.23800 31.02400
H  -6.95300 26.27500 31.08100
H  -5.87500 27.55100 30.50100
H  -6.61100 27.07600 32.97200
H  -4.94900 27.61400 32.69600
H  -8.56100 20.38400 26.11900
H  -9.76100 21.77200 26.07300
H  -8.70500 21.52900 27.44100
H  -8.92400 20.06800 23.77600
H  -9.63000 20.38800 22.34100
H  -10.19800 21.40200 23.68900
H  -4.98900 25.46600 20.78300
H  -2.31000 26.74500 21.44600
H  -2.17600 24.52000 20.72100
H  -3.62600 23.75600 20.07500
H  -3.06100 23.46600 21.66200
H  -4.84300 28.24300 21.72800
H  -4.59700 27.56600 20.08500
H  -3.52400 29.93100 21.28400
H  -3.46600 29.39200 19.61200
H  -2.14100 28.89000 20.79300
H  -0.52900 29.67500 24.88400
H  0.20200 29.54800 26.50400
H  -1.15300 30.59600 26.29800
H  -3.65000 28.52600 30.13100
H  -1.97600 27.86600 33.90600
H  -0.36100 27.87800 33.17800
H  -1.20800 26.39200 33.19500

