158

Mg 48.94700 45.02800 42.85900
C  45.84500 46.01000 41.50900
C  48.50600 42.02200 41.41900
C  52.25500 44.43600 43.36000
C  49.45500 48.17500 44.09300
N  47.37100 44.21000 41.57000
C  46.13200 44.67800 41.21300
C  45.29600 43.63400 40.45800
C  46.12100 42.34500 40.79800
C  47.43000 42.88000 41.30300
C  45.38700 41.37600 41.72500
C  45.08000 43.89700 38.97900
C  43.73500 43.64100 38.29100
H  43.69900 42.59100 37.21600
N  50.24600 43.32800 42.52600
C  49.82800 42.22900 41.87700
C  50.90600 41.30400 41.78100
C  51.98200 41.93800 42.53600
C  51.52800 43.30300 42.84200
C  50.87000 39.89000 41.11400
C  53.43700 41.37800 42.84100
O  53.68300 40.18100 42.48000
C  54.49500 42.22200 43.56900
N  50.70500 46.25600 43.42300
C  51.92500 45.77400 43.54500
C  52.92100 46.83100 43.96200
C  51.98700 48.05200 44.28200
C  50.65900 47.48000 43.92000
C  53.89700 46.45800 45.11300
C  52.33500 49.28600 43.41600
C  51.97700 50.63700 44.06300
N  47.89700 46.75900 42.82500
C  48.14100 47.91700 43.54700
C  46.97200 48.75200 43.50200
C  46.07400 48.08200 42.64000
C  46.67600 46.86400 42.28700
C  46.70700 50.08300 44.22800
C  44.76000 48.15200 42.10300
O  43.90900 49.08300 42.20400
C  44.53000 46.84300 41.21100
C  43.22900 46.17000 41.57400
O  42.27400 45.95400 40.85000
O  43.23300 45.72900 42.91000
C  41.93100 45.29300 43.35900
H  48.32200 40.99400 41.10200
H  53.34300 44.34200 43.34100
H  49.50500 49.09000 44.68700
H  44.36000 43.41900 40.97400
H  46.32400 41.69100 39.95000
H  45.38300 41.81600 42.72200
H  45.91500 40.44500 41.93000
H  44.34400 41.24000 41.43800
H  45.81200 43.21800 38.54100
H  45.47600 44.89400 38.78600
H  43.30200 44.51800 37.81000
H  43.09400 43.28600 39.09700
H  51.71300 39.25400 41.38600
H  50.88500 40.08000 40.04000
H  49.93000 39.39400 41.35300
H  54.83200 43.11600 43.04600
H  55.40500 41.62200 43.57900
H  54.25500 42.62700 44.55300
H  53.51300 47.03200 43.06900
H  51.94100 48.21400 45.35800
H  53.76300 47.14500 45.94900
H  54.95300 46.51800 44.85200
H  53.63100 45.45900 45.46100
H  51.63500 49.14900 42.59100
H  53.38600 49.25900 43.12800
H  51.39800 51.18000 43.31700
H  52.77000 51.34600 44.30200
H  51.42500 50.40800 44.97400
H  47.67400 50.57300 44.33900
H  46.22100 49.92400 45.19100
H  46.12700 50.71500 43.55600
H  44.44700 47.08600 40.15100
H  41.77100 44.26200 43.04300
H  41.07400 45.88200 43.03300
H  42.00600 45.24900 44.44500
Mg -11.87700 16.58600 41.36400
C  -8.70100 15.34600 40.90900
C  -10.89300 19.57000 40.16700
C  -15.25900 17.50400 41.14300
C  -12.96000 13.34300 42.13800
N  -9.93600 17.33100 40.48500
C  -8.78500 16.72600 40.55200
C  -7.59700 17.57900 40.01300
C  -8.25600 19.02900 40.05300
C  -9.83100 18.66400 40.26800
C  -7.72000 20.04300 41.11900
C  -7.07000 17.18000 38.64100
C  -5.61900 17.49800 38.42000
H  -5.10200 18.35800 37.27900
N  -12.94400 18.21400 40.73200
C  -12.34200 19.41800 40.32900
C  -13.36500 20.42300 40.10400
C  -14.63400 19.82900 40.26000
C  -14.34200 18.45400 40.72500
C  -13.02900 21.75500 39.63700
C  -16.02000 20.48300 40.04500
O  -16.02300 21.69200 39.77300
C  -17.29000 19.79200 40.24400
N  -13.82700 15.60100 41.66100
C  -15.02200 16.18500 41.60700
C  -16.14600 15.27800 42.03300
C  -15.43200 13.90800 42.19900
C  -13.94800 14.27500 42.01400
C  -17.01700 15.78200 43.20600
C  -15.86300 12.78300 41.24800
C  -16.56400 11.64600 41.97900
N  -11.01600 14.69700 41.67000
C  -11.59500 13.46700 41.92000
C  -10.49900 12.51700 41.96500
C  -9.35000 13.25600 41.58500
C  -9.75400 14.51500 41.34400
C  -10.66800 11.11300 42.26500
C  -7.97700 13.05000 41.35700
O  -7.24900 12.10600 41.52600
C  -7.43500 14.46700 40.99600
C  -6.45300 14.87700 42.07100
O  -6.70300 15.52300 43.10800
O  -5.18900 14.58800 41.67800
C  -4.14600 15.22700 42.47300
H  -10.60400 20.62000 40.09300
H  -16.33500 17.65800 41.24900
H  -13.24000 12.34200 42.47200
H  -6.82800 17.62200 40.78400
H  -8.15800 19.58500 39.12100
H  -6.99600 20.59500 40.52000
H  -7.23600 19.51000 41.93700
H  -8.44600 20.78200 41.45700
H  -7.67900 17.64900 37.86800
H  -7.25900 16.11200 38.53400
H  -5.09800 16.54000 38.39900
H  -5.24300 17.86300 39.37600
H  -13.72900 22.55400 39.88300
H  -12.92000 21.82600 38.55500
H  -12.14500 22.08700 40.18100
H  -18.07500 20.48300 39.93800
H  -17.53000 19.56300 41.28200
H  -17.39700 18.99100 39.51200
H  -16.69100 15.29600 41.08900
H  -15.48100 13.53100 43.22100
H  -17.09100 16.86200 43.33600
H  -16.74100 15.36200 44.17300
H  -18.06000 15.55800 42.98200
H  -14.94300 12.43900 40.77400
H  -16.63600 13.19200 40.59700
H  -16.44900 11.54800 43.05900
H  -16.27200 10.74600 41.43800
H  -17.64600 11.65000 41.84200
H  -9.70300 10.65800 42.03800
H  -11.47800 10.84100 41.58900
H  -11.06400 10.92100 43.26200
H  -6.99500 14.28800 40.01500
H  -3.19300 15.00200 41.99400
H  -4.05500 14.86500 43.49700
H  -4.34100 16.28600 42.64600

