158

Mg 16.97600 -1.71700 28.20100
C  16.31900 0.50100 30.82100
C  18.72200 -3.72000 30.24600
C  17.95900 -3.45500 25.40700
C  15.20300 0.51000 26.02300
N  17.54900 -1.44000 30.30600
C  17.15000 -0.54100 31.21700
C  17.71400 -0.89600 32.59700
C  18.74200 -2.01400 32.37000
C  18.33100 -2.45300 30.93800
C  20.24600 -1.57900 32.37400
C  16.50100 -1.44800 33.47300
C  16.22800 -0.75300 34.88200
H  17.41800 0.05400 35.51000
N  18.06000 -3.43900 27.87200
C  18.73100 -4.10400 28.89800
C  19.35000 -5.29500 28.27000
C  19.07500 -5.24100 26.83600
C  18.25900 -4.07700 26.60400
C  20.13000 -6.33700 29.08500
C  19.62200 -6.20500 25.70900
O  19.51500 -5.97100 24.51500
C  20.47900 -7.39000 26.00300
N  16.74800 -1.40300 26.07600
C  17.26700 -2.29200 25.17000
C  17.16200 -1.82100 23.71100
C  16.09000 -0.63900 23.90500
C  15.92100 -0.53100 25.47000
C  18.60900 -1.35200 23.10900
C  14.71300 -0.89000 23.15900
C  14.34000 0.06400 22.09800
N  15.99600 0.12400 28.34700
C  15.20100 0.83500 27.43100
C  14.61800 2.01800 28.07600
C  14.95200 1.84900 29.38300
C  15.85500 0.76000 29.50000
C  13.73300 3.12700 27.48000
C  14.78400 2.44000 30.67100
O  14.15000 3.45700 31.08800
C  15.67500 1.62000 31.71600
C  16.69900 2.48300 32.30600
O  17.83200 2.63700 31.82800
O  16.17100 3.23400 33.34200
C  16.97900 4.30800 33.92500
H  19.40500 -4.32300 30.84800
H  18.22300 -4.00800 24.50300
H  14.69600 1.19700 25.34200
H  18.25100 -0.04200 33.01200
H  18.60100 -2.82200 33.08800
H  20.30600 -0.49100 32.39200
H  20.84400 -1.99200 31.56100
H  20.57400 -1.85600 33.37500
H  16.58000 -2.53500 33.51100
H  15.64300 -1.17200 32.86000
H  15.83600 -1.45200 35.62100
H  15.33300 -0.18000 34.64200
H  20.35400 -6.00500 30.09900
H  21.07000 -6.54500 28.57400
H  19.68900 -7.31700 29.26700
H  20.09600 -8.04000 26.79000
H  21.39300 -6.93500 26.38500
H  20.70000 -8.06700 25.17700
H  16.73000 -2.55600 23.03100
H  16.47200 0.34300 23.62600
H  18.78300 -1.89800 22.18100
H  19.41200 -1.58200 23.80900
H  18.77800 -0.29700 22.89200
H  13.92400 -0.94500 23.90900
H  14.62600 -1.86900 22.68700
H  15.23100 0.28200 21.51000
H  13.87000 0.99200 22.42300
H  13.64100 -0.44600 21.43500
H  14.14400 4.12800 27.61800
H  12.77300 3.07200 27.99200
H  13.49500 2.86100 26.45000
H  14.94000 1.26700 32.43900
H  17.81900 4.66700 33.33000
H  17.29100 3.83400 34.85600
H  16.31600 5.16000 34.06900
Mg 26.29300 49.78300 26.16400
C  24.19300 51.00500 28.78400
C  28.33900 48.65300 28.58800
C  28.62600 49.35500 23.80300
C  24.28600 51.30800 23.91800
N  26.40300 50.08400 28.47400
C  25.35000 50.39300 29.30100
C  25.65500 49.97400 30.79600
C  27.02000 49.33600 30.66200
C  27.27600 49.30700 29.12700
C  28.13300 50.12300 31.41800
C  24.52300 49.12400 31.42600
C  23.64600 49.79800 32.49800
H  23.66100 49.05300 33.84600
N  28.22900 49.10400 26.22900
C  28.88100 48.60700 27.29800
C  30.14900 48.07900 26.91900
C  30.30900 48.33400 25.53900
C  29.04200 48.97000 25.15500
C  31.22400 47.47300 27.88300
C  31.39500 47.95000 24.58500
O  31.38800 48.07600 23.35600
C  32.61500 47.22400 25.11900
N  26.40000 50.33600 24.13500
C  27.40000 49.88400 23.40200
C  27.07300 50.13800 21.87400
C  25.58400 50.66100 21.94100
C  25.40900 50.84300 23.37300
C  28.12600 51.12300 21.21600
C  24.56000 49.71200 21.38200
C  24.01400 49.94300 19.97600
N  24.56000 50.80000 26.25800
C  23.91000 51.41000 25.28200
C  22.65800 51.93300 25.79200
C  22.73700 51.66800 27.18200
C  23.91000 51.10300 27.44500
C  21.49900 52.66100 25.08600
C  21.96300 51.92500 28.37000
O  20.80900 52.35300 28.52800
C  22.86200 51.45000 29.46800
C  23.08300 52.55100 30.45000
O  24.02100 53.34400 30.48700
O  22.18400 52.56800 31.43200
C  22.27500 53.67000 32.41800
H  28.92600 48.13500 29.34900
H  29.22500 49.03300 22.94800
H  23.55100 51.57100 23.15400
H  25.80300 50.84200 31.43900
H  26.94800 48.29100 30.96200
H  28.90800 50.58000 30.80200
H  28.56500 49.56400 32.24800
H  27.63400 50.96800 31.89300
H  24.96400 48.22000 31.84600
H  23.84900 48.69300 30.68600
H  22.59800 49.98700 32.26700
H  23.98100 50.82500 32.64700
H  30.97100 47.54800 28.94100
H  32.16800 48.01600 27.85300
H  31.43200 46.44000 27.60300
H  33.20400 47.72800 25.88600
H  33.10300 46.97600 24.17700
H  32.13400 46.30500 25.45600
H  27.13400 49.25700 21.23500
H  25.51800 51.64500 21.47700
H  27.60900 51.86300 20.60400
H  28.71500 50.63600 20.43800
H  28.80900 51.74100 21.80000
H  23.65800 49.61700 21.98600
H  25.10400 48.78000 21.22500
H  24.72200 50.32800 19.24200
H  23.11100 50.53800 20.11300
H  23.73300 48.93400 19.67400
H  21.85400 52.93000 24.09100
H  21.24000 53.61500 25.54600
H  20.69300 51.92900 25.04200
H  22.40600 50.63000 30.02400
H  22.52200 54.65000 32.01000
H  23.18200 53.48300 32.99400
H  21.46200 53.78600 33.13500

