158

Mg 49.32700 46.58700 43.42700
C  45.96900 47.22600 42.35600
C  49.14800 43.51200 42.24000
C  52.66400 46.42600 43.74900
C  49.41900 50.00300 44.42500
N  47.71600 45.51400 42.40100
C  46.38900 45.91600 42.05200
C  45.64900 44.73300 41.54300
C  46.65100 43.47400 41.58400
C  47.93300 44.19800 42.11600
C  46.32500 42.20000 42.27800
C  44.96000 45.00700 40.17700
C  45.79400 45.65000 39.00000
H  45.92400 44.89800 37.62700
N  50.79400 45.11700 43.05300
C  50.45500 43.86400 42.59200
C  51.63700 43.07600 42.68800
C  52.68100 43.86500 43.16800
C  52.08900 45.21900 43.33200
C  51.69000 41.61000 42.21100
C  54.10400 43.39200 43.41000
O  54.42800 42.27500 43.18800
C  55.14000 44.24600 44.07000
N  50.83200 48.03300 43.91200
C  52.13100 47.71900 44.07900
C  52.97400 48.95000 44.31900
C  51.90900 50.08500 44.54300
C  50.68200 49.34100 44.34500
C  53.87600 48.65500 45.51300
C  52.01700 51.22400 43.48600
C  51.74300 52.67200 44.00900
N  48.03500 48.26500 43.39300
C  48.15000 49.60000 43.87800
C  46.90300 50.34700 43.86800
C  46.07100 49.41800 43.19300
C  46.75600 48.21100 42.96000
C  46.72900 51.77900 44.26500
C  44.75100 49.32900 42.63000
O  43.83600 50.16400 42.48400
C  44.57500 47.84700 42.21000
C  43.54000 47.10600 43.08800
O  43.53900 46.95700 44.30000
O  42.44500 46.58200 42.38400
C  41.71300 45.43500 43.01000
H  49.06900 42.43800 42.06400
H  53.74900 46.34100 43.83800
H  49.28500 51.02900 44.77500
H  44.87100 44.62300 42.29800
H  46.94200 43.19600 40.57100
H  46.31700 41.42300 41.51400
H  45.37000 42.35700 42.77900
H  47.07800 41.88900 43.00300
H  44.05200 45.58400 40.35200
H  44.54700 44.12400 39.69000
H  46.81800 45.73300 39.36500
H  45.31700 46.59700 38.74900
H  52.25500 41.50800 41.28500
H  50.73200 41.26900 41.81800
H  52.01900 40.91500 42.98300
H  54.66700 44.67200 44.95500
H  55.52600 45.00600 43.39100
H  55.97400 43.58600 44.30700
H  53.64500 49.10400 43.47400
H  51.96900 50.48900 45.55400
H  54.87000 49.04600 45.29400
H  54.18000 47.63300 45.73900
H  53.51200 49.17100 46.40100
H  51.25300 51.04500 42.72900
H  52.96300 51.05900 42.97000
H  51.09200 53.14000 43.27100
H  52.62500 53.31000 43.95100
H  51.42400 52.74300 45.04900
H  45.68600 52.09200 44.21100
H  47.30000 52.33000 43.51700
H  46.83400 52.07400 45.30900
H  44.13200 47.77700 41.21700
H  42.22700 45.01600 43.87500
H  41.47300 44.71100 42.23200
H  40.72800 45.73200 43.37100
Mg 17.13700 50.67700 26.30600
C  18.75600 49.50800 29.14900
C  14.58000 51.93300 28.18800
C  15.56100 51.81900 23.40100
C  19.69700 49.31600 24.24200
N  16.77800 50.74500 28.38200
C  17.60800 50.36200 29.42000
C  17.01000 50.79500 30.83800
C  15.52600 51.07900 30.42800
C  15.61000 51.29600 28.86200
C  14.47700 50.01100 30.92700
C  17.85200 51.82700 31.55500
C  18.20200 51.56200 33.04500
H  17.21900 50.84900 33.98300
N  15.33200 51.67600 25.85000
C  14.45900 52.20100 26.79100
C  13.47800 53.07700 26.10500
C  13.83500 53.10900 24.75500
C  14.94900 52.11100 24.65900
C  12.38200 53.76500 26.89600
C  13.35400 54.01800 23.53400
O  13.71200 53.87900 22.33900
C  12.38700 55.24600 23.87600
N  17.55100 50.57000 24.17900
C  16.74900 51.07700 23.16400
C  17.19700 50.53200 21.78200
C  18.68100 50.26400 22.07900
C  18.70400 50.06500 23.56200
C  16.29900 49.33200 21.29600
C  19.72900 51.25700 21.55900
C  19.87600 52.57600 22.30200
N  18.88200 49.61000 26.53200
C  19.85000 49.10400 25.63000
C  20.96900 48.50800 26.41100
C  20.52300 48.52800 27.76900
C  19.31500 49.26700 27.81800
C  22.20900 47.75000 25.84900
C  20.91500 48.15500 29.11000
O  21.86200 47.50500 29.60900
C  19.80100 48.84700 30.04500
C  19.16600 47.88300 31.01900
O  18.27900 47.04300 30.75200
O  19.78700 48.00300 32.27200
C  19.39100 47.16400 33.31800
H  13.92500 52.42500 28.90900
H  15.01600 51.96600 22.46600
H  20.50900 48.86300 23.67000
H  17.12400 49.94200 31.50700
H  15.24000 52.08300 30.73900
H  15.05300 49.25100 31.45500
H  13.79400 49.69700 30.13800
H  13.82500 50.51200 31.64200
H  17.22200 52.71600 31.52200
H  18.70800 51.96300 30.89400
H  18.35100 52.58800 33.38200
H  19.21700 51.18600 33.17600
H  11.51100 53.91100 26.25600
H  12.72400 54.76900 27.14900
H  12.02300 53.20800 27.76100
H  11.30800 55.08800 23.87200
H  12.59900 56.03100 23.14900
H  12.61600 55.82600 24.77000
H  17.13800 51.33200 21.04400
H  18.92800 49.32600 21.58200
H  16.87200 48.45600 20.99500
H  15.61500 49.71700 20.53900
H  15.63400 49.01400 22.09900
H  19.54600 51.59200 20.53800
H  20.68800 50.73900 21.57300
H  19.18000 52.54900 23.14100
H  19.65200 53.39700 21.62100
H  20.88000 52.75200 22.68700
H  21.95900 47.48700 24.82100
H  22.45300 46.77800 26.27700
H  23.02800 48.45200 26.01000
H  20.41900 49.54000 30.61500
H  19.49900 47.70600 34.25800
H  19.98800 46.27100 33.13500
H  18.33000 46.95000 33.44600

