158

Mg 23.90100 -6.24700 45.64400
C  26.51300 -4.01500 44.52900
C  21.82300 -4.53000 43.63700
C  21.74200 -8.81100 46.01000
C  26.40300 -8.09800 47.35900
N  24.20600 -4.52000 44.29400
C  25.24200 -3.69800 44.06900
C  24.78300 -2.40500 43.30300
C  23.21200 -2.50300 43.30900
C  23.09900 -3.93300 43.76400
C  22.52800 -1.55200 44.28300
C  25.38500 -2.31800 41.89000
C  25.45600 -1.02600 41.11800
H  24.76400 -0.91200 39.75400
N  22.09400 -6.52900 44.93300
C  21.31900 -5.68900 44.15600
C  20.03300 -6.25500 43.90500
C  19.94400 -7.49800 44.52800
C  21.34300 -7.68500 45.18300
C  18.85500 -5.52800 43.21800
C  18.71800 -8.35500 44.62400
O  17.65800 -7.89100 44.24700
C  18.74900 -9.74800 45.05700
N  24.11900 -8.28400 46.41400
C  23.00300 -9.05500 46.60100
C  23.29400 -10.32600 47.42700
C  24.73700 -10.03800 48.05000
C  25.15600 -8.71800 47.22800
C  22.23800 -10.73300 48.56900
C  25.54500 -11.31000 47.66800
C  26.58000 -11.70500 48.83700
N  25.99000 -5.99100 46.14600
C  26.85600 -6.83300 46.78500
C  28.20100 -6.27900 46.82300
C  28.05600 -5.15700 45.93700
C  26.73800 -5.05800 45.53400
C  29.47800 -6.79200 47.42400
C  28.76400 -4.01700 45.38800
O  29.85900 -3.61300 45.71400
C  27.76700 -3.20600 44.46800
C  27.60300 -1.87800 45.00700
O  27.53200 -1.52000 46.23000
O  27.75200 -1.00200 44.00500
C  27.56900 0.43600 44.40700
H  21.09400 -3.97200 43.04500
H  21.12200 -9.63700 46.36700
H  27.25700 -8.58900 47.83000
H  25.14300 -1.54600 43.86900
H  22.78600 -2.33000 42.32100
H  21.56900 -1.20200 43.90200
H  23.16500 -0.68500 44.45500
H  22.28600 -2.07900 45.20600
H  24.96400 -3.04900 41.19900
H  26.42600 -2.63200 41.97100
H  26.47500 -0.69000 40.92400
H  25.04100 -0.24300 41.75300
H  18.60000 -6.11500 42.33600
H  19.22300 -4.57400 42.84100
H  18.01400 -5.41400 43.90200
H  17.92500 -10.30000 44.60400
H  18.62800 -9.93500 46.12400
H  19.65100 -10.19200 44.63700
H  23.34900 -11.10100 46.66200
H  24.74000 -9.81600 49.11700
H  22.82600 -10.71000 49.48800
H  21.86200 -11.75600 48.56800
H  21.39000 -10.05200 48.50000
H  26.16900 -11.07800 46.80500
H  24.90900 -12.19100 47.58500
H  26.51600 -12.78000 49.00600
H  26.56600 -11.11400 49.75200
H  27.57000 -11.43700 48.46800
H  29.94000 -7.49000 46.72500
H  29.28200 -7.24700 48.39400
H  30.25400 -6.02900 47.49600
H  28.21900 -3.18400 43.47600
H  26.61700 0.50800 44.93300
H  27.40300 0.92500 43.44700
H  28.48400 0.73300 44.92000
Mg 43.37300 41.30800 26.27800
C  42.59500 43.84200 28.60500
C  44.31200 39.36600 28.95300
C  44.19100 39.08000 23.97700
C  42.80100 43.60900 23.69200
N  43.45200 41.64000 28.58400
C  43.10700 42.68900 29.26300
C  43.24400 42.50500 30.77500
C  44.03400 41.12700 30.83400
C  43.88300 40.65800 29.35900
C  45.47000 41.14500 31.34100
C  41.82400 42.33300 31.45100
C  41.69300 41.99800 32.94200
H  41.29000 43.10500 33.89500
N  44.10300 39.49800 26.46300
C  44.35900 38.81700 27.66200
C  44.66000 37.45500 27.35100
C  44.72500 37.31600 25.91100
C  44.39100 38.68700 25.34900
C  45.03200 36.36200 28.43000
C  45.01900 36.00700 25.01200
O  44.94200 36.09000 23.79100
C  45.23500 34.79800 25.72900
N  43.54700 41.42100 24.16100
C  43.87100 40.28200 23.45400
C  43.80000 40.48400 21.84300
C  42.96200 41.79000 21.88300
C  43.08700 42.33600 23.32200
C  45.16600 40.67200 21.27700
C  41.65000 41.55700 21.20100
C  41.37100 42.27900 19.88400
N  42.81800 43.34000 26.11800
C  42.70600 44.16900 25.01400
C  42.12400 45.43900 25.43100
C  42.11400 45.35700 26.81000
C  42.57600 44.04800 27.18400
C  41.90900 46.60500 24.52800
C  41.74700 46.05400 28.04700
O  41.30800 47.24900 28.17300
C  42.03400 45.09200 29.27000
C  43.08400 45.74800 30.07300
O  44.27400 45.82700 29.80800
O  42.44800 46.36400 31.18800
C  43.36300 47.09200 32.03800
H  44.62000 38.66700 29.73300
H  44.38100 38.25200 23.29100
H  42.40000 44.32500 22.97100
H  43.82300 43.27200 31.28800
H  43.49700 40.36000 31.39100
H  46.14700 40.83700 30.54400
H  45.64200 40.55800 32.24300
H  45.62400 42.20400 31.54800
H  41.24100 41.60800 30.88300
H  41.37800 43.30200 31.23000
H  42.69400 41.90300 33.36400
H  41.03900 41.12800 33.00600
H  44.87200 36.65600 29.46700
H  46.08700 36.12200 28.30000
H  44.39300 35.48500 28.33200
H  44.36100 34.56800 26.33800
H  46.16200 35.00700 26.26100
H  45.42400 33.98900 25.02200
H  43.28800 39.64500 21.37200
H  43.53600 42.45500 21.23900
H  45.33400 41.66200 20.85400
H  45.31400 39.94600 20.47700
H  45.82600 40.53900 22.13400
H  40.88300 41.87000 21.91000
H  41.32400 40.54900 20.94400
H  40.69500 41.78200 19.18900
H  42.26700 42.28700 19.26200
H  40.90600 43.23200 20.13700
H  42.77300 46.91500 23.94000
H  41.50300 47.43300 25.10800
H  41.10300 46.26600 23.87700
H  41.16600 45.07600 29.92900
H  43.10800 48.13400 31.85000
H  44.44600 47.11100 31.91700
H  43.27400 46.88300 33.10400

