158

Mg 1.14000 7.78900 28.16800
C  1.66500 9.93100 30.91300
C  1.52000 5.19000 30.36900
C  1.30100 5.76200 25.54000
C  1.30300 10.54900 26.00100
N  1.54400 7.58400 30.41700
C  1.54400 8.59500 31.28400
C  1.24200 8.06800 32.69600
C  1.54500 6.51600 32.56500
C  1.53800 6.43500 31.02900
C  2.89700 6.07400 33.09100
C  -0.21800 8.25000 33.17400
C  -0.57100 8.84100 34.62500
H  0.47400 8.59000 35.74000
N  1.12200 5.80000 27.95200
C  1.29100 4.85500 29.02000
C  1.18900 3.51500 28.47300
C  1.05100 3.65000 27.04400
C  1.19300 5.07300 26.80800
C  1.27300 2.39500 29.34900
C  0.84500 2.57200 25.97200
O  0.83200 2.85200 24.76300
C  0.58800 1.17100 26.42800
N  1.24000 8.12400 26.05900
C  1.30400 7.13000 25.19200
C  1.28000 7.62900 23.69000
C  0.99000 9.18400 23.87300
C  1.14100 9.26900 25.39000
C  2.59400 7.36200 22.95100
C  -0.30600 9.83000 23.20200
C  -1.41700 10.46600 24.00300
N  1.44700 9.82300 28.30300
C  1.44300 10.83700 27.41000
C  1.69300 12.12300 28.10300
C  1.74300 11.75700 29.41200
C  1.62900 10.41000 29.54200
C  1.79800 13.35800 27.43100
C  1.95000 12.29500 30.70200
O  2.20400 13.45200 31.03600
C  1.79200 11.16300 31.71400
C  2.81600 11.23100 32.74100
O  3.96700 10.85100 32.52300
O  2.39800 11.85800 33.84600
C  3.51800 12.14800 34.86100
H  1.79600 4.36900 31.03500
H  1.23800 5.12100 24.65900
H  1.33700 11.35500 25.26500
H  2.04300 8.48800 33.30400
H  0.77700 5.87900 33.00400
H  3.60600 5.87800 32.28700
H  2.58300 5.15000 33.57700
H  3.40700 6.74900 33.77800
H  -0.78100 7.32200 33.27200
H  -0.73800 8.83600 32.41600
H  -1.53500 8.45100 34.95300
H  -0.78400 9.88900 34.41600
H  1.80700 1.63800 28.77500
H  0.28600 2.02800 29.63100
H  1.92100 2.50400 30.21800
H  1.40800 0.63300 26.90300
H  0.26700 0.46200 25.66500
H  -0.29300 1.23900 27.06700
H  0.50200 7.09700 23.14200
H  1.86400 9.75900 23.56800
H  3.28200 6.90900 23.66400
H  3.00800 8.27100 22.51400
H  2.43600 6.60300 22.18500
H  -0.67800 9.02400 22.57000
H  -0.01700 10.65800 22.55500
H  -1.09900 10.31500 25.03400
H  -2.33400 9.88000 23.94700
H  -1.59800 11.51300 23.76000
H  0.78700 13.76100 27.36400
H  2.24800 13.18900 26.45400
H  2.39700 14.00100 28.07600
H  0.86800 11.41500 32.23400
H  4.43100 12.56000 34.43300
H  3.79400 11.23200 35.38300
H  3.26800 12.82000 35.68100
Mg 6.80600 54.44900 40.23600
C  6.28300 51.04400 39.85400
C  10.11900 53.94600 39.14000
C  6.99100 57.73300 39.40500
C  3.26600 54.84000 40.39600
N  8.03700 52.76200 39.54500
C  7.58500 51.42600 39.58000
C  8.75200 50.48200 39.12600
C  9.98900 51.37600 39.29900
C  9.35100 52.83000 39.22200
C  10.66200 51.32200 40.69500
C  8.66400 49.92500 37.68700
C  8.23100 50.85600 36.57900
H  6.89900 50.60800 35.84500
N  8.36000 55.66400 39.38400
C  9.68600 55.31600 39.19200
C  10.49000 56.48400 38.92100
C  9.61700 57.59500 39.06700
C  8.25400 57.04200 39.24200
C  11.93300 56.43400 38.48900
C  10.06600 59.12900 39.04100
O  11.20600 59.46400 38.79200
C  9.05400 60.21000 39.29300
N  5.31600 56.07300 39.91300
C  5.71300 57.28900 39.65900
C  4.54700 58.25800 39.98700
C  3.38100 57.34500 40.32500
C  4.04200 56.01600 40.15300
C  4.89400 59.38800 41.04700
C  2.12200 57.54500 39.37400
C  0.74200 57.37900 40.04400
N  5.04000 53.16200 40.35200
C  3.71600 53.47600 40.40100
C  2.95900 52.26000 40.50400
C  3.96500 51.25600 40.33000
C  5.18600 51.90200 40.12700
C  1.43400 52.21800 40.69800
C  4.17000 49.81700 40.29400
O  3.39700 48.90400 40.37000
C  5.64300 49.63800 39.86700
C  5.59700 48.92800 38.62700
O  5.01300 49.30300 37.63400
O  6.32200 47.73500 38.69200
C  6.14300 46.83100 37.47900
H  11.17800 53.70800 39.01700
H  6.96200 58.82500 39.39300
H  2.22000 55.07500 40.60500
H  8.67000 49.68100 39.86000
H  10.84100 51.22400 38.63600
H  10.89200 52.31200 41.08800
H  11.64700 50.86600 40.59800
H  10.06400 50.68000 41.34000
H  7.99800 49.06300 37.65500
H  9.59700 49.51400 37.30400
H  8.90500 50.81800 35.72300
H  8.17600 51.85900 37.00100
H  12.13200 56.99100 37.57400
H  12.21500 55.43700 38.14900
H  12.56700 56.83300 39.28000
H  9.52300 61.19300 39.27600
H  8.50800 59.88300 40.17800
H  8.35900 60.35600 38.46600
H  4.28600 58.84000 39.10300
H  3.03100 57.48400 41.34700
H  5.88800 59.37900 41.49300
H  4.25600 59.28200 41.92400
H  4.69300 60.40100 40.69700
H  2.17500 56.81200 38.56900
H  1.98500 58.55600 38.99000
H  0.38100 56.38100 39.79400
H  0.10800 58.17400 39.65300
H  0.62000 57.44700 41.12500
H  1.04600 52.32800 39.68500
H  1.14900 53.13200 41.21900
H  1.06800 51.30700 41.17000
H  6.12700 48.99200 40.60000
H  5.16600 46.35600 37.39300
H  6.85800 46.06100 37.76800
H  6.35700 47.28500 36.51200

