158

Mg 46.64200 16.91700 28.45500
C  44.47300 16.34200 31.34800
C  48.75600 18.57700 30.53700
C  48.28800 17.80600 25.74600
C  44.13900 15.48000 26.45100
N  46.65900 17.31100 30.64200
C  45.70600 17.01700 31.61800
C  46.22400 17.39400 32.95400
C  47.39000 18.34200 32.65400
C  47.65700 18.08300 31.18000
C  47.13000 19.81600 33.02600
C  46.61500 16.20700 33.73200
C  47.12200 16.40900 35.19000
H  46.79500 17.73400 35.84700
N  48.35200 17.96900 28.16600
C  49.13000 18.54900 29.16600
C  50.27700 19.14500 28.54400
C  50.24800 18.76400 27.16300
C  48.88500 18.20800 26.95900
C  51.25200 19.94200 29.29500
C  51.28900 18.84300 26.00200
O  51.11800 18.39600 24.87200
C  52.70500 19.35300 26.33300
N  46.27800 16.56000 26.45400
C  47.13000 17.06600 25.46200
C  46.57500 16.84300 24.05900
C  45.40500 15.87800 24.26300
C  45.21900 15.96200 25.79400
C  46.38400 18.14600 23.23700
C  45.59700 14.38800 23.83400
C  46.45600 13.47600 24.66900
N  44.68600 16.11000 28.77400
C  43.81000 15.45600 27.85500
C  42.67600 14.88700 28.55000
C  42.85200 15.29900 29.87500
C  44.13000 15.94900 29.96200
C  41.49600 14.17900 27.92700
C  42.27100 15.37100 31.17500
O  41.13200 15.00100 31.58100
C  43.28600 15.91200 32.17200
C  42.70000 16.98800 32.93000
O  42.12700 17.96500 32.46900
O  43.15200 16.90700 34.25000
C  42.67300 18.04200 35.02100
H  49.56200 19.03600 31.11300
H  48.92800 18.10200 24.91100
H  43.44800 15.04500 25.72600
H  45.39700 17.94400 33.40300
H  48.31900 18.12400 33.18200
H  46.51000 20.17500 32.20400
H  48.07600 20.35700 33.03300
H  46.73300 19.86200 34.04000
H  47.50200 15.81800 33.23300
H  45.89900 15.38600 33.67600
H  48.19800 16.24200 35.15400
H  46.59400 15.69900 35.82700
H  51.49000 20.75600 28.61000
H  52.21100 19.43000 29.38100
H  50.93800 20.24100 30.29500
H  53.42800 19.40000 25.51900
H  53.12300 18.90500 27.23500
H  52.36200 20.36800 26.53000
H  47.38400 16.26100 23.61800
H  44.49900 16.29900 23.82600
H  45.31700 18.23700 23.03600
H  46.96500 18.00800 22.32500
H  46.82000 18.97800 23.79000
H  46.10800 14.39400 22.87100
H  44.59900 13.95900 23.74300
H  45.93600 13.35900 25.62000
H  47.36100 13.97700 25.01000
H  46.74700 12.48700 24.31600
H  41.84300 13.25300 27.46800
H  41.21600 14.99000 27.25400
H  40.66800 13.95200 28.59900
H  43.63200 15.18600 32.90800
H  41.59600 18.11500 34.86600
H  43.14300 18.96200 34.67400
H  42.78000 17.78500 36.07500
Mg 16.66800 52.21800 26.38000
C  18.56700 50.97000 29.05800
C  14.17100 53.04600 28.47800
C  15.27400 53.90100 23.81800
C  19.17700 51.03600 24.19900
N  16.32800 51.81500 28.44200
C  17.31000 51.51400 29.41800
C  16.81900 51.71600 30.85600
C  15.37300 52.06700 30.56100
C  15.24600 52.30800 29.08500
C  14.40100 50.98900 31.04800
C  17.52200 52.90800 31.61100
C  17.36600 52.95600 33.17000
H  16.26300 52.07900 33.74700
N  14.84300 53.15100 26.18000
C  14.05900 53.52300 27.14300
C  13.10200 54.50200 26.65300
C  13.36900 54.68400 25.29700
C  14.54300 53.89400 25.06800
C  12.03200 54.94300 27.51500
C  12.58200 55.50900 24.28300
O  12.83700 55.63100 23.05400
C  11.48100 56.41100 24.84500
N  17.03200 52.36500 24.18700
C  16.44200 53.21700 23.42600
C  17.12000 53.26600 22.07400
C  18.42600 52.37100 22.22500
C  18.24600 51.88600 23.61500
C  16.11500 52.76700 21.02100
C  19.73500 53.15500 21.96600
C  21.01100 52.42400 21.46000
N  18.41700 51.21800 26.53400
C  19.34800 50.74700 25.57600
C  20.45100 50.25200 26.20800
C  20.22900 50.30300 27.60500
C  18.96200 50.87600 27.73100
C  21.68200 49.68000 25.49800
C  20.77100 50.10500 28.87800
O  21.89800 49.68200 29.21300
C  19.70400 50.56300 29.90300
C  19.37800 49.40700 30.73900
O  18.86700 48.31900 30.46200
O  19.65400 49.72000 32.07000
C  19.26900 48.72100 33.04500
H  13.49600 53.34900 29.28000
H  14.96500 54.60400 23.04100
H  20.01200 50.71500 23.57200
H  16.96300 50.74700 31.33300
H  15.06400 53.04100 30.93800
H  13.54100 50.83500 30.39700
H  14.04500 51.38500 31.99900
H  14.90900 50.03700 31.20500
H  17.23600 53.86400 31.17300
H  18.58400 52.72400 31.45400
H  17.23200 54.00300 33.44000
H  18.28500 52.56900 33.61100
H  11.03700 54.61400 27.21600
H  12.00500 56.02600 27.63800
H  12.20500 54.62100 28.54200
H  10.64100 55.80400 25.18300
H  10.98300 56.99900 24.07400
H  11.91800 57.05500 25.60800
H  17.43700 54.29400 21.89700
H  18.43800 51.57400 21.48200
H  16.60500 52.43000 20.10700
H  15.44100 53.55400 20.68300
H  15.57600 51.90500 21.41400
H  20.07200 53.67600 22.86200
H  19.57600 53.91300 21.19900
H  21.66000 52.24600 22.31700
H  21.59100 52.94000 20.69500
H  20.67500 51.43500 21.14700
H  21.28700 49.10800 24.65800
H  22.12300 48.88800 26.10300
H  22.46400 50.38300 25.21000
H  19.97500 51.43900 30.49300
H  18.20100 48.50000 33.03500
H  19.48400 48.93800 34.09100
H  19.87200 47.87900 32.70600

