158

Mg 16.64700 51.31400 27.09700
C  18.74300 50.15300 29.74200
C  14.39100 52.16300 29.31900
C  14.88500 52.36000 24.49200
C  19.15200 50.19100 24.88900
N  16.63200 51.25000 29.22600
C  17.56000 50.77800 30.16900
C  17.20900 51.05900 31.61600
C  15.70600 51.43800 31.48400
C  15.49900 51.61900 29.91400
C  14.64900 50.56000 32.16900
C  18.04500 52.23900 32.17800
C  18.37200 52.26600 33.67000
H  17.19600 51.79100 34.56300
N  14.89400 52.22500 26.89700
C  14.08100 52.50400 27.98000
C  12.98700 53.27900 27.55400
C  13.00400 53.33300 26.08500
C  14.27500 52.61300 25.75300
C  12.01600 53.96400 28.44700
C  12.02100 53.83400 25.01600
O  12.21100 53.77200 23.81000
C  10.80700 54.67500 25.52700
N  17.00800 51.21100 24.91900
C  16.09400 51.81400 24.04100
C  16.59700 51.86700 22.62900
C  17.98100 51.15800 22.75600
C  18.13400 50.92200 24.27400
C  15.66800 51.19300 21.59900
C  19.22800 51.87100 22.15900
C  19.68800 51.27100 20.80900
N  18.45600 50.29500 27.22200
C  19.31200 49.81600 26.26800
C  20.33800 49.05700 26.82900
C  20.20500 49.22800 28.22000
C  19.07600 49.99600 28.38100
C  21.45400 48.48600 26.02500
C  20.81100 48.89900 29.53500
O  21.81200 48.25100 29.74000
C  19.85200 49.53000 30.59300
C  19.32000 48.50700 31.53300
O  18.44000 47.70400 31.31700
O  20.07200 48.53300 32.71100
C  19.76700 47.43000 33.65600
H  13.62900 52.39200 30.06600
H  14.30700 52.83500 23.69600
H  19.96400 49.93700 24.20400
H  17.39500 50.18200 32.23600
H  15.66000 52.43900 31.91200
H  14.06800 50.01100 31.42800
H  13.96700 51.19200 32.73800
H  15.22000 49.89700 32.81900
H  17.53900 53.19900 32.07400
H  18.94700 52.32300 31.57200
H  18.59700 53.31100 33.88000
H  19.27200 51.67600 33.84100
H  11.10000 53.38000 28.53900
H  11.81200 55.00300 28.18900
H  12.39000 53.97200 29.47100
H  11.17700 55.60600 25.95500
H  10.27300 54.13800 26.31100
H  10.15800 54.88200 24.67700
H  16.76200 52.88700 22.28100
H  17.87400 50.16300 22.32300
H  15.00300 51.94300 21.17200
H  15.12800 50.48000 22.22200
H  16.15700 50.53000 20.88500
H  20.05900 51.74100 22.85200
H  19.23900 52.95700 22.06600
H  20.17600 52.08900 20.27900
H  18.87200 50.88100 20.20000
H  20.45900 50.52900 21.01500
H  21.08100 48.10500 25.07400
H  21.92800 47.70100 26.61400
H  22.09400 49.35800 25.88700
H  20.33200 50.21700 31.29000
H  20.13500 46.50500 33.21400
H  18.68600 47.36300 33.78100
H  20.32000 47.78400 34.52600
Mg -5.79400 24.93500 26.11000
C  -4.52000 26.66900 28.91200
C  -7.40300 22.89200 28.21000
C  -7.02000 23.37500 23.39300
C  -3.79300 26.92200 24.00100
N  -6.01900 24.85800 28.36300
C  -5.43100 25.67000 29.30500
C  -5.79600 25.20000 30.70800
C  -6.42300 23.81300 30.41900
C  -6.60200 23.80100 28.87800
C  -5.64100 22.59200 31.07800
C  -6.79400 26.20900 31.35000
C  -6.85600 26.36100 32.90200
H  -6.19700 25.29600 33.79600
N  -7.07100 23.47100 25.84400
C  -7.69700 22.73200 26.88200
C  -8.64700 21.81500 26.28500
C  -8.57900 21.96500 24.88600
C  -7.48000 22.92500 24.67100
C  -9.49600 20.88500 27.11500
C  -9.31400 21.27400 23.80500
O  -9.02500 21.42600 22.64500
C  -10.46000 20.35400 24.14700
N  -5.59400 25.25600 24.02500
C  -6.09500 24.42600 23.13600
C  -5.90400 24.87600 21.63100
C  -4.93900 26.11600 21.92400
C  -4.82200 26.18400 23.41400
C  -5.26400 23.74500 20.69700
C  -5.38600 27.45100 21.31400
C  -4.60800 27.91400 20.01700
N  -4.40300 26.45000 26.35400
C  -3.60900 27.14100 25.41000
C  -2.60500 27.92800 26.19600
C  -2.97300 27.81300 27.48900
C  -4.02600 26.91700 27.55300
C  -1.60000 28.88000 25.58000
C  -2.70400 28.37800 28.87100
O  -1.87400 29.21900 29.28400
C  -3.64000 27.55300 29.81900
C  -2.82100 26.67900 30.69300
O  -2.38200 25.59500 30.36300
O  -2.70200 27.24600 31.91900
C  -1.99000 26.32600 32.87200
H  -7.92200 22.23800 28.91400
H  -7.26000 22.80700 22.49200
H  -3.14200 27.59000 23.43300
H  -4.96900 25.22800 31.41700
H  -7.44700 23.79700 30.79100
H  -6.32700 22.13100 31.78900
H  -4.76700 22.91400 31.64500
H  -5.53400 21.86300 30.27500
H  -7.79300 26.03000 30.95200
H  -6.48800 27.18200 30.96300
H  -7.90000 26.49200 33.18300
H  -6.34700 27.29300 33.14900
H  -9.35400 19.93700 26.59600
H  -10.56000 21.12300 27.12200
H  -9.18000 20.70100 28.14200
H  -11.03000 19.96100 23.30400
H  -11.12500 20.77400 24.90100
H  -9.98900 19.40700 24.41100
H  -6.93500 25.19300 21.47400
H  -3.92400 25.84800 21.62800
H  -4.30800 24.08300 20.29800
H  -6.04200 23.48100 19.98100
H  -5.11600 22.84200 21.28900
H  -5.24300 28.20100 22.09200
H  -6.46000 27.52200 21.13900
H  -3.87300 27.12000 19.88600
H  -4.04400 28.80500 20.29500
H  -5.29300 28.05000 19.18000
H  -0.68600 28.80200 26.16900
H  -1.96500 29.89200 25.75500
H  -1.42600 28.71200 24.51800
H  -4.20500 28.26300 30.42200
H  -1.13800 25.77400 32.47600
H  -2.76800 25.70400 33.31300
H  -1.52600 27.02300 33.57000

