158

Mg 47.11300 17.40900 28.02100
C  45.34200 16.93200 30.91700
C  49.38600 19.21600 29.85000
C  48.68700 18.17300 25.22200
C  44.69000 15.66000 26.28300
N  47.20800 18.06400 30.13900
C  46.49900 17.68300 31.18000
C  47.03800 18.21600 32.50200
C  48.17500 19.16800 32.00300
C  48.30500 18.75700 30.55400
C  47.83500 20.65300 32.26200
C  47.46800 17.19800 33.62800
C  46.57000 17.16700 34.90000
H  46.16400 18.52800 35.51200
N  48.85800 18.44400 27.60800
C  49.63900 19.11200 28.47800
C  50.87600 19.54500 27.82900
C  50.73100 19.11600 26.46900
C  49.37200 18.66400 26.36200
C  51.98400 20.21500 28.61100
C  51.67900 19.20300 25.30100
O  51.44800 18.90100 24.15100
C  52.89100 19.93800 25.53400
N  46.76000 16.84400 26.10700
C  47.50000 17.48300 25.06100
C  47.00700 17.08400 23.70300
C  45.99700 15.97400 24.09400
C  45.81600 16.08600 25.62100
C  46.41900 18.21500 22.67500
C  46.25500 14.53600 23.52500
C  45.25500 14.00200 22.49300
N  45.39200 16.32500 28.44800
C  44.39300 15.77000 27.66000
C  43.27000 15.38100 28.47600
C  43.66300 15.73500 29.77200
C  44.86700 16.37500 29.64500
C  41.99900 14.79400 28.02700
C  43.18600 15.70300 31.10600
O  42.12600 15.29300 31.52600
C  44.31500 16.46100 31.96800
C  43.65500 17.58500 32.70800
O  43.47400 18.71100 32.30800
O  43.01500 17.04200 33.84400
C  42.07200 17.94400 34.49000
H  49.99900 19.89700 30.44400
H  49.06900 18.60900 24.29700
H  43.93300 15.17000 25.66700
H  46.18600 18.79400 32.85800
H  49.07600 18.91600 32.56200
H  46.93300 20.84200 32.84300
H  47.66000 21.17100 31.31900
H  48.62300 21.15100 32.82700
H  48.52100 17.32500 33.88000
H  47.54200 16.18300 33.23800
H  47.04600 16.49200 35.61100
H  45.70900 16.59700 34.55200
H  52.31000 21.03200 27.96700
H  52.83200 19.56700 28.83700
H  51.68000 20.76600 29.50000
H  52.63500 20.88100 26.01600
H  53.14600 20.26900 24.52700
H  53.73000 19.38000 25.94900
H  47.80900 16.54600 23.19800
H  45.02500 16.25800 23.69100
H  46.99600 18.31500 21.75500
H  46.34700 19.21400 23.10400
H  45.44700 17.89200 22.30300
H  46.37400 13.84300 24.35800
H  47.21500 14.44900 23.01500
H  44.43000 14.71400 22.47600
H  44.77200 13.12200 22.91700
H  45.72700 13.76300 21.54000
H  42.14000 13.93300 27.37300
H  41.43900 15.55400 27.48100
H  41.29800 14.53300 28.82000
H  44.72600 15.75400 32.68900
H  42.51800 18.77400 35.03700
H  41.44000 17.31200 35.11400
H  41.37800 18.33500 33.74600
Mg -1.63700 33.70200 26.51700
C  -3.85200 32.21600 28.74700
C  -0.51400 35.69500 29.05700
C  0.05600 35.50100 24.23100
C  -3.40700 32.08200 23.75700
N  -2.37000 34.08300 28.54000
C  -3.07100 33.14400 29.34300
C  -2.87300 33.42300 30.85100
C  -2.16500 34.81600 30.84600
C  -1.59900 34.85400 29.42500
C  -3.08600 36.11600 30.96700
C  -2.06100 32.24000 31.48600
C  -1.41800 32.40300 32.92800
H  -1.83600 31.55300 34.16000
N  -0.28500 35.26000 26.60800
C  0.00300 35.96300 27.73600
C  1.06000 36.88800 27.44100
C  1.19700 36.83600 26.04400
C  0.23600 35.91300 25.53700
C  1.79700 37.68700 28.43900
C  2.19300 37.60900 25.20000
O  2.15200 37.66500 23.96600
C  3.36400 38.34300 25.86300
N  -1.67000 33.85700 24.33500
C  -0.80300 34.55700 23.66200
C  -0.84300 34.32000 22.15700
C  -1.65600 32.97500 22.10000
C  -2.38000 32.96900 23.46300
C  -1.29700 35.50600 21.26600
C  -0.71000 31.74700 21.66100
C  -0.06400 30.90700 22.78200
N  -3.42100 32.50600 26.27600
C  -3.91500 31.85100 25.15400
C  -4.93500 30.95300 25.63600
C  -4.96800 31.03900 27.02000
C  -3.97800 31.96900 27.35800
C  -5.84100 30.08500 24.68000
C  -5.63600 30.55900 28.20200
O  -6.60500 29.89200 28.28400
C  -4.86500 31.21600 29.38400
C  -5.81800 31.95500 30.31700
O  -6.46700 32.93200 30.00600
O  -5.93800 31.37400 31.56100
C  -6.88600 31.93000 32.55200
H  -0.16400 36.19200 29.96400
H  0.68100 36.02500 23.50400
H  -3.77700 31.36100 23.02400
H  -3.79200 33.52300 31.42900
H  -1.30900 34.94400 31.50800
H  -2.97000 36.75500 30.09200
H  -2.68500 36.64600 31.83100
H  -4.15500 35.90400 30.99600
H  -1.21900 31.90400 30.88100
H  -2.81500 31.45300 31.50700
H  -1.66200 33.41300 33.25700
H  -0.33100 32.37000 32.99600
H  2.69300 37.21600 28.84400
H  1.18400 37.94500 29.30200
H  2.07000 38.65600 28.02200
H  3.00800 39.34700 26.09600
H  4.17500 38.57100 25.17100
H  3.85900 37.81800 26.67900
H  0.21600 34.07500 22.08200
H  -2.38400 32.96700 21.29000
H  -1.67100 35.12100 20.31800
H  -0.42700 36.15700 21.17700
H  -2.23400 35.90400 21.65500
H  0.16500 32.07100 21.09800
H  -1.28100 31.13200 20.96600
H  1.01300 30.79400 22.66300
H  -0.49800 29.91300 22.67500
H  -0.27600 31.24300 23.79700
H  -6.85100 29.99600 25.08100
H  -5.46800 29.06100 24.69600
H  -5.89300 30.47600 23.66400
H  -4.43100 30.44900 30.02600
H  -6.26300 32.55400 33.19300
H  -7.20000 31.06500 33.13600
H  -7.66600 32.53300 32.08600

