158

Mg -2.73800 17.68800 26.99700
C  -3.23200 15.50700 29.58700
C  -3.35500 20.25200 29.20700
C  -2.25700 19.85100 24.51700
C  -2.39700 15.00600 24.78800
N  -3.08400 17.86800 29.15900
C  -3.25700 16.78600 30.01000
C  -3.63900 17.30300 31.44500
C  -4.05100 18.77000 31.23800
C  -3.48700 18.98800 29.79000
C  -5.57600 19.06800 31.39600
C  -2.67300 16.92700 32.52800
C  -2.35700 17.79000 33.69500
H  -1.89600 17.19700 34.94000
N  -2.69300 19.77600 26.94500
C  -2.97600 20.70000 27.91700
C  -2.57600 22.05000 27.43000
C  -2.19200 21.91000 26.07400
C  -2.37600 20.46100 25.76900
C  -2.58100 23.26700 28.36000
C  -1.64300 22.95000 25.15300
O  -1.39600 22.77000 23.96000
C  -1.48200 24.29200 25.65100
N  -2.61200 17.46700 24.86800
C  -2.23900 18.53000 24.13400
C  -1.97300 18.17000 22.66400
C  -1.89000 16.62100 22.83600
C  -2.37800 16.32800 24.22600
C  -3.11900 18.64100 21.66000
C  -0.44800 16.06800 22.64000
C  0.54200 16.27400 23.80000
N  -2.98700 15.68700 27.03100
C  -2.79400 14.70900 26.09500
C  -3.01600 13.42800 26.69300
C  -3.18700 13.70600 28.00500
C  -3.11200 15.06700 28.19800
C  -3.11100 12.08700 26.03100
C  -3.46100 13.03400 29.25500
O  -3.66500 11.87600 29.50900
C  -3.46800 14.18000 30.35900
C  -2.35300 13.85800 31.31500
O  -1.23900 14.30200 31.15300
O  -2.88400 13.16100 32.39200
C  -2.00900 13.09700 33.55100
H  -3.51000 21.09000 29.89000
H  -2.02900 20.55200 23.71100
H  -2.35700 14.11400 24.16000
H  -4.45100 16.63200 31.72400
H  -3.45700 19.41900 31.88100
H  -5.79000 19.39400 32.41400
H  -6.03500 18.09100 31.24700
H  -5.96600 19.70600 30.60400
H  -1.66500 16.80900 32.12900
H  -3.10800 16.07200 33.04400
H  -3.25800 18.38800 33.83300
H  -1.59200 18.53100 33.46700
H  -3.21300 24.09800 28.04600
H  -1.57900 23.68700 28.26400
H  -2.91900 23.00100 29.36100
H  -0.68800 24.18400 26.39000
H  -2.42900 24.64400 26.06000
H  -1.03000 24.92800 24.89000
H  -0.99100 18.62200 22.52100
H  -2.45700 16.16000 22.02800
H  -2.80900 19.49200 21.05400
H  -3.97100 19.05500 22.20000
H  -3.54000 17.83000 21.06600
H  0.01300 16.72100 21.89900
H  -0.44400 15.05500 22.23800
H  0.07800 16.29200 24.78600
H  0.87100 17.29200 23.59300
H  1.30300 15.51100 23.63400
H  -2.40700 12.04400 25.19900
H  -4.06800 11.91700 25.53900
H  -3.06300 11.24500 26.72100
H  -4.35000 14.16200 30.99900
H  -1.03200 12.68500 33.29700
H  -2.49000 12.38500 34.22200
H  -1.73100 14.08500 33.91800
Mg 56.18300 24.74700 44.62400
C  53.88900 26.93600 43.23500
C  54.69400 22.15600 43.01000
C  59.09500 22.91900 45.07300
C  57.98400 27.72700 45.68300
N  54.58800 24.57600 43.07100
C  53.80900 25.64600 42.67800
C  52.70100 25.17200 41.72000
C  52.83100 23.58700 41.89600
C  54.09400 23.38900 42.69000
C  51.56000 22.76000 42.35100
C  53.09100 25.62200 40.19700
C  51.93500 26.06500 39.19100
H  51.72500 25.21800 37.94500
N  56.68400 22.76600 44.31500
C  55.86600 21.77100 43.76400
C  56.55100 20.55000 43.83300
C  57.79600 20.69100 44.46600
C  57.93600 22.20700 44.62500
C  55.88700 19.28800 43.35100
C  58.79900 19.58900 44.91700
O  58.64600 18.43800 44.60100
C  59.80800 19.86700 45.91000
N  58.16400 25.21400 45.41700
C  59.22000 24.25600 45.45700
C  60.41200 24.90900 46.15300
C  60.09600 26.45700 46.06400
C  58.65700 26.45000 45.78100
C  60.77700 24.41000 47.57800
C  60.88500 27.32700 44.98900
C  61.41100 28.69400 45.42800
N  55.93700 26.85700 44.72100
C  56.69100 27.90500 45.16600
C  55.95500 29.14000 45.10600
C  54.81500 28.78900 44.37500
C  54.90700 27.42500 44.11500
C  56.28500 30.50900 45.70700
C  53.51100 29.22100 43.91600
O  52.94000 30.28500 43.97700
C  52.83000 28.02400 43.09600
C  52.77800 28.69600 41.76800
O  53.74800 29.07600 41.17400
O  51.48700 28.85700 41.46000
C  51.11600 29.36500 40.14000
H  54.26100 21.29700 42.49200
H  60.03300 22.42300 45.33100
H  58.48600 28.61800 46.06600
H  51.69200 25.50800 41.95900
H  52.87000 23.14800 40.89900
H  51.58400 21.78400 41.86800
H  50.60600 23.28100 42.27200
H  51.71500 22.50300 43.39800
H  53.56800 24.82100 39.63300
H  53.90300 26.34800 40.15600
H  52.23700 27.04900 38.83300
H  51.00600 26.21100 39.74200
H  56.33000 18.77800 42.49500
H  54.87200 19.46400 42.99500
H  55.79600 18.58400 44.17800
H  60.72700 20.13600 45.38900
H  60.00600 18.99900 46.54000
H  59.45100 20.63100 46.60100
H  61.30300 24.85000 45.52800
H  60.28800 27.05100 46.95700
H  60.46200 25.08000 48.37800
H  61.84200 24.19300 47.50000
H  60.29100 23.44000 47.68600
H  60.25300 27.45700 44.11000
H  61.81100 26.85400 44.66000
H  62.49800 28.75400 45.37500
H  61.28100 28.86700 46.49700
H  60.99900 29.50900 44.83200
H  56.78400 31.12100 44.95600
H  56.95300 30.46400 46.56600
H  55.49300 31.19700 46.00500
H  51.90000 27.65400 43.52700
H  50.51000 30.23600 40.39000
H  50.53700 28.62400 39.58900
H  51.89600 29.71600 39.46400

