158

Mg 25.89400 0.93300 29.21600
C  27.85500 0.93600 32.09700
C  23.11900 1.69900 31.13500
C  24.05100 0.47600 26.42000
C  28.66500 -0.24400 27.40600
N  25.60400 1.20100 31.32500
C  26.52900 1.28700 32.35400
C  25.92600 1.79400 33.74500
C  24.38900 1.78300 33.37000
C  24.30600 1.48100 31.84800
C  23.67400 0.73800 34.15400
C  26.56700 3.18700 34.26000
C  27.14300 3.04400 35.68500
H  26.31400 3.83100 36.73900
N  23.90000 1.12800 28.86200
C  22.93300 1.49500 29.81700
C  21.65700 1.58800 29.01100
C  21.87200 1.16900 27.69300
C  23.37100 0.87700 27.59100
C  20.30000 2.02000 29.57800
C  20.88900 1.02500 26.52900
O  21.25300 0.73300 25.39300
C  19.47000 1.32600 26.67700
N  26.34300 0.25800 27.14000
C  25.42100 0.28900 26.14600
C  26.06800 -0.03200 24.79800
C  27.59400 -0.06800 25.10700
C  27.58500 -0.03600 26.61700
C  25.45800 -1.21600 23.96800
C  28.47400 0.98600 24.44000
C  28.62100 0.77000 22.95700
N  27.82900 0.37100 29.61600
C  28.85600 0.00300 28.78500
C  30.11400 -0.21000 29.55400
C  29.72000 0.30700 30.81400
C  28.37300 0.60500 30.83200
C  31.44400 -0.73600 29.15400
C  30.26600 0.37800 32.18600
O  31.40600 0.14600 32.55100
C  29.01600 0.86600 33.08300
C  28.84900 -0.25300 34.13400
O  28.32900 -1.30500 33.84900
O  29.51800 0.01200 35.27900
C  29.36500 -1.02300 36.33600
H  22.29800 1.97900 31.79800
H  23.51900 0.41200 25.46800
H  29.55900 -0.56500 26.86600
H  26.09900 1.00500 34.47700
H  23.92700 2.75100 33.56000
H  22.68500 0.61900 33.71300
H  23.50000 0.90200 35.21700
H  24.14700 -0.24400 34.14500
H  25.86100 4.01400 34.19500
H  27.32800 3.42200 33.51600
H  28.14500 3.46900 35.75100
H  27.22800 2.00700 36.00900
H  20.08000 3.05900 29.33200
H  20.36700 1.77500 30.63800
H  19.58600 1.24000 29.31300
H  18.87400 0.57500 27.19600
H  19.02000 1.34900 25.68400
H  19.46800 2.34200 27.07100
H  25.78000 0.83000 24.19600
H  27.97700 -1.06600 24.89400
H  24.48700 -1.47300 24.39100
H  26.12100 -2.07000 23.82800
H  25.21000 -0.88400 22.96000
H  29.37900 0.85700 25.03500
H  28.17500 2.02100 24.60200
H  28.28100 1.60400 22.34400
H  28.13800 -0.15200 22.63300
H  29.70600 0.72500 22.86200
H  32.21300 -0.35000 29.82300
H  31.69400 -0.50300 28.11900
H  31.41200 -1.82500 29.12300
H  29.34700 1.81700 33.50100
H  28.35900 -1.43100 36.24800
H  29.47400 -0.51800 37.29600
H  30.18800 -1.72800 36.21400
Mg 0.64900 43.63700 26.60200
C  3.08000 43.88100 29.17500
C  -1.65100 42.68800 28.86600
C  -1.48700 43.36500 24.01900
C  3.28300 43.83900 24.35400
N  0.69400 43.44300 28.83800
C  1.77000 43.55700 29.67600
C  1.28100 43.50700 31.16700
C  -0.09300 42.75200 30.98400
C  -0.40800 42.95500 29.48800
C  0.11200 41.24100 31.25300
C  1.21700 44.89700 31.73900
C  1.27000 44.86400 33.33300
H  0.99500 43.61600 34.20200
N  -1.30700 43.26200 26.47300
C  -2.13600 42.91600 27.50300
C  -3.51900 42.81800 27.00900
C  -3.49400 43.18900 25.63000
C  -2.07700 43.30800 25.31400
C  -4.70700 42.67600 27.91100
C  -4.68600 43.43200 24.65600
O  -4.56200 43.74500 23.44700
C  -6.16000 43.16400 25.12800
N  0.89400 43.82800 24.42600
C  -0.13500 43.49900 23.64100
C  0.27200 43.57600 22.12800
C  1.76600 43.89900 22.23200
C  2.02900 43.89600 23.72300
C  -0.09400 42.34600 21.23700
C  2.31200 45.22400 21.55700
C  2.05300 46.54000 22.24400
N  2.75100 43.80100 26.71800
C  3.69900 43.79900 25.70200
C  4.96900 43.95400 26.23100
C  4.82700 44.05400 27.64700
C  3.42600 43.98500 27.86300
C  6.16500 44.06300 25.50000
C  5.50800 43.99600 28.90000
O  6.69000 43.94700 29.18100
C  4.38500 44.02700 29.94700
C  4.59500 42.83000 30.77300
O  4.47600 41.66800 30.37700
O  4.98900 43.23900 31.99300
C  5.20700 42.21800 33.02100
H  -2.38800 42.32000 29.58200
H  -2.22600 43.29400 23.21800
H  4.07400 43.96600 23.61100
H  2.06400 42.95100 31.68100
H  -0.95100 43.22000 31.46600
H  0.92000 41.07600 31.96600
H  0.21500 40.78200 30.27000
H  -0.72600 40.76100 31.75900
H  0.29400 45.39200 31.43800
H  2.11000 45.44700 31.43900
H  0.64700 45.71200 33.61300
H  2.23900 45.21300 33.69000
H  -5.31500 41.88400 27.47400
H  -5.32800 43.54500 28.12800
H  -4.45100 42.28200 28.89400
H  -6.33200 42.24800 25.69400
H  -6.79500 43.22500 24.24500
H  -6.60400 43.94700 25.74300
H  -0.24900 44.48600 21.82900
H  2.33500 43.09600 21.76400
H  0.72900 41.81400 20.76000
H  -0.64400 42.69100 20.36100
H  -0.65700 41.55100 21.72600
H  1.75800 45.22900 20.61800
H  3.38400 45.07900 21.42300
H  1.59600 46.62600 23.23000
H  1.41400 47.19000 21.64700
H  3.04700 46.98100 22.31900
H  6.12100 45.03300 25.00500
H  6.33800 43.21200 24.84000
H  6.98500 44.25900 26.19100
H  4.50200 44.98300 30.45700
H  5.81500 42.50700 33.87900
H  5.72300 41.38700 32.54000
H  4.26100 41.79200 33.35400

