158

Mg 49.03300 34.93400 27.33600
C  46.78200 33.47300 29.66900
C  49.57300 37.28700 29.37000
C  50.18600 36.58400 24.62600
C  48.21200 32.24600 25.14500
N  48.26900 35.27100 29.26600
C  47.43100 34.60500 30.08800
C  47.54600 35.12800 31.52300
C  48.09000 36.52600 31.39700
C  48.78500 36.34600 29.97800
C  47.08700 37.62700 31.37400
C  48.50000 34.24100 32.36600
C  48.19000 34.22400 33.87700
H  49.18500 34.89900 34.83200
N  49.80400 36.75200 27.06400
C  50.01300 37.59000 28.03000
C  50.60200 38.80400 27.51100
C  50.76800 38.65300 26.10400
C  50.22600 37.27900 25.86000
C  51.02400 39.91400 28.42600
C  51.34800 39.58700 25.03300
O  51.35900 39.35400 23.84500
C  51.91600 40.90600 25.46700
N  49.14700 34.47400 25.13800
C  49.70500 35.34700 24.27800
C  49.57900 34.68200 22.88600
C  49.37500 33.18800 23.15900
C  48.86400 33.26500 24.58200
C  48.44200 35.44900 22.08300
C  50.66800 32.29000 23.11900
C  50.62400 31.04600 22.22000
N  47.84500 33.10100 27.36800
C  47.68100 32.13400 26.41400
C  46.73800 31.16100 26.91800
C  46.36800 31.69000 28.23300
C  47.04100 32.87500 28.37000
C  46.40700 29.88700 26.16700
C  45.45900 31.43900 29.36500
O  44.82000 30.41800 29.61600
C  45.70100 32.63400 30.40600
C  46.00300 32.06800 31.73200
O  46.89200 31.28100 32.05900
O  45.09600 32.62500 32.57600
C  45.15400 32.26500 33.91400
H  49.78300 38.12600 30.03800
H  50.59200 37.11500 23.76300
H  47.98600 31.48400 24.39600
H  46.49800 35.09500 31.82300
H  48.73200 36.86000 32.21300
H  47.12300 38.20100 32.30000
H  46.04900 37.30200 31.30300
H  47.22500 38.22600 30.47400
H  49.48600 34.70600 32.35200
H  48.54800 33.27100 31.87200
H  48.30700 33.17700 34.15500
H  47.15500 34.51100 34.06400
H  50.33800 40.75800 28.50300
H  51.97400 40.31900 28.07500
H  51.27700 39.46700 29.38700
H  51.23000 41.61900 25.92500
H  52.25200 41.44300 24.58000
H  52.69100 40.74600 26.21700
H  50.52400 34.68800 22.34100
H  48.57600 32.88700 22.48100
H  47.55700 34.81400 22.03600
H  48.77900 35.53900 21.05100
H  48.30800 36.42800 22.54400
H  50.82700 31.86800 24.11200
H  51.59900 32.84800 23.01800
H  51.58500 30.79400 21.77100
H  49.82500 31.13900 21.48500
H  50.36800 30.21400 22.87500
H  46.26300 30.18900 25.12900
H  45.35500 29.65800 26.33800
H  47.18500 29.16400 26.41100
H  44.80900 33.25800 30.46700
H  45.06400 33.22800 34.41500
H  46.16100 31.96200 34.19800
H  44.48700 31.48700 34.28600
Mg 1.26800 42.71800 26.20600
C  2.69500 42.65800 29.33200
C  -1.59700 41.48700 27.63100
C  -0.00300 42.48700 23.14500
C  4.54800 43.33900 24.84800
N  0.60600 42.20500 28.24300
C  1.28900 42.54400 29.40000
C  0.45000 42.39300 30.64800
C  -0.91700 41.92700 30.07700
C  -0.64100 41.78600 28.54200
C  -1.62500 40.59100 30.63800
C  0.50300 43.69400 31.50900
C  0.75800 43.55200 33.07800
H  0.36200 42.22200 33.67000
N  -0.62100 42.06900 25.46600
C  -1.64200 41.55200 26.19000
C  -2.66600 41.14100 25.33100
C  -2.14600 41.20100 23.98800
C  -0.91500 41.98600 24.14800
C  -3.94800 40.51000 25.89200
C  -2.69500 40.68600 22.68400
O  -2.12600 40.92000 21.67100
C  -3.97000 39.88400 22.54300
N  2.20200 43.06200 24.31700
C  1.34900 42.90800 23.24700
C  2.16500 43.15300 21.97300
C  3.48900 43.72700 22.50800
C  3.50500 43.30100 23.98000
C  2.26800 41.88000 21.07500
C  3.65900 45.21300 22.28000
C  2.39800 46.08200 22.50000
N  3.18300 42.97000 26.88600
C  4.43200 43.27200 26.27200
C  5.43300 43.33300 27.27300
C  4.80400 43.04400 28.45500
C  3.43600 42.88700 28.19400
C  6.89900 43.46100 27.06600
C  5.04100 43.07300 29.84800
O  6.07300 43.18900 30.46200
C  3.65900 42.79900 30.54800
C  3.94700 41.53300 31.28400
O  4.18100 40.45500 30.74600
O  4.09000 41.83400 32.54700
C  4.44900 40.73400 33.44800
H  -2.52200 41.13700 28.09500
H  -0.28900 42.20000 22.13100
H  5.57800 43.54300 24.54700
H  0.90800 41.55200 31.16700
H  -1.67700 42.70200 30.17300
H  -1.63000 39.75200 29.94300
H  -2.62300 40.80900 31.02000
H  -0.96900 40.22400 31.42700
H  -0.39700 44.26700 31.28600
H  1.31200 44.30200 31.10300
H  0.13800 44.30000 33.57200
H  1.81700 43.66200 33.31000
H  -3.99500 39.44600 25.66000
H  -4.78200 41.11600 25.53900
H  -4.06300 40.73500 26.95200
H  -4.21000 39.38300 23.48100
H  -3.89100 39.22000 21.68100
H  -4.87300 40.48500 22.43500
H  1.64300 43.86400 21.33200
H  4.33200 43.20200 22.05900
H  1.77900 40.97300 21.43000
H  3.32000 41.64700 20.91000
H  1.77800 42.17300 20.14600
H  3.97300 45.28300 21.23900
H  4.53200 45.60200 22.80400
H  1.50800 45.55400 22.84300
H  2.02800 46.56500 21.59500
H  2.68000 46.78300 23.28500
H  7.19800 43.84700 26.09100
H  7.34700 42.51400 27.36800
H  7.20200 44.18200 27.82500
H  3.43700 43.67400 31.15800
H  4.12600 41.01300 34.45200
H  5.53400 40.69600 33.53700
H  4.14200 39.72200 33.18700

