158

Mg 0.06800 8.14200 26.77400
C  0.97900 10.23300 29.41000
C  -0.52300 5.69400 29.00600
C  -0.38900 6.15500 24.21600
C  0.65500 10.87700 24.61400
N  0.37000 7.93400 28.98700
C  0.61600 8.96900 29.86100
C  0.30600 8.59800 31.38100
C  0.16000 6.99600 31.17300
C  -0.16800 6.90400 29.64200
C  1.41200 6.25200 31.61700
C  -0.96900 9.28200 32.06900
C  -0.98700 9.56100 33.54700
H  0.17300 9.06000 34.37500
N  -0.22500 6.17300 26.58400
C  -0.48400 5.33800 27.59800
C  -0.91900 3.98600 27.07600
C  -0.94400 4.12700 25.65700
C  -0.53200 5.51100 25.43800
C  -1.40300 2.83400 27.90100
C  -1.26000 3.06700 24.62100
O  -1.17400 3.37000 23.41400
C  -1.55700 1.59800 25.04200
N  0.25400 8.43400 24.69000
C  -0.00100 7.41500 23.81500
C  -0.05200 7.92300 22.34600
C  -0.08100 9.47000 22.59700
C  0.40800 9.59500 24.04700
C  1.10300 7.44100 21.41900
C  -1.45900 10.11700 22.34400
C  -1.44500 11.20700 21.27900
N  0.86000 10.13500 26.88900
C  0.98600 11.12100 25.94000
C  1.48500 12.35500 26.52200
C  1.53900 12.08100 27.86100
C  1.09000 10.71300 28.08400
C  1.65500 13.67700 25.87100
C  1.77500 12.61400 29.19400
O  2.03100 13.69600 29.63600
C  1.37200 11.44900 30.21400
C  2.49600 11.16500 31.15000
O  3.49000 10.46400 30.86400
O  2.45300 12.03500 32.19700
C  3.65200 12.08500 33.06500
H  -0.75500 4.90500 29.72400
H  -0.68600 5.56200 23.34800
H  0.54900 11.72800 23.93700
H  1.20600 8.94700 31.88800
H  -0.58200 6.55700 31.83900
H  2.04500 6.83600 32.28500
H  1.97200 6.02000 30.71100
H  1.15500 5.36600 32.19600
H  -1.83600 8.64700 31.88900
H  -1.19200 10.11400 31.40100
H  -1.92700 9.19800 33.96300
H  -0.88100 10.62500 33.75900
H  -0.80100 2.01700 27.50300
H  -2.45400 2.62700 27.70000
H  -1.16800 3.02500 28.94800
H  -1.92700 1.00000 24.20900
H  -2.32800 1.64600 25.81200
H  -0.71500 1.04000 25.45300
H  -1.04300 7.51500 22.14800
H  0.66400 9.95500 21.96600
H  0.67400 6.63900 20.81800
H  1.85100 7.12800 22.14800
H  1.45300 8.15900 20.67800
H  -1.85300 10.64100 23.21500
H  -2.14800 9.34900 21.99200
H  -1.98000 10.78100 20.43100
H  -0.42600 11.42000 20.95300
H  -1.93100 12.12400 21.61200
H  0.83100 14.33300 26.15000
H  1.80800 13.64300 24.79200
H  2.59000 14.02200 26.31200
H  0.59800 11.78700 30.90300
H  4.40500 12.32200 32.31300
H  3.94900 11.12000 33.47600
H  3.65000 12.79800 33.89000
Mg -10.33000 16.82500 40.98700
C  -6.77900 16.64100 41.09300
C  -9.95300 20.36100 40.58800
C  -13.50800 17.11000 40.11200
C  -10.33200 13.23300 40.79900
N  -8.61300 18.27500 40.98000
C  -7.29300 17.91700 40.88700
C  -6.41300 19.15200 40.55900
C  -7.39300 20.32300 40.96300
C  -8.74700 19.59200 40.77800
C  -7.10100 20.94700 42.33900
C  -6.02100 19.11100 39.02400
C  -4.63900 18.69300 38.57200
H  -4.40700 17.47000 37.74700
N  -11.61800 18.56200 40.43900
C  -11.25500 19.89200 40.40700
C  -12.42100 20.65100 40.07400
C  -13.53100 19.78600 39.95300
C  -12.92600 18.42700 40.17300
C  -12.36400 22.12300 39.93500
C  -14.98100 20.13000 39.59200
O  -15.36100 21.31400 39.57900
C  -15.97200 19.06500 39.21400
N  -11.75700 15.38200 40.48700
C  -13.02600 15.77600 40.28700
C  -13.99300 14.53700 40.27700
C  -12.91900 13.32200 40.26200
C  -11.58400 13.94600 40.53000
C  -15.03500 14.53000 41.36500
C  -12.79900 12.70500 38.80800
C  -13.90200 11.74000 38.41900
N  -8.93300 15.26300 41.16200
C  -9.06000 13.90100 41.12000
C  -7.74700 13.25100 41.24300
C  -6.87200 14.30300 41.21600
C  -7.58800 15.50800 41.17200
C  -7.43400 11.77400 41.28300
C  -5.46900 14.61400 41.11600
O  -4.51400 13.88400 40.98300
C  -5.34000 16.15400 41.17500
C  -4.82000 16.54100 42.53000
O  -5.33900 16.33200 43.62400
O  -3.54400 17.06600 42.29600
C  -2.62500 17.29100 43.41600
H  -9.87800 21.42600 40.35800
H  -14.57000 17.19000 39.87100
H  -10.43600 12.15300 40.92900
H  -5.46300 19.13500 41.09400
H  -7.29600 21.14000 40.24800
H  -7.73200 20.39800 43.03700
H  -7.36400 21.99600 42.47200
H  -6.03600 20.80900 42.52700
H  -6.18000 20.11300 38.62500
H  -6.69000 18.41200 38.52200
H  -3.95700 18.65400 39.42100
H  -4.24400 19.49500 37.94900
H  -13.31900 22.64700 39.93700
H  -11.96300 22.40300 38.96100
H  -11.76000 22.60300 40.70500
H  -15.41000 18.35600 38.60700
H  -16.93300 19.39100 38.81700
H  -16.22900 18.66300 40.19400
H  -14.46500 14.63100 39.29900
H  -13.28700 12.54800 40.93500
H  -15.06100 15.42400 41.98700
H  -14.89200 13.72900 42.09000
H  -16.07400 14.31100 41.11800
H  -11.86600 12.19000 38.57600
H  -12.95700 13.45300 38.03100
H  -13.41700 10.92500 37.88200
H  -14.65200 12.17700 37.75900
H  -14.35700 11.33500 39.32200
H  -6.65600 11.64200 42.03500
H  -6.97200 11.58400 40.31400
H  -8.45500 11.41800 41.41700
H  -4.72000 16.59200 40.39300
H  -1.97100 16.45300 43.65700
H  -3.10700 17.75300 44.27800
H  -2.07100 18.17900 43.11300

