158

Mg -10.37300 17.43700 40.58200
C  -6.97300 17.03200 40.82900
C  -9.86700 20.87600 39.88300
C  -13.57500 17.64600 39.50300
C  -10.52900 13.88100 40.28400
N  -8.55900 18.80800 40.39700
C  -7.30600 18.41800 40.63400
C  -6.36300 19.61200 40.48100
C  -7.37500 20.87400 40.58800
C  -8.64800 20.17800 40.27000
C  -7.40000 21.61800 41.99900
C  -5.82500 19.52200 38.93000
C  -4.32300 19.39600 38.75800
H  -3.88500 18.59600 37.58300
N  -11.54500 19.07700 40.07000
C  -11.20000 20.38800 39.75400
C  -12.27400 21.02300 39.20900
C  -13.43600 20.18400 39.39800
C  -12.87900 18.85700 39.63400
C  -12.30700 22.48400 38.74800
C  -14.88000 20.71200 39.40100
O  -15.17900 21.89200 39.07100
C  -16.03700 19.82100 39.75000
N  -11.72400 16.03300 39.89300
C  -12.98700 16.33800 39.64000
C  -13.83600 15.03700 39.28700
C  -12.89600 13.85400 39.50200
C  -11.62200 14.61700 39.90400
C  -15.09300 15.00100 40.20500
C  -12.59500 13.04400 38.21600
C  -13.83400 12.53400 37.48700
N  -9.10700 15.68200 40.70800
C  -9.32300 14.34000 40.55800
C  -8.03800 13.61900 40.86500
C  -7.02900 14.69500 40.94900
C  -7.75600 15.89300 40.91600
C  -7.73100 12.13800 40.86000
C  -5.61100 14.91700 41.11400
O  -4.70200 14.13800 41.28800
C  -5.55600 16.51900 41.03500
C  -4.94400 16.99900 42.27600
O  -4.10600 17.89400 42.30500
O  -5.39600 16.31800 43.37300
C  -4.77100 16.72600 44.67700
H  -9.77000 21.95200 39.72400
H  -14.62100 17.66600 39.18900
H  -10.77400 12.81700 40.30100
H  -5.57600 19.62600 41.23500
H  -7.23700 21.60200 39.78900
H  -6.50300 21.23400 42.48400
H  -8.30200 21.22100 42.46400
H  -7.33800 22.70400 41.93100
H  -6.03100 20.44800 38.39400
H  -6.34400 18.70300 38.43200
H  -3.78200 19.20500 39.68500
H  -3.97300 20.40800 38.55800
H  -12.97100 22.63600 37.89700
H  -11.33000 22.76100 38.35200
H  -12.54600 23.20100 39.53300
H  -16.89800 20.40200 40.07900
H  -15.72700 19.05800 40.46500
H  -16.35300 19.39500 38.79800
H  -14.09100 15.15600 38.23400
H  -13.25300 13.14300 40.24600
H  -15.15700 15.95400 40.72900
H  -15.02700 14.23900 40.98200
H  -15.99300 14.87300 39.60300
H  -12.03800 12.19000 38.60000
H  -11.90000 13.56500 37.55700
H  -14.71700 12.96200 37.96200
H  -13.80300 11.44600 37.42600
H  -13.82400 12.90300 36.46200
H  -6.81300 11.98800 41.42900
H  -7.54200 11.89700 39.81400
H  -8.62500 11.58800 41.15300
H  -4.86900 16.82700 40.24700
H  -5.37200 17.52800 45.10600
H  -3.76800 17.12000 44.51000
H  -4.72600 15.88600 45.37000
Mg -4.99200 25.89300 25.67100
C  -3.82400 27.41200 28.66400
C  -6.76700 23.70000 27.62100
C  -5.75200 24.31100 22.88400
C  -2.60700 27.93800 23.90700
N  -5.23500 25.66400 27.90200
C  -4.74300 26.39400 28.97300
C  -5.29400 25.88800 30.31000
C  -6.07800 24.59600 29.90200
C  -5.96100 24.56500 28.36000
C  -5.64000 23.31700 30.59400
C  -6.22700 26.96600 31.05900
C  -5.86300 27.34500 32.57400
H  -5.35300 26.13300 33.41100
N  -6.08100 24.27800 25.31400
C  -6.81900 23.53600 26.24100
C  -7.63400 22.63000 25.49800
C  -7.45700 22.76200 24.09500
C  -6.40800 23.86600 24.00700
C  -8.58200 21.61900 26.17900
C  -8.16700 22.11100 22.92800
O  -7.79000 22.22400 21.74800
C  -9.52600 21.40000 23.14100
N  -4.20900 26.12200 23.68100
C  -4.72700 25.32600 22.70100
C  -4.01700 25.65700 21.33200
C  -3.27900 27.02000 21.62400
C  -3.37900 27.04800 23.14300
C  -3.13800 24.50300 20.84000
C  -3.94700 28.19500 20.90400
C  -2.97400 28.82500 19.89000
N  -3.54300 27.43300 26.16300
C  -2.69200 28.13000 25.36400
C  -1.89100 29.03300 26.14800
C  -2.35000 28.81800 27.42600
C  -3.35700 27.80200 27.40300
C  -0.83900 30.13400 25.70400
C  -2.15800 29.24300 28.75600
O  -1.44900 30.05500 29.24200
C  -3.12200 28.36900 29.59800
C  -2.29600 27.64200 30.56800
O  -1.49900 26.77400 30.36300
O  -2.60500 28.09300 31.91000
C  -1.62800 27.61300 32.87600
H  -7.29600 23.02400 28.29600
H  -5.98400 23.88600 21.90600
H  -1.89600 28.65100 23.48400
H  -4.40900 25.65200 30.90100
H  -7.12900 24.73600 30.15300
H  -6.49400 22.84600 31.08200
H  -4.85300 23.54300 31.31400
H  -5.21500 22.69200 29.80900
H  -7.24600 26.58000 31.09300
H  -6.29200 27.90000 30.50100
H  -6.83600 27.71400 32.89800
H  -5.13400 28.13900 32.41100
H  -9.55800 22.10400 26.20700
H  -8.24500 21.30300 27.16600
H  -8.66300 20.68100 25.63000
H  -9.28300 20.35200 23.31500
H  -9.99100 21.46700 22.15700
H  -10.16900 21.94400 23.83300
H  -4.78200 25.75800 20.56300
H  -2.24200 26.88000 21.31700
H  -2.09700 24.81800 20.90400
H  -3.47700 24.22400 19.84200
H  -3.27500 23.71800 21.58400
H  -4.26100 28.89900 21.67500
H  -4.81800 27.85400 20.34400
H  -3.31000 28.48200 18.91100
H  -1.92100 28.55400 19.96000
H  -3.00300 29.91100 19.98200
H  -0.19700 30.51500 26.49800
H  -1.31900 30.94000 25.14900
H  -0.15700 29.67400 24.99000
H  -3.83400 28.98000 30.15200
H  -2.02200 26.68700 33.29500
H  -1.65800 28.29800 33.72300
H  -0.57600 27.49700 32.61400

