158

Mg 16.87100 -1.36600 27.81500
C  15.80900 0.46700 30.64000
C  18.67100 -3.32200 29.76300
C  18.19000 -2.70700 24.99200
C  14.94800 0.85100 25.79400
N  17.20300 -1.38300 29.94900
C  16.66100 -0.62000 30.95500
C  17.11200 -1.07600 32.31800
C  18.21100 -2.26600 31.95400
C  18.04400 -2.34800 30.45000
C  19.63600 -1.91300 32.41400
C  15.82400 -1.50200 33.15600
C  15.66600 -0.96300 34.60000
H  16.92600 -0.37400 35.30500
N  18.25500 -2.84200 27.46600
C  18.90700 -3.54400 28.42200
C  19.77000 -4.51600 27.80700
C  19.70900 -4.31500 26.36000
C  18.68000 -3.23900 26.19000
C  20.58600 -5.51600 28.52300
C  20.48200 -4.97400 25.24900
O  20.52900 -4.56000 24.07900
C  21.33900 -6.23500 25.40500
N  16.46100 -1.14900 25.73300
C  17.18600 -1.79400 24.74400
C  16.81300 -1.34800 23.30500
C  15.67800 -0.34600 23.61800
C  15.67600 -0.18200 25.17300
C  17.98700 -0.88600 22.48200
C  14.31000 -0.67000 23.09600
C  13.98900 -0.15900 21.69600
N  15.53000 0.28900 28.13100
C  14.86700 1.06000 27.21000
C  14.11300 2.15400 27.92900
C  14.46200 1.94900 29.26800
C  15.32900 0.82800 29.34700
C  13.09200 3.11600 27.22400
C  14.24200 2.42300 30.60100
O  13.57600 3.35300 31.01600
C  15.11300 1.56200 31.58800
C  16.01500 2.50700 32.25600
O  16.99000 3.09200 31.72800
O  15.55000 2.87900 33.49200
C  16.27600 3.92400 34.26100
H  19.24900 -4.03700 30.35200
H  18.75900 -2.98500 24.10200
H  14.52400 1.72200 25.29000
H  17.50900 -0.24600 32.90200
H  17.95300 -3.21700 32.42100
H  20.03700 -1.25400 31.64300
H  20.21500 -2.82200 32.57800
H  19.61600 -1.35000 33.34700
H  15.77600 -2.58900 33.21400
H  14.93400 -1.16600 32.62300
H  15.18700 -1.67200 35.27500
H  14.92800 -0.16700 34.49300
H  21.64400 -5.26400 28.45800
H  20.52700 -6.47700 28.01200
H  20.22200 -5.68000 29.53700
H  21.92600 -6.22900 24.48700
H  20.74900 -7.12300 25.63600
H  22.09600 -6.00400 26.15500
H  16.44200 -2.11200 22.62100
H  16.05300 0.61100 23.25500
H  17.91200 0.18700 22.30500
H  18.09900 -1.47300 21.57100
H  18.89300 -0.95600 23.08400
H  13.47200 -0.36200 23.72200
H  14.23800 -1.75500 23.16500
H  13.86000 -1.08900 21.14200
H  14.81100 0.44200 21.30900
H  13.06800 0.40000 21.53300
H  12.17700 3.15900 27.81500
H  12.88400 2.73000 26.22600
H  13.43500 4.14900 27.28300
H  14.54800 1.13800 32.41900
H  17.36200 3.88500 34.18600
H  16.03700 3.74100 35.30900
H  15.93900 4.91800 33.96800
Mg -1.67100 34.43100 27.27700
C  -3.05300 32.53800 29.87500
C  0.15500 36.14100 29.59900
C  -0.33700 36.11500 24.70000
C  -3.47900 32.58800 25.05200
N  -1.65000 34.48200 29.41300
C  -2.24600 33.61900 30.29800
C  -1.93100 34.02900 31.73900
C  -0.97200 35.24000 31.59200
C  -0.86200 35.37100 30.09900
C  -1.61300 36.51300 32.10100
C  -1.29100 32.87700 32.53600
C  -0.94000 33.25400 34.04300
H  -1.43200 32.36400 35.22100
N  -0.25700 35.91700 27.19400
C  0.42400 36.42000 28.24300
C  1.55500 37.29400 27.74200
C  1.39300 37.32500 26.31500
C  0.20400 36.42800 25.99400
C  2.49900 38.09300 28.71600
C  2.24200 38.03000 25.40600
O  2.13800 37.97600 24.20500
C  3.41900 38.78800 25.82200
N  -1.98100 34.48000 25.15200
C  -1.31600 35.24700 24.27700
C  -1.53400 34.81600 22.80100
C  -2.34500 33.56900 22.99000
C  -2.63700 33.49400 24.51700
C  -2.27400 35.87300 21.93400
C  -1.49200 32.47800 22.38200
C  -0.50000 31.78200 23.29700
N  -3.03500 32.93600 27.37300
C  -3.68600 32.26900 26.34800
C  -4.62200 31.21100 26.91700
C  -4.37700 31.27600 28.30400
C  -3.38700 32.28800 28.50500
C  -5.59400 30.39600 26.19600
C  -4.61100 30.58500 29.56800
O  -5.33400 29.65300 29.82400
C  -3.72500 31.31000 30.62100
C  -4.73900 31.67700 31.67300
O  -5.84200 32.20000 31.53800
O  -4.23100 31.25100 32.87900
C  -5.10700 31.38200 34.09600
H  0.73800 36.63700 30.37800
H  0.27500 36.58000 23.92400
H  -3.80300 31.91100 24.25900
H  -2.93200 34.18900 32.14000
H  -0.00300 35.10800 32.07300
H  -2.54600 36.30700 32.62500
H  -1.72500 37.22500 31.28300
H  -0.99800 37.03500 32.83500
H  -0.27200 32.72500 32.18000
H  -1.88600 31.97000 32.43500
H  -1.35500 34.23700 34.26200
H  0.14200 33.37100 34.10400
H  2.43000 37.74600 29.74700
H  2.22800 39.14500 28.63400
H  3.52900 37.84600 28.45900
H  4.01400 39.01300 24.93700
H  4.01800 38.22000 26.53400
H  3.14800 39.74000 26.27900
H  -0.51800 34.70900 22.42300
H  -3.30200 33.47600 22.47700
H  -1.56400 36.17100 21.16300
H  -2.63300 36.75000 22.47400
H  -3.01600 35.32700 21.35200
H  -0.77700 32.83800 21.64200
H  -2.11800 31.68300 21.97800
H  -0.57500 32.11300 24.33300
H  0.53000 32.08700 23.11400
H  -0.37500 30.72100 23.08000
H  -5.23500 29.37200 26.29500
H  -5.52400 30.49800 25.11300
H  -6.59400 30.47900 26.62200
H  -2.98900 30.64000 31.06500
H  -5.81500 32.17400 33.85200
H  -4.41300 31.56700 34.91500
H  -5.60600 30.45400 34.37500

