158

Mg 49.71100 44.50900 42.96600
C  46.18100 44.93600 42.14600
C  49.24900 41.13600 42.17900
C  52.97000 44.37100 42.50800
C  49.87900 47.88400 43.61500
N  47.93100 43.23800 42.05200
C  46.61000 43.60500 41.94600
C  45.77600 42.46700 41.27500
C  46.71800 41.20000 41.82300
C  48.05400 41.86400 42.07000
C  46.09300 40.59400 43.05500
C  45.74800 42.63600 39.72200
C  44.33800 42.49000 39.07300
H  44.01600 43.64000 38.12300
N  50.95800 42.95300 42.58400
C  50.56500 41.65900 42.18000
C  51.80700 40.92800 41.83200
C  52.93100 41.80600 41.99500
C  52.32300 43.08700 42.46500
C  51.76300 39.56000 41.25500
C  54.41100 41.43900 41.70300
O  54.72400 40.33500 41.23800
C  55.60900 42.47600 41.87200
N  51.25400 45.95600 43.35500
C  52.52900 45.64200 42.90700
C  53.40100 46.87800 42.95900
C  52.45000 48.00000 43.37700
C  51.11800 47.26500 43.38600
C  54.65000 46.55900 43.86700
C  52.39700 49.35000 42.56500
C  52.21800 50.62400 43.39700
N  48.32400 46.04000 43.01500
C  48.57900 47.39100 43.37800
C  47.29100 48.12300 43.34700
C  46.34900 47.21700 42.78300
C  47.03700 45.93000 42.63400
C  47.04600 49.58900 43.68100
C  44.96300 47.05000 42.40200
O  44.02600 47.83600 42.32400
C  44.80900 45.60400 41.83600
C  43.62200 44.96800 42.32800
O  42.66900 44.62800 41.60000
O  43.66500 44.86700 43.69500
C  42.46100 44.35100 44.36700
H  49.16800 40.04700 42.15900
H  54.02100 44.40300 42.21400
H  49.72200 48.94500 43.82200
H  44.79500 42.57300 41.73700
H  46.68400 40.39000 41.09400
H  45.55400 39.65800 42.91100
H  45.27900 41.23700 43.39200
H  46.83500 40.50700 43.84800
H  46.36600 41.86700 39.25800
H  46.23700 43.59700 39.56700
H  43.57800 42.59700 39.84700
H  44.25500 41.52500 38.57400
H  52.14800 39.69400 40.24400
H  50.73300 39.20400 41.27800
H  52.37800 38.88300 41.84900
H  55.53100 43.30000 41.16300
H  56.58200 42.01400 41.70500
H  55.58500 42.87100 42.88700
H  53.75800 47.05800 41.94500
H  52.70300 48.35000 44.37800
H  54.55300 45.57400 44.32200
H  54.78500 47.22700 44.71700
H  55.52400 46.43900 43.22700
H  51.52100 49.28900 41.91800
H  53.26400 49.34500 41.90500
H  51.30000 51.14200 43.11700
H  53.00000 51.37000 43.25400
H  52.15500 50.50000 44.47800
H  47.42100 49.76000 44.69000
H  46.01000 49.92500 43.69600
H  47.66900 50.24500 43.07300
H  44.76700 45.54800 40.74900
H  42.62100 43.72000 45.24100
H  41.74000 43.83600 43.73200
H  41.93200 45.20700 44.78600
Mg 9.79400 47.81000 26.50500
C  7.69900 48.18700 29.42800
C  12.31400 49.22200 28.34500
C  11.62500 47.35800 23.89600
C  6.86600 47.53900 24.69600
N  9.97200 48.51000 28.70800
C  9.02500 48.46700 29.68700
C  9.72000 48.91600 31.00400
C  10.97700 49.69000 30.53100
C  11.15900 49.04800 29.15400
C  10.73700 51.21100 30.34800
C  10.19800 47.71600 31.93300
C  10.05900 47.87600 33.41800
H  9.75200 46.66000 34.33500
N  11.77500 48.25700 26.12400
C  12.64400 48.73800 27.03700
C  14.00000 48.62600 26.46600
C  13.82800 47.99100 25.21700
C  12.38600 47.86200 25.01400
C  15.24600 48.96100 27.29800
C  14.82600 47.55000 24.14800
O  14.45000 47.09000 23.09400
C  16.25900 47.61300 24.36500
N  9.30000 47.70200 24.47700
C  10.28700 47.35300 23.58200
C  9.70000 46.81600 22.31300
C  8.15600 46.95000 22.58000
C  8.06600 47.46700 23.98900
C  10.18400 47.60500 21.08600
C  7.38700 45.61800 22.30500
C  6.19900 45.71000 21.41000
N  7.69400 47.75700 26.92900
C  6.61700 47.65300 26.10200
C  5.40600 47.61300 26.77500
C  5.80200 47.79700 28.08500
C  7.17100 47.95100 28.13500
C  4.03500 47.33800 26.37400
C  5.32100 47.79500 29.47300
O  4.22500 47.65500 29.94400
C  6.56900 48.03300 30.41700
C  6.69800 46.92900 31.34700
O  7.27500 45.85800 31.13500
O  6.01300 47.22200 32.50000
C  5.64100 46.04600 33.36800
H  13.10100 49.72300 28.91100
H  12.20900 46.98100 23.05300
H  5.96500 47.31300 24.12200
H  8.99500 49.54400 31.52300
H  11.85700 49.50500 31.14700
H  11.39300 51.79300 30.99500
H  9.73100 51.52200 30.62800
H  10.88100 51.51500 29.31100
H  11.26200 47.52300 31.80100
H  9.72000 46.75400 31.74500
H  9.33300 48.64100 33.69400
H  11.02200 48.24200 33.77400
H  15.07400 48.89000 28.37200
H  15.70700 49.93400 27.13300
H  15.91500 48.15600 26.99500
H  16.51700 46.88200 25.13100
H  16.48600 48.58900 24.79300
H  16.77500 47.45400 23.41800
H  9.98400 45.76500 22.25400
H  7.80300 47.72000 21.89400
H  10.61500 48.51000 21.51600
H  9.45000 47.81100 20.30700
H  10.95600 46.97600 20.64100
H  6.98000 45.23200 23.23900
H  8.00000 44.81700 21.89300
H  5.97700 46.74200 21.13800
H  5.27600 45.40800 21.90400
H  6.31500 45.22200 20.44200
H  3.48400 48.27300 26.47100
H  3.54200 46.62900 27.03900
H  3.93500 46.93500 25.36600
H  6.44400 48.95400 30.98600
H  6.10500 46.14500 34.34900
H  5.92500 45.05700 33.00900
H  4.57200 46.07200 33.58100

