158

Mg -12.04800 16.86200 41.81600
C  -8.82900 15.42000 41.45400
C  -10.83200 19.81500 40.52200
C  -15.22400 17.96300 41.78900
C  -13.25300 13.59500 42.14800
N  -10.01100 17.46100 40.96100
C  -8.83000 16.66700 40.98000
C  -7.66500 17.52200 40.41300
C  -8.26300 18.98100 40.35300
C  -9.81800 18.77800 40.56900
C  -7.60600 20.08400 41.20700
C  -7.16700 16.95700 39.00800
C  -5.69900 17.33000 38.58800
H  -5.47300 17.80800 37.09700
N  -12.91000 18.64900 41.26600
C  -12.25000 19.76400 40.77100
C  -13.15900 20.82100 40.57400
C  -14.36800 20.34900 41.05100
C  -14.22900 18.94000 41.40000
C  -12.84600 22.22300 39.96800
C  -15.60700 21.22700 41.12800
O  -15.72300 22.36900 40.74500
C  -16.93800 20.69900 41.66600
N  -13.93700 15.89100 41.84000
C  -15.07400 16.57500 42.05000
C  -16.35800 15.71700 42.03900
C  -15.69700 14.36100 42.28800
C  -14.23200 14.56400 42.01100
C  -17.52600 16.06400 42.99800
C  -16.26100 13.26300 41.33800
C  -16.45000 11.69900 41.86500
N  -11.21500 14.95900 42.11000
C  -11.85500 13.74000 42.22300
C  -10.81300 12.65500 42.22600
C  -9.61300 13.32400 42.06400
C  -9.94100 14.70200 41.86300
C  -11.03300 11.19500 42.24300
C  -8.17900 13.07200 42.02800
O  -7.52100 12.05400 42.05700
C  -7.63100 14.50200 41.68600
C  -6.75100 14.94300 42.81400
O  -7.10700 14.89200 44.01400
O  -5.57300 15.32700 42.32200
C  -4.50600 15.56400 43.32300
H  -10.35700 20.79200 40.41200
H  -16.27400 18.26100 41.81800
H  -13.76800 12.64900 42.32600
H  -6.82900 17.55300 41.11200
H  -8.07100 19.32600 39.33700
H  -7.24900 20.77500 40.44300
H  -6.79600 19.64500 41.79000
H  -8.30600 20.62100 41.84700
H  -7.89400 17.32500 38.28300
H  -7.19000 15.87600 38.87300
H  -5.14600 16.40300 38.74000
H  -5.28000 17.97000 39.36400
H  -13.39800 22.41600 39.04900
H  -11.77700 22.17600 39.76100
H  -13.11900 22.91200 40.76700
H  -17.60000 21.52700 41.92100
H  -16.75800 20.21200 42.62500
H  -17.50300 20.07500 40.97500
H  -16.83800 15.69500 41.06100
H  -15.73100 14.03200 43.32700
H  -17.35500 16.95600 43.60100
H  -17.71900 15.26500 43.71300
H  -18.46900 16.33000 42.52000
H  -15.70900 13.12100 40.40800
H  -17.27500 13.51800 41.03200
H  -17.46900 11.34400 41.70700
H  -16.23200 11.64800 42.93200
H  -15.81600 11.14800 41.17100
H  -11.65300 10.99600 43.11800
H  -10.12300 10.59700 42.28400
H  -11.60800 10.94300 41.35200
H  -7.04400 14.32400 40.78600
H  -4.91400 16.35300 43.95500
H  -3.59100 15.90100 42.83600
H  -4.36400 14.61600 43.84300
Mg -6.15800 25.24700 25.82700
C  -4.44900 26.52500 28.66300
C  -7.50900 22.94600 27.87600
C  -7.51500 23.72800 23.05500
C  -4.26000 27.31900 23.88000
N  -6.08100 24.90300 27.96600
C  -5.29900 25.50900 28.93600
C  -5.83500 25.18600 30.36700
C  -6.58400 23.87600 30.07800
C  -6.74800 23.89400 28.52500
C  -5.95000 22.55900 30.55200
C  -6.69300 26.37300 30.93300
C  -6.46400 26.71500 32.45500
H  -6.12800 25.68300 33.42100
N  -7.42600 23.64800 25.51200
C  -7.82900 22.79600 26.51500
C  -8.83300 21.84900 25.97900
C  -8.79000 21.99800 24.52500
C  -7.95200 23.19700 24.26900
C  -9.71500 21.04100 26.94100
C  -9.46900 21.15000 23.38900
O  -9.32800 21.42300 22.17500
C  -10.24400 20.02800 23.81600
N  -5.91300 25.44800 23.83700
C  -6.56800 24.74200 22.87100
C  -6.16500 25.31000 21.41900
C  -5.24100 26.50700 21.71800
C  -5.07600 26.36400 23.20500
C  -5.51800 24.30800 20.45200
C  -5.76800 27.95300 21.36700
C  -4.75300 28.71900 20.51800
N  -4.58500 26.65600 26.11800
C  -3.93500 27.46400 25.24300
C  -3.10700 28.33200 25.99000
C  -3.26300 28.05700 27.34200
C  -4.18200 27.01100 27.37200
C  -2.13300 29.32200 25.26800
C  -2.84800 28.39600 28.71800
O  -2.21300 29.34400 29.19000
C  -3.68300 27.49600 29.63000
C  -2.73100 26.92400 30.51100
O  -2.22300 25.87500 30.27500
O  -2.54400 27.67700 31.65200
C  -1.72400 27.08800 32.61800
H  -7.92400 22.22300 28.58200
H  -7.91400 23.30600 22.13000
H  -3.71600 28.04300 23.27000
H  -5.03700 24.95300 31.07300
H  -7.59700 23.89200 30.48000
H  -6.64700 22.06900 31.23300
H  -5.03900 22.63700 31.14600
H  -5.71100 21.93700 29.68900
H  -7.73700 26.08300 30.82400
H  -6.50900 27.31000 30.40700
H  -7.35900 27.21000 32.83400
H  -5.75400 27.54100 32.41000
H  -9.18100 20.14200 27.25200
H  -10.61600 20.70300 26.43000
H  -9.96900 21.58700 27.85000
H  -11.10800 20.47000 24.31400
H  -9.69600 19.44100 24.55300
H  -10.50000 19.29300 23.05300
H  -7.03200 25.64400 20.84900
H  -4.30300 26.27300 21.21400
H  -6.06900 23.39900 20.20800
H  -4.60800 23.81300 20.79400
H  -5.33100 24.78000 19.48800
H  -6.07300 28.48200 22.27000
H  -6.73200 27.89400 20.86200
H  -4.57400 29.69600 20.96600
H  -5.12600 29.09900 19.56600
H  -3.77000 28.25800 20.42000
H  -2.78900 30.07300 24.82900
H  -1.62700 28.85300 24.42400
H  -1.35200 29.69100 25.93300
H  -4.36700 28.18100 30.13200
H  -0.70900 26.81600 32.32900
H  -2.25300 26.37400 33.25100
H  -1.59300 27.91800 33.31200

