158

Mg 47.58100 44.23600 41.61900
C  44.00400 43.86400 41.75700
C  47.78700 40.88800 41.61200
C  50.82200 44.64500 41.21700
C  47.13000 47.70700 41.36300
N  46.06800 42.61700 41.59300
C  44.68900 42.63900 41.62800
C  44.09400 41.21700 41.70600
C  45.36200 40.23100 41.85700
C  46.45900 41.30700 41.74600
C  45.36000 39.36000 43.08700
C  43.24900 40.83300 40.42100
C  43.56100 41.56400 39.06800
H  43.63800 40.69600 37.85400
N  49.11300 42.95400 41.44300
C  49.03900 41.56400 41.47200
C  50.35900 40.98100 41.29600
C  51.28300 42.06600 41.27700
C  50.44100 43.33500 41.36200
C  50.72800 39.46400 41.30700
C  52.81400 41.97500 41.22000
O  53.46000 40.93500 41.18400
C  53.65700 43.19000 41.23100
N  48.77200 45.93300 41.07400
C  50.08300 45.82700 41.17600
C  50.75800 47.19000 40.93600
C  49.60800 48.13600 40.91400
C  48.38100 47.24800 41.15800
C  51.88000 47.48500 42.00200
C  49.39600 48.96900 39.66900
C  49.22900 50.48800 39.88900
N  45.93200 45.57200 41.59000
C  45.92300 46.97200 41.42700
C  44.55800 47.39800 41.55600
C  43.78900 46.20200 41.71200
C  44.63000 45.12900 41.68300
C  44.00400 48.75700 41.44200
C  42.42000 45.61000 41.90700
O  41.37000 46.12300 42.15500
C  42.50400 44.08800 41.88300
C  41.83200 43.33100 43.01800
O  41.19800 42.31400 42.91300
O  42.17900 43.95100 44.14600
C  41.42500 43.46400 45.34700
H  48.03700 39.82700 41.55400
H  51.85500 44.98500 41.11900
H  47.06100 48.78700 41.51100
H  43.47200 41.18700 42.60000
H  45.44000 39.52900 41.02600
H  44.40600 38.83300 43.09000
H  45.33600 39.96600 43.99200
H  46.05300 38.51900 43.11600
H  42.19000 40.90700 40.66500
H  43.42800 39.76900 40.26800
H  44.53100 42.02900 39.24400
H  42.74700 42.25300 38.84200
H  50.99700 39.02700 40.34500
H  49.84400 38.86200 41.51700
H  51.53900 39.31600 42.02100
H  53.32700 43.72700 40.34200
H  54.71100 42.96700 41.06300
H  53.41000 43.76000 42.12700
H  51.32600 47.16300 40.00600
H  49.67000 48.71400 41.83600
H  51.76000 46.79100 42.83400
H  51.70700 48.49900 42.36000
H  52.84000 47.40000 41.49300
H  48.50500 48.74800 39.08200
H  50.24900 48.88900 38.99500
H  48.14800 50.59100 39.79100
H  49.96000 51.08400 39.34200
H  49.45900 50.80800 40.90500
H  43.51900 48.99800 40.49600
H  44.71800 49.57500 41.54100
H  43.25800 48.97800 42.20500
H  42.04200 43.84000 40.92700
H  40.41200 43.86100 45.41000
H  41.97800 43.64700 46.26800
H  41.45400 42.37500 45.32200
Mg 26.06100 50.59900 25.79800
C  23.90300 51.45600 28.46100
C  28.21200 49.41200 28.23300
C  28.04400 49.59700 23.32100
C  23.74100 51.71500 23.52500
N  26.01400 50.41600 28.23200
C  25.02200 50.80900 29.03300
C  25.40300 50.62700 30.48000
C  26.89500 50.03300 30.37700
C  27.09000 49.94100 28.85300
C  28.05500 50.76900 31.13100
C  24.36700 49.71600 31.27000
C  24.88800 49.17400 32.56500
H  24.11300 49.42100 33.79600
N  27.87500 49.78200 25.77300
C  28.57500 49.23500 26.88300
C  29.89700 48.78900 26.38000
C  29.89300 48.92600 24.98400
C  28.52900 49.48000 24.62600
C  30.96000 48.13000 27.31600
C  30.92800 48.61900 23.94100
O  30.92900 48.95100 22.76000
C  32.16200 47.99500 24.45800
N  25.90200 50.63100 23.71400
C  26.84200 50.13300 22.85800
C  26.36600 50.09000 21.36500
C  24.91400 50.68800 21.46500
C  24.83400 51.02300 22.98000
C  27.35800 50.68800 20.31200
C  23.87700 49.75300 20.79900
C  23.57400 48.46400 21.42100
N  24.19800 51.50500 25.88800
C  23.33400 51.87500 24.86500
C  22.09200 52.32700 25.45900
C  22.24100 52.24700 26.89100
C  23.55000 51.66700 27.10400
C  21.01100 52.80300 24.47700
C  21.68400 52.52600 28.18800
O  20.60900 52.93000 28.60900
C  22.73500 52.13100 29.18500
C  23.16400 53.32900 30.01000
O  24.16200 53.96200 29.73600
O  22.39200 53.40400 31.13400
C  22.72600 54.47100 32.01400
H  29.00900 49.14500 28.93000
H  28.67300 49.20200 22.52000
H  22.98200 52.08200 22.83100
H  25.30500 51.61200 30.93500
H  26.96200 49.03200 30.80500
H  28.67600 50.17200 31.79800
H  27.58100 51.56300 31.70800
H  28.79000 51.24800 30.48400
H  24.20100 48.81000 30.68700
H  23.35500 50.11300 31.33700
H  25.84300 49.64600 32.79700
H  24.95900 48.08800 32.50600
H  31.10700 47.06900 27.11600
H  30.72800 48.23800 28.37600
H  31.92600 48.63500 27.29700
H  32.78200 47.64100 23.63400
H  31.90800 47.10600 25.03500
H  32.68300 48.78400 25.00000
H  26.31700 49.04600 21.05700
H  25.05100 51.63000 20.93300
H  28.17100 51.18600 20.84000
H  26.91900 51.45400 19.67300
H  27.83000 49.93400 19.68200
H  24.33200 49.42600 19.86400
H  22.97900 50.30700 20.53100
H  22.48700 48.42100 21.48900
H  24.11300 48.26600 22.34700
H  23.89500 47.67000 20.74600
H  20.12100 52.97200 25.08300
H  20.76900 51.98800 23.79500
H  21.27600 53.73600 23.97900
H  22.31400 51.32500 29.78500
H  23.69700 54.24000 32.45400
H  21.95300 54.51900 32.78100
H  23.03600 55.43600 31.61400

