158

Mg 0.34700 7.36500 26.45000
C  0.69900 9.61800 29.11200
C  0.25500 4.94200 28.77700
C  -0.08700 5.21700 23.96100
C  0.63900 10.04200 24.24600
N  0.47600 7.35200 28.69400
C  0.47900 8.36700 29.57500
C  0.36000 7.90800 31.03200
C  0.58200 6.33500 30.84700
C  0.49000 6.18600 29.33400
C  1.81200 5.78500 31.56100
C  -0.95200 8.25000 31.68600
C  -0.86900 8.44100 33.24800
H  0.40200 8.11600 34.01300
N  0.18500 5.34100 26.34600
C  0.14100 4.51600 27.39700
C  -0.21000 3.18900 26.95800
C  -0.07100 3.10900 25.55700
C  -0.00100 4.59100 25.20000
C  -0.60600 2.07400 27.99300
C  -0.26200 2.03300 24.62900
O  -0.16400 2.19300 23.43200
C  -0.52400 0.74000 25.09500
N  0.34300 7.54400 24.43200
C  -0.00300 6.54700 23.56600
C  -0.16300 7.07200 22.15800
C  -0.30400 8.52900 22.45000
C  0.28100 8.74700 23.79700
C  1.18500 6.79600 21.40000
C  -1.86100 8.90800 22.53300
C  -2.27300 10.13900 21.68100
N  0.79700 9.44200 26.58100
C  0.93100 10.41100 25.61700
C  1.15800 11.70800 26.19800
C  1.04700 11.51100 27.61900
C  0.81800 10.09800 27.73600
C  1.35200 12.93000 25.40700
C  1.02500 12.04700 28.88700
O  1.34400 13.16000 29.23000
C  0.81000 10.90300 29.90700
C  1.86700 10.98400 30.90300
O  3.06000 10.81000 30.71000
O  1.39200 11.50900 32.08000
C  2.44100 11.83500 33.12800
H  -0.06600 4.23800 29.54800
H  -0.23500 4.52900 23.12500
H  0.62500 10.88500 23.55300
H  1.16200 8.29000 31.66300
H  -0.28500 5.83000 31.27300
H  2.47800 6.57400 31.91100
H  2.41000 5.13800 30.92000
H  1.48900 5.20400 32.42500
H  -1.75500 7.52500 31.55300
H  -1.32700 9.19200 31.28700
H  -1.69500 7.98500 33.79400
H  -1.04100 9.49800 33.45300
H  0.12100 1.26600 27.92700
H  -1.60100 1.78400 27.65500
H  -0.64900 2.31600 29.05500
H  -1.38800 0.77200 25.75900
H  0.35300 0.43600 25.66700
H  -0.67600 -0.02700 24.33600
H  -1.07200 6.63100 21.74800
H  0.34100 9.17300 21.85100
H  0.95100 6.12600 20.57200
H  1.85300 6.16700 21.98800
H  1.83700 7.64400 21.19000
H  -2.17100 9.13900 23.55200
H  -2.41800 8.02400 22.22400
H  -3.15600 9.75700 21.16900
H  -1.50000 10.46000 20.98200
H  -2.53500 10.98500 22.31600
H  1.47400 13.79400 26.06000
H  0.44300 13.03100 24.81300
H  2.14000 12.82900 24.66100
H  -0.16600 11.04700 30.37100
H  3.00000 12.70200 32.77600
H  3.01200 10.93800 33.37000
H  1.81800 12.10900 33.97900
Mg 35.27900 3.71800 29.57200
C  32.85700 4.39800 31.96000
C  37.75100 3.68900 31.95400
C  37.49800 2.96900 27.13000
C  32.66100 3.85000 27.20900
N  35.31800 3.98500 31.76000
C  34.18600 4.25300 32.52200
C  34.66900 4.32800 33.93800
C  36.22200 4.46900 33.88700
C  36.51400 3.99800 32.46300
C  36.67200 5.94100 34.02200
C  34.09700 3.13500 34.75600
C  34.07100 3.15700 36.29100
H  34.69000 4.32700 36.97600
N  37.31000 3.39500 29.57000
C  38.11700 3.34000 30.59300
C  39.42500 2.84600 30.27300
C  39.46400 2.65000 28.89300
C  38.07200 3.01600 28.44000
C  40.48800 2.55600 31.33700
C  40.61900 2.12200 27.96300
O  40.48000 2.13600 26.76900
C  41.83500 1.53100 28.57600
N  35.08800 3.69500 27.51600
C  36.15100 3.28100 26.68400
C  35.62500 2.99400 25.23300
C  34.06800 3.25400 25.31600
C  33.90400 3.59000 26.81400
C  36.39600 3.75700 24.14600
C  33.14200 2.14500 24.65000
C  32.81200 1.01000 25.55100
N  33.21700 4.10700 29.52300
C  32.30000 4.21600 28.46600
C  30.98200 4.47400 28.93400
C  31.21200 4.63800 30.34700
C  32.56900 4.40300 30.63800
C  29.71900 4.57200 28.11800
C  30.51700 4.88200 31.61800
O  29.28600 4.89500 31.78300
C  31.59700 4.83000 32.67000
C  31.71100 6.18000 33.22900
O  32.51200 6.99600 32.91600
O  30.76200 6.30900 34.22700
C  30.82300 7.52500 35.04100
H  38.52600 3.66600 32.72400
H  38.26900 2.70200 26.40400
H  31.85900 3.86700 26.46800
H  34.18900 5.23600 34.30300
H  36.71400 3.82100 34.61200
H  35.79100 6.57900 33.94100
H  37.42900 6.13600 33.26300
H  37.18100 6.08400 34.97500
H  34.74000 2.30100 34.47400
H  33.09200 2.91000 34.39700
H  34.47300 2.20500 36.63500
H  33.00200 3.16300 36.50700
H  40.86500 1.54700 31.16700
H  40.01400 2.52900 32.31800
H  41.26300 3.32200 31.35100
H  42.20200 2.30300 29.25200
H  42.52700 1.32500 27.75900
H  41.63300 0.66700 29.20900
H  35.64700 1.92100 25.03900
H  33.76100 4.15100 24.77800
H  36.55200 3.14700 23.25600
H  37.33500 4.05400 24.61400
H  35.86100 4.65800 23.84800
H  33.76000 1.64700 23.90300
H  32.36100 2.56900 24.01900
H  32.51500 1.27300 26.56600
H  33.73500 0.45500 25.71900
H  32.07700 0.33600 25.11200
H  28.89300 4.26100 28.75800
H  29.76100 3.86700 27.28800
H  29.66600 5.58400 27.71900
H  31.34200 4.13000 33.46500
H  31.78600 7.97800 35.28000
H  30.51800 7.15900 36.02100
H  30.22000 8.36900 34.70700

