158

Mg 48.10800 16.39000 28.87100
C  45.70400 16.07400 31.32100
C  49.99600 18.34800 31.29300
C  50.32000 16.91100 26.61900
C  45.86100 14.88100 26.59900
N  47.81000 17.25800 30.97200
C  46.79500 16.79800 31.77400
C  46.98300 17.22600 33.25700
C  48.09300 18.31300 33.08500
C  48.70900 17.92800 31.68800
C  47.68800 19.78700 33.21800
C  47.35200 16.10500 34.24600
C  47.11700 16.36300 35.77000
H  46.87300 17.89900 36.21300
N  49.97300 17.33900 28.96300
C  50.60400 18.14800 29.98400
C  51.89800 18.46800 29.53300
C  51.99700 18.16600 28.17000
C  50.74200 17.45900 27.85100
C  52.81800 19.23100 30.50000
C  53.21900 18.50700 27.16800
O  53.19600 18.13300 25.99200
C  54.33400 19.38000 27.53800
N  48.03400 15.98300 26.89400
C  49.12800 16.29300 26.16800
C  49.07800 15.56400 24.82600
C  47.71500 14.78200 24.83400
C  47.13800 15.28000 26.19200
C  49.24000 16.48400 23.61900
C  47.76700 13.27000 24.72900
C  47.92100 12.61900 23.32700
N  46.21900 15.57400 28.92100
C  45.40200 15.03900 27.89400
C  44.09200 14.71200 28.43400
C  44.18100 15.08000 29.79000
C  45.50300 15.55800 29.99300
C  42.99900 14.14800 27.69400
C  43.47700 15.06900 31.03300
O  42.35600 14.61100 31.36900
C  44.42400 15.67700 32.05300
C  43.62600 16.80900 32.60500
O  43.36900 17.83400 32.03400
O  43.00900 16.42900 33.80000
C  42.35100 17.49900 34.50600
H  50.54400 18.92000 32.04600
H  51.00400 16.85100 25.77000
H  45.27200 14.38200 25.82700
H  46.04900 17.66000 33.61500
H  48.92600 18.16300 33.77100
H  46.65400 20.05400 33.43500
H  48.18300 20.29100 32.38800
H  48.17200 20.21800 34.09400
H  48.40500 15.85500 34.11700
H  46.78000 15.18600 34.12200
H  47.87900 15.85300 36.35800
H  46.19200 15.81800 35.96100
H  52.78300 20.16700 29.94300
H  53.83700 18.88100 30.66700
H  52.41600 19.61800 31.43700
H  53.90500 20.36100 27.74100
H  55.02600 19.55600 26.71500
H  54.83600 18.91200 28.38500
H  49.84100 14.78700 24.87200
H  47.07500 15.02800 23.98600
H  48.73200 16.08100 22.74200
H  50.30900 16.42700 23.41800
H  48.97100 17.53200 23.75700
H  46.91900 12.73200 25.15200
H  48.66600 13.08300 25.31700
H  48.90600 12.15400 23.28800
H  48.02500 13.43700 22.61500
H  47.21200 11.84800 23.02600
H  42.39300 13.64500 28.44800
H  43.42700 13.41500 27.01000
H  42.37900 14.87100 27.16500
H  44.67500 14.92400 32.80000
H  41.50100 17.97700 34.01800
H  43.10800 18.27100 34.64000
H  42.22200 17.01400 35.47300
Mg 35.13600 48.50500 25.08700
C  35.45300 46.39900 28.03400
C  34.18300 51.04800 27.31400
C  34.30900 50.20800 22.53500
C  35.65200 45.59500 23.14200
N  34.80200 48.69600 27.45500
C  35.01800 47.66500 28.39300
C  34.97300 48.27200 29.75500
C  34.12700 49.59200 29.50300
C  34.34900 49.84000 27.99500
C  32.64600 49.35600 29.99300
C  36.47100 48.48700 30.30300
C  36.72700 48.39700 31.78600
H  36.60400 49.65700 32.60900
N  34.42000 50.39100 24.91900
C  34.26900 51.30600 25.93100
C  33.85900 52.58300 25.40900
C  33.79600 52.36500 23.98000
C  34.20100 50.98300 23.76200
C  33.72600 53.85700 26.24100
C  33.55000 53.40700 22.94600
O  33.78000 53.13600 21.77600
C  33.10600 54.90900 23.23500
N  34.93900 47.94500 23.09800
C  34.68600 48.92600 22.19400
C  34.80800 48.33800 20.75500
C  35.17200 46.87700 20.94500
C  35.29600 46.81600 22.51400
C  33.54500 48.61800 19.82300
C  36.58300 46.52600 20.30700
C  37.80600 47.04400 21.14000
N  35.53000 46.38600 25.43800
C  35.74800 45.35900 24.54800
C  36.00500 44.15500 25.27900
C  36.03800 44.51900 26.65000
C  35.68300 45.89900 26.70200
C  36.10100 42.70700 24.82000
C  36.12600 44.02300 28.04000
O  36.33000 42.92700 28.49500
C  35.92900 45.27500 28.95700
C  35.08100 44.76900 30.16700
O  33.91500 44.32500 30.05100
O  35.75800 44.95900 31.29900
C  35.06300 44.58300 32.49500
H  33.88100 51.81600 28.02800
H  33.91100 50.84800 21.74500
H  35.95800 44.73700 22.54000
H  34.49200 47.60800 30.47400
H  34.39800 50.45500 30.11000
H  31.91500 49.85000 29.35300
H  32.40300 49.80900 30.95400
H  32.44300 48.29100 30.10300
H  36.90200 49.42800 29.96300
H  37.14200 47.76900 29.83000
H  37.71900 47.98600 31.97700
H  35.95500 47.74700 32.19700
H  34.64200 53.98400 26.81800
H  32.87400 53.63200 26.88200
H  33.51500 54.83800 25.81400
H  33.20600 55.45500 22.29700
H  33.65700 55.41100 24.03100
H  32.09600 54.82900 23.63700
H  35.62100 48.98700 20.43100
H  34.39300 46.18800 20.61800
H  33.43000 47.99300 18.93800
H  33.56300 49.66700 19.52800
H  32.61300 48.52400 20.38100
H  36.58000 46.70100 19.23100
H  36.66500 45.44400 20.41500
H  38.40700 46.22800 21.54000
H  37.73900 47.71500 21.99600
H  38.42700 47.50600 20.37200
H  35.63000 42.73500 23.83800
H  35.40500 42.08700 25.38500
H  37.13200 42.36200 24.89600
H  36.96900 45.39700 29.25700
H  34.29400 45.32600 32.70500
H  35.88000 44.67300 33.21100
H  34.75300 43.54000 32.44100

