158

Mg 6.89200 53.46400 40.92500
C  6.61500 49.93300 40.94500
C  10.28000 53.00700 40.13600
C  6.96100 56.65300 39.86400
C  3.37300 53.59000 40.80300
N  8.16900 51.63600 40.43000
C  7.90500 50.35600 40.67400
C  9.18700 49.48600 40.69300
C  10.36600 50.56500 40.72100
C  9.56100 51.83100 40.39900
C  11.18200 50.62600 42.04600
C  9.30900 48.47800 39.51200
C  9.11700 49.03000 38.08500
H  7.81400 48.76300 37.31100
N  8.47300 54.69700 40.20400
C  9.80100 54.35400 39.94400
C  10.54400 55.54800 39.65400
C  9.58300 56.62100 39.55300
C  8.26700 56.05600 39.87900
C  12.03500 55.57100 39.53800
C  9.90700 58.12700 39.36300
O  11.07400 58.41400 39.13600
C  8.93300 59.21400 39.58400
N  5.37800 54.93000 40.39600
C  5.69500 56.15000 40.08200
C  4.52100 57.10100 40.07900
C  3.33700 56.07000 40.30900
C  4.07400 54.79600 40.56600
C  4.63900 58.22800 41.16800
C  2.21800 55.92400 39.17400
C  0.75500 56.08600 39.64300
N  5.21800 52.11900 41.09200
C  3.89400 52.29200 41.09300
C  3.18200 51.14600 41.54700
C  4.21800 50.19900 41.45500
C  5.42400 50.82600 41.09900
C  1.71900 50.95500 41.97900
C  4.52400 48.76500 41.59700
O  3.83200 47.79200 41.92900
C  6.04800 48.63200 41.37100
C  6.09700 47.60800 40.31800
O  5.72300 47.78800 39.13600
O  6.57100 46.45300 40.88400
C  6.51100 45.29300 40.01200
H  11.33800 52.79200 40.29700
H  6.86900 57.67000 39.47800
H  2.28900 53.72400 40.79000
H  9.16600 49.00600 41.67200
H  11.16600 50.31000 40.02600
H  11.70600 49.68500 42.21700
H  10.58000 50.80100 42.93800
H  11.76300 51.54800 42.02900
H  8.71700 47.57000 39.62500
H  10.30500 48.03800 39.45700
H  9.90600 48.64200 37.44100
H  9.28400 50.08700 38.29600
H  12.44400 56.18800 40.33900
H  12.35000 56.04800 38.61000
H  12.41100 54.55600 39.66500
H  8.60600 59.04300 40.60900
H  8.06700 59.21200 38.92200
H  9.43000 60.18100 39.66000
H  4.43300 57.49000 39.06400
H  2.80200 56.43500 41.18600
H  4.04600 58.14000 42.07800
H  4.57600 59.19800 40.67600
H  5.67900 58.25100 41.49600
H  2.30900 54.96900 38.65700
H  2.36800 56.69700 38.42000
H  0.23600 55.14300 39.47100
H  0.26000 56.86700 39.06600
H  0.67300 56.31500 40.70600
H  1.30700 50.17100 41.34300
H  1.10900 51.84800 41.84600
H  1.75000 50.67800 43.03300
H  6.41300 48.31600 42.34800
H  7.20300 45.51600 39.20000
H  5.50800 45.15600 39.60900
H  6.77800 44.42100 40.60900
Mg 9.64100 47.44800 27.01100
C  7.28400 46.84600 29.59800
C  11.83600 48.41900 29.44500
C  11.95300 48.07300 24.63600
C  7.21000 47.12700 24.66700
N  9.52100 47.45300 29.21200
C  8.48000 47.20500 30.12300
C  8.83000 47.40600 31.52700
C  10.16700 48.23200 31.36900
C  10.57800 48.04400 29.85000
C  10.24400 49.75900 31.84800
C  8.90300 46.06500 32.40900
C  9.93900 46.07800 33.53800
H  9.58800 45.17800 34.70100
N  11.66800 48.09000 27.02600
C  12.40200 48.45500 28.10900
C  13.78700 48.82300 27.72900
C  13.85800 48.65800 26.30700
C  12.46600 48.20000 25.91500
C  14.82000 49.12700 28.78700
C  15.05700 48.82700 25.25300
O  14.98800 48.50100 24.08500
C  16.26200 49.28100 25.93400
N  9.58700 47.81000 24.93600
C  10.63800 47.90000 24.15000
C  10.34500 47.82300 22.59000
C  8.76700 47.68500 22.62300
C  8.47700 47.46700 24.13800
C  10.82900 48.96800 21.67100
C  8.07200 46.54700 21.70800
C  7.28600 47.03000 20.43800
N  7.65400 47.00000 27.05200
C  6.80600 46.87200 25.98000
C  5.48300 46.58500 26.43200
C  5.58100 46.50600 27.89400
C  6.96200 46.78000 28.19200
C  4.28000 46.34300 25.59500
C  4.86800 46.30100 29.15300
O  3.70800 46.00400 29.45000
C  6.02600 46.41700 30.33300
C  6.06300 45.10100 31.05500
O  6.90700 44.24100 30.92400
O  5.20200 45.10000 32.12300
C  5.17400 43.91500 33.03800
H  12.54500 48.81000 30.17700
H  12.76200 48.16900 23.90800
H  6.49900 46.83000 23.89300
H  8.06900 48.08300 31.91500
H  10.96000 47.66400 31.85400
H  11.18800 49.92300 32.36800
H  9.45100 50.08300 32.52200
H  10.18100 50.38800 30.95900
H  9.03600 45.21900 31.73500
H  7.92100 45.95100 32.86900
H  10.17100 47.10800 33.80900
H  10.69200 45.38000 33.17000
H  14.99700 50.19800 28.68500
H  15.65500 48.45200 28.59900
H  14.48700 48.97100 29.81300
H  15.95300 50.13600 26.53700
H  16.99200 49.54100 25.16800
H  16.59400 48.45500 26.56300
H  10.86800 46.94100 22.21900
H  8.22200 48.62100 22.50600
H  11.27800 49.78800 22.23200
H  10.08000 49.44200 21.03700
H  11.71000 48.71900 21.07900
H  7.53900 45.86500 22.37100
H  8.91200 45.96500 21.33000
H  7.99100 47.27100 19.64200
H  6.87500 48.02600 20.60300
H  6.65800 46.19800 20.12000
H  3.97900 47.31500 25.20400
H  3.42400 45.90400 26.10700
H  4.57100 45.72300 24.74600
H  5.65200 47.14200 31.05700
H  5.33900 44.26700 34.05600
H  5.99100 43.22900 32.81500
H  4.14500 43.55600 33.06700

