158

Mg 40.86400 9.53100 29.32700
C  42.81500 10.90900 32.12200
C  38.75700 8.25300 31.83900
C  39.14500 8.29700 26.95000
C  43.48500 10.45800 27.19300
N  40.82500 9.70900 31.75500
C  41.66000 10.29600 32.63700
C  41.19000 10.16600 34.15100
C  40.13100 8.94500 34.00500
C  39.85400 8.99500 32.47100
C  40.59600 7.47000 34.39600
C  40.71700 11.44000 34.87200
C  41.56400 11.95900 36.04700
H  40.80700 12.49100 37.33600
N  39.20400 8.37000 29.32800
C  38.42800 8.01500 30.46300
C  37.24700 7.35800 29.92600
C  37.28500 7.48400 28.54100
C  38.53800 8.06600 28.19300
C  36.12900 6.92200 30.87900
C  36.14700 7.14300 27.55400
O  36.32800 7.28500 26.33700
C  34.84100 6.69800 27.99300
N  41.17800 9.42400 27.37400
C  40.28500 8.85200 26.53900
C  40.90800 8.77500 25.08600
C  42.16100 9.63700 25.14900
C  42.28600 9.92700 26.62900
C  41.08800 7.33200 24.45400
C  42.10800 10.93700 24.28200
C  43.10400 10.95900 23.12000
N  42.79700 10.42400 29.56300
C  43.71800 10.71200 28.55100
C  44.88900 11.33400 29.16100
C  44.55800 11.50500 30.50600
C  43.30300 10.89900 30.74300
C  46.15700 11.76800 28.41200
C  44.91900 12.08700 31.85000
O  45.94300 12.66700 32.20000
C  43.88200 11.67100 32.86100
C  44.52200 10.90900 33.91500
O  44.97100 9.78600 33.83900
O  44.64800 11.70900 35.02100
C  45.47800 11.17700 36.05400
H  38.19100 7.72500 32.60900
H  38.50100 7.91600 26.15400
H  44.32200 10.80800 26.58600
H  42.01600 9.78900 34.75400
H  39.18500 9.10700 34.52200
H  41.60900 7.50600 34.79700
H  40.56900 6.70400 33.62200
H  39.96400 7.17700 35.23400
H  39.68400 11.27300 35.17700
H  40.65400 12.18000 34.07400
H  42.27400 12.64000 35.57900
H  42.10000 11.06500 36.36800
H  35.34000 7.67200 30.91000
H  36.50800 6.90000 31.90100
H  35.79400 5.91400 30.63400
H  34.52700 7.37100 28.79100
H  35.02200 5.73500 28.47000
H  34.25800 6.65800 27.07300
H  40.20500 9.15000 24.34300
H  43.02300 9.06100 24.81600
H  42.08900 6.92100 24.59100
H  40.82800 7.31000 23.39600
H  40.40300 6.63300 24.93400
H  42.17700 11.83100 24.90200
H  41.14500 11.00300 23.77700
H  43.86200 11.74200 23.14900
H  42.55500 11.15500 22.19900
H  43.66600 10.03700 22.96700
H  46.87600 12.18000 29.12000
H  45.95600 12.48900 27.61900
H  46.61300 10.88300 27.97000
H  43.69900 12.65000 33.30600
H  46.41600 10.84800 35.60800
H  44.92400 10.34900 36.49700
H  45.63400 11.94800 36.80900
Mg -1.63100 34.88000 27.94500
C  -3.67900 32.93100 29.86700
C  -0.76800 36.65900 30.66600
C  0.08100 36.87800 25.86600
C  -2.79700 33.04500 25.04000
N  -2.39600 35.01200 29.93700
C  -3.05100 33.99300 30.56300
C  -2.99600 34.18000 32.09000
C  -2.28300 35.54400 32.30900
C  -1.81200 35.82100 30.91000
C  -3.13100 36.72200 32.89200
C  -2.20900 32.99500 32.77500
C  -2.90500 32.45400 34.05000
H  -2.19700 32.44500 35.42400
N  -0.48700 36.54400 28.21900
C  -0.23100 37.10000 29.42900
C  0.70600 38.11200 29.25600
C  0.92500 38.22300 27.88800
C  0.15500 37.20200 27.23500
C  1.19900 38.81200 30.52900
C  1.83400 39.23400 27.22900
O  2.04300 39.39700 26.04100
C  2.58400 40.12000 28.17700
N  -1.33300 34.83700 25.77900
C  -0.53500 35.84200 25.20000
C  -0.36600 35.52600 23.69300
C  -1.35900 34.35700 23.35900
C  -1.82300 34.02500 24.79900
C  -0.63900 36.77500 22.76100
C  -0.70700 33.07800 22.74800
C  -1.61000 32.29300 21.76500
N  -2.91100 33.35300 27.48300
C  -3.31100 32.72700 26.31000
C  -4.35800 31.75200 26.61500
C  -4.38200 31.75600 28.01400
C  -3.58000 32.74500 28.49700
C  -5.13900 31.08600 25.61500
C  -5.04300 31.04800 29.11000
O  -5.85000 30.14000 29.05300
C  -4.60300 31.87200 30.34100
C  -5.78000 32.51400 30.96200
O  -6.62300 33.18400 30.43900
O  -5.90400 32.00500 32.25000
C  -6.94900 32.57300 33.15200
H  -0.45700 37.15900 31.58600
H  0.79600 37.46700 25.28800
H  -3.12400 32.52600 24.13600
H  -4.01100 34.32600 32.45900
H  -1.47600 35.43300 33.03400
H  -3.66300 36.18700 33.67900
H  -3.66300 37.16500 32.05000
H  -2.49500 37.43200 33.42100
H  -1.17200 33.25100 32.99600
H  -2.00600 32.17900 32.08100
H  -3.08100 31.41200 33.78100
H  -3.85600 32.96000 34.21700
H  1.86500 38.10600 31.02500
H  0.40100 38.92500 31.26200
H  1.69900 39.78000 30.49300
H  3.13600 39.54700 28.92100
H  1.86000 40.85000 28.53900
H  3.20000 40.82800 27.62200
H  0.66600 35.24000 23.49000
H  -2.22800 34.68500 22.78800
H  -1.48200 36.60600 22.09100
H  0.23400 37.06500 22.17800
H  -0.96000 37.61800 23.37200
H  -0.47600 32.46300 23.61800
H  0.22500 33.35300 22.25500
H  -1.79700 31.35000 22.27900
H  -1.13400 31.94400 20.84900
H  -2.59200 32.71200 21.54800
H  -4.47800 30.51700 24.96100
H  -5.76000 31.83000 25.11700
H  -5.82300 30.37000 26.07100
H  -4.15400 31.31500 31.16400
H  -6.71200 33.42800 33.78600
H  -7.35000 31.75200 33.74600
H  -7.83000 32.90500 32.60100

