158

Mg 47.24900 14.49800 27.65700
C  45.39800 14.73800 30.70900
C  49.46900 16.74000 28.92300
C  48.61100 14.81300 24.60100
C  44.49800 12.88000 26.41200
N  47.43500 15.59800 29.64700
C  46.54800 15.48800 30.65300
C  47.13400 16.28000 31.87500
C  48.19600 17.23000 31.16200
C  48.43200 16.52500 29.83300
C  47.80500 18.69400 30.90700
C  47.75600 15.23600 32.92900
C  47.03500 15.18200 34.31200
H  48.01300 15.11900 35.49700
N  48.98500 15.42800 26.94800
C  49.80300 16.23900 27.63000
C  50.89000 16.67500 26.79400
C  50.59400 16.17300 25.50600
C  49.37800 15.41900 25.60000
C  51.99600 17.59600 27.19300
C  51.29500 16.37300 24.18800
O  51.04300 15.74700 23.14900
C  52.36200 17.45900 24.07600
N  46.60800 14.00000 25.80400
C  47.36300 14.16800 24.68900
C  46.68000 13.51300 23.48400
C  45.54900 12.64200 24.15600
C  45.59300 13.18900 25.60000
C  46.18300 14.61700 22.43800
C  45.72500 11.10200 23.97500
C  46.97100 10.43400 24.68600
N  45.37200 13.81200 28.36900
C  44.27600 13.24100 27.72800
C  43.27700 12.90200 28.64700
C  43.65900 13.38700 29.88200
C  44.90100 14.00900 29.62200
C  41.97600 12.22000 28.35600
C  43.35600 13.58900 31.29200
O  42.33100 13.31100 31.94800
C  44.49700 14.48800 31.89200
C  43.89800 15.62500 32.57500
O  43.55500 16.71200 32.07300
O  43.66000 15.34900 33.93800
C  43.00000 16.37100 34.63000
H  50.06300 17.56500 29.32300
H  48.94700 14.88300 23.56400
H  43.70000 12.26600 25.99000
H  46.34300 16.84200 32.37000
H  49.05000 17.41800 31.81400
H  46.72300 18.71000 31.03800
H  47.82200 18.97100 29.85300
H  48.39600 19.38900 31.50400
H  48.79100 15.50100 33.14500
H  47.75200 14.22600 32.51800
H  46.55600 14.21000 34.42900
H  46.29200 15.96300 34.47500
H  52.11500 17.50700 28.27300
H  51.68100 18.59800 26.90300
H  52.98600 17.44400 26.76200
H  53.28900 17.33600 24.63600
H  51.92800 18.41600 24.36600
H  52.69900 17.52700 23.04200
H  47.39500 12.89800 22.93700
H  44.62400 12.93500 23.65900
H  45.44300 15.25800 22.91800
H  45.84600 14.07700 21.55300
H  46.99600 15.27600 22.13000
H  45.82000 10.97500 22.89600
H  44.80800 10.61000 24.30100
H  46.53600 9.81500 25.47100
H  47.57600 11.23100 25.12000
H  47.43700 9.72900 23.99800
H  41.59700 12.09100 29.37000
H  41.94700 11.21500 27.93600
H  41.36600 12.86400 27.72100
H  45.00400 13.82600 32.59500
H  43.51400 16.37800 35.59100
H  42.02500 16.04400 34.99000
H  43.00400 17.39700 34.26100
Mg 35.72000 49.59700 25.75800
C  35.30700 47.81100 28.73100
C  34.91800 52.41800 27.54500
C  35.90000 51.19300 22.85900
C  36.27500 46.52600 24.13900
N  35.01600 50.01000 27.88400
C  35.06900 49.15700 28.91800
C  34.90500 49.88800 30.28200
C  34.58900 51.31000 29.80700
C  34.88100 51.29000 28.32300
C  33.14000 51.98800 30.06100
C  36.26800 49.72300 31.00500
C  36.30800 49.58000 32.49400
H  35.07200 49.85100 33.36900
N  35.46300 51.51000 25.29300
C  35.16800 52.53400 26.12500
C  34.91700 53.75500 25.45600
C  35.21700 53.48500 24.09000
C  35.50500 51.96600 23.98800
C  34.75600 55.09700 26.21100
C  35.23000 54.55400 22.99500
O  35.64300 54.28300 21.84000
C  34.94100 56.07900 23.31200
N  35.88200 48.86400 23.69700
C  36.17000 49.80200 22.78300
C  36.55000 49.17100 21.45200
C  36.90500 47.71100 21.94700
C  36.36000 47.67600 23.35900
C  35.42300 49.27200 20.37200
C  38.41900 47.28700 21.80800
C  38.55100 45.87600 21.20200
N  35.72600 47.55000 26.26000
C  35.93000 46.46100 25.51900
C  35.99400 45.26200 26.35500
C  35.74800 45.75700 27.67100
C  35.59900 47.16900 27.56000
C  36.19600 43.81300 25.90000
C  35.59400 45.37000 29.00500
O  35.46500 44.23000 29.48800
C  35.42200 46.71600 29.79200
C  34.21100 46.47700 30.61100
O  33.07200 46.69600 30.25700
O  34.42000 45.83500 31.82600
C  33.40300 45.83700 32.86200
H  34.60500 53.30600 28.09800
H  35.99500 51.76700 21.93400
H  36.69000 45.60700 23.72200
H  34.11000 49.45000 30.88600
H  35.33600 51.97500 30.24200
H  33.24900 52.78200 30.80000
H  32.63200 51.17200 30.57400
H  32.68300 52.37200 29.14900
H  36.86300 50.59700 30.74000
H  36.76800 48.86700 30.55100
H  37.16300 50.18500 32.79500
H  36.48300 48.52000 32.67900
H  33.88200 55.74000 26.10800
H  35.65100 55.70900 26.10900
H  34.73400 54.97700 27.29400
H  35.17300 56.64000 22.40600
H  35.71200 56.31300 24.04600
H  33.94300 56.29700 23.69100
H  37.49100 49.58500 21.09000
H  36.16400 47.05300 21.49200
H  35.65500 48.84900 19.39400
H  35.25900 50.34000 20.23000
H  34.54800 48.66200 20.59500
H  39.00400 47.28900 22.72800
H  38.85600 48.00900 21.11900
H  38.63300 45.90700 20.11500
H  37.68000 45.25100 21.39900
H  39.26800 45.28000 21.76600
H  35.67800 43.51000 24.99000
H  35.78500 43.08300 26.59700
H  37.27800 43.69300 25.83900
H  36.34900 46.84000 30.35200
H  33.84000 46.28400 33.75500
H  33.06700 44.81400 33.03000
H  32.56800 46.50400 32.64600

