158

Mg 49.13100 45.60400 41.03400
C  45.84600 46.58900 40.20100
C  48.76200 42.56200 39.56600
C  52.54600 44.96400 41.39900
C  49.72400 48.93800 42.10300
N  47.49800 44.78400 39.97000
C  46.25300 45.25300 39.83000
C  45.40500 44.15600 39.07600
C  46.23000 42.90900 39.31400
C  47.61600 43.41200 39.58200
C  45.75300 41.97600 40.53900
C  45.36200 44.51100 37.54400
C  44.22000 43.83800 36.78800
H  44.40500 43.78500 35.28500
N  50.43700 43.88700 40.68000
C  50.01700 42.77500 40.04700
C  51.14700 41.88500 40.04500
C  52.24400 42.53500 40.65400
C  51.77600 43.89700 40.90500
C  51.05900 40.49200 39.54300
C  53.53900 41.88000 41.06900
O  53.83900 40.75100 40.68300
C  54.58200 42.43300 41.98100
N  51.00900 46.81400 41.78400
C  52.24900 46.32600 41.81700
C  53.22000 47.44400 42.13700
C  52.33100 48.72400 42.44600
C  50.90500 48.14600 42.12500
C  54.33000 47.20600 43.20700
C  52.68600 50.09700 41.70400
C  53.68900 50.99300 42.45700
N  48.07900 47.39000 41.09300
C  48.43400 48.63000 41.51600
C  47.33200 49.58600 41.29600
C  46.26300 48.80900 40.82700
C  46.81800 47.51600 40.68000
C  47.26600 51.08600 41.56000
C  44.86300 48.78200 40.49900
O  44.01400 49.69700 40.52000
C  44.52900 47.31300 39.96700
C  43.41300 46.76200 40.74600
O  43.51500 46.33800 41.83800
O  42.26100 46.65800 39.99800
C  41.12100 45.86800 40.51200
H  48.58300 41.52300 39.28000
H  53.62400 44.79100 41.42400
H  49.94300 49.97600 42.36300
H  44.39500 44.08200 39.47900
H  46.35700 42.24500 38.45900
H  44.77200 42.26900 40.91300
H  46.19800 42.06800 41.53000
H  45.72500 40.92400 40.25800
H  46.27700 44.21000 37.03400
H  45.40300 45.59400 37.42300
H  43.22200 44.23100 36.98000
H  44.07800 42.81200 37.12600
H  51.78000 40.21000 38.77500
H  50.13400 40.21200 39.04000
H  51.23900 39.76300 40.33300
H  55.27700 42.95300 41.32200
H  54.97200 41.52900 42.44900
H  54.14300 43.14000 42.68500
H  53.75900 47.75700 41.24200
H  52.48800 48.82100 43.52000
H  54.56000 46.14800 43.33900
H  54.14900 47.67800 44.17300
H  55.14300 47.78100 42.76400
H  51.78000 50.67800 41.53000
H  53.04600 49.93800 40.68800
H  54.58200 51.22300 41.87500
H  54.03600 50.41100 43.31100
H  53.18500 51.92800 42.69800
H  46.27100 51.44100 41.83000
H  47.54100 51.55500 40.61600
H  47.93700 51.20000 42.41200
H  44.21800 47.20000 38.92900
H  40.22300 46.25300 40.02900
H  40.82300 46.07000 41.54100
H  41.21100 44.79600 40.33700
Mg 29.36700 58.89400 41.26000
C  26.76300 56.91000 39.99600
C  31.56700 56.86600 39.84100
C  31.65800 61.37600 41.66200
C  26.83600 61.18700 42.38200
N  29.15000 57.17600 39.88600
C  28.05600 56.48100 39.62100
C  28.34000 55.34400 38.64300
C  29.87500 55.16300 38.85300
C  30.24400 56.45800 39.63200
C  30.25800 53.79500 39.67600
C  27.85300 55.77800 37.25700
C  26.99800 54.77100 36.45500
H  27.34400 54.50100 34.99000
N  31.32700 59.12100 40.73700
C  32.10600 58.13500 40.26700
C  33.46600 58.53500 40.22600
C  33.57300 59.85300 40.82100
C  32.17700 60.16300 41.12800
C  34.55000 57.75200 39.40700
C  34.77700 60.72500 41.07100
O  35.92600 60.31200 40.78200
C  34.68300 62.05700 41.60500
N  29.27200 60.96800 42.00600
C  30.36300 61.76000 42.08800
C  29.94000 63.12800 42.56300
C  28.45700 63.06700 42.82000
C  28.16600 61.67900 42.32600
C  30.70300 63.77100 43.65000
C  27.59400 64.24100 42.14400
C  26.54300 64.70600 43.15200
N  27.20000 58.92800 41.41900
C  26.34100 59.91300 41.91100
C  25.01900 59.41500 41.74500
C  25.09000 58.26500 41.02600
C  26.47700 58.08600 40.76600
C  23.68100 60.08800 42.17200
C  24.40200 57.16700 40.44100
O  23.23200 56.94900 40.46300
C  25.42000 56.27400 39.68900
C  25.26600 54.98600 40.27100
O  25.79300 54.63300 41.35400
O  24.60500 54.16500 39.36300
C  24.85700 52.71100 39.52700
H  32.22700 56.04600 39.55000
H  32.28700 62.25400 41.82200
H  26.08200 61.86300 42.79100
H  27.88100 54.44400 39.05300
H  30.34900 55.17500 37.87200
H  29.35400 53.29800 40.02700
H  30.77000 54.00000 40.61700
H  30.77700 53.09300 39.02300
H  28.72100 55.95200 36.62200
H  27.29400 56.69000 37.46400
H  25.98400 55.16900 36.46900
H  26.87500 53.83700 37.00400
H  34.63600 56.74500 39.81500
H  35.56700 58.14600 39.39700
H  34.26200 57.64600 38.36100
H  34.22900 62.74600 40.89400
H  35.72400 62.38000 41.64500
H  34.26100 62.08300 42.60900
H  30.01400 63.84000 41.74100
H  28.25600 63.01900 43.89100
H  31.69300 63.33200 43.77100
H  30.25800 63.53400 44.61600
H  30.85600 64.84300 43.52900
H  27.03700 63.95100 41.25300
H  28.17600 65.13200 41.90600
H  25.57100 64.51100 42.70000
H  26.68600 65.78500 43.22100
H  26.58400 64.29500 44.16100
H  22.91000 59.36700 41.89900
H  23.53800 60.94000 41.50800
H  23.52500 60.44400 43.19000
H  25.19700 56.29700 38.62300
H  24.06700 52.25600 40.12400
H  25.69400 52.51500 40.19700
H  25.07400 52.11500 38.64000

