158

Mg 41.55100 9.45800 29.69400
C  43.27300 10.87700 32.39100
C  39.09300 8.53200 31.85900
C  40.07400 8.10100 27.08000
C  44.33900 10.16000 27.65300
N  41.32700 9.61800 31.91900
C  42.08200 10.26400 32.81700
C  41.42600 10.34300 34.14800
C  40.32600 9.25000 34.08200
C  40.21100 9.09400 32.51700
C  40.59300 7.91300 34.87700
C  40.83800 11.73200 34.59000
C  40.21100 11.83900 36.05000
H  40.85800 12.68100 37.20800
N  39.77700 8.46600 29.50100
C  38.81500 8.29400 30.44300
C  37.54000 7.82900 29.87200
C  37.92900 7.51600 28.54100
C  39.25300 8.07900 28.32900
C  36.28200 7.53400 30.68900
C  37.05200 6.95100 27.42600
O  37.40900 6.88800 26.23300
C  35.60900 6.60900 27.71700
N  42.24700 8.92100 27.57700
C  41.39500 8.38800 26.75500
C  41.92500 8.61100 25.28300
C  43.27600 9.30100 25.50500
C  43.25000 9.51300 27.05600
C  42.05500 7.30200 24.42800
C  43.48700 10.67800 24.78600
C  42.65000 11.96700 25.18000
N  43.42500 10.31600 29.93800
C  44.41200 10.56100 28.99600
C  45.55200 11.23500 29.65700
C  45.10100 11.46500 30.95500
C  43.76500 10.86300 31.10300
C  46.80000 11.76000 28.88900
C  45.42300 12.10700 32.24100
O  46.40300 12.79400 32.54500
C  44.23200 11.68900 33.22800
C  44.93300 10.93500 34.37400
O  45.58700 9.93300 34.31800
O  44.70800 11.62100 35.53600
C  45.01600 10.98400 36.76500
H  38.24300 8.43300 32.53700
H  39.55200 7.75400 26.18500
H  45.18600 10.46400 27.03500
H  42.06600 10.01100 34.96500
H  39.36000 9.59000 34.45500
H  40.33100 7.00400 34.33600
H  40.01600 8.02700 35.79400
H  41.62800 7.91800 35.22000
H  40.14200 11.98100 33.78900
H  41.72300 12.36700 34.55000
H  40.16300 10.86100 36.52900
H  39.20900 12.24400 35.90500
H  36.42600 7.81500 31.73300
H  36.19600 6.44800 30.68100
H  35.45800 8.05300 30.20000
H  34.91700 7.39600 28.01800
H  35.64900 5.81500 28.46200
H  35.15200 6.13000 26.85100
H  41.30700 9.42600 24.90800
H  44.18300 8.75000 25.25600
H  42.94900 6.80900 24.81000
H  42.19500 7.61300 23.39300
H  41.20900 6.70300 24.76400
H  43.27200 10.50500 23.73200
H  44.54100 10.91300 24.93200
H  43.45700 12.67500 25.37000
H  42.10700 11.82000 26.11300
H  41.97100 12.33100 24.41000
H  46.86200 11.22900 27.94000
H  47.71700 11.50900 29.42300
H  46.67200 12.83900 28.80400
H  43.89600 12.66700 33.57200
H  45.59100 10.06400 36.65900
H  44.09800 10.69500 37.27600
H  45.53200 11.73700 37.36100
Mg 49.08300 46.82800 42.81000
C  45.70000 47.03600 42.15500
C  49.10100 43.50600 42.10400
C  52.47800 46.85400 43.12800
C  49.11200 50.33300 43.29900
N  47.63100 45.55300 41.99600
C  46.25700 45.80300 41.84000
C  45.57300 44.56800 41.25200
C  46.61400 43.41800 41.42000
C  47.85500 44.24100 41.91000
C  46.29000 42.33700 42.47500
C  45.09700 44.93000 39.80400
C  43.86500 44.10500 39.19200
H  44.17700 43.04100 38.07600
N  50.62800 45.37500 42.53400
C  50.43900 44.03200 42.18900
C  51.70900 43.38600 41.97200
C  52.72900 44.31500 42.37700
C  51.98400 45.61700 42.67500
C  51.88500 41.86500 41.58000
C  54.19400 44.04300 42.47100
O  54.58300 42.87500 42.28700
C  55.33300 45.09200 42.78300
N  50.58200 48.43000 43.00300
C  51.86600 48.15100 43.30200
C  52.69900 49.47700 43.59900
C  51.61900 50.61400 43.54400
C  50.39400 49.76500 43.26700
C  53.46800 49.53600 44.95000
C  51.89400 51.75400 42.56900
C  51.81400 51.47800 41.01000
N  47.73900 48.39700 42.79200
C  47.87200 49.74500 43.08100
C  46.54800 50.38500 43.11100
C  45.67000 49.35500 42.72000
C  46.40200 48.20800 42.58200
C  46.31700 51.89600 43.39100
C  44.29200 49.05600 42.42000
O  43.35400 49.84100 42.51200
C  44.18000 47.52400 42.02900
C  43.30600 46.84600 43.04200
O  43.63000 46.56300 44.18600
O  42.04000 46.66000 42.50100
C  41.18300 45.96200 43.50600
H  49.09500 42.42200 41.97100
H  53.56700 46.87900 43.19700
H  49.03900 51.41500 43.42900
H  44.62500 44.39900 41.76400
H  46.73400 42.81700 40.51900
H  46.59800 41.30000 42.34100
H  45.21000 42.21800 42.56100
H  46.80300 42.62900 43.39100
H  45.97200 44.96500 39.15500
H  44.80900 45.98100 39.81400
H  43.15800 44.84300 38.81100
H  43.35500 43.52500 39.96100
H  50.98900 41.31800 41.87300
H  52.69300 41.42300 42.16200
H  52.20900 41.73700 40.54700
H  55.15100 45.87200 42.04400
H  56.35300 44.70900 42.77300
H  55.10200 45.50800 43.76400
H  53.50700 49.67200 42.89300
H  51.50100 51.06300 44.53000
H  53.12100 48.71800 45.58100
H  53.44100 50.47300 45.50500
H  54.52500 49.42600 44.70800
H  52.93400 52.03800 42.73200
H  51.37500 52.61400 42.99200
H  51.55000 50.43500 40.83400
H  52.75000 51.86800 40.61000
H  51.04300 52.08500 40.53500
H  45.24700 51.99200 43.57700
H  46.59000 52.40500 42.46700
H  46.81000 52.23000 44.30400
H  43.67700 47.42300 41.06700
H  41.67000 45.03400 43.80700
H  40.22900 45.66000 43.07300
H  41.02400 46.58700 44.38400

