158

Mg 2.29500 -1.13600 43.38500
C  5.70800 -0.88200 43.04400
C  2.01600 1.48000 41.21400
C  -1.12800 -1.78500 43.21700
C  2.64700 -4.28000 44.79800
N  3.72800 0.00000 42.12600
C  5.05500 0.03200 42.21900
C  5.67300 1.00100 41.22300
C  4.47100 1.95100 41.00500
C  3.32700 1.13400 41.45200
C  4.57500 3.32900 41.82800
C  6.26700 0.33000 39.90800
C  7.35700 1.25900 39.18400
H  6.93900 2.18700 38.06400
N  0.64200 -0.18600 42.48800
C  0.80600 0.87300 41.60000
C  -0.46800 1.37700 41.31800
C  -1.45400 0.53800 42.00500
C  -0.67400 -0.56500 42.61000
C  -0.72100 2.62600 40.39200
C  -2.93100 0.66900 41.81800
O  -3.43600 1.64000 41.23100
C  -3.86300 -0.22300 42.53800
N  0.94800 -2.85800 43.68900
C  -0.46100 -2.91400 43.60100
C  -0.99500 -4.22200 44.10500
C  0.25100 -4.96200 44.72900
C  1.36900 -3.99300 44.30500
C  -2.23000 -4.11800 45.03600
C  0.40000 -6.42800 44.27800
C  -0.51900 -7.44800 45.03600
N  3.83400 -2.28000 43.98300
C  3.83500 -3.52100 44.55200
C  5.24500 -3.92000 44.78000
C  6.00800 -2.82400 44.36100
C  5.12500 -1.94100 43.81800
C  5.66300 -5.18400 45.38100
C  7.37100 -2.26500 44.17400
O  8.43600 -2.71700 44.54000
C  7.24700 -0.96300 43.31700
C  7.71800 0.19100 44.24600
O  7.78300 0.16800 45.45000
O  7.96400 1.35300 43.53500
C  8.22900 2.58600 44.31300
H  1.98900 2.42400 40.66500
H  -2.17900 -2.07700 43.15200
H  2.84800 -5.18600 45.37300
H  6.46800 1.60300 41.66100
H  4.30500 2.00300 39.92900
H  5.41200 3.20300 42.51500
H  3.68200 3.50200 42.42900
H  4.82700 4.12900 41.13200
H  5.43600 0.18600 39.21700
H  6.64000 -0.66200 40.16400
H  8.02700 0.52100 38.74200
H  8.00300 1.81800 39.86100
H  -1.62800 2.37800 39.84200
H  0.03700 2.92200 39.66600
H  -0.97100 3.45700 41.05100
H  -3.90400 -1.15300 41.97100
H  -4.83800 0.24800 42.66500
H  -3.38300 -0.26100 43.51600
H  -1.40700 -4.73100 43.23400
H  0.25800 -4.89100 45.81700
H  -2.31800 -3.10200 45.42000
H  -2.14300 -4.76700 45.90800
H  -3.13100 -4.38200 44.48300
H  1.42400 -6.79300 44.36400
H  0.09900 -6.48900 43.23200
H  -1.04500 -6.96000 45.85700
H  0.12400 -8.25200 45.39500
H  -1.19600 -7.89800 44.31000
H  6.74900 -5.26800 45.40600
H  5.24700 -6.07700 44.91400
H  5.27400 -5.20700 46.39900
H  7.86900 -1.11200 42.43400
H  8.11000 2.60500 45.39700
H  7.48600 3.33800 44.04700
H  9.13500 3.15800 44.11000
Mg 41.90800 41.36600 26.26200
C  41.06500 43.97300 28.52700
C  42.72600 39.37100 28.92000
C  42.97400 39.10700 24.01000
C  41.39700 43.75900 23.67500
N  41.92400 41.68700 28.39200
C  41.47400 42.80100 29.09000
C  41.37900 42.49700 30.58700
C  41.99800 41.14600 30.69100
C  42.28500 40.69100 29.21800
C  43.11400 40.90900 31.70300
C  39.89300 42.60300 31.09600
C  39.51500 41.95100 32.46800
H  38.72200 42.84100 33.46100
N  42.77900 39.51400 26.46200
C  42.95400 38.80000 27.60500
C  43.35700 37.47400 27.30100
C  43.29200 37.31700 25.87400
C  42.97300 38.67400 25.40500
C  43.67400 36.43500 28.39600
C  43.43800 36.04500 24.99600
O  43.28900 35.97900 23.80000
C  43.85600 34.69000 25.67400
N  42.22700 41.46100 24.18000
C  42.65800 40.37900 23.43900
C  42.33500 40.52700 21.87600
C  41.84100 42.02800 21.81800
C  41.78100 42.43500 23.29700
C  43.55700 40.34000 20.92900
C  40.48700 42.20200 21.13500
C  39.25700 42.08500 21.96700
N  41.32000 43.42500 26.11100
C  41.20000 44.26600 24.97400
C  40.84200 45.60400 25.38500
C  40.88100 45.54600 26.76100
C  41.11100 44.18300 27.12800
C  40.54900 46.79000 24.52500
C  40.58800 46.37300 27.97800
O  40.31500 47.52200 28.16800
C  40.69400 45.32300 29.14400
C  41.70500 45.76200 30.19900
O  42.88900 45.76200 30.09000
O  41.11100 45.92400 31.40200
C  41.93200 46.27600 32.66800
H  42.94100 38.77900 29.81200
H  43.07300 38.35800 23.22100
H  41.24200 44.51100 22.89800
H  41.95900 43.22300 31.15600
H  41.16900 40.47300 30.91000
H  43.18700 41.81400 32.30600
H  44.04000 40.77400 31.14500
H  42.90800 40.15100 32.45800
H  39.25400 42.17000 30.32700
H  39.74500 43.68000 31.16800
H  40.44200 41.71400 32.99100
H  39.07600 40.96700 32.30400
H  43.20500 36.71700 29.33900
H  44.72400 36.61900 28.62300
H  43.43000 35.45900 27.97800
H  43.06100 34.42600 26.37200
H  44.78000 34.90000 26.21200
H  43.95900 33.89900 24.93100
H  41.54800 39.85300 21.53700
H  42.55900 42.62200 21.25400
H  44.26000 40.88800 21.55700
H  43.55000 40.76900 19.92700
H  43.75500 39.27300 21.02300
H  40.34100 41.51800 20.30000
H  40.57100 43.22500 20.76800
H  39.26200 41.28700 22.71100
H  38.44000 41.86000 21.28200
H  38.96100 43.04100 22.39800
H  39.48500 46.92200 24.33100
H  41.10700 46.68600 23.59400
H  41.01900 47.63500 25.02900
H  39.67600 45.26400 29.52900
H  41.87500 47.31600 32.98900
H  42.97100 46.05900 32.42200
H  41.56800 45.56500 33.40900

