158

Mg 24.18800 -5.09300 45.72200
C  26.07300 -2.41900 44.57500
C  21.63400 -3.97600 43.74100
C  22.71900 -8.12700 46.03800
C  27.16500 -6.48300 47.09000
N  23.88700 -3.41800 44.38700
C  24.75000 -2.36100 44.14000
C  24.10500 -1.36800 43.21800
C  22.58300 -1.70600 43.28400
C  22.68300 -3.15700 43.79400
C  21.80100 -0.88100 44.20100
C  24.76800 -1.18700 41.76800
C  25.22400 -2.44400 41.11400
H  26.02900 -2.29800 39.71000
N  22.33800 -5.95200 45.04000
C  21.44400 -5.28700 44.27000
C  20.36600 -6.13500 44.07000
C  20.51600 -7.30200 44.90600
C  21.91100 -7.18900 45.38600
C  19.21600 -5.61200 43.27100
C  19.48900 -8.50000 45.06500
O  18.44400 -8.51700 44.44700
C  19.82100 -9.57500 46.04100
N  24.87400 -7.05300 46.37400
C  23.99700 -8.11600 46.46700
C  24.57500 -9.22700 47.32900
C  25.95200 -8.64300 47.80500
C  26.01200 -7.29600 47.07200
C  23.66900 -9.66500 48.55500
C  27.08100 -9.54500 47.26400
C  28.51500 -9.46000 47.95500
N  26.13700 -4.52800 45.98400
C  27.18900 -5.18900 46.55300
C  28.32900 -4.33800 46.50900
C  27.94600 -3.26000 45.77200
C  26.58500 -3.38100 45.43600
C  29.72200 -4.60500 46.98100
C  28.43400 -2.01100 45.15600
O  29.45600 -1.36600 45.25200
C  27.22700 -1.54800 44.23600
C  27.08000 -0.03800 44.34200
O  26.43200 0.59100 45.16100
O  27.89100 0.53100 43.37100
C  27.86900 1.98800 43.29800
H  20.77800 -3.69800 43.12300
H  22.27500 -9.12000 46.13200
H  28.02300 -6.90500 47.61800
H  24.26400 -0.37400 43.63500
H  22.20700 -1.58800 42.26700
H  22.26000 -0.90900 45.19000
H  20.85400 -1.41800 44.24900
H  21.69100 0.18900 44.02400
H  25.61400 -0.50400 41.68800
H  23.87800 -0.93600 41.19200
H  24.33000 -3.05200 40.97800
H  25.83800 -3.01900 41.80700
H  18.87500 -4.69900 43.75900
H  18.31600 -6.22600 43.24000
H  19.57600 -5.60100 42.24300
H  19.02000 -10.09000 46.57200
H  20.38300 -9.07700 46.83100
H  20.29300 -10.34500 45.43100
H  24.69000 -10.02100 46.59100
H  26.07000 -8.45800 48.87300
H  22.88300 -8.95000 48.80000
H  24.25100 -9.83200 49.46100
H  23.14100 -10.57600 48.27600
H  27.14600 -9.21800 46.22700
H  26.88600 -10.61800 47.25400
H  29.19800 -9.05300 47.20900
H  28.93200 -10.37500 48.37600
H  28.44200 -8.66600 48.69800
H  29.77200 -4.24400 48.00800
H  30.42100 -4.00900 46.39400
H  29.81500 -5.68900 46.90700
H  27.56200 -1.68400 43.20800
H  26.90000 2.45900 43.45800
H  28.23600 2.37500 42.34700
H  28.57200 2.20900 44.10100
Mg 35.41400 2.99000 29.82700
C  33.12100 3.73000 32.30700
C  37.91100 2.94500 32.12300
C  37.62300 2.65000 27.21700
C  32.82700 3.07400 27.45900
N  35.58300 3.34500 31.94600
C  34.47100 3.57400 32.72700
C  34.89500 3.59000 34.16500
C  36.44900 3.69100 34.05200
C  36.72100 3.37200 32.60800
C  37.06000 5.00700 34.45700
C  34.35400 2.29600 34.99500
C  34.06700 2.34500 36.48100
H  34.70300 3.42400 37.29200
N  37.43800 2.84300 29.67800
C  38.34600 2.84600 30.69700
C  39.67100 2.71100 30.23100
C  39.59900 2.55300 28.79100
C  38.17000 2.66800 28.47700
C  40.83800 2.76000 31.14800
C  40.76700 2.25000 27.72200
O  40.66500 2.19300 26.49000
C  42.24500 2.25900 28.23900
N  35.27700 2.94400 27.67500
C  36.26700 2.70000 26.81600
C  35.76600 2.35900 25.46700
C  34.29700 2.60300 25.53100
C  34.07500 2.88200 27.00800
C  36.52700 3.06100 24.24300
C  33.34600 1.53200 24.91900
C  33.29000 0.05800 25.48500
N  33.37400 3.25600 29.82800
C  32.43100 3.32200 28.77800
C  31.09900 3.67500 29.32200
C  31.33900 3.80400 30.70500
C  32.72600 3.62700 30.95300
C  29.77000 3.84200 28.77100
C  30.69700 4.01300 32.00100
O  29.57400 4.39900 32.32700
C  31.87900 3.96900 33.07000
C  31.86700 5.18900 33.91000
O  31.94800 6.31700 33.46700
O  31.63100 4.82200 35.24200
C  31.64600 5.90500 36.27900
H  38.73900 2.88600 32.83300
H  38.35000 2.53800 26.41000
H  32.02700 3.20400 26.72700
H  34.54200 4.55900 34.52000
H  36.94800 2.98200 34.71200
H  37.71000 5.35200 33.65300
H  37.73200 5.05400 35.31400
H  36.29900 5.78100 34.55500
H  35.03700 1.45600 34.87300
H  33.42000 1.95900 34.54700
H  34.31600 1.35900 36.87200
H  32.99700 2.38500 36.68600
H  41.30600 1.78200 31.26600
H  40.55800 3.28600 32.06000
H  41.58300 3.32000 30.58100
H  42.41400 3.27600 28.59400
H  42.89700 1.97400 27.41400
H  42.41000 1.42600 28.92200
H  35.78300 1.27100 25.39600
H  34.00900 3.51800 25.01300
H  35.81000 3.40000 23.49600
H  37.19800 2.38600 23.71200
H  37.11100 3.94400 24.50100
H  33.55600 1.51200 23.84900
H  32.33400 1.93500 24.91200
H  33.71400 -0.53600 24.67600
H  32.31900 -0.36400 25.74600
H  33.95800 -0.01500 26.34300
H  29.88700 4.29900 27.78800
H  29.14200 4.49000 29.38200
H  29.22600 2.90000 28.69300
H  31.63200 3.09700 33.67500
H  30.68200 6.41000 36.22700
H  32.35700 6.67700 35.98700
H  31.82500 5.45500 37.25500

