158

Mg 25.90100 0.86900 29.56400
C  27.80100 0.48200 32.60500
C  23.23500 1.48300 31.68000
C  24.05800 0.81000 26.91900
C  28.72400 -0.27900 27.86300
N  25.51600 0.76300 31.88100
C  26.48300 0.75100 32.86800
C  25.86100 1.14900 34.27300
C  24.43700 1.47000 33.95200
C  24.36600 1.25300 32.39500
C  23.25500 0.69600 34.58800
C  26.58800 2.26000 35.10400
C  25.71600 3.12600 36.05800
H  26.35000 3.50900 37.39000
N  23.94900 1.21600 29.33400
C  23.00000 1.38100 30.27500
C  21.70500 1.55800 29.57100
C  21.91500 1.40700 28.19600
C  23.33500 1.02500 28.07600
C  20.44300 1.72400 30.29600
C  20.95600 1.46900 27.02600
O  21.26800 1.03100 25.88900
C  19.54100 1.91500 27.26000
N  26.35400 0.40900 27.69500
C  25.42100 0.55600 26.73800
C  26.01900 0.34000 25.33800
C  27.58500 -0.11800 25.64200
C  27.58400 0.07600 27.15500
C  25.26000 -0.53600 24.33200
C  28.66800 0.73300 24.91600
C  29.60600 -0.00800 23.92800
N  27.91100 0.25400 30.04100
C  28.95900 -0.13200 29.21600
C  30.14700 -0.30100 30.00100
C  29.76500 -0.09300 31.32500
C  28.39000 0.19300 31.30400
C  31.49600 -0.74100 29.48800
C  30.14800 -0.12300 32.73800
O  31.23300 -0.33900 33.24500
C  28.92100 0.40900 33.57700
C  28.82000 -0.58500 34.70200
O  28.25800 -1.68000 34.64000
O  29.30900 -0.08500 35.92100
C  29.32100 -1.13600 36.99600
H  22.39700 1.88600 32.25200
H  23.53200 0.62900 25.98000
H  29.59400 -0.59400 27.28200
H  25.83400 0.19000 34.79100
H  24.20800 2.53300 34.02700
H  23.58200 0.03600 35.39200
H  22.77200 0.00700 33.89600
H  22.54000 1.41900 34.98100
H  27.25500 2.81200 34.44300
H  27.31600 1.77700 35.75600
H  24.72200 2.70600 36.21600
H  25.51800 4.01600 35.46200
H  20.18700 2.78300 30.31000
H  20.67700 1.58700 31.35100
H  19.61000 1.07700 30.02000
H  19.53300 2.61700 28.09400
H  18.87600 1.11000 27.57000
H  19.27600 2.39200 26.31700
H  26.14600 1.34100 24.92600
H  27.80900 -1.15300 25.38200
H  24.91800 0.06000 23.48600
H  24.40800 -0.83200 24.94400
H  25.80500 -1.38600 23.92000
H  29.25700 1.32200 25.62000
H  28.08500 1.47100 24.36400
H  30.63700 0.32600 24.04700
H  29.39600 0.42400 22.95000
H  29.69700 -1.08900 24.03400
H  31.48000 -1.37100 28.59900
H  32.03600 -1.16200 30.33600
H  32.03000 0.19400 29.31700
H  29.13500 1.39700 33.98600
H  30.08500 -0.90500 37.73900
H  29.48200 -2.16200 36.66400
H  28.39700 -1.00700 37.55900
Mg 47.55800 33.78500 25.87100
C  45.67700 32.38900 28.69400
C  48.30800 36.32900 27.93000
C  48.87900 35.21600 23.27100
C  46.58300 30.95600 24.07500
N  46.99400 34.25700 28.07900
C  46.31700 33.58800 29.03500
C  46.53500 34.21600 30.39800
C  47.12100 35.56100 30.00100
C  47.55300 35.35000 28.57800
C  46.21800 36.91900 30.20200
C  47.60000 33.39900 31.25000
C  47.59000 33.57100 32.79300
H  46.77800 34.67400 33.49500
N  48.54300 35.55600 25.61200
C  48.74800 36.42800 26.62500
C  49.44000 37.58500 26.07900
C  49.61400 37.35900 24.65300
C  48.98500 36.03500 24.45400
C  50.04400 38.72700 26.86700
C  50.36700 38.16000 23.57900
O  50.32200 37.81800 22.38800
C  50.96500 39.52200 23.96300
N  47.44300 33.36100 23.86400
C  48.19600 34.04600 22.97700
C  48.33200 33.33700 21.67500
C  47.80200 31.86600 22.00800
C  47.25000 32.04800 23.37400
C  47.44800 33.96400 20.52500
C  48.99300 30.84800 21.98700
C  49.34700 30.13900 20.72100
N  46.28500 32.13800 26.20600
C  46.02900 31.04500 25.37500
C  45.33400 30.01000 26.09300
C  45.08200 30.49400 27.34700
C  45.74700 31.79300 27.36900
C  45.12100 28.63600 25.56600
C  44.49400 30.23400 28.68100
O  43.93500 29.27100 29.14900
C  44.70900 31.52300 29.54600
C  45.05600 31.24600 30.96500
O  45.88200 30.47000 31.37400
O  44.14000 31.92500 31.73600
C  44.05400 31.55200 33.21300
H  48.75700 36.98200 28.68200
H  49.37200 35.59900 22.37500
H  46.68900 30.00800 23.54300
H  45.56500 34.30000 30.88900
H  48.02600 35.84100 30.54000
H  46.81800 37.76800 30.53100
H  45.46200 36.79500 30.97700
H  45.81500 37.14500 29.21400
H  48.59500 33.73400 30.95800
H  47.50600 32.33000 31.05800
H  48.64800 33.71600 33.01400
H  47.28500 32.62600 33.24200
H  51.10300 38.78000 26.61400
H  50.03400 38.56800 27.94500
H  49.48500 39.65100 26.71800
H  50.24100 40.11700 24.52000
H  51.26100 40.00600 23.03100
H  51.89200 39.41500 24.52600
H  49.35600 33.46100 21.32200
H  47.03200 31.64400 21.26800
H  48.07700 34.22500 19.67400
H  46.84800 34.81900 20.83600
H  46.60500 33.38100 20.15500
H  48.65200 30.04200 22.63600
H  49.94200 31.13000 22.44400
H  49.37600 29.05100 20.76500
H  50.30000 30.53100 20.36700
H  48.51400 30.37900 20.06000
H  46.00500 28.21800 25.08300
H  44.31500 28.65800 24.83300
H  44.83700 28.02800 26.42500
H  43.90100 32.25400 29.50600
H  44.63300 30.71600 33.60500
H  43.00900 31.34400 33.44400
H  44.42800 32.51400 33.56500

