158

Mg 48.20900 25.34500 27.73300
C  48.94900 27.82700 30.18900
C  47.40500 23.30200 30.44800
C  47.63200 22.81700 25.55900
C  49.62500 27.35100 25.35300
N  48.15100 25.62300 30.07100
C  48.40200 26.72500 30.83500
C  48.12500 26.49800 32.32800
C  48.02800 24.93500 32.39600
C  47.79300 24.57800 30.83400
C  49.31700 24.38700 33.01200
C  46.87900 27.27300 32.93100
C  47.25900 28.27900 34.02400
H  46.22800 28.44900 35.13200
N  47.57500 23.35800 28.01000
C  47.18300 22.70500 29.17900
C  46.45800 21.59000 28.77400
C  46.49700 21.41900 27.36600
C  47.28500 22.54200 26.93300
C  45.91000 20.67700 29.77400
C  45.95700 20.35900 26.38500
O  46.11900 20.36600 25.20400
C  45.00300 19.39900 26.98700
N  48.87400 25.01900 25.78300
C  48.39200 23.92500 25.09300
C  48.71300 24.12900 23.54500
C  49.11400 25.71700 23.48600
C  49.26800 26.08000 24.97500
C  49.74800 23.11900 22.98200
C  48.05400 26.50300 22.61900
C  48.31300 26.73600 21.12800
N  49.13800 27.22300 27.69600
C  49.69200 27.89700 26.67900
C  50.20400 29.16900 27.09900
C  49.91100 29.19800 28.48800
C  49.26000 28.00600 28.81400
C  50.79900 30.12900 26.11300
C  50.07400 29.97400 29.74400
O  50.62400 31.03000 29.96800
C  49.46400 29.05300 30.89700
C  50.62600 28.89800 31.83600
O  51.17400 27.85800 32.02400
O  50.78800 30.01300 32.63200
C  51.34700 29.54500 33.89200
H  47.03600 22.68500 31.27000
H  47.38500 22.26900 24.64800
H  50.07200 27.91500 24.53200
H  49.05700 26.80600 32.80300
H  47.26600 24.61800 33.10700
H  49.81000 23.71600 32.30800
H  49.06700 23.71600 33.83400
H  50.12500 25.10100 33.17300
H  46.14800 26.53000 33.25000
H  46.39400 27.85200 32.14500
H  47.50900 29.26400 33.63000
H  48.16200 27.86500 34.47200
H  46.55000 19.80400 29.64700
H  44.92000 20.36000 29.44700
H  45.99300 20.98200 30.81800
H  44.57500 18.85500 26.14500
H  44.20500 19.94700 27.48700
H  45.52000 18.74400 27.68900
H  47.77100 23.97900 23.01800
H  50.09500 25.81700 23.02200
H  50.74400 23.55300 22.90500
H  49.47500 23.00000 21.93400
H  49.70200 22.13200 23.44400
H  48.09300 27.50000 23.05800
H  47.03300 26.12400 22.64200
H  49.14200 26.08000 20.86100
H  48.53600 27.76400 20.84400
H  47.41900 26.49400 20.55500
H  50.18800 30.07100 25.21200
H  51.83600 29.93100 25.84300
H  50.75000 31.15700 26.47100
H  48.59500 29.55900 31.31700
H  51.35900 30.38600 34.58700
H  52.39400 29.24400 33.85000
H  50.65000 28.76600 34.19800
Mg 1.18700 42.44100 25.86500
C  2.04800 42.67200 29.35600
C  -1.70100 40.96500 26.82600
C  0.67300 41.82000 22.57000
C  4.34500 43.75600 25.16000
N  0.37300 41.88400 27.81600
C  0.77400 42.09000 29.10100
C  -0.28800 41.91200 30.11600
C  -1.42900 41.16100 29.34500
C  -0.89800 41.28200 27.88100
C  -1.74300 39.68000 29.74300
C  -0.70500 43.23800 30.87900
C  -0.48400 43.21000 32.45800
H  -0.36100 41.88300 33.28900
N  -0.35600 41.58800 24.80000
C  -1.45300 40.95900 25.41600
C  -2.31900 40.54100 24.40500
C  -1.72000 40.85400 23.09000
C  -0.43700 41.48600 23.43600
C  -3.50000 39.69300 24.83500
C  -2.22300 40.54800 21.71000
O  -1.59200 40.89200 20.74000
C  -3.56700 39.95100 21.48800
N  2.29400 42.77900 24.14700
C  1.92000 42.43000 22.87400
C  2.97200 42.84600 21.83400
C  3.91400 43.66500 22.67700
C  3.48300 43.37500 24.08100
C  3.58300 41.65400 21.01000
C  3.90100 45.17900 22.19000
C  2.61600 45.98500 22.38400
N  2.92400 43.07000 26.91900
C  4.09900 43.63700 26.50800
C  4.94500 43.90100 27.58400
C  4.20100 43.50900 28.73800
C  2.99900 43.03500 28.29100
C  6.35000 44.32400 27.48700
C  4.17100 43.49000 30.14400
O  5.02800 43.79300 30.98600
C  2.81400 42.74900 30.58700
C  3.34200 41.41800 30.97100
O  3.97800 40.63700 30.28500
O  3.06600 41.34700 32.30000
C  3.51300 40.17600 33.01600
H  -2.65000 40.63300 27.25200
H  0.62200 41.59400 21.50300
H  5.31000 44.19200 24.89400
H  0.13200 41.28100 30.90000
H  -2.33900 41.74600 29.47900
H  -1.09400 39.39600 30.57100
H  -1.43900 39.09100 28.87800
H  -2.75000 39.40700 30.05900
H  -1.71300 43.54800 30.60100
H  -0.20700 44.07200 30.38500
H  -1.22900 43.84800 32.93400
H  0.44800 43.68900 32.76000
H  -4.27300 40.29900 25.30700
H  -3.06700 39.00600 25.56200
H  -3.92200 39.08100 24.03700
H  -3.40700 38.96500 21.92400
H  -3.77100 39.93400 20.41800
H  -4.31000 40.49900 22.06800
H  2.42300 43.40400 21.07600
H  4.92300 43.25200 22.65900
H  4.66400 41.51400 21.00500
H  3.18800 41.85800 20.01500
H  3.14700 40.72600 21.38000
H  4.10000 45.22800 21.11900
H  4.76600 45.62400 22.68200
H  1.71600 45.38600 22.52100
H  2.33700 46.46400 21.44600
H  2.68100 46.68500 23.21700
H  6.55700 44.93400 26.60700
H  6.93500 43.40500 27.47400
H  6.63600 44.88700 28.37600
H  2.47300 43.23100 31.50300
H  3.88300 40.48400 33.99400
H  4.36800 39.62800 32.62000
H  2.73500 39.41400 33.05900

