158

Mg 46.79300 24.24900 28.18300
C  47.64700 26.63900 30.67900
C  46.02500 22.10300 30.88300
C  46.13100 21.74600 25.95100
C  47.79600 26.33800 25.75900
N  46.57700 24.48000 30.53600
C  47.07300 25.50300 31.28500
C  46.95000 25.33100 32.79400
C  46.68700 23.75200 32.83600
C  46.38200 23.42300 31.29300
C  47.79200 22.84200 33.30000
C  45.90300 26.25600 33.49700
C  46.42700 27.34900 34.40400
H  45.58800 27.44200 35.67500
N  46.09500 22.21600 28.37100
C  45.83300 21.54700 29.50700
C  45.35000 20.25700 29.18000
C  45.12800 20.24200 27.76500
C  45.83700 21.41100 27.31400
C  44.98900 19.23100 30.20900
C  44.41300 19.23000 26.88700
O  44.33200 19.34400 25.67800
C  43.67200 18.10300 27.48200
N  47.13000 23.97200 26.14500
C  46.68500 22.92000 25.41700
C  46.75400 23.24100 23.94400
C  47.23300 24.75300 23.82100
C  47.32200 25.09100 25.32700
C  47.65100 22.25300 23.11200
C  46.17400 25.70000 23.04900
C  46.66900 26.24900 21.69800
N  47.57600 26.06300 28.15400
C  48.00300 26.81000 27.07900
C  48.51800 28.10900 27.49700
C  48.30200 28.07800 28.95100
C  47.84300 26.79800 29.29400
C  49.05400 29.16000 26.69200
C  48.59400 28.86200 30.14700
O  49.03200 29.97800 30.38400
C  48.13600 27.94200 31.38800
C  49.38800 27.65600 32.18300
O  50.21100 26.86600 31.93300
O  49.38700 28.36500 33.36000
C  50.58400 28.31200 34.26600
H  45.69300 21.44800 31.69100
H  45.76900 21.06100 25.18200
H  48.01200 27.01600 24.93100
H  47.93300 25.55800 33.20600
H  45.80700 23.46800 33.41400
H  48.31700 23.37600 34.09200
H  48.53200 22.57900 32.54400
H  47.44800 21.91400 33.75600
H  45.20400 25.67100 34.09400
H  45.40800 26.63900 32.60400
H  46.48700 28.32600 33.92500
H  47.40100 26.92500 34.64600
H  44.76100 18.24100 29.81500
H  44.17200 19.57500 30.84400
H  45.82000 19.12000 30.90600
H  43.08300 18.42000 28.34300
H  44.45700 17.40600 27.77700
H  43.02800 17.55600 26.79400
H  45.72800 23.18600 23.58100
H  48.16500 24.82500 23.26200
H  48.02700 22.73000 22.20600
H  46.95800 21.54200 22.66200
H  48.32500 21.64200 23.71200
H  46.05500 26.66300 23.54500
H  45.16900 25.29000 22.95000
H  45.75500 26.23700 21.10400
H  47.50000 25.66900 21.29700
H  46.91000 27.30800 21.78000
H  48.73600 30.03100 27.26500
H  48.47700 29.21200 25.76800
H  50.13300 29.19500 26.54400
H  47.27700 28.38000 31.89800
H  50.97200 29.33000 34.30200
H  51.22900 27.47300 34.00400
H  50.38200 28.06600 35.30800
Mg 47.90900 34.00800 25.91200
C  46.00900 32.91300 28.60200
C  48.45900 36.87400 27.47400
C  49.58800 34.84600 23.15200
C  46.87800 31.04300 24.18700
N  47.33300 34.85700 27.84300
C  46.66300 34.17300 28.82900
C  46.85600 34.99700 30.21100
C  47.07300 36.44300 29.63100
C  47.57700 36.07200 28.20000
C  45.91800 37.48300 29.62500
C  48.01500 34.41700 30.92900
C  48.00800 34.41800 32.50000
H  47.29600 35.56400 33.22100
N  48.88400 35.69200 25.36700
C  49.04500 36.76800 26.15100
C  49.87000 37.75100 25.46400
C  49.97700 37.31000 24.12800
C  49.48000 35.88900 24.17500
C  50.40200 39.01500 26.19200
C  50.62300 37.94400 22.87200
O  50.55000 37.41500 21.76900
C  51.41900 39.25800 23.00800
N  48.00900 33.11600 23.85300
C  48.87700 33.71400 22.93700
C  48.95000 32.84200 21.66100
C  48.46900 31.42500 22.15400
C  47.72800 31.86000 23.45500
C  48.29000 33.30800 20.29500
C  49.41400 30.33300 22.51900
C  50.47900 30.02900 21.42400
N  46.69900 32.33100 26.29100
C  46.35200 31.23900 25.50700
C  45.47500 30.42900 26.23300
C  45.26500 31.02700 27.47900
C  46.02000 32.20500 27.45100
C  44.89500 29.05500 25.76700
C  44.48400 30.98500 28.71300
O  43.80300 30.08900 29.09300
C  44.92300 32.31600 29.47400
C  45.25700 32.04100 30.89600
O  45.89400 31.14800 31.33800
O  44.50100 32.92200 31.69900
C  44.35100 32.41700 33.07500
H  48.74400 37.82000 27.94000
H  50.31900 35.18900 22.41500
H  46.57200 30.16300 23.61600
H  45.92500 35.07000 30.77400
H  47.94000 36.97500 30.02300
H  45.39200 37.68400 28.69200
H  46.29000 38.46200 29.92800
H  45.30900 37.07700 30.43400
H  48.90800 34.95300 30.60700
H  48.07700 33.36500 30.64900
H  49.06600 34.32100 32.74500
H  47.48700 33.52200 32.83900
H  51.48100 39.03500 26.04400
H  50.18800 39.13100 27.25500
H  49.98400 39.91300 25.73600
H  52.06400 39.15000 23.88000
H  50.73800 40.10500 23.08900
H  51.92100 39.34500 22.04500
H  50.00300 32.59800 21.51800
H  47.62000 30.93900 21.67300
H  47.27900 32.94900 20.10600
H  48.98500 32.84900 19.59200
H  48.24800 34.38300 20.11900
H  48.73000 29.49900 22.67800
H  49.84300 30.58000 23.49000
H  51.43300 30.27500 21.89100
H  50.32100 30.70300 20.58200
H  50.53400 28.96700 21.18500
H  45.02200 28.32600 26.56800
H  45.54700 28.73100 24.95600
H  43.85200 29.15900 25.46700
H  43.98000 32.85500 29.37400
H  44.25500 31.33500 33.16600
H  43.43100 32.84700 33.47200
H  45.16100 32.79600 33.69800

