158

Mg 26.45400 50.42500 26.83600
C  24.60100 51.80600 29.50300
C  28.84500 49.55900 29.23500
C  28.47500 49.40900 24.37200
C  24.26000 51.92100 24.58300
N  26.68800 50.68200 29.14000
C  25.68300 51.02300 29.98200
C  26.12700 50.73800 31.47100
C  27.65200 50.47700 31.27200
C  27.76600 50.17700 29.79400
C  28.58800 51.70800 31.75000
C  25.31600 49.55900 32.06400
C  24.64000 49.75200 33.44600
H  25.32300 50.66000 34.48400
N  28.33600 49.45400 26.80800
C  29.14000 49.19600 27.91300
C  30.27300 48.41400 27.44800
C  30.17400 48.38700 25.97800
C  28.98400 49.15000 25.64600
C  31.26300 47.71400 28.39200
C  31.14300 47.71200 24.94600
O  30.91600 47.72400 23.73200
C  32.39700 46.92700 25.39400
N  26.34700 50.58900 24.71800
C  27.30100 50.06500 23.93200
C  26.90600 50.15900 22.41400
C  25.57400 51.05100 22.51200
C  25.38100 51.22200 24.00500
C  28.00000 50.74000 21.44400
C  24.23300 50.36000 21.92800
C  23.79500 49.04500 22.54000
N  24.81400 51.59400 26.95100
C  23.96800 52.13100 25.95900
C  22.92800 52.92300 26.52800
C  23.11900 52.79500 27.90600
C  24.23700 51.97100 28.12000
C  21.93600 53.69700 25.83700
C  22.61500 53.23200 29.18400
O  21.61500 53.86600 29.40400
C  23.54100 52.53900 30.29600
C  24.24700 53.60800 31.07200
O  25.43700 53.92300 31.08900
O  23.33900 54.10300 31.92800
C  23.89100 55.08200 32.82700
H  29.56200 49.14600 29.94700
H  29.00700 49.06200 23.48300
H  23.58600 52.37900 23.85600
H  26.03300 51.62500 32.09700
H  27.91800 49.64700 31.92600
H  29.22200 51.54200 32.62100
H  28.01700 52.63200 31.83800
H  29.27900 51.93800 30.94000
H  25.93300 48.67800 32.24000
H  24.51400 49.32200 31.36500
H  24.55500 48.83300 34.02600
H  23.62100 50.09600 33.26700
H  32.26900 48.10900 28.25000
H  31.25000 46.66900 28.08300
H  31.05900 47.70500 29.46200
H  32.94800 47.57800 26.07200
H  33.08000 46.72000 24.56900
H  32.16900 46.04000 25.98500
H  26.60200 49.17500 22.05600
H  25.69900 52.04800 22.08900
H  27.69900 51.67200 20.96600
H  28.18500 49.94400 20.72400
H  28.92200 50.99300 21.96800
H  24.46800 50.13500 20.88800
H  23.42400 51.09000 21.97300
H  24.26800 48.94500 23.51800
H  23.99700 48.21100 21.86700
H  22.73500 49.02300 22.79200
H  21.79300 54.64200 26.36000
H  21.01700 53.13200 25.68000
H  22.37400 53.85200 24.85100
H  23.10400 51.80300 30.97000
H  24.04500 56.07600 32.40700
H  24.83800 54.72600 33.23100
H  23.42300 55.16500 33.80800
Mg -10.53900 39.71700 40.46700
C  -9.22800 36.80800 39.10100
C  -7.44400 41.31400 39.69300
C  -12.06600 42.55900 40.58900
C  -13.50700 38.06700 41.19100
N  -8.57800 39.08000 39.43400
C  -8.25300 37.83000 38.99600
C  -6.81400 37.77400 38.48300
C  -6.20900 39.04400 39.03900
C  -7.50000 39.90700 39.44300
C  -5.28400 38.72600 40.21600
C  -6.67100 37.76100 36.86700
C  -5.88700 36.59300 36.15600
H  -6.62200 35.75800 35.10300
N  -9.78300 41.75000 40.35600
C  -8.53700 42.18200 40.01600
C  -8.57700 43.60000 39.93500
C  -9.95600 44.00400 40.03800
C  -10.68900 42.76200 40.39600
C  -7.35300 44.35900 39.57900
C  -10.50600 45.38000 39.85300
O  -9.76600 46.34900 39.62800
C  -11.94900 45.73100 40.02000
N  -12.45200 40.25500 41.08400
C  -12.83300 41.46800 40.97800
C  -14.33400 41.67100 41.29700
C  -14.75000 40.24800 41.72100
C  -13.52500 39.46100 41.35000
C  -14.76000 42.74200 42.38300
C  -16.13700 39.66600 41.18200
C  -17.18300 39.21500 42.17700
N  -11.31500 37.80800 40.22700
C  -12.57500 37.29200 40.43400
C  -12.56900 35.89800 40.05900
C  -11.26600 35.65900 39.51600
C  -10.55600 36.84500 39.65300
C  -13.60300 34.92500 40.28000
C  -10.49300 34.62800 38.84700
O  -10.66600 33.56000 38.32000
C  -9.09200 35.35700 38.69700
C  -8.07800 34.63200 39.56000
O  -8.10300 34.62600 40.77200
O  -7.10500 33.96400 38.84400
C  -5.94700 33.48000 39.65700
H  -6.47000 41.78000 39.53000
H  -12.63900 43.48700 40.53800
H  -14.45600 37.57600 41.41800
H  -6.39900 36.82600 38.82400
H  -5.76900 39.61600 38.22200
H  -5.34400 37.76200 40.72200
H  -5.42500 39.45000 41.01800
H  -4.28900 38.96900 39.84300
H  -6.20900 38.68500 36.51800
H  -7.67000 37.80500 36.43400
H  -5.62300 35.79100 36.84600
H  -4.95900 37.01100 35.76800
H  -7.03200 44.20400 38.54800
H  -6.53300 44.01400 40.20900
H  -7.38500 45.43300 39.76100
H  -12.48700 45.09800 39.31400
H  -12.23200 46.73400 39.69800
H  -12.17900 45.53100 41.06700
H  -14.96800 41.84500 40.42700
H  -14.80500 40.34200 42.80600
H  -13.90800 42.74300 43.06300
H  -15.61500 42.49100 43.01100
H  -14.79200 43.80500 42.14300
H  -15.96100 38.94200 40.38600
H  -16.60200 40.50400 40.66200
H  -18.03500 39.88900 42.08200
H  -16.79100 39.17100 43.19300
H  -17.51600 38.20100 41.95500
H  -14.28600 34.95100 39.43100
H  -14.14800 35.11800 41.20400
H  -13.20800 33.91100 40.21900
H  -8.77100 35.22800 37.66300
H  -5.15500 33.34600 38.92100
H  -6.10300 32.51500 40.13800
H  -5.47000 34.14800 40.37500

