158

Mg -2.23500 16.36500 26.60500
C  -2.52900 13.76900 29.08300
C  -2.80400 18.65600 28.91200
C  -2.71100 18.58400 24.14800
C  -2.50600 13.66000 24.27200
N  -2.64200 16.16100 28.75400
C  -2.69800 15.10600 29.60500
C  -2.96500 15.55300 31.08200
C  -3.00200 17.11700 30.99300
C  -2.84600 17.38000 29.42900
C  -4.28000 17.85800 31.58800
C  -2.01500 14.90000 32.17700
C  -1.56500 15.76800 33.33300
H  -0.75400 15.16100 34.49300
N  -2.47000 18.34300 26.51900
C  -2.64500 19.14200 27.61200
C  -2.70000 20.56100 27.16600
C  -2.62600 20.57600 25.76000
C  -2.57500 19.11300 25.37600
C  -2.85400 21.66600 28.09800
C  -2.44600 21.76000 24.77800
O  -2.25300 21.60400 23.59800
C  -2.48300 23.13500 25.34200
N  -2.70700 16.12200 24.56100
C  -2.85700 17.23800 23.74000
C  -3.20100 16.87700 22.28900
C  -2.95900 15.29400 22.29900
C  -2.73500 14.99000 23.80400
C  -4.62800 17.43100 21.91200
C  -1.97200 14.75300 21.28600
C  -0.51100 15.13000 21.49200
N  -2.28400 14.13500 26.61400
C  -2.38600 13.24100 25.59900
C  -2.38200 11.89400 26.13200
C  -2.41200 12.05200 27.52600
C  -2.44300 13.46900 27.74300
C  -2.70400 10.66900 25.37500
C  -2.57900 11.35800 28.73700
O  -2.71400 10.15900 28.96100
C  -2.74500 12.44000 29.76500
C  -1.84400 12.04800 30.95500
O  -0.58600 12.06300 30.99200
O  -2.69300 11.65500 31.91900
C  -2.07600 11.22600 33.25800
H  -2.79600 19.43400 29.67800
H  -2.93200 19.34500 23.39700
H  -2.58100 12.93700 23.45700
H  -3.95300 15.15400 31.31300
H  -2.14200 17.58300 31.47500
H  -5.01100 17.14400 31.96800
H  -4.76600 18.54000 30.89000
H  -4.00500 18.46100 32.45300
H  -1.14800 14.40100 31.74400
H  -2.63400 14.15900 32.68300
H  -2.43300 16.20900 33.82200
H  -0.91800 16.53100 32.90000
H  -3.83500 22.02300 27.78600
H  -1.99500 22.28000 27.82600
H  -2.71700 21.40100 29.14700
H  -3.38200 23.34100 25.92200
H  -2.54900 23.83100 24.50500
H  -1.63900 23.15300 26.03100
H  -2.52900 17.31500 21.55000
H  -3.90600 14.80700 22.06700
H  -5.05900 17.68900 22.88000
H  -5.22600 16.62200 21.49200
H  -4.60300 18.30200 21.25700
H  -2.33100 15.19000 20.35400
H  -2.04100 13.66600 21.31600
H  -0.17300 15.75500 20.66600
H  -0.01000 14.18400 21.69800
H  -0.45900 15.70600 22.41600
H  -3.24100 10.83000 24.44000
H  -3.32100 10.08500 26.05700
H  -1.75800 10.19000 25.12400
H  -3.79700 12.41500 30.04800
H  -2.01100 10.13900 33.29300
H  -2.73200 11.57200 34.05700
H  -1.13000 11.74000 33.43000
Mg 36.72500 49.75900 24.66200
C  36.32600 48.03600 27.71200
C  35.92400 52.68800 26.25800
C  36.71100 51.34800 21.66400
C  37.18100 46.74600 23.17400
N  35.91200 50.22800 26.76000
C  36.14200 49.43300 27.84000
C  35.85500 50.19900 29.11600
C  35.63900 51.63900 28.64900
C  35.82200 51.53900 27.05600
C  34.30200 52.32100 29.08600
C  37.06900 50.09400 30.18200
C  36.68100 49.88300 31.75200
H  35.19100 49.77500 32.13100
N  36.32000 51.74900 24.04100
C  36.10700 52.79000 24.89700
C  36.28600 54.04000 24.14100
C  36.30000 53.63700 22.74100
C  36.45500 52.19500 22.76500
C  36.49900 55.44700 24.75900
C  36.34700 54.44200 21.48800
O  36.47000 54.02900 20.34700
C  36.05100 55.95900 21.67800
N  36.66600 49.11800 22.68700
C  36.81200 49.96700 21.57200
C  37.00100 49.17300 20.31100
C  37.42600 47.76200 20.91300
C  37.06500 47.86900 22.40500
C  35.73800 49.22700 19.39500
C  38.80600 47.45300 20.47200
C  39.13800 45.96600 19.96400
N  36.64400 47.80600 25.23400
C  37.00000 46.66000 24.52600
C  36.99400 45.52600 25.40900
C  36.82300 46.06200 26.65500
C  36.51500 47.43100 26.52500
C  37.41200 44.13700 24.95500
C  36.90000 45.71400 28.09100
O  37.10000 44.68000 28.68800
C  36.44700 46.97900 28.80900
C  35.19900 46.68900 29.45200
O  34.07500 46.60600 28.95000
O  35.43400 46.44700 30.73500
C  34.28100 45.83200 31.49500
H  35.95200 53.56700 26.90600
H  36.83400 51.83500 20.69400
H  37.58800 45.83700 22.72800
H  34.87000 49.86700 29.44500
H  36.44400 52.31400 28.94100
H  34.43800 52.75800 30.07500
H  33.50000 51.58800 29.17500
H  33.91900 53.16100 28.50600
H  37.57300 51.06000 30.20600
H  37.88200 49.43400 29.88100
H  37.20400 50.70000 32.24900
H  37.23300 49.03100 32.14900
H  35.56400 56.00200 24.68900
H  37.21800 55.96700 24.12600
H  36.82400 55.35600 25.79600
H  36.87100 56.67500 21.73800
H  35.24800 56.14100 22.39300
H  35.56200 56.24200 20.74600
H  37.87300 49.63500 19.84800
H  36.69100 47.04000 20.55600
H  36.10000 49.79000 18.53400
H  34.87900 49.75900 19.80300
H  35.29100 48.27900 19.09800
H  39.36400 47.67700 21.38100
H  39.21800 48.20000 19.79300
H  39.86700 45.59700 20.68500
H  39.57000 45.98000 18.96300
H  38.26600 45.31800 20.04400
H  36.69300 43.60800 24.33000
H  37.79100 43.47400 25.73300
H  38.31700 44.37200 24.39400
H  37.13800 47.29000 29.59300
H  33.86000 44.92200 31.06800
H  33.46400 46.50000 31.76900
H  34.76200 45.48000 32.40800

