158

Mg 24.08200 -4.63500 45.96200
C  26.38600 -2.48000 44.35200
C  21.72500 -3.53200 43.83200
C  22.13400 -7.33000 46.86800
C  26.81400 -6.11100 47.68900
N  24.10600 -3.17800 44.25700
C  25.08400 -2.38000 43.82700
C  24.74300 -1.67200 42.63100
C  23.13600 -1.77000 42.59800
C  22.89200 -2.86000 43.64700
C  22.19000 -0.54800 42.97400
C  25.42500 -2.27600 41.34900
C  26.22600 -1.33300 40.50100
H  25.84700 -1.27400 39.02500
N  22.13600 -5.28700 45.51200
C  21.34200 -4.66300 44.64400
C  20.05800 -5.30900 44.64400
C  20.08500 -6.41000 45.56600
C  21.45300 -6.36500 46.10000
C  19.00300 -5.04800 43.59700
C  19.03000 -7.43000 45.78800
O  18.02500 -7.46100 45.05700
C  19.01900 -8.43200 46.89700
N  24.45800 -6.60000 47.06600
C  23.47600 -7.51400 47.24300
C  24.03000 -8.65600 48.11400
C  25.33200 -8.08900 48.66400
C  25.58600 -6.85000 47.76600
C  23.22000 -9.33200 49.23900
C  26.50300 -9.09300 48.57800
C  27.20600 -9.31400 49.93800
N  26.16800 -4.27400 46.12800
C  27.10200 -4.95800 46.88500
C  28.43000 -4.32500 46.71500
C  28.16300 -3.36400 45.73800
C  26.76000 -3.32200 45.48500
C  29.77900 -4.71500 47.25500
C  28.80700 -2.36200 44.91000
O  29.95100 -2.11600 44.76200
C  27.66000 -1.81700 43.95000
C  27.59200 -0.33000 44.02600
O  27.41400 0.30400 45.07700
O  27.70900 0.26300 42.85000
C  27.73000 1.74300 42.91600
H  20.96600 -3.16000 43.14000
H  21.49900 -8.10600 47.30100
H  27.67600 -6.34000 48.31800
H  24.97000 -0.61600 42.77000
H  22.82000 -2.06200 41.59600
H  22.49200 0.34200 42.42100
H  22.18000 -0.33900 44.04400
H  21.23500 -0.99500 42.69900
H  24.64000 -2.70500 40.72500
H  26.02100 -3.12700 41.68000
H  27.28700 -1.52900 40.65800
H  25.97000 -0.32000 40.80900
H  18.63800 -5.96300 43.13100
H  19.28800 -4.44100 42.73800
H  18.09000 -4.61000 43.99900
H  19.27900 -8.01100 47.86900
H  19.77800 -9.15500 46.59700
H  18.02200 -8.84700 47.04700
H  24.29100 -9.47500 47.44300
H  25.20300 -7.64500 49.65200
H  23.03000 -10.38200 49.01300
H  22.21400 -8.91600 49.18000
H  23.66800 -9.24300 50.22900
H  27.19400 -8.80800 47.78600
H  26.10500 -10.08600 48.36700
H  27.53600 -8.37700 50.38700
H  28.09700 -9.85200 49.61500
H  26.63500 -9.99700 50.56700
H  30.56200 -4.32300 46.60600
H  29.89100 -5.79300 47.13700
H  29.97000 -4.32600 48.25500
H  27.91500 -2.04700 42.91600
H  28.76000 2.06100 43.07900
H  27.06000 2.15200 43.67200
H  27.34800 1.99000 41.92600
Mg -12.69000 15.77100 42.43400
C  -9.48900 14.38300 42.49800
C  -11.32200 18.58300 40.84000
C  -15.77300 16.97900 41.93300
C  -13.98900 12.61200 43.18900
N  -10.65000 16.34200 41.69700
C  -9.47800 15.61700 41.89200
C  -8.31100 16.23100 41.12000
C  -8.93500 17.65100 40.71200
C  -10.44000 17.55200 41.11700
C  -8.39200 18.96800 41.34300
C  -8.02800 15.36400 39.82200
C  -6.54300 15.27000 39.40200
H  -6.16700 16.10500 38.20500
N  -13.42900 17.59200 41.51400
C  -12.70400 18.59800 40.94200
C  -13.66900 19.64500 40.45400
C  -15.00900 19.22700 40.91500
C  -14.79900 17.86700 41.46600
C  -13.24100 21.07800 39.91300
C  -16.28800 19.99200 40.67700
O  -16.35600 21.08600 40.13900
C  -17.63800 19.53800 41.20600
N  -14.59000 14.85300 42.39200
C  -15.71000 15.63500 42.25100
C  -16.95100 14.74500 42.49400
C  -16.38700 13.29700 42.77600
C  -14.87000 13.60300 42.76400
C  -17.89900 15.37000 43.53300
C  -16.81400 12.19000 41.75200
C  -18.01100 11.27600 42.28300
N  -11.89700 13.85100 42.93700
C  -12.52300 12.67300 43.25700
C  -11.54600 11.71600 43.59400
C  -10.29400 12.33800 43.25400
C  -10.61100 13.64900 42.82900
C  -11.75900 10.35300 44.19800
C  -8.79500 12.15500 43.24400
O  -8.05600 11.18900 43.53500
C  -8.20200 13.52000 42.64800
C  -7.14200 14.14400 43.60700
O  -7.28600 14.75000 44.64300
O  -5.87500 13.89700 43.01700
C  -4.76400 14.62600 43.64900
H  -11.06600 19.59600 40.52200
H  -16.79900 17.30800 41.75800
H  -14.38200 11.63100 43.46600
H  -7.52700 16.27300 41.87700
H  -9.01800 17.81100 39.63700
H  -9.11300 19.08100 42.15200
H  -8.46400 19.75800 40.59600
H  -7.38600 18.90300 41.75900
H  -8.53600 15.69400 38.91600
H  -8.50100 14.39000 39.94900
H  -6.33700 14.22000 39.19900
H  -6.00000 15.62200 40.27900
H  -13.98200 21.82400 40.20000
H  -12.99700 21.11300 38.85100
H  -12.36100 21.48600 40.41100
H  -18.00300 18.62300 40.73900
H  -18.29800 20.38500 41.02100
H  -17.45400 19.51600 42.28000
H  -17.55600 14.80300 41.59000
H  -16.47400 12.99300 43.81900
H  -18.92300 15.26100 43.17500
H  -17.67800 16.41000 43.77500
H  -17.80400 14.89700 44.51100
H  -15.99900 11.57100 41.37800
H  -17.22000 12.78000 40.93100
H  -17.64300 10.25200 42.34400
H  -18.74600 11.38400 41.48500
H  -18.36100 11.51500 43.28700
H  -11.91300 9.48800 43.55300
H  -12.62200 10.41700 44.86200
H  -10.88700 10.14600 44.81800
H  -7.68600 13.23400 41.73200
H  -4.23100 14.12000 44.45400
H  -5.03300 15.66300 43.84800
H  -4.01800 14.56700 42.85600

