158

Mg 53.68100 24.74800 43.82600
C  51.12100 26.96200 43.30700
C  51.56200 22.29000 42.47100
C  56.30700 22.65300 43.26300
C  55.78000 27.36900 44.50500
N  51.67300 24.69600 42.68200
C  50.85100 25.74400 42.65100
C  49.51700 25.43500 41.97100
C  49.53200 23.80800 42.00600
C  50.99300 23.53100 42.44600
C  48.45600 23.11700 42.87700
C  49.28700 25.92100 40.47400
C  50.42900 25.84400 39.48400
H  50.03300 25.30400 38.14100
N  53.92600 22.66000 43.17100
C  52.90400 21.87500 42.72400
C  53.44300 20.54100 42.52700
C  54.84000 20.62200 42.77100
C  55.07600 22.02200 43.07500
C  52.57400 19.38700 42.25100
C  55.82200 19.47800 42.70200
O  55.52100 18.32200 42.41700
C  57.17200 19.51900 43.31500
N  55.77600 24.94400 43.78100
C  56.62100 23.99400 43.59400
C  58.02800 24.51700 43.70900
C  57.85500 26.06400 43.91000
C  56.35200 26.15800 44.16100
C  58.89300 23.82800 44.76300
C  58.31400 26.92800 42.69400
C  58.83800 28.28400 43.00300
N  53.51600 26.69300 44.11800
C  54.43900 27.68400 44.45300
C  53.70800 28.87700 44.81700
C  52.37300 28.60800 44.40600
C  52.35400 27.26400 43.92000
C  54.33100 30.10600 45.36000
C  51.13800 29.30100 44.22500
O  50.74900 30.48300 44.35300
C  50.25100 28.16100 43.45200
C  49.72100 28.76100 42.24400
O  50.27600 28.93800 41.17200
O  48.41500 29.10300 42.50400
C  47.68100 29.90700 41.54700
H  50.93500 21.47500 42.10200
H  57.17200 22.02600 43.04100
H  56.51900 28.07400 44.88900
H  48.74600 25.92200 42.56800
H  49.42900 23.41000 40.99700
H  48.71500 22.38200 43.64000
H  47.80100 22.57700 42.19300
H  47.81600 23.88300 43.31600
H  48.95400 26.95700 40.54900
H  48.31300 25.53100 40.17800
H  51.24300 25.27700 39.93500
H  50.79200 26.86700 39.38600
H  52.03100 19.62700 41.33700
H  51.77700 19.28900 42.98800
H  53.00700 18.42600 41.97400
H  57.67300 18.55900 43.43700
H  57.10400 19.97400 44.30300
H  57.72000 20.16400 42.62800
H  58.55600 24.24700 42.79500
H  58.54600 26.40400 44.68200
H  59.84400 23.56300 44.30000
H  58.45800 22.86500 45.03300
H  59.04500 24.41900 45.66600
H  57.48200 27.03700 41.99800
H  59.04400 26.33200 42.14700
H  59.36200 28.64400 42.11800
H  59.61000 28.21500 43.76900
H  58.08800 29.02600 43.27900
H  53.56800 30.82800 45.65400
H  54.94800 30.55200 44.58000
H  54.94700 29.87700 46.22900
H  49.43900 27.84300 44.10600
H  47.15200 29.23900 40.86700
H  48.31800 30.59800 40.99600
H  46.97000 30.52400 42.09800
Mg 0.53400 42.45700 26.23900
C  1.83300 42.41800 29.51700
C  -2.28400 41.12700 27.37800
C  -0.21500 41.64800 23.11200
C  3.97800 43.09800 25.15500
N  -0.06300 41.77800 28.17100
C  0.48100 42.02600 29.40300
C  -0.45400 41.87200 30.58500
C  -1.72900 41.21800 29.89800
C  -1.38600 41.36300 28.37400
C  -1.97400 39.66400 30.15300
C  -0.80800 43.29800 31.21600
C  -0.50000 43.49400 32.75000
H  -0.71000 42.37500 33.74700
N  -1.14400 41.71900 25.34100
C  -2.26400 41.20600 26.00900
C  -3.28300 40.94100 25.00700
C  -2.61000 41.01200 23.70500
C  -1.27300 41.49500 23.97800
C  -4.69300 40.50300 25.46300
C  -3.22700 40.55800 22.34000
O  -2.59300 40.71300 21.33000
C  -4.71100 40.24300 22.30600
N  1.79700 42.27600 24.44700
C  1.13700 42.05700 23.27000
C  2.05700 42.37200 22.08800
C  3.22900 43.21100 22.71800
C  2.98300 42.87000 24.22300
C  2.32800 41.11200 21.17700
C  3.27200 44.81200 22.45700
C  4.11600 45.16700 21.21400
N  2.50700 42.76300 27.13200
C  3.76000 43.11100 26.56100
C  4.74400 43.17400 27.62500
C  4.07100 42.94200 28.84500
C  2.69700 42.68400 28.44400
C  6.19900 43.43300 27.54700
C  4.16900 42.88000 30.26800
O  5.13000 43.03600 31.03000
C  2.68500 42.68900 30.71900
C  2.83900 41.56600 31.64300
O  3.00200 40.39100 31.30300
O  3.01000 42.00700 32.95400
C  3.25000 40.94800 33.97400
H  -3.21000 40.80500 27.85800
H  -0.42300 41.33800 22.08600
H  4.95900 43.43400 24.81200
H  0.07300 41.28200 31.33500
H  -2.66900 41.74100 30.07600
H  -1.61900 39.35700 31.13700
H  -1.52600 39.04400 29.37700
H  -3.03800 39.44700 30.04800
H  -1.87600 43.44800 31.05200
H  -0.31800 44.09000 30.65000
H  -1.02300 44.37600 33.12000
H  0.57700 43.63700 32.82900
H  -4.88600 40.85900 26.47500
H  -4.66500 39.41300 25.47100
H  -5.54300 40.98700 24.98200
H  -4.93600 39.39900 22.95800
H  -4.97600 39.88000 21.31300
H  -5.32500 41.08000 22.63800
H  1.58000 43.13500 21.47400
H  4.15200 42.72100 22.40900
H  1.99700 40.27000 21.78500
H  3.37700 41.05700 20.88500
H  1.78800 41.21800 20.23600
H  3.55100 45.41400 23.32200
H  2.27200 45.09000 22.12200
H  3.53500 45.73300 20.48600
H  4.56400 44.26500 20.79700
H  4.88300 45.83900 21.59900
H  6.38100 44.48900 27.74500
H  6.65500 43.12300 26.60600
H  6.77400 42.87400 28.28600
H  2.33600 43.56400 31.26700
H  2.92700 39.96700 33.62500
H  2.66300 41.07300 34.88400
H  4.29600 40.79100 34.23700

