158

Mg 47.95400 34.72400 26.73600
C  46.01700 33.03800 29.38600
C  48.05900 37.41300 28.60700
C  49.33800 36.16400 24.12000
C  47.05900 31.75400 24.71400
N  47.01300 35.15200 28.75700
C  46.41200 34.34900 29.66200
C  46.57600 35.03400 31.05400
C  46.66800 36.59100 30.76700
C  47.21100 36.42500 29.26200
C  45.42100 37.45800 30.92100
C  47.66900 34.44900 31.99700
C  47.72800 35.05900 33.42000
H  46.50400 35.82000 33.96800
N  48.60300 36.58400 26.41300
C  48.68500 37.49300 27.38400
C  49.51000 38.61100 26.88400
C  49.80900 38.36500 25.58100
C  49.25800 36.97400 25.30600
C  50.03200 39.85200 27.65200
C  50.44700 39.21600 24.54100
O  50.60600 38.85300 23.39200
C  50.89400 40.55600 24.83400
N  48.10700 34.06600 24.75700
C  48.76400 34.91900 23.90800
C  49.11300 34.03100 22.60600
C  48.45500 32.64800 22.75000
C  47.86100 32.78800 24.12800
C  48.85000 34.85500 21.23500
C  49.36900 31.37700 22.54600
C  49.10700 30.54900 21.35100
N  46.86800 32.73300 26.99700
C  46.58100 31.72900 26.04900
C  45.82600 30.67000 26.64300
C  45.61400 31.17200 27.95500
C  46.19700 32.45700 28.08100
C  45.29400 29.46700 25.94000
C  44.87700 30.88700 29.21500
O  44.11900 29.94100 29.45000
C  45.25100 31.99400 30.22000
C  46.11200 31.35000 31.28500
O  47.31300 31.13700 31.25800
O  45.38300 31.19900 32.38100
C  45.91000 30.67700 33.65800
H  48.14700 38.28600 29.25700
H  49.85600 36.50200 23.22000
H  46.82900 30.95400 24.00800
H  45.65600 34.71300 31.54300
H  47.43800 36.97500 31.43700
H  44.64000 36.89200 31.42900
H  45.01600 37.78600 29.96400
H  45.66600 38.39300 31.42400
H  48.65600 34.65600 31.58400
H  47.53000 33.37800 32.14500
H  48.60800 35.69500 33.51800
H  47.90400 34.19100 34.05600
H  51.09100 39.90900 27.40100
H  50.13800 39.84100 28.73700
H  49.36500 40.67000 27.38000
H  50.03500 41.04900 25.28800
H  51.13600 41.02600 23.88000
H  51.78200 40.55100 25.46500
H  50.18300 33.87800 22.74400
H  47.54200 32.64400 22.15400
H  48.78200 34.01100 20.54800
H  49.58800 35.56000 20.85300
H  47.88400 35.34800 21.12800
H  49.28600 30.81000 23.47300
H  50.43700 31.59600 22.53900
H  49.93200 30.63300 20.64400
H  48.11900 30.64100 20.90100
H  49.23500 29.54000 21.74100
H  46.11500 28.78800 25.71000
H  44.69000 29.81000 25.10000
H  44.58200 28.92700 26.56500
H  44.44400 32.54100 30.70800
H  45.17400 29.92600 33.94300
H  45.85800 31.48800 34.38500
H  46.89800 30.23800 33.51700
Mg 26.96900 51.55300 25.81200
C  25.05500 52.62400 28.46100
C  29.21900 50.17600 28.08700
C  28.55400 49.98400 23.31400
C  24.87400 53.07500 23.62000
N  27.03500 51.34300 28.01200
C  26.12100 51.85300 28.89500
C  26.44000 51.41000 30.28900
C  27.86600 50.89700 30.15800
C  28.06800 50.81300 28.65100
C  28.91300 51.79600 30.73400
C  25.31100 50.38000 30.77400
C  24.62500 50.63600 32.15400
H  25.57000 50.99900 33.29700
N  28.69800 50.29400 25.68800
C  29.50900 49.90100 26.73800
C  30.60400 49.09100 26.27200
C  30.38100 48.98400 24.82400
C  29.18000 49.79200 24.54900
C  31.72900 48.60700 27.21100
C  31.14600 48.23000 23.80800
O  30.82000 48.21000 22.63500
C  32.32900 47.40200 24.21000
N  26.89600 51.68900 23.72500
C  27.57500 50.88600 22.90500
C  27.13200 51.06100 21.43500
C  25.78800 51.82100 21.62700
C  25.87300 52.24700 23.04700
C  28.22600 51.95900 20.69900
C  24.56000 50.91600 21.45300
C  23.56600 51.46200 20.39000
N  25.38300 52.71200 25.93700
C  24.58700 53.33000 25.00200
C  23.42900 54.06000 25.60000
C  23.64800 53.78300 26.96600
C  24.81200 52.96800 27.12100
C  22.31700 54.71700 24.89300
C  23.02200 54.02200 28.20400
O  22.06500 54.72200 28.47800
C  23.91700 53.34300 29.26300
C  24.49000 54.30000 30.16900
O  25.20400 55.25600 29.84800
O  23.90400 54.19700 31.39100
C  24.50300 55.05400 32.42400
H  29.82700 49.79000 28.90900
H  28.93300 49.49000 22.41700
H  24.13700 53.45800 22.91200
H  26.39900 52.29700 30.92200
H  27.96400 49.86400 30.49300
H  29.56500 52.19000 29.95500
H  29.43500 51.18000 31.46700
H  28.47300 52.60600 31.31600
H  25.75300 49.38400 30.74100
H  24.53600 50.38100 30.00800
H  24.07800 49.74100 32.45300
H  23.85400 51.38400 31.97100
H  32.12900 47.59400 27.23100
H  31.59000 48.79200 28.27600
H  32.52100 49.35400 27.15400
H  32.14000 46.73700 25.05300
H  33.04000 48.18400 24.47400
H  32.75900 46.82800 23.38900
H  27.14200 50.08000 20.96000
H  25.63100 52.67400 20.96700
H  28.95800 52.17700 21.47700
H  27.92200 52.97300 20.44100
H  28.58500 51.48000 19.78800
H  24.00300 50.89300 22.38900
H  24.92700 49.94700 21.11400
H  23.60000 50.84600 19.49100
H  23.75100 52.51700 20.18900
H  22.61500 51.43200 20.92100
H  21.34000 54.28200 25.10200
H  22.42300 54.92900 23.82900
H  22.14500 55.70100 25.32900
H  23.35900 52.64300 29.88400
H  25.24900 54.44900 32.93700
H  23.71900 55.02800 33.18100
H  24.76300 56.07100 32.12900

