158

Mg -2.18500 17.38000 26.84700
C  -2.93400 15.22700 29.46000
C  -2.80300 19.99900 29.03300
C  -1.99300 19.47000 24.16000
C  -1.87500 14.64800 24.75400
N  -2.73400 17.54500 29.04100
C  -2.97500 16.57900 29.96700
C  -3.07900 17.13000 31.45000
C  -2.97200 18.66400 31.15500
C  -2.86600 18.72800 29.64300
C  -3.99800 19.60300 31.81900
C  -2.10800 16.46500 32.39200
C  -1.33500 17.25700 33.40400
H  -1.01700 16.57900 34.82500
N  -2.25100 19.43700 26.61900
C  -2.50800 20.35500 27.66000
C  -2.39200 21.63600 27.16800
C  -2.09400 21.52400 25.76300
C  -2.13800 20.07000 25.40000
C  -2.71800 22.83500 28.05600
C  -1.79200 22.59100 24.66000
O  -1.40600 22.38100 23.51800
C  -1.65500 23.97400 25.09500
N  -2.20600 17.10600 24.76200
C  -2.11400 18.10700 23.82600
C  -1.89200 17.53600 22.39300
C  -1.53600 16.07900 22.70800
C  -1.94200 15.87700 24.20400
C  -3.17600 17.76500 21.55900
C  -0.03300 15.72300 22.57600
C  0.87500 16.48100 23.59600
N  -2.33200 15.34100 26.98200
C  -2.15000 14.31900 26.06600
C  -2.37900 13.04200 26.64000
C  -2.65700 13.30700 27.95600
C  -2.58600 14.75400 28.11400
C  -2.49100 11.67800 25.95100
C  -3.03400 12.73500 29.16700
O  -3.25800 11.52900 29.44600
C  -3.18500 13.91300 30.21800
C  -2.20700 13.56300 31.24700
O  -1.05500 13.74200 31.12300
O  -2.75700 12.90200 32.36300
C  -1.85800 12.55000 33.46900
H  -2.98400 20.81500 29.73500
H  -1.68100 20.01900 23.26900
H  -1.63500 13.85000 24.04800
H  -4.12800 16.89300 31.63300
H  -1.99200 19.07300 31.39800
H  -4.72700 19.99700 31.11100
H  -3.47500 20.36200 32.40000
H  -4.46700 18.94400 32.55000
H  -1.30500 16.05100 31.78300
H  -2.59300 15.66200 32.94800
H  -1.85700 18.14200 33.76700
H  -0.41600 17.68700 33.00600
H  -3.51700 23.42600 27.61000
H  -1.90800 23.56200 28.11800
H  -2.95500 22.67900 29.10900
H  -2.70000 24.23100 25.27400
H  -1.23400 24.55500 24.27400
H  -1.14300 23.98000 26.05700
H  -0.97700 18.05900 22.11400
H  -2.09000 15.34200 22.12600
H  -3.64600 18.71200 21.82500
H  -3.96200 17.02700 21.72000
H  -2.96200 17.81600 20.49200
H  0.34000 15.91200 21.56900
H  0.10200 14.66700 22.81300
H  0.39000 17.20000 24.25600
H  1.72800 16.92300 23.08200
H  1.27600 15.76200 24.31100
H  -3.57200 11.62300 26.07700
H  -1.88300 10.89900 26.41300
H  -2.33600 11.80100 24.87900
H  -4.16800 13.77200 30.66900
H  -1.96200 13.37300 34.17600
H  -0.82600 12.44900 33.13100
H  -2.14000 11.58700 33.89700
Mg 41.92900 40.93200 26.18100
C  40.95800 43.28600 28.71300
C  43.15700 38.87900 28.55300
C  43.05200 39.00400 23.67500
C  40.96400 43.39900 23.78300
N  41.86700 41.09600 28.35400
C  41.39100 42.06900 29.24400
C  41.48700 41.57100 30.71400
C  42.21100 40.19800 30.59200
C  42.43400 39.99900 29.04400
C  43.55900 39.88800 31.38300
C  39.95700 41.52000 31.23800
C  39.77800 40.92700 32.67500
H  38.96700 41.83100 33.63700
N  43.02300 39.23800 26.12900
C  43.36500 38.47800 27.25600
C  44.04100 37.29600 26.83500
C  44.04500 37.35700 25.41000
C  43.38100 38.55400 24.98500
C  44.65900 36.29000 27.83800
C  44.62100 36.39900 24.42400
O  44.80600 36.72500 23.25400
C  45.13800 35.01300 24.86600
N  42.09500 41.20500 24.05600
C  42.47900 40.21100 23.19700
C  42.38700 40.57000 21.70400
C  41.84500 42.03300 21.76200
C  41.63500 42.26100 23.32500
C  43.70500 40.32200 20.97000
C  40.57000 42.37300 20.93300
C  40.71200 43.29600 19.72400
N  41.09300 42.94300 26.13400
C  40.75100 43.77800 25.12700
C  40.26500 45.03700 25.62300
C  40.24300 44.82800 27.07900
C  40.79600 43.54800 27.31200
C  39.62000 46.14300 24.76200
C  39.89600 45.46200 28.32700
O  39.37200 46.54700 28.45400
C  40.22500 44.45000 29.47700
C  41.00300 44.95400 30.60200
O  42.20700 45.24700 30.51500
O  40.26900 45.01200 31.71000
C  41.03100 45.43500 32.87700
H  43.49000 38.17300 29.31600
H  43.27300 38.31200 22.86100
H  40.79000 44.19600 23.05700
H  41.95600 42.35500 31.30900
H  41.57800 39.35800 30.87900
H  44.36300 39.62900 30.69400
H  43.35300 39.02300 32.01300
H  43.96500 40.82600 31.76300
H  39.49700 40.86600 30.49800
H  39.43700 42.47700 31.29500
H  40.77400 40.84700 33.11000
H  39.27200 39.96200 32.65300
H  44.71400 35.30000 27.38700
H  44.22500 36.33600 28.83600
H  45.66300 36.71200 27.79400
H  45.95100 35.20700 25.56600
H  45.46800 34.44500 23.99600
H  44.34200 34.37900 25.25800
H  41.63800 39.88500 21.30700
H  42.63600 42.69800 21.41500
H  44.28200 41.23800 21.09700
H  43.58800 40.04500 19.92200
H  44.35000 39.65500 21.54200
H  39.85200 42.72000 21.67600
H  40.30000 41.38100 20.57000
H  40.56100 42.67900 18.83800
H  41.64400 43.86100 19.70700
H  39.88800 44.00800 19.77600
H  40.42400 46.69100 24.27100
H  39.01200 46.76400 25.42100
H  38.93300 45.64700 24.07700
H  39.29000 44.01200 29.82700
H  40.38200 45.65900 33.72300
H  41.61600 46.35200 32.80600
H  41.70200 44.61500 33.13600

