158

Mg 1.98800 -0.90600 44.69500
C  5.22800 0.13100 43.79700
C  0.75700 1.83900 43.11800
C  -1.01600 -2.04700 45.40000
C  3.48400 -4.07600 45.66600
N  2.90600 0.67400 43.36500
C  4.25400 0.95700 43.27900
C  4.44700 2.19900 42.34800
C  3.00300 2.86700 42.36300
C  2.15100 1.70200 42.95700
C  2.92000 4.10300 43.25700
C  4.84200 1.71300 40.94100
C  6.12500 2.32800 40.32300
H  6.10400 2.84100 38.83500
N  0.07400 -0.16800 44.34600
C  -0.20300 0.96000 43.68600
C  -1.60800 1.12200 43.64800
C  -2.19800 0.00200 44.29700
C  -1.07200 -0.77000 44.74000
C  -2.33200 2.19900 42.78400
C  -3.67200 -0.32900 44.24800
O  -4.51000 0.36300 43.66600
C  -4.14400 -1.63200 44.94100
N  1.33500 -2.75500 45.38300
C  -0.00800 -2.92300 45.69500
C  -0.29100 -4.31800 46.23100
C  1.10200 -5.02100 46.25300
C  2.09500 -3.92000 45.76400
C  -1.23700 -4.37900 47.45000
C  1.19800 -6.38300 45.37300
C  1.75300 -6.29800 43.93000
N  3.97100 -1.84500 44.74600
C  4.39800 -3.10500 45.18800
C  5.82600 -3.15200 45.04900
C  6.21300 -1.85300 44.55800
C  5.02900 -1.15600 44.32300
C  6.70900 -4.26500 45.37600
C  7.37300 -1.05700 44.23100
O  8.52700 -1.33400 44.17700
C  6.75200 0.26600 43.71400
C  7.16300 1.38100 44.56000
O  6.62900 1.75600 45.60800
O  8.38400 1.94300 43.98200
C  8.89500 3.16900 44.66000
H  0.41500 2.78400 42.69200
H  -1.92200 -2.51900 45.78700
H  3.78000 -5.05000 46.06300
H  5.24700 2.81200 42.76200
H  2.65700 3.20300 41.38500
H  2.93100 4.92000 42.53600
H  3.88000 4.13700 43.77100
H  2.02900 3.96800 43.86900
H  4.04800 1.77700 40.19800
H  5.12200 0.67100 41.10200
H  6.95100 1.62700 40.44000
H  6.17900 3.20200 40.97100
H  -2.93100 1.70100 42.02200
H  -1.59200 2.89100 42.38100
H  -3.13100 2.76000 43.26800
H  -5.18600 -1.76600 44.65200
H  -4.00600 -1.50400 46.01400
H  -3.66100 -2.52300 44.53900
H  -0.81900 -4.74400 45.37800
H  1.34300 -5.30900 47.27600
H  -2.28600 -4.37000 47.15500
H  -0.91000 -3.59100 48.12800
H  -1.05600 -5.37000 47.86600
H  0.20400 -6.82900 45.37600
H  1.81600 -7.09200 45.92300
H  1.14000 -6.91100 43.26900
H  2.82000 -6.50300 43.84200
H  1.61600 -5.30100 43.51100
H  7.71900 -3.93200 45.13900
H  6.54900 -5.18000 44.80600
H  6.60900 -4.56800 46.41800
H  7.20000 0.36300 42.72500
H  8.20500 3.99700 44.49600
H  9.73000 3.51600 44.05200
H  9.26200 3.02500 45.67600
Mg 0.51600 42.64300 26.22400
C  2.62200 42.56600 28.94200
C  -1.95000 41.27800 28.35800
C  -1.54200 42.46100 23.54500
C  3.20100 43.37300 24.12700
N  0.40000 41.99100 28.40700
C  1.30600 42.26300 29.37600
C  0.69400 42.00000 30.79500
C  -0.36200 40.92600 30.44600
C  -0.66600 41.41300 28.97800
C  0.14300 39.54100 30.51300
C  0.21400 43.30500 31.59600
C  0.89900 43.56000 33.01800
H  0.69300 42.46400 34.02100
N  -1.44400 42.15100 26.06600
C  -2.23900 41.51200 26.99500
C  -3.52600 41.25000 26.39300
C  -3.46600 41.64800 25.07000
C  -2.11400 42.11100 24.84200
C  -4.65300 40.63100 27.24800
C  -4.63900 41.58600 24.11600
O  -4.62300 42.06500 23.00400
C  -5.94200 40.86300 24.37200
N  0.76600 43.06200 24.13200
C  -0.23700 42.80100 23.20300
C  0.27700 43.07700 21.77800
C  1.74900 43.37400 22.00200
C  1.95000 43.35700 23.49800
C  -0.11500 41.96500 20.76500
C  2.14200 44.72600 21.28400
C  2.48500 46.01600 22.10700
N  2.45300 42.85500 26.43400
C  3.45200 43.17600 25.48600
C  4.72000 43.33000 26.16100
C  4.44600 43.06000 27.52300
C  3.04000 42.77500 27.64400
C  6.04100 43.65300 25.63800
C  5.06100 42.91100 28.76700
O  6.25300 42.86300 29.04500
C  3.89600 42.68500 29.79400
C  4.22100 41.41700 30.58400
O  4.30100 40.29800 30.08900
O  4.60600 41.75300 31.89600
C  5.14500 40.74300 32.68300
H  -2.69100 40.75100 28.96300
H  -2.21000 42.24900 22.70800
H  4.17500 43.52200 23.65800
H  1.46800 41.58900 31.44300
H  -1.25800 41.01300 31.06100
H  -0.11100 39.00500 31.42700
H  1.20200 39.53400 30.25500
H  -0.40200 39.05800 29.70200
H  -0.82300 43.11500 31.87200
H  0.28700 44.16900 30.93500
H  0.49300 44.49600 33.40000
H  1.97900 43.64800 32.89600
H  -4.52300 40.88600 28.30000
H  -4.72400 39.55100 27.11500
H  -5.58600 41.12700 26.97900
H  -5.70700 39.85200 24.70400
H  -6.36900 40.81500 23.37000
H  -6.63200 41.39500 25.02700
H  -0.29200 43.94500 21.44400
H  2.29600 42.47300 21.72400
H  0.70300 41.81600 20.06000
H  -1.04700 42.28600 20.29800
H  -0.32900 40.99700 21.21700
H  1.31900 44.99800 20.62400
H  2.99000 44.46200 20.65200
H  3.57200 46.09400 22.12200
H  2.11800 45.84000 23.11800
H  2.05300 46.80900 21.49500
H  5.91100 44.20300 24.70600
H  6.57900 42.76200 25.31500
H  6.63900 44.34200 26.23500
H  3.93900 43.49800 30.51900
H  4.84700 41.06500 33.68100
H  6.23000 40.80400 32.60700
H  4.72500 39.74500 32.56200

