158

Mg -0.59400 7.24700 25.79800
C  0.18700 9.19400 28.66500
C  -0.62700 4.52600 27.87000
C  -0.77600 5.34200 23.07300
C  0.13000 10.06800 23.81700
N  -0.29300 6.94600 28.01600
C  -0.09300 7.85100 28.98400
C  -0.26700 7.26000 30.33500
C  -0.10100 5.77300 30.11100
C  -0.39000 5.73700 28.58800
C  1.26000 5.23800 30.43500
C  -1.69900 7.57700 30.95600
C  -1.67800 8.24400 32.35500
H  -0.62800 7.96800 33.46800
N  -0.73900 5.19600 25.57000
C  -0.81000 4.25000 26.48100
C  -1.08100 3.01200 25.86500
C  -1.15600 3.18900 24.46500
C  -0.82800 4.63100 24.29300
C  -1.19700 1.71500 26.66300
C  -1.43000 2.14100 23.37300
O  -1.35800 2.33200 22.12600
C  -1.80600 0.69300 23.71100
N  -0.45400 7.66200 23.75600
C  -0.66500 6.76400 22.86600
C  -0.58800 7.33800 21.45400
C  -0.59100 8.83200 21.75700
C  -0.19200 8.85300 23.17600
C  0.78200 6.86100 20.73100
C  -2.01600 9.46300 21.34000
C  -2.13900 10.13900 20.03800
N  -0.01700 9.24300 26.10600
C  0.27200 10.24200 25.22500
C  0.55300 11.44300 25.89600
C  0.58700 11.12300 27.28800
C  0.19200 9.78300 27.37000
C  0.68200 12.78100 25.41100
C  0.77600 11.61400 28.64900
O  1.14600 12.73200 28.99100
C  0.46600 10.38000 29.54800
C  1.61000 10.23000 30.56600
O  2.59000 9.49100 30.42300
O  1.36000 11.05600 31.66700
C  2.33900 10.82400 32.71900
H  -0.63800 3.58900 28.43000
H  -0.80800 4.91100 22.07100
H  0.22800 10.96400 23.20000
H  0.60100 7.54800 30.92900
H  -0.84400 5.23400 30.69900
H  1.78500 6.00700 31.00000
H  1.84700 5.02700 29.54100
H  1.18500 4.31800 31.01500
H  -2.20300 6.62700 31.13200
H  -2.13800 8.23100 30.20300
H  -2.59800 7.81300 32.75000
H  -1.84500 9.30800 32.18700
H  -2.20900 1.49400 27.00200
H  -0.59500 1.71900 27.57100
H  -0.81200 0.89800 26.05200
H  -0.99800 0.12000 24.16500
H  -2.13000 0.22000 22.78400
H  -2.71800 0.63700 24.30600
H  -1.45600 7.12200 20.83200
H  0.21200 9.31500 21.20000
H  0.88600 5.81300 21.01300
H  1.63900 7.46300 21.03000
H  0.61900 6.89000 19.65300
H  -2.26800 10.25500 22.04400
H  -2.82800 8.74900 21.47900
H  -3.05200 9.74900 19.58900
H  -1.29500 9.88600 19.39600
H  -2.21900 11.21400 20.19600
H  -0.12400 12.95200 24.69700
H  1.59200 13.04300 24.87100
H  0.66900 13.51100 26.22100
H  -0.45600 10.62700 30.07500
H  3.29300 10.38800 32.42200
H  1.81300 10.35300 33.54900
H  2.57900 11.85100 32.99400
Mg 27.68700 49.86100 26.48700
C  25.64000 50.86300 29.14200
C  30.07200 49.01800 28.86100
C  29.80700 49.40300 23.98900
C  25.08300 50.61100 24.25800
N  27.77200 49.98700 28.81300
C  26.80500 50.33700 29.62400
C  27.22200 50.24900 31.07200
C  28.73600 49.74900 30.98600
C  28.90700 49.59700 29.50100
C  29.75800 50.78100 31.60200
C  26.34900 49.18300 31.87500
C  25.58400 49.75000 33.14400
H  26.42600 49.67200 34.38700
N  29.54200 49.07700 26.42000
C  30.36600 48.81900 27.52700
C  31.64900 48.40200 26.97900
C  31.59600 48.51300 25.56500
C  30.27400 49.03600 25.28200
C  32.72500 47.79400 27.96700
C  32.68500 48.23400 24.52000
O  32.53000 48.50500 23.29300
C  33.97100 47.64400 24.99500
N  27.54900 50.18200 24.34300
C  28.53200 49.74300 23.54800
C  28.14000 49.93100 22.01700
C  26.55800 50.21600 22.16600
C  26.33600 50.33500 23.69100
C  28.79700 51.13100 21.32300
C  25.69000 49.04200 21.55700
C  25.48500 47.69600 22.36400
N  25.76400 50.67900 26.68300
C  24.81300 50.87400 25.65600
C  23.61800 51.42000 26.26200
C  23.86800 51.46700 27.64000
C  25.22300 51.03200 27.82800
C  22.41200 51.84600 25.50700
C  23.32400 51.71700 28.93700
O  22.33300 52.31100 29.26200
C  24.34500 51.34600 29.94000
C  24.65900 52.52800 30.83600
O  25.61800 53.30900 30.77800
O  23.64400 52.54900 31.81600
C  23.90700 53.39600 33.00300
H  30.80100 48.61400 29.56500
H  30.43200 49.14000 23.13400
H  24.18100 50.66100 23.64500
H  27.18800 51.20900 31.58800
H  28.86000 48.78400 31.47800
H  30.55200 51.07300 30.91500
H  30.18300 50.26000 32.46000
H  29.21500 51.68900 31.86600
H  26.95200 48.32500 32.17300
H  25.59300 48.75600 31.21700
H  24.59700 49.29400 33.20700
H  25.36500 50.81000 33.01200
H  32.64300 46.71400 27.84200
H  32.65500 48.01900 29.03100
H  33.72200 48.17100 27.73900
H  34.55900 47.35100 24.12600
H  33.62800 46.75900 25.53100
H  34.51300 48.44100 25.50300
H  28.37500 49.00200 21.49700
H  26.24600 51.16100 21.72300
H  29.43300 50.75600 20.52200
H  29.48200 51.65000 21.99400
H  28.08500 51.79300 20.83000
H  26.10200 48.77200 20.58500
H  24.66500 49.41000 21.51400
H  24.50400 47.67800 22.84000
H  26.25500 47.74100 23.13500
H  25.67200 46.74400 21.86800
H  21.65100 51.58800 26.24300
H  22.28700 51.24300 24.60800
H  22.53300 52.91000 25.30100
H  23.95300 50.60300 30.63400
H  24.93100 53.75800 33.09500
H  23.63900 52.74600 33.83600
H  23.32700 54.31900 33.03700

