158

Mg 41.02100 7.79500 29.52100
C  42.92200 9.22400 32.08100
C  38.65000 6.80200 31.81800
C  39.54900 5.99500 27.12500
C  43.81600 8.03900 27.34700
N  40.86700 7.90700 31.74900
C  41.68500 8.73200 32.54700
C  41.03000 8.81000 33.96300
C  39.82000 7.86200 33.95300
C  39.75700 7.40000 32.43800
C  39.75300 6.64200 34.85000
C  40.72900 10.35900 34.16900
C  40.03500 10.72600 35.47400
H  40.75200 11.67200 36.45700
N  39.35800 6.61000 29.54600
C  38.41300 6.44800 30.50800
C  37.31200 5.70100 30.02700
C  37.51800 5.41500 28.66400
C  38.91100 5.93600 28.41000
C  36.09600 5.36000 30.93100
C  36.62000 4.72600 27.63300
O  36.98600 4.49600 26.45400
C  35.10300 4.44400 27.95800
N  41.58500 7.07500 27.48900
C  40.75300 6.41700 26.74500
C  41.31700 6.07000 25.39400
C  42.50100 7.05700 25.35200
C  42.72100 7.28900 26.83300
C  41.60100 4.64500 25.04900
C  42.23200 8.39600 24.58200
C  43.43500 9.38800 24.16200
N  42.95000 8.47700 29.63600
C  43.96800 8.47000 28.66400
C  45.07100 9.17300 29.17200
C  44.72500 9.45000 30.51800
C  43.45100 9.01500 30.74800
C  46.27600 9.66300 28.42600
C  45.15100 10.11100 31.77000
O  46.20100 10.65500 32.06700
C  43.98600 10.00900 32.85600
C  44.48800 9.31400 34.06400
O  44.92300 8.16300 34.04900
O  44.39700 10.08800 35.20700
C  44.38300 9.28500 36.45000
H  37.84300 6.69100 32.54600
H  39.07200 5.40800 26.33700
H  44.69300 8.13500 26.70300
H  41.76900 8.48400 34.69400
H  38.85400 8.35100 34.07500
H  39.97300 5.73800 34.28200
H  38.89700 6.59600 35.52400
H  40.54400 6.67600 35.59900
H  40.23200 10.80400 33.30800
H  41.64000 10.95500 34.22600
H  39.87400 9.77300 35.97700
H  39.15500 11.33400 35.26300
H  35.17100 5.75700 30.51400
H  36.15300 5.61200 31.99000
H  36.01200 4.27400 30.95600
H  35.07200 3.80800 28.84300
H  34.56700 3.95500 27.14400
H  34.55400 5.36900 28.13600
H  40.63300 6.44200 24.63100
H  43.31900 6.58300 24.81000
H  41.06500 3.86700 25.59300
H  42.66800 4.54900 25.24600
H  41.44900 4.51500 23.97700
H  41.64100 8.92800 25.32700
H  41.56700 8.07300 23.78100
H  43.39100 9.48900 23.07800
H  44.30900 8.85400 24.53600
H  43.33500 10.39200 24.57600
H  45.86700 9.90400 27.44500
H  47.01000 8.86500 28.31800
H  46.67100 10.62300 28.75900
H  43.79300 11.03700 33.16200
H  45.42900 9.13000 36.71700
H  43.81200 8.37000 36.29300
H  43.90200 9.78800 37.28800
Mg -0.25000 43.36200 25.98200
C  2.01800 42.67700 28.73200
C  -2.73100 41.88600 27.90200
C  -2.18700 43.11300 23.30800
C  2.55800 43.81100 23.92400
N  -0.32100 42.28900 28.06100
C  0.64300 42.46000 29.06600
C  0.03900 42.08100 30.39400
C  -1.44800 41.67200 30.04200
C  -1.54900 41.98100 28.59200
C  -1.90500 40.19700 30.46200
C  0.20400 43.22900 31.42500
C  0.44200 43.03400 32.93600
H  0.40800 41.54800 33.45000
N  -2.35300 42.86600 25.70100
C  -3.13500 42.24900 26.59000
C  -4.51100 42.11900 26.05200
C  -4.33200 42.35500 24.63700
C  -2.95900 42.79100 24.49100
C  -5.56600 41.55000 26.86400
C  -5.28900 42.24500 23.41500
O  -4.92400 42.58300 22.32100
C  -6.64400 41.67500 23.65300
N  0.15800 43.46500 23.90500
C  -0.85100 43.41100 23.00300
C  -0.36300 43.89200 21.61000
C  1.14000 43.93800 21.76800
C  1.32900 43.80600 23.29400
C  -0.90500 43.00200 20.46900
C  1.75500 45.16300 21.03200
C  2.10900 46.43200 21.91900
N  1.85000 43.25300 26.21700
C  2.83400 43.51700 25.24400
C  4.16300 43.47400 25.90600
C  3.84800 43.06700 27.21200
C  2.46500 42.92800 27.36900
C  5.50500 43.76500 25.33200
C  4.49900 42.72600 28.52300
O  5.66300 42.53900 28.85900
C  3.29100 42.60400 29.58300
C  3.55600 41.42500 30.33900
O  3.38800 40.23900 30.04000
O  4.10600 41.87300 31.48700
C  4.60600 40.78400 32.30600
H  -3.49200 41.46800 28.56400
H  -2.85400 43.28900 22.46200
H  3.41500 44.05800 23.29400
H  0.55600 41.19100 30.75200
H  -2.27200 42.26100 30.44500
H  -2.34100 40.28700 31.45700
H  -1.03500 39.54000 30.46800
H  -2.58900 39.88600 29.67300
H  -0.71100 43.82200 31.41100
H  0.98400 43.91600 31.09600
H  -0.35300 43.52100 33.50200
H  1.42800 43.35100 33.27600
H  -6.39900 42.24500 26.75500
H  -5.30500 41.67900 27.91500
H  -5.92700 40.56100 26.58400
H  -6.54000 40.77900 24.26500
H  -7.00900 41.49400 22.64200
H  -7.33200 42.43400 24.02500
H  -0.79200 44.88800 21.49500
H  1.47500 42.99100 21.34500
H  -1.48300 42.24000 20.99100
H  -0.08500 42.53100 19.92700
H  -1.50400 43.39000 19.64500
H  1.10600 45.50300 20.22500
H  2.68700 44.75200 20.64600
H  1.84100 46.34000 22.97100
H  1.93300 47.42200 21.49700
H  3.19900 46.40900 21.94100
H  5.58200 44.83900 25.16300
H  5.53000 43.26100 24.36600
H  6.26500 43.50400 26.06900
H  3.14800 43.50800 30.17600
H  4.21200 40.99600 33.29900
H  5.68900 40.81700 32.42300
H  4.31200 39.77100 32.02900

