158

Mg -0.11900 7.36800 27.34000
C  0.83100 9.59600 29.76000
C  0.02300 4.89000 29.67400
C  -0.79700 5.17400 24.87200
C  0.59700 9.73900 24.84000
N  0.37900 7.27300 29.39500
C  0.53200 8.30300 30.20100
C  0.50100 7.86600 31.71600
C  0.51500 6.38100 31.65200
C  0.34700 6.14000 30.13900
C  1.77300 5.64700 32.21700
C  -0.61300 8.54300 32.53200
C  -0.35900 8.83100 33.98800
H  0.80900 8.41300 34.81400
N  -0.48200 5.39100 27.35400
C  -0.36900 4.50800 28.40800
C  -0.77800 3.18000 28.01100
C  -1.09000 3.21700 26.63200
C  -0.82500 4.65000 26.22100
C  -0.65300 1.98200 28.89100
C  -1.53600 2.18400 25.65300
O  -1.70100 2.32800 24.47700
C  -1.71100 0.80800 26.24000
N  -0.19600 7.49100 25.11400
C  -0.51600 6.40200 24.35800
C  -0.36300 6.80000 22.87000
C  -0.26600 8.39000 22.90400
C  0.00700 8.60800 24.36500
C  0.83000 6.00700 22.20800
C  -1.62800 9.07900 22.55600
C  -1.66800 10.34500 21.67900
N  0.60000 9.22500 27.20300
C  0.88700 10.09800 26.19000
C  1.42400 11.35800 26.68500
C  1.37600 11.20300 28.06700
C  0.93400 9.90300 28.33800
C  1.73600 12.53000 25.87300
C  1.67400 11.91500 29.37300
O  2.07500 13.03900 29.57400
C  1.32600 10.85800 30.61000
C  2.55700 10.68400 31.43800
O  3.48600 9.96700 31.14200
O  2.45000 11.43500 32.59600
C  3.61400 11.43300 33.46000
H  0.02700 4.05200 30.37400
H  -0.98400 4.52200 24.01700
H  0.67700 10.58300 24.15200
H  1.39000 8.33300 32.13900
H  -0.33400 5.96400 32.19400
H  2.30600 5.03100 31.49300
H  1.41100 5.11400 33.09600
H  2.50500 6.32200 32.66000
H  -1.47400 7.87600 32.52100
H  -0.85000 9.47900 32.02500
H  -1.29500 8.60700 34.50100
H  -0.31600 9.92000 33.97200
H  0.09400 2.12900 29.67100
H  -0.43500 1.08600 28.31000
H  -1.57500 1.85900 29.46100
H  -2.09400 0.09500 25.50900
H  -2.26500 0.84200 27.17800
H  -0.70100 0.51200 26.52400
H  -1.19000 6.42000 22.27100
H  0.42900 8.84000 22.19500
H  0.46300 5.34200 21.42700
H  1.31900 5.56100 23.07500
H  1.51000 6.72700 21.75200
H  -2.05600 9.46100 23.48300
H  -2.26400 8.27100 22.19300
H  -2.29900 10.31500 20.79100
H  -0.66300 10.59100 21.33600
H  -1.99000 11.15300 22.33600
H  2.65200 12.32700 25.31900
H  1.74600 13.38300 26.55200
H  0.83300 12.69300 25.28600
H  0.46400 11.22500 31.16700
H  3.50200 12.20700 34.21900
H  4.47000 11.62700 32.81400
H  3.71700 10.46100 33.94400
Mg 29.69600 58.78600 41.47000
C  27.23600 56.82800 39.92300
C  32.13900 56.47900 40.13700
C  32.32200 60.93300 41.90600
C  27.32400 61.16400 42.25100
N  29.61700 56.88700 40.10800
C  28.50800 56.29000 39.68200
C  28.85800 55.06400 38.80300
C  30.24700 54.74300 39.38900
C  30.79200 56.11100 39.92400
C  30.38100 53.61300 40.42300
C  28.78600 55.34700 37.25300
C  28.08200 54.34500 36.39700
H  27.27900 54.88400 35.21100
N  31.89000 58.70800 41.14200
C  32.60500 57.75400 40.56700
C  33.95600 58.05100 40.43500
C  34.12600 59.27500 41.06500
C  32.73900 59.67300 41.55100
C  35.00900 57.14200 39.77200
C  35.39200 60.03800 41.10300
O  36.47500 59.55700 40.74600
C  35.40800 61.37100 41.66500
N  29.78400 60.79300 41.99000
C  30.99900 61.39400 42.25400
C  30.73200 62.83800 42.70800
C  29.13000 62.94200 42.88900
C  28.66700 61.54500 42.39100
C  31.56800 63.20000 43.97800
C  28.35200 64.15300 42.12600
C  27.14600 64.66800 43.07100
N  27.71600 58.93300 41.26900
C  26.88600 59.94600 41.67900
C  25.47500 59.57000 41.43300
C  25.55100 58.36900 40.67500
C  26.94600 58.02100 40.62900
C  24.20200 60.31900 41.69200
C  24.84200 57.38700 39.98700
O  23.60200 57.28900 39.75900
C  25.86900 56.30600 39.48600
C  25.51100 54.95500 40.09000
O  25.19100 54.72700 41.24900
O  25.53800 54.02400 39.06500
C  25.13400 52.67400 39.53000
H  32.78100 55.64100 39.85900
H  33.00100 61.78300 41.81000
H  26.55600 61.85000 42.61500
H  28.26700 54.21400 39.14300
H  30.93700 54.49200 38.58400
H  29.41400 53.48000 40.90900
H  31.07100 54.09200 41.11800
H  30.76600 52.70700 39.95500
H  29.75900 55.44100 36.77100
H  28.33600 56.34000 37.22900
H  27.41400 53.75100 37.02200
H  28.83300 53.64800 36.02500
H  35.86000 57.61600 39.28300
H  34.54800 56.55400 38.97900
H  35.37000 56.34100 40.41700
H  36.46400 61.60800 41.78600
H  34.78600 61.34000 42.56000
H  34.89200 61.91800 40.87600
H  31.02500 63.52800 41.91700
H  28.95400 62.89000 43.96300
H  32.15100 62.31400 44.23100
H  30.96200 63.53800 44.81800
H  32.25400 64.04000 43.86700
H  28.03000 63.77200 41.15700
H  29.07600 64.95000 41.95400
H  26.27600 64.31700 42.51600
H  26.95400 65.73700 43.15100
H  27.10200 64.14700 44.02800
H  23.60300 59.92900 42.51500
H  23.65200 60.12800 40.77000
H  24.40400 61.39000 41.72200
H  25.88100 56.23300 38.39900
H  24.09100 52.64500 39.84600
H  25.69600 52.48200 40.44400
H  25.18100 51.97700 38.69300

