158

Mg 45.06700 3.65900 47.03800
C  43.17000 6.55800 46.93400
C  42.39700 1.78400 47.16200
C  47.14600 1.02600 46.28700
C  48.07300 5.89000 46.74200
N  43.03200 4.14800 46.88100
C  42.41500 5.35300 46.86800
C  40.90000 5.23700 46.93400
C  40.72900 3.68800 47.07800
C  42.14000 3.16500 47.05200
C  39.94900 3.10600 48.35500
C  40.07800 5.75200 45.72300
C  40.69600 5.68100 44.38700
H  40.98900 6.92400 43.59600
N  44.75800 1.70100 46.68900
C  43.56100 0.99600 46.87900
C  43.81300 -0.42600 46.69200
C  45.20200 -0.59800 46.35400
C  45.73600 0.78900 46.34900
C  42.76700 -1.48500 46.82500
C  45.85500 -1.88700 45.99300
O  45.24600 -2.94800 46.15400
C  47.25400 -1.94600 45.51600
N  47.36000 3.53100 46.76900
C  47.86000 2.30900 46.43900
C  49.40000 2.42500 46.27700
C  49.71500 3.91800 46.40800
C  48.31500 4.48700 46.71000
C  50.13800 1.53600 47.41000
C  50.50200 4.56400 45.20000
C  51.98400 4.77700 45.38000
N  45.60800 5.77300 46.99000
C  46.74500 6.49100 46.89300
C  46.49000 7.92600 46.87500
C  45.10000 8.04400 46.98600
C  44.61100 6.70500 46.94100
C  47.59600 8.99300 46.74000
C  43.95200 8.87900 47.06100
O  43.79500 10.08100 46.95800
C  42.67500 7.87500 46.98500
C  41.69700 8.22700 48.11100
O  41.67500 7.60800 49.17600
O  40.71700 9.00300 47.57300
C  39.49200 9.05300 48.33400
H  41.55300 1.10200 47.28200
H  47.93600 0.27700 46.19700
H  48.93100 6.54000 46.55400
H  40.38800 5.70100 47.77700
H  40.19900 3.21500 46.25100
H  39.26000 3.89000 48.67000
H  40.71700 2.89200 49.09800
H  39.44500 2.18200 48.07200
H  39.88800 6.82300 45.80200
H  39.09300 5.29300 45.81500
H  39.97900 5.01800 43.90300
H  41.65000 5.16600 44.50500
H  42.83000 -2.08500 45.91700
H  41.77100 -1.05600 46.71100
H  42.91600 -2.15200 47.67400
H  47.39800 -2.97800 45.19900
H  47.94800 -1.76400 46.33700
H  47.34600 -1.21500 44.71300
H  49.73700 2.18500 45.26800
H  50.28700 4.04400 47.32700
H  50.87700 2.21300 47.83900
H  50.67200 0.65500 47.05300
H  49.50000 1.23400 48.24000
H  50.11600 5.57000 45.03800
H  50.36600 4.04100 44.25300
H  52.22100 5.83800 45.46300
H  52.44000 4.32300 44.50000
H  52.33800 4.20000 46.23400
H  48.17500 8.70100 45.86400
H  48.17300 9.06600 47.66100
H  47.16900 9.99700 46.74600
H  42.14900 8.24800 46.10600
H  39.11200 8.03200 48.37200
H  38.74700 9.73700 47.93000
H  39.78500 9.40100 49.32400
Mg 43.09300 41.90200 26.68400
C  42.19900 44.00300 29.26800
C  44.72700 39.87500 29.12500
C  44.00400 39.77800 24.37000
C  42.07200 44.20900 24.35900
N  43.41100 41.89500 28.88300
C  42.91600 42.88900 29.75400
C  43.02200 42.47500 31.20400
C  44.14500 41.36400 31.17500
C  44.22200 41.08300 29.61500
C  45.60200 41.69700 31.76600
C  41.66600 42.01800 31.83600
C  41.21300 42.80700 33.06500
H  40.73800 42.06700 34.34900
N  44.16100 40.01100 26.76500
C  44.69700 39.37100 27.82600
C  45.16200 37.97400 27.33000
C  44.84200 37.92000 25.94800
C  44.26500 39.28400 25.65800
C  45.68800 36.97300 28.36900
C  45.20500 36.81400 24.95000
O  45.01000 36.79800 23.78800
C  45.88000 35.66200 25.56300
N  43.10900 42.05400 24.66900
C  43.58800 41.02900 23.88300
C  43.52800 41.44300 22.39500
C  42.64300 42.67400 22.44800
C  42.61400 43.04500 23.90500
C  44.95700 41.65200 21.73600
C  41.29600 42.53700 21.73700
C  40.32900 41.56200 22.38400
N  42.18600 43.62700 26.75400
C  41.79900 44.51300 25.70900
C  41.23900 45.73200 26.25300
C  41.29400 45.50300 27.66500
C  41.92500 44.31200 27.91100
C  40.83100 46.95900 25.59900
C  41.02400 46.19100 28.95600
O  40.44500 47.28100 29.21700
C  41.52600 45.19700 30.08300
C  42.41700 45.97600 30.93800
O  43.56100 46.27300 30.62600
O  41.84500 46.25500 32.15200
C  42.59300 46.91500 33.24200
H  45.34300 39.32700 29.84100
H  44.41000 39.14200 23.58200
H  41.70600 44.95800 23.65400
H  43.37600 43.35800 31.73600
H  43.81700 40.45000 31.66900
H  45.84300 41.08200 32.63400
H  45.82000 42.72800 32.04500
H  46.25200 41.34100 30.96700
H  41.78100 41.00200 32.21300
H  40.91400 41.88400 31.05800
H  40.35000 43.33700 32.66200
H  41.98200 43.49400 33.41600
H  45.89000 37.28400 29.39400
H  46.56800 36.51800 27.91500
H  45.00300 36.12600 28.36700
H  46.81900 35.91500 26.05600
H  46.10700 35.13600 24.63500
H  45.20700 35.00300 26.11000
H  43.09000 40.60000 21.86000
H  43.11100 43.53000 21.96000
H  45.75000 41.26700 22.37600
H  45.13800 42.72500 21.67700
H  45.05800 41.14200 20.77800
H  41.27600 42.27300 20.68000
H  40.87500 43.53800 21.83200
H  39.48700 42.14300 22.76100
H  40.63400 41.00000 23.26700
H  39.96300 40.90200 21.59800
H  39.75500 47.12700 25.64800
H  41.11500 47.10700 24.55700
H  41.28800 47.74200 26.20400
H  40.61100 44.92000 30.60700
H  42.25500 47.95000 33.27400
H  43.64800 46.82900 32.98100
H  42.29000 46.43500 34.17200

