158

Mg 30.80400 57.73700 40.45900
C  27.80200 56.16600 39.42300
C  32.50400 54.97200 39.68100
C  33.59000 59.55700 40.52500
C  28.88400 60.74800 40.86400
N  30.26000 55.90100 39.39500
C  28.96100 55.35100 39.25300
C  29.00600 53.95300 38.59600
C  30.36600 53.52000 39.18900
C  31.11500 54.86300 39.48000
C  30.40800 52.63700 40.52900
C  28.90600 54.00300 36.96900
C  27.61100 53.37700 36.27900
H  26.73800 54.23300 35.32000
N  32.83700 57.31000 40.12900
C  33.33600 56.13100 39.91300
C  34.80700 56.23100 39.79500
C  35.09200 57.61900 40.16600
C  33.78500 58.23800 40.22600
C  35.72300 55.08200 39.41200
C  36.49300 58.17600 40.35900
O  37.47300 57.42100 40.16200
C  36.79300 59.65700 40.69000
N  31.18800 60.03300 40.40500
C  32.44800 60.40100 40.73200
C  32.41400 61.86800 41.04000
C  30.90600 62.25000 41.32300
C  30.23900 60.93800 40.81800
C  33.33900 62.34100 42.20000
C  30.38700 63.62400 40.67400
C  29.70300 64.56300 41.70500
N  28.71000 58.37500 40.24000
C  28.13900 59.56900 40.48100
C  26.71800 59.54300 40.36300
C  26.51700 58.15600 39.96800
C  27.77400 57.50200 39.90000
C  25.67600 60.57700 40.68100
C  25.51900 57.16300 39.51300
O  24.29800 57.19300 39.28900
C  26.34100 55.78800 39.24300
C  25.82000 54.62400 40.09000
O  26.42700 54.15400 41.07900
O  24.55300 54.28400 39.58800
C  23.72900 53.36100 40.44700
H  33.17200 54.12500 39.50700
H  34.43100 60.23500 40.68200
H  28.26600 61.56400 41.24500
H  28.19000 53.33400 38.96900
H  30.90400 53.05100 38.36500
H  29.41600 52.68400 40.97800
H  31.08700 53.19700 41.17200
H  30.73700 51.60700 40.38900
H  29.73300 53.42500 36.55600
H  29.14300 55.04300 36.74300
H  26.98700 52.85700 37.00500
H  28.02500 52.59500 35.64200
H  36.23800 54.82600 40.33800
H  36.46200 55.31400 38.64500
H  35.12600 54.29100 38.95800
H  36.44100 60.43300 40.01000
H  37.85800 59.68100 40.92100
H  36.29100 59.82300 41.64300
H  32.68800 62.42800 40.14600
H  30.56100 62.12800 42.35000
H  34.22700 62.79200 41.75700
H  33.69700 61.42600 42.67200
H  32.85700 62.88400 43.01300
H  29.74000 63.26700 39.87200
H  31.28600 64.14000 40.33600
H  29.14600 64.00500 42.45700
H  28.97400 65.09200 41.09100
H  30.23400 65.41600 42.12900
H  25.26600 60.48700 41.68600
H  24.86800 60.40200 39.97000
H  26.11400 61.57500 40.66100
H  26.15900 55.45300 38.22200
H  23.21600 53.98300 41.18100
H  24.32500 52.62100 40.98000
H  23.05800 52.81700 39.78300
Mg 1.07400 42.80800 25.93700
C  3.13600 43.14100 28.72900
C  -1.62200 42.33600 27.96500
C  -0.73400 42.11700 23.12400
C  3.83900 43.23100 23.90100
N  0.81800 42.73200 28.13300
C  1.81600 42.91900 29.09800
C  1.17700 43.04200 30.48700
C  -0.31700 42.56300 30.19400
C  -0.45500 42.60700 28.70500
C  -0.73300 41.21100 30.80700
C  1.32600 44.42600 31.20100
C  1.36400 44.52500 32.74000
H  0.89500 43.23700 33.53000
N  -0.87000 42.27400 25.58500
C  -1.84500 42.29100 26.51800
C  -3.13300 42.24700 25.81900
C  -2.89600 42.12600 24.41600
C  -1.42900 42.16800 24.33100
C  -4.47700 42.36000 26.48700
C  -3.87200 41.97200 23.20800
O  -3.51200 41.78200 22.10500
C  -5.29700 42.14200 23.44900
N  1.51700 42.59100 23.81300
C  0.59800 42.33800 22.87000
C  1.21500 42.40900 21.47800
C  2.70700 42.85600 21.73400
C  2.69800 42.88000 23.27900
C  1.10800 41.15500 20.61400
C  2.92000 44.33300 21.18300
C  2.19100 45.53300 21.87200
N  3.08400 43.10400 26.17900
C  4.09900 43.29100 25.23700
C  5.34100 43.52500 25.94800
C  5.00600 43.38100 27.30800
C  3.60100 43.27100 27.39400
C  6.66000 43.92700 25.29000
C  5.52000 43.41800 28.67200
O  6.67000 43.57200 29.03300
C  4.32900 43.34100 29.60300
C  4.53800 42.18100 30.49900
O  4.81000 41.04500 30.17100
O  4.52200 42.65400 31.78200
C  5.00200 41.75700 32.85800
H  -2.52500 42.19500 28.56300
H  -1.32900 41.92800 22.22800
H  4.69400 43.52500 23.28800
H  1.61400 42.26600 31.11600
H  -0.97300 43.27100 30.70000
H  -1.43300 41.47300 31.60000
H  0.14500 40.65700 31.13900
H  -1.24300 40.54400 30.11200
H  0.40200 44.94500 30.94400
H  2.18000 45.02000 30.87500
H  0.85000 45.43700 33.04400
H  2.41400 44.71100 32.96500
H  -4.87100 43.23800 25.97400
H  -4.43600 42.62400 27.54400
H  -5.15400 41.55600 26.19800
H  -5.63500 41.41300 24.18500
H  -5.87800 41.99200 22.53900
H  -5.39700 43.13100 23.89500
H  0.69900 43.25600 21.02700
H  3.44900 42.14600 21.37000
H  2.08500 40.78200 20.30800
H  0.56400 41.44000 19.71300
H  0.59600 40.31700 21.08800
H  2.57800 44.47500 20.15800
H  4.00100 44.45200 21.24900
H  1.74600 45.29500 22.83800
H  1.47000 45.93800 21.16300
H  2.82700 46.40800 22.00500
H  7.03400 43.08400 24.70900
H  7.45400 44.36600 25.89500
H  6.49700 44.68600 24.52500
H  4.28900 44.32700 30.06600
H  4.60900 42.15200 33.79500
H  6.09100 41.77200 32.81500
H  4.67800 40.71800 32.80300

