158

Mg 53.84000 23.70300 44.93800
C  51.40400 26.14000 44.23200
C  51.76200 21.33600 43.60000
C  56.32000 21.42200 45.22900
C  56.08300 26.20900 45.58600
N  51.93200 23.81400 43.86200
C  51.11800 24.83000 43.75000
C  49.98600 24.51500 42.75800
C  49.83600 23.00900 43.23600
C  51.25600 22.65800 43.55800
C  48.83100 22.75400 44.36500
C  50.17100 24.68600 41.19500
C  51.48700 25.19900 40.68100
H  51.43700 25.93100 39.37400
N  53.99200 21.66800 44.59200
C  53.02200 20.87000 44.03400
C  53.43200 19.52900 44.14600
C  54.72600 19.48400 44.61600
C  55.09400 20.88800 44.82900
C  52.56600 18.32800 43.80100
C  55.56500 18.20600 44.91800
O  55.23800 17.06400 44.58000
C  56.84500 18.35100 45.65900
N  55.86800 23.79900 45.20300
C  56.71700 22.72100 45.28900
C  58.22400 23.15200 45.43100
C  58.09400 24.65200 45.75600
C  56.55900 24.92300 45.59200
C  59.11100 22.34400 46.52200
C  58.94800 25.64200 44.93100
C  58.45800 25.91300 43.50500
N  53.77100 25.82000 44.98400
C  54.72400 26.67000 45.31700
C  54.20000 28.07100 45.33300
C  52.83800 27.84400 45.02000
C  52.68900 26.48400 44.76700
C  54.93800 29.31000 45.70600
C  51.49200 28.49200 44.84800
O  51.16000 29.66200 45.07600
C  50.49400 27.35400 44.33500
C  49.87500 27.78800 43.08600
O  50.45500 28.25600 42.14200
O  48.47700 27.67900 43.13600
C  47.64000 27.94800 41.98300
H  51.05600 20.57800 43.25400
H  57.15400 20.72600 45.34000
H  56.78100 27.03700 45.72700
H  49.11600 25.02100 43.17600
H  49.40700 22.52100 42.36000
H  49.40100 22.25900 45.15100
H  48.02300 22.04300 44.19200
H  48.44100 23.70500 44.72800
H  49.45000 25.39900 40.79400
H  49.95500 23.72600 40.72800
H  52.17400 24.35300 40.68800
H  51.98000 25.88800 41.36600
H  52.51100 17.55300 44.56500
H  52.94600 18.00500 42.83200
H  51.50500 18.56800 43.72400
H  57.19000 17.37500 45.99900
H  56.69500 18.98400 46.53400
H  57.44100 18.86900 44.90800
H  58.71000 22.99500 44.46800
H  58.31900 24.87900 46.79900
H  59.28600 23.01600 47.36200
H  60.03600 22.29500 45.94600
H  58.69800 21.37100 46.78700
H  59.93200 25.18600 45.04600
H  58.94000 26.52500 45.57000
H  59.05000 25.68100 42.61900
H  58.45300 26.99400 43.36900
H  57.49300 25.43900 43.32800
H  55.79800 29.44500 45.05100
H  55.26800 29.20000 46.73900
H  54.29700 30.18800 45.62400
H  49.87500 27.06600 45.18400
H  46.97600 27.10600 41.78500
H  48.06300 28.31300 41.04800
H  47.04400 28.80600 42.29300
Mg 26.80500 49.94900 26.53700
C  24.51000 51.06400 29.02500
C  28.95300 48.93700 29.08100
C  29.10000 49.25700 24.27600
C  24.60800 51.26700 24.13700
N  26.73200 49.97500 28.81400
C  25.61700 50.34800 29.53500
C  26.00300 50.24100 31.01600
C  27.56300 49.82500 31.00300
C  27.74200 49.47400 29.52200
C  28.50000 50.94800 31.55900
C  25.04200 49.41300 31.84000
C  24.47100 49.99000 33.12000
H  24.52000 49.12900 34.43000
N  28.67800 49.14500 26.68500
C  29.38900 48.76900 27.79600
C  30.63000 48.12900 27.39200
C  30.69200 48.19300 25.95000
C  29.41100 48.80600 25.56000
C  31.60200 47.57100 28.33800
C  31.81000 47.80000 25.06800
O  31.82000 48.00400 23.85100
C  33.03000 47.21100 25.53800
N  26.84100 50.11300 24.60700
C  27.92800 49.80200 23.83800
C  27.62600 49.83100 22.35700
C  26.15700 50.28900 22.37800
C  25.83200 50.62100 23.80300
C  28.50400 50.78600 21.57200
C  25.26500 49.16900 21.75600
C  24.70100 49.66000 20.40700
N  24.92400 50.99200 26.56800
C  24.21200 51.44200 25.48100
C  23.04500 52.07100 25.98000
C  23.14800 52.02500 27.38300
C  24.31900 51.29500 27.63200
C  21.93800 52.76900 25.17100
C  22.50800 52.36000 28.49500
O  21.39600 52.82700 28.57400
C  23.35500 51.71900 29.64300
C  23.78600 52.86500 30.44400
O  24.69800 53.70600 30.17100
O  22.88100 52.86600 31.50200
C  22.99800 53.96700 32.42100
H  29.50500 48.57900 29.95200
H  29.74400 48.96900 23.44200
H  23.90200 51.62200 23.38400
H  25.87500 51.21400 31.49100
H  27.69200 48.98400 31.68500
H  28.89000 51.43100 30.66300
H  29.23400 50.40000 32.15000
H  27.95100 51.72900 32.08500
H  25.54600 48.46600 32.03400
H  24.28100 49.11400 31.11900
H  23.38500 50.05500 33.04900
H  24.92200 50.95900 33.33300
H  32.53500 47.99500 27.96600
H  31.59000 46.48600 28.23100
H  31.42100 47.80300 29.38800
H  32.80700 46.35800 26.17900
H  33.50700 48.03400 26.06900
H  33.75500 46.98700 24.75600
H  27.76100 48.82000 21.97200
H  25.99500 51.21400 21.82400
H  29.32000 51.15200 22.19500
H  27.86700 51.53700 21.10400
H  29.09000 50.30600 20.78800
H  24.37900 48.90000 22.33200
H  25.74900 48.19900 21.64000
H  23.64700 49.88200 20.57400
H  24.83300 48.84400 19.69600
H  25.27900 50.48000 19.97900
H  22.38900 52.95300 24.19500
H  21.70900 53.76300 25.55700
H  21.07800 52.10100 25.14600
H  22.79300 51.04600 30.29100
H  23.35400 54.89200 31.96600
H  23.74200 53.72400 33.18000
H  22.07400 54.08300 32.98700

