158

Mg 35.29900 48.48900 24.80200
C  35.53100 46.86400 27.88700
C  33.57700 50.95100 26.33500
C  34.82800 49.82000 21.78300
C  36.34500 45.52300 23.19800
N  34.54700 48.83000 26.89600
C  34.96400 48.11500 28.00500
C  34.71600 48.94900 29.34200
C  33.92000 50.13800 28.83400
C  33.95600 49.98700 27.26000
C  32.48000 50.06600 29.32400
C  35.98400 49.38600 30.05400
C  36.02400 49.66600 31.55000
H  34.72600 49.47800 32.39700
N  34.43000 50.24300 24.13900
C  33.80000 51.11400 24.93300
C  33.35200 52.22000 24.11300
C  33.61200 51.84700 22.76400
C  34.38200 50.62500 22.84500
C  32.63800 53.46900 24.66200
C  33.03000 52.41600 21.45100
O  33.23200 51.85200 20.36700
C  32.25600 53.73700 21.47100
N  35.46700 47.70600 22.85000
C  35.28300 48.50800 21.74100
C  35.70200 47.85100 20.41800
C  36.57600 46.65400 20.98800
C  36.07900 46.55400 22.44000
C  34.56300 47.31500 19.54100
C  38.15700 46.78800 20.82200
C  38.76500 46.53100 19.42700
N  35.80400 46.51900 25.41100
C  36.27600 45.46200 24.68900
C  36.61500 44.41600 25.58700
C  36.38500 44.92100 26.85200
C  35.81600 46.17100 26.71800
C  37.12800 43.07400 25.23800
C  36.49700 44.59100 28.28600
O  36.85700 43.57500 28.80500
C  35.92100 45.93200 29.00400
C  34.70500 45.40500 29.81300
O  33.74800 44.88300 29.28800
O  34.89400 45.54500 31.21300
C  34.04100 44.96500 32.13500
H  32.89400 51.72300 26.69600
H  34.83600 50.37000 20.83900
H  36.83500 44.67900 22.70900
H  34.16400 48.50400 30.16900
H  34.36300 51.09300 29.11500
H  32.34200 50.69400 30.20400
H  32.09300 49.11800 29.69900
H  31.81400 50.43200 28.54300
H  36.41600 50.19000 29.45800
H  36.58800 48.49400 29.88200
H  36.32600 50.70900 31.64300
H  36.73500 48.92800 31.92200
H  31.55400 53.35300 24.63300
H  32.98100 54.39400 24.19700
H  32.93700 53.59000 25.70300
H  32.90500 54.53400 21.83700
H  31.33100 53.78200 22.04600
H  32.16800 54.01300 20.42000
H  36.30900 48.60700 19.91900
H  36.17400 45.79400 20.45100
H  34.44400 47.96700 18.67500
H  33.59800 47.46800 20.02500
H  34.73700 46.30700 19.16300
H  38.50100 45.93000 21.40000
H  38.55100 47.67400 21.31900
H  37.99300 46.40600 18.66700
H  39.38300 45.63300 19.44300
H  39.49000 47.32200 19.23500
H  37.94200 42.91200 25.94400
H  37.50600 42.96500 24.22100
H  36.43100 42.27600 25.49300
H  36.71900 46.30100 29.64900
H  33.17500 44.49600 31.66800
H  33.70000 45.77500 32.78000
H  34.56500 44.25300 32.77200
Mg 17.18100 53.23900 26.92900
C  19.12600 51.65700 29.28400
C  15.04100 54.17800 29.45800
C  14.97900 54.32900 24.62700
C  19.11000 51.70600 24.39400
N  17.04500 52.76400 29.07100
C  17.93300 52.13300 29.86500
C  17.53800 52.28800 31.26900
C  16.02800 52.69900 31.18100
C  16.02200 53.30800 29.79100
C  15.04300 51.54300 31.27200
C  18.53700 53.35100 31.90100
C  18.91800 53.11700 33.30700
H  17.87100 52.44200 34.14700
N  15.36800 54.18900 26.98900
C  14.67400 54.59800 28.15000
C  13.50600 55.27000 27.81600
C  13.33600 55.21900 26.37400
C  14.62900 54.53000 25.88200
C  12.70800 55.94100 28.86100
C  12.19400 55.62300 25.52600
O  12.08800 55.37900 24.33800
C  11.14000 56.50300 26.16500
N  17.12500 53.02800 24.92400
C  16.08200 53.65500 24.14700
C  16.39600 53.53500 22.58200
C  17.86200 52.93900 22.59600
C  18.03900 52.49300 24.02000
C  15.44500 52.51600 21.86500
C  18.97800 53.88000 22.12300
C  19.98900 53.33500 21.12700
N  18.82900 51.88300 26.80800
C  19.54400 51.45400 25.71000
C  20.74900 50.71800 26.15800
C  20.66400 50.81700 27.57500
C  19.46700 51.59500 27.90200
C  21.76300 50.03000 25.26800
C  21.26800 50.42400 28.85100
O  22.17100 49.65200 29.11800
C  20.40700 51.07000 30.00400
C  20.07600 49.96900 30.92900
O  19.34300 49.05500 30.61700
O  20.60500 50.17700 32.16900
C  19.97000 49.34100 33.26500
H  14.36900 54.39500 30.29000
H  14.33800 54.75400 23.85200
H  19.81600 51.29300 23.67100
H  17.64500 51.33300 31.78400
H  15.80600 53.47100 31.91800
H  15.56100 50.58700 31.34600
H  14.40700 51.58000 30.38700
H  14.35500 51.57800 32.11700
H  18.09900 54.34700 31.84100
H  19.51400 53.35100 31.41700
H  19.02100 54.09100 33.78500
H  19.76900 52.43600 33.27900
H  12.24900 56.85700 28.48700
H  13.30200 56.23600 29.72600
H  11.83900 55.31700 29.07200
H  11.62100 57.46700 26.33000
H  10.78900 55.96600 27.04500
H  10.31400 56.61300 25.46200
H  16.40300 54.50600 22.08700
H  17.92800 51.99100 22.06100
H  16.00200 51.59100 21.71400
H  15.11900 52.96900 20.92900
H  14.51700 52.34800 22.41100
H  19.48700 54.24700 23.01400
H  18.66000 54.83600 21.70700
H  19.71000 53.61100 20.11000
H  20.01000 52.25000 21.22000
H  20.98800 53.70300 21.36200
H  22.38200 50.82500 24.85300
H  21.25300 49.55100 24.43200
H  22.45100 49.34100 25.75700
H  21.03700 51.85700 30.41800
H  20.48900 48.38400 33.20300
H  18.90700 49.31200 33.02700
H  20.09500 49.72900 34.27600

