158

Mg 2.31500 -0.74400 43.42500
C  5.57300 0.28300 42.97700
C  1.37300 2.05700 41.51500
C  -0.91500 -1.85000 43.49300
C  3.38500 -3.76800 44.59300
N  3.32700 0.97000 42.27600
C  4.66300 1.13200 42.31100
C  5.08900 2.23900 41.41000
C  3.77900 2.97300 41.05300
C  2.75400 1.94900 41.64100
C  3.68400 4.40800 41.66300
C  5.91200 1.67600 40.15600
C  6.91000 2.72100 39.61900
H  6.62600 3.06100 38.15500
N  0.53700 0.05500 42.89000
C  0.35100 1.20100 42.01900
C  -1.09500 1.25800 41.76200
C  -1.76000 0.26300 42.47700
C  -0.71200 -0.56900 42.99800
C  -1.73200 2.31300 40.96100
C  -3.33200 0.13600 42.53200
O  -4.09800 0.94100 41.94400
C  -3.86200 -0.93200 43.26700
N  1.38500 -2.67500 43.80000
C  0.04700 -2.83700 43.93000
C  -0.31100 -4.29500 44.28000
C  1.06600 -4.83200 44.86800
C  2.02400 -3.67200 44.43600
C  -1.51600 -4.45200 45.30400
C  1.49900 -6.23600 44.36700
C  1.63200 -6.45300 42.86500
N  4.07300 -1.55200 43.86400
C  4.39200 -2.84300 44.38400
C  5.79400 -2.94700 44.54200
C  6.33600 -1.74900 44.00400
C  5.22100 -0.92300 43.66300
C  6.60800 -4.20100 44.85000
C  7.55400 -1.06800 43.66600
O  8.70700 -1.41900 43.67300
C  7.09200 0.26300 42.97800
C  7.56900 1.33900 43.81200
O  7.56500 1.38600 45.03800
O  8.13600 2.36000 43.05600
C  8.80900 3.48100 43.81000
H  0.99200 2.97900 41.07000
H  -1.90200 -2.29600 43.63300
H  3.68400 -4.75300 44.95700
H  5.83500 2.81900 41.95400
H  3.67900 2.97500 39.96700
H  4.62000 4.63400 42.17400
H  2.75500 4.48700 42.22700
H  3.53400 5.04500 40.79100
H  5.16300 1.52600 39.37800
H  6.37400 0.69800 40.29200
H  7.88300 2.33900 39.93100
H  6.66300 3.62300 40.17700
H  -2.10500 1.89700 40.02500
H  -0.98300 3.07200 40.73600
H  -2.50000 2.91000 41.45300
H  -4.94800 -0.87300 43.33700
H  -3.33200 -0.97000 44.21800
H  -3.71900 -1.83600 42.67400
H  -0.50100 -4.92300 43.40900
H  0.96100 -4.92200 45.94900
H  -2.28900 -5.03500 44.80300
H  -1.87400 -3.47400 45.62700
H  -1.11900 -5.00900 46.15300
H  0.80900 -6.97900 44.76800
H  2.41100 -6.45400 44.92300
H  2.70200 -6.55200 42.68100
H  1.20400 -5.64800 42.26700
H  1.09000 -7.34100 42.54100
H  5.97300 -4.87800 45.42100
H  7.45900 -3.96700 45.49100
H  6.93400 -4.71900 43.94800
H  7.50700 0.26100 41.97000
H  8.45100 4.45700 43.48500
H  9.87300 3.39300 43.58700
H  8.68600 3.38900 44.89000
Mg 41.70600 40.48600 26.14500
C  40.99400 43.03600 28.49400
C  43.17600 38.59600 28.63800
C  42.59100 38.20800 23.76900
C  41.12000 42.77400 23.61200
N  42.17800 40.85900 28.33900
C  41.63600 41.86100 29.10300
C  41.84400 41.56200 30.55500
C  42.64200 40.23200 30.55200
C  42.63000 39.84800 29.05200
C  44.14100 40.23000 31.08900
C  40.55500 41.49000 31.32200
C  40.68300 42.22600 32.60600
H  39.83500 41.88700 33.77300
N  42.71700 38.66500 26.23700
C  43.19300 38.07600 27.35700
C  43.63600 36.76900 27.02900
C  43.44800 36.52400 25.63900
C  42.91600 37.82100 25.13500
C  44.10800 35.77500 28.02500
C  43.85400 35.38100 24.74800
O  43.70900 35.28600 23.54600
C  44.28300 34.15300 25.40400
N  42.12100 40.62300 24.08800
C  42.26600 39.49200 23.35500
C  42.19800 39.84300 21.85200
C  41.70600 41.25900 21.83800
C  41.58900 41.56600 23.29000
C  43.54100 39.64600 21.15200
C  40.46300 41.53200 21.03000
C  39.02100 41.06900 21.58700
N  41.01000 42.47800 26.01800
C  40.85300 43.29200 24.93500
C  40.48500 44.58300 25.39400
C  40.45000 44.54400 26.73300
C  40.83000 43.23100 27.08300
C  40.11700 45.71900 24.51100
C  40.07500 45.22700 27.95400
O  39.43700 46.28700 28.06600
C  40.42000 44.29900 29.09500
C  41.34100 44.98000 30.06600
O  42.53800 45.02900 29.93600
O  40.61300 45.41400 31.20500
C  41.43700 45.87500 32.32200
H  43.70000 38.08800 29.45000
H  42.77000 37.42600 23.02800
H  40.84800 43.45800 22.80400
H  42.42600 42.43700 30.84500
H  42.17000 39.39400 31.06500
H  44.83500 40.16900 30.25100
H  44.34400 39.39300 31.75700
H  44.30400 41.13300 31.67700
H  40.37900 40.48500 31.70600
H  39.65100 41.66100 30.73800
H  40.55100 43.27000 32.32200
H  41.67800 42.26200 33.05000
H  43.70400 35.88900 29.03100
H  45.18900 35.65300 27.95600
H  43.50200 34.90000 27.79100
H  43.38300 33.71000 25.83100
H  45.02700 34.18100 26.20000
H  44.57100 33.44300 24.62800
H  41.40400 39.23900 21.41300
H  42.53100 41.84000 21.42700
H  43.88000 40.57100 20.68600
H  43.30300 38.90200 20.39200
H  44.31300 39.09500 21.69000
H  40.51400 40.98000 20.09100
H  40.50100 42.60200 20.82500
H  39.09600 40.01800 21.86800
H  38.25700 41.15600 20.81400
H  38.66200 41.63600 22.44500
H  39.30000 46.32500 24.90400
H  39.80000 45.40600 23.51700
H  40.90700 46.42200 24.24800
H  39.47900 43.98600 29.54700
H  40.87500 46.55000 32.96700
H  42.39100 46.29000 31.99600
H  41.69600 45.03600 32.96800

