158

Mg 30.73100 59.43000 38.86200
C  27.74600 57.94500 37.64700
C  32.52500 56.69600 37.84700
C  33.52100 61.25600 39.14700
C  28.77500 62.34400 39.40700
N  30.23100 57.66200 37.75600
C  28.96700 57.10700 37.48200
C  28.98000 55.69500 36.83100
C  30.46500 55.27200 37.19900
C  31.12100 56.61000 37.65400
C  30.62200 54.31000 38.43900
C  28.56300 55.64800 35.31500
C  27.72900 54.50500 34.74000
H  26.53200 54.97800 33.83100
N  32.79000 58.96400 38.58700
C  33.26700 57.80200 38.26000
C  34.68100 57.93600 38.21300
C  35.06500 59.20700 38.75900
C  33.78200 59.85100 38.85800
C  35.54800 56.71400 37.86500
C  36.48500 59.64100 38.94600
O  37.34300 58.84400 38.70000
C  36.92000 61.00300 39.43800
N  31.09800 61.51000 39.21300
C  32.35300 62.02900 39.32500
C  32.41700 63.51600 39.63000
C  30.91000 63.82700 39.69200
C  30.15400 62.49600 39.41800
C  33.33300 63.88500 40.77600
C  30.39300 65.01600 38.90500
C  29.71600 66.10200 39.73700
N  28.68200 60.04100 38.75000
C  28.09500 61.18000 39.04900
C  26.66200 61.14800 38.81600
C  26.46000 59.84700 38.29900
C  27.75200 59.23100 38.22200
C  25.56700 62.24300 38.78700
C  25.48200 58.84800 37.77400
O  24.31500 58.91600 37.45800
C  26.26700 57.60800 37.47900
C  25.81300 56.63400 38.52900
O  25.60400 56.98600 39.67300
O  25.60100 55.32300 38.04200
C  25.21100 54.30100 39.03900
H  32.99600 55.76400 37.52900
H  34.44800 61.73300 39.47200
H  28.10400 63.15500 39.69600
H  28.23700 55.20800 37.46200
H  31.04800 54.84800 36.38100
H  29.66500 53.78700 38.45800
H  30.72800 54.88100 39.36200
H  31.37400 53.52500 38.36800
H  29.45200 55.52200 34.69800
H  28.06800 56.58500 35.06000
H  27.27000 53.86400 35.49300
H  28.43100 53.83800 34.24000
H  34.97700 55.94800 37.33900
H  35.98500 56.33900 38.79000
H  36.28800 56.95400 37.10200
H  37.98200 61.24100 39.36500
H  36.45000 61.17000 40.40700
H  36.50400 61.65300 38.66900
H  32.65700 63.98600 38.67700
H  30.74700 64.04000 40.74800
H  34.15000 64.57300 40.55900
H  33.92000 63.04100 41.13800
H  32.79100 64.28800 41.63100
H  29.64200 64.51400 38.29500
H  31.14500 65.41100 38.22200
H  29.44900 65.66800 40.70100
H  28.79100 66.41700 39.25500
H  30.33400 66.98000 39.92300
H  24.70000 61.70900 39.17600
H  25.32000 62.38400 37.73500
H  25.83200 63.12700 39.36700
H  25.96800 57.13200 36.54500
H  25.98700 54.31700 39.80400
H  25.21100 53.29200 38.62800
H  24.22600 54.45400 39.48000
Mg -10.53900 17.10900 43.09300
C  -6.94300 17.07300 43.08700
C  -10.36600 20.54400 42.27100
C  -13.79300 17.02500 42.67600
C  -10.47900 13.59600 42.92900
N  -8.82100 18.57300 42.76800
C  -7.46000 18.38700 42.84200
C  -6.72500 19.68200 42.56200
C  -7.84400 20.79600 42.81400
C  -9.13100 19.92500 42.62300
C  -7.77100 21.40400 44.23100
C  -6.06800 19.76500 41.19800
C  -4.49100 19.70800 41.16500
H  -3.72000 18.93300 40.08800
N  -11.95700 18.58300 42.60100
C  -11.66000 19.88100 42.22400
C  -12.89200 20.52500 41.90700
C  -13.93400 19.55500 42.09400
C  -13.24000 18.31900 42.44600
C  -13.08500 21.98900 41.70100
C  -15.51400 19.83400 41.89500
O  -15.90100 20.88000 41.46600
C  -16.56500 18.73600 42.16800
N  -11.97800 15.51900 42.87000
C  -13.27400 15.82300 42.90700
C  -14.02300 14.52000 43.19200
C  -13.02000 13.36200 43.04700
C  -11.74100 14.18200 42.88500
C  -14.70300 14.53500 44.58300
C  -13.17800 12.26000 41.96700
C  -12.83100 12.62100 40.48100
N  -9.05000 15.62000 43.09500
C  -9.19700 14.23400 42.99500
C  -7.85800 13.67200 43.15000
C  -6.96900 14.73100 43.21900
C  -7.76400 15.90800 43.17800
C  -7.51300 12.23500 43.45200
C  -5.58700 15.07800 43.38900
O  -4.66100 14.34900 43.75800
C  -5.48100 16.60500 43.34600
C  -4.91600 17.10600 44.58500
O  -5.45400 17.11000 45.67900
O  -3.59300 17.33500 44.36000
C  -2.87900 17.82100 45.59000
H  -10.35400 21.61800 42.07400
H  -14.86300 16.81800 42.74600
H  -10.45100 12.50600 42.97900
H  -5.92900 19.70400 43.30600
H  -7.83300 21.57100 42.04800
H  -6.89100 21.06700 44.77700
H  -8.51800 21.01200 44.92200
H  -7.78100 22.49400 44.22200
H  -6.31400 20.67200 40.64500
H  -6.53400 19.02600 40.54500
H  -4.08800 19.48500 42.15200
H  -4.26200 20.77400 41.17000
H  -13.99400 22.25000 42.24500
H  -13.38900 22.22200 40.68000
H  -12.27500 22.68100 41.93100
H  -17.60700 19.00500 41.99400
H  -16.49300 18.31500 43.17100
H  -16.45400 18.00900 41.36300
H  -14.82500 14.43700 42.45800
H  -12.89500 12.83700 43.99400
H  -14.27500 15.33700 45.18400
H  -14.52600 13.70000 45.26000
H  -15.78600 14.63400 44.51000
H  -14.21100 11.91700 41.90300
H  -12.51200 11.43300 42.21300
H  -11.91100 12.15400 40.13200
H  -12.77200 13.70900 40.45100
H  -13.59000 12.28600 39.77200
H  -8.19700 11.60800 42.88000
H  -7.60600 12.10800 44.53100
H  -6.44900 12.00100 43.41500
H  -4.77000 16.92700 42.58400
H  -1.80800 17.93800 45.42400
H  -3.02900 17.09500 46.39000
H  -3.08200 18.84700 45.89600

