158

Mg 25.85500 -0.66800 29.15100
C  27.88700 -0.69100 32.00800
C  23.19700 -0.38400 31.36600
C  23.95300 -0.07000 26.59900
C  28.58600 -1.40500 27.27000
N  25.63500 -0.56600 31.45800
C  26.61900 -0.52500 32.36200
C  26.09500 -0.18500 33.72000
C  24.57700 -0.47400 33.55300
C  24.44700 -0.42300 32.03100
C  24.03800 -1.78400 34.19000
C  26.51600 1.25400 34.17000
C  26.95900 1.37000 35.68800
H  26.19600 2.45400 36.53800
N  23.84200 -0.40200 29.00100
C  22.94500 -0.26400 29.98200
C  21.65900 -0.07500 29.36700
C  21.83000 -0.06400 27.97000
C  23.28000 -0.19200 27.78300
C  20.41200 0.18900 30.21800
C  20.77000 -0.02600 26.75200
O  21.12700 0.03900 25.55100
C  19.25500 0.04700 27.09600
N  26.16300 -1.03300 27.17800
C  25.27700 -0.46800 26.33300
C  25.83200 -0.53400 24.82500
C  27.33600 -0.64300 25.12700
C  27.36200 -1.18000 26.59700
C  25.24200 -1.62700 23.94600
C  28.12900 0.78200 25.02900
C  29.51600 0.80400 24.33200
N  27.86800 -1.14000 29.51400
C  28.86400 -1.35900 28.66400
C  30.07800 -1.44600 29.30400
C  29.78900 -1.20200 30.66400
C  28.41300 -1.01500 30.73800
C  31.39800 -1.66300 28.59900
C  30.36600 -1.02900 31.89900
O  31.53100 -1.10200 32.23400
C  29.12700 -0.63700 32.87300
C  29.22900 -1.59400 34.03100
O  28.68500 -2.66700 34.05500
O  29.87900 -0.97200 35.01400
C  29.68700 -1.56600 36.31900
H  22.36800 -0.33700 32.07600
H  23.52000 0.16800 25.62500
H  29.49400 -1.53300 26.67700
H  26.48400 -0.85500 34.48700
H  24.04900 0.41200 33.90600
H  24.71600 -2.23800 34.91300
H  23.79300 -2.42400 33.34200
H  23.05300 -1.58400 34.61100
H  25.65300 1.88500 33.95300
H  27.31900 1.71400 33.59400
H  28.01200 1.64800 35.73600
H  26.76300 0.45900 36.25500
H  20.65900 0.47000 31.24100
H  19.90000 -0.77200 30.26200
H  19.73300 0.97800 29.89300
H  18.68500 0.29500 26.20100
H  19.26200 0.84200 27.84200
H  18.94100 -0.92400 27.47900
H  25.66100 0.43100 24.34800
H  27.92500 -1.34300 24.53500
H  24.20500 -1.77100 24.24900
H  25.70200 -2.60800 24.07100
H  25.08100 -1.20100 22.95600
H  28.35300 1.08500 26.05200
H  27.49900 1.61900 24.72700
H  29.73900 1.72900 23.80100
H  29.53700 0.02000 23.57400
H  30.30800 0.58700 25.04700
H  32.03700 -0.85500 28.95600
H  31.42300 -1.51500 27.51900
H  31.92300 -2.58900 28.83600
H  29.27600 0.35500 33.30000
H  29.47900 -2.63100 36.21700
H  28.72700 -1.12300 36.58300
H  30.54000 -1.49100 36.99400
Mg -4.39800 24.64200 26.83200
C  -3.06000 26.63200 29.16500
C  -5.77300 22.61200 29.27900
C  -5.77400 22.60100 24.35200
C  -2.73300 26.36000 24.23900
N  -4.20800 24.53000 28.96600
C  -3.77300 25.59500 29.72300
C  -4.15500 25.34600 31.22600
C  -4.52800 23.85200 31.21600
C  -4.90900 23.62100 29.69500
C  -3.36600 22.93600 31.57600
C  -5.37400 26.24600 31.63500
C  -5.34900 26.77000 33.12500
H  -6.39400 26.28300 33.99900
N  -5.71000 22.91500 26.83600
C  -6.15800 22.28900 27.93300
C  -6.95500 21.15800 27.59400
C  -7.03200 21.12100 26.17400
C  -6.13900 22.25000 25.68300
C  -7.53900 20.13700 28.54600
C  -7.80800 20.14500 25.29400
O  -7.65100 20.14100 24.10800
C  -8.75000 19.11700 25.92700
N  -4.27900 24.50800 24.56700
C  -5.04000 23.65800 23.82600
C  -4.76100 23.81400 22.31400
C  -3.75400 25.01400 22.29500
C  -3.56200 25.34100 23.79400
C  -4.18000 22.49600 21.57200
C  -4.07300 26.21700 21.41100
C  -5.35000 26.95200 21.84100
N  -3.13900 26.24300 26.66400
C  -2.45200 26.80400 25.54700
C  -1.70300 27.89700 26.04200
C  -1.94700 27.95300 27.45100
C  -2.78200 26.86600 27.74800
C  -0.95400 28.82500 25.11900
C  -1.80500 28.63700 28.71800
O  -1.31600 29.71400 28.98000
C  -2.50000 27.81800 29.86200
C  -1.54100 27.39000 30.86700
O  -0.83100 26.39400 30.79800
O  -1.58000 28.29200 31.93800
C  -0.84000 27.79600 33.15200
H  -6.12200 21.96700 30.08800
H  -6.20200 21.92100 23.61400
H  -2.20700 26.97300 23.50300
H  -3.25600 25.59500 31.79000
H  -5.38800 23.81100 31.88300
H  -3.46300 21.97500 31.07000
H  -3.25400 22.77800 32.64800
H  -2.49500 23.49700 31.23700
H  -6.30300 25.77000 31.32100
H  -5.31800 27.19100 31.09500
H  -5.26800 27.85600 33.16800
H  -4.39300 26.54100 33.59500
H  -8.61400 20.27400 28.42900
H  -7.19100 20.25900 29.57200
H  -7.28700 19.10100 28.32100
H  -9.22900 18.57700 25.11000
H  -9.47300 19.66200 26.53200
H  -8.13300 18.42800 26.50400
H  -5.72400 24.09100 21.88400
H  -2.73700 24.70300 22.05700
H  -4.04100 21.74900 22.35300
H  -3.24600 22.75200 21.07100
H  -4.89700 22.13200 20.83600
H  -4.31700 25.70000 20.48300
H  -3.19900 26.82200 21.16900
H  -5.10800 27.78100 22.50600
H  -5.98100 26.36800 22.51000
H  -5.88800 27.24500 20.93900
H  -0.11400 28.36900 24.59500
H  -0.69600 29.68500 25.73700
H  -1.52500 29.09400 24.23100
H  -3.22500 28.45400 30.37100
H  -0.99400 26.72600 33.28900
H  -1.19500 28.40000 33.98700
H  0.24300 27.88100 33.06300

