158

Mg 36.10100 2.79500 30.22200
C  33.65500 3.89400 32.45300
C  38.44900 3.16300 32.86800
C  38.52600 2.02800 28.06800
C  33.78300 2.99600 27.63100
N  36.06200 3.47700 32.40100
C  34.92200 3.75100 33.06800
C  35.15100 3.62200 34.59700
C  36.68000 3.87000 34.66100
C  37.13000 3.47800 33.23500
C  37.12800 5.36300 35.00800
C  34.59600 2.32900 35.24100
C  33.97000 2.41200 36.60600
H  34.62500 3.37200 37.60400
N  38.15600 2.57600 30.42300
C  38.91900 2.76700 31.58900
C  40.31900 2.37200 31.29000
C  40.33100 1.91300 29.91100
C  38.98100 2.19100 29.38400
C  41.43900 2.35100 32.28100
C  41.45400 1.33200 29.09800
O  41.40600 1.15800 27.85500
C  42.78000 1.12500 29.73400
N  36.25900 2.91200 28.14000
C  37.33100 2.37200 27.47700
C  37.07400 2.12200 25.95200
C  35.51300 2.43400 25.85800
C  35.16900 2.84100 27.28100
C  37.91700 3.02200 24.98400
C  34.65000 1.24700 25.39100
C  33.85100 1.37000 24.01000
N  34.17200 3.26000 30.00700
C  33.33700 3.32500 28.89500
C  32.04400 3.70300 29.28300
C  32.10200 3.90600 30.64900
C  33.41600 3.60500 31.03900
C  30.80900 3.85900 28.46600
C  31.28200 4.38300 31.76700
O  30.15000 4.88500 31.82300
C  32.26500 4.13500 33.05700
C  32.20900 5.35400 34.01000
O  32.54400 6.48900 33.74900
O  31.72800 4.93800 35.22500
C  31.47800 5.94900 36.21900
H  39.06900 2.91900 33.73300
H  39.36700 1.62600 27.49800
H  32.99900 3.06200 26.87500
H  34.58000 4.46900 34.97600
H  37.09300 3.18400 35.40000
H  37.85800 5.77400 34.31000
H  37.69100 5.36000 35.94100
H  36.22100 5.96000 34.91500
H  35.42300 1.62800 35.36000
H  33.87300 2.00100 34.49400
H  34.02000 1.43600 37.08800
H  32.91200 2.67400 36.56100
H  42.41700 2.59900 31.86800
H  41.47100 1.39700 32.80600
H  41.21700 3.20100 32.92700
H  43.26100 2.07600 29.96300
H  43.38900 0.58800 29.00700
H  42.63100 0.58100 30.66600
H  37.33600 1.07400 25.81200
H  35.32800 3.27600 25.19200
H  38.12900 3.92100 25.56300
H  37.22100 3.22400 24.17000
H  38.76900 2.43700 24.64000
H  33.93500 0.94700 26.15600
H  35.33000 0.41200 25.22100
H  32.83700 1.70800 24.22400
H  33.91600 0.45300 23.42500
H  34.31100 2.13300 23.38200
H  29.95800 3.76600 29.14000
H  30.70900 3.11700 27.67400
H  30.73800 4.81600 27.94800
H  31.99200 3.20000 33.54500
H  32.26900 5.91000 36.96800
H  30.52500 5.75300 36.71100
H  31.44000 6.95800 35.80900
Mg 25.98000 50.08100 26.75900
C  23.97300 51.58700 29.18300
C  28.17800 49.03300 29.14100
C  27.91200 48.77600 24.31900
C  23.95100 51.58900 24.33700
N  26.05400 50.32400 28.97300
C  25.09200 50.91700 29.72600
C  25.38400 50.68200 31.25400
C  26.81000 50.04600 31.21400
C  27.08200 49.80200 29.69700
C  27.89600 50.84700 31.93700
C  24.33100 49.66400 31.80500
C  23.80700 50.07900 33.23900
H  24.75500 50.73100 34.28000
N  27.81800 49.01400 26.72400
C  28.53200 48.73100 27.81500
C  29.63200 47.89100 27.37300
C  29.53500 47.76100 25.98000
C  28.39200 48.50100 25.59300
C  30.74600 47.34900 28.29400
C  30.41300 46.98400 25.00500
O  30.28400 47.09800 23.78400
C  31.35900 46.01800 25.50100
N  25.89100 50.12800 24.67800
C  26.79600 49.55900 23.91500
C  26.53900 49.78200 22.39000
C  25.16300 50.47200 22.42100
C  25.03300 50.79000 23.90700
C  27.75300 50.50500 21.71700
C  24.00000 49.61200 21.76300
C  23.59900 49.97500 20.31900
N  24.26300 51.27300 26.69100
C  23.60500 51.94000 25.67000
C  22.47500 52.66200 26.11400
C  22.59700 52.49300 27.50500
C  23.65500 51.71700 27.77300
C  21.46400 53.39300 25.19700
C  22.05200 52.83600 28.80400
O  21.05000 53.48800 29.11600
C  22.93500 52.24900 29.91600
C  23.32300 53.34300 30.80600
O  24.10700 54.27400 30.54000
O  22.86800 53.04200 32.04900
C  23.19500 54.03500 33.09600
H  28.97400 48.79400 29.85000
H  28.50900 48.44400 23.46700
H  23.42500 52.09700 23.52600
H  25.45900 51.61200 31.81900
H  26.80000 49.07400 31.70800
H  28.04400 50.47400 32.95000
H  27.51700 51.86600 32.01400
H  28.84200 50.71000 31.41200
H  24.67700 48.65300 32.01900
H  23.47800 49.56400 31.13400
H  23.27000 49.25400 33.70700
H  23.00400 50.78500 33.03000
H  30.60000 46.26900 28.29400
H  30.62300 47.66800 29.32900
H  31.74500 47.59100 27.93000
H  32.25300 46.48000 25.92200
H  31.70800 45.42000 24.65900
H  30.98800 45.22500 26.15000
H  26.50000 48.76800 21.99200
H  25.29000 51.39100 21.84800
H  27.61700 51.56300 21.49400
H  27.89500 49.91100 20.81400
H  28.72300 50.50100 22.21400
H  23.16700 49.73400 22.45600
H  24.32200 48.57100 21.74200
H  23.82400 49.16300 19.62700
H  24.28400 50.74300 19.96000
H  22.56000 50.28800 20.21600
H  22.04700 53.93900 24.45600
H  21.03000 54.16500 25.83300
H  20.71000 52.73400 24.76700
H  22.29100 51.54200 30.44100
H  24.25800 54.25000 33.20600
H  22.73400 53.81000 34.05800
H  22.94100 55.06500 32.84500

