158

Mg 8.83100 3.23900 27.44600
C  10.13900 1.79300 30.34500
C  6.61900 5.00400 29.46000
C  7.28200 4.48700 24.71600
C  10.54300 0.83100 25.52200
N  8.38600 3.25400 29.64200
C  9.19500 2.77400 30.62800
C  8.81800 3.25400 32.03800
C  7.72500 4.31200 31.67600
C  7.57000 4.21100 30.11000
C  6.39600 3.96600 32.32800
C  10.01800 3.84300 32.82200
C  9.59900 4.61200 34.01300
H  10.05400 4.15300 35.37200
N  7.23000 4.58400 27.20700
C  6.40000 5.19000 28.10900
C  5.51700 6.09800 27.49900
C  5.83300 6.06800 26.10000
C  6.86900 5.01300 25.97900
C  4.55700 7.03000 28.24300
C  5.27800 6.90300 24.97700
O  5.40100 6.71200 23.77300
C  4.52200 8.14300 25.30600
N  8.97700 2.72800 25.34000
C  8.26300 3.42800 24.41000
C  8.74000 2.95700 23.00000
C  9.72900 1.79000 23.29900
C  9.75900 1.80600 24.79600
C  7.53400 2.63000 22.04900
C  11.04300 1.76400 22.51600
C  11.15800 0.65700 21.39900
N  10.19200 1.62400 27.77200
C  10.76300 0.75100 26.91800
C  11.46400 -0.27600 27.63200
C  11.22700 0.11700 28.94600
C  10.50600 1.27800 29.01900
C  12.16400 -1.44300 27.18300
C  11.54100 -0.23100 30.35500
O  12.09000 -1.23800 30.73900
C  10.97100 0.94900 31.26000
C  10.10700 0.26300 32.27400
O  9.11000 -0.45100 32.04800
O  10.58000 0.40000 33.55300
C  9.75900 -0.07500 34.72100
H  6.04300 5.72800 30.03900
H  6.89100 4.98400 23.82600
H  11.17300 0.13500 24.96500
H  8.37900 2.47900 32.66700
H  8.02300 5.33600 31.90400
H  5.95700 3.01200 32.03500
H  5.63800 4.64600 31.93900
H  6.50600 3.99600 33.41200
H  10.63500 4.37400 32.09600
H  10.60400 3.03700 33.26300
H  8.51000 4.59600 33.97200
H  9.84500 5.67000 33.92100
H  3.60100 7.08900 27.72300
H  5.04800 7.97900 28.46000
H  4.20400 6.60000 29.18000
H  3.46500 7.93200 25.47000
H  4.74400 8.85200 24.50800
H  4.92000 8.55100 26.23500
H  9.20100 3.85000 22.57900
H  9.27400 0.81400 23.12700
H  6.63300 2.83000 22.62800
H  7.64200 1.59700 21.71700
H  7.47500 3.32900 21.21600
H  11.86900 1.67500 23.22100
H  11.23300 2.74000 22.07000
H  10.78700 0.94500 20.41600
H  10.61400 -0.26300 21.61300
H  12.22400 0.46900 21.26400
H  12.80500 -1.10400 26.36900
H  11.56500 -2.31700 26.92900
H  12.84500 -1.69000 27.99700
H  11.74700 1.58700 31.68200
H  10.46600 -0.05200 35.55000
H  9.61500 -1.14700 34.58900
H  8.79200 0.41800 34.81900
Mg 54.36600 24.14200 44.76300
C  52.12400 26.60200 43.97600
C  52.24800 21.77800 43.82400
C  56.96100 21.96800 44.98000
C  56.84600 26.77100 45.31000
N  52.46300 24.22300 43.83100
C  51.64200 25.33800 43.70300
C  50.22800 24.92700 43.35800
C  50.19000 23.37600 43.48400
C  51.73600 23.05200 43.74400
C  49.22200 22.73000 44.55800
C  49.74400 25.37700 41.89500
C  48.23900 24.96500 41.54200
H  47.98900 24.26700 40.21400
N  54.63200 22.06000 44.38700
C  53.56000 21.32400 43.99000
C  54.05000 19.96900 44.04600
C  55.40900 19.90500 44.39000
C  55.78000 21.33600 44.54200
C  53.09100 18.74800 43.81700
C  56.26600 18.65500 44.63200
O  55.63500 17.64600 44.64000
C  57.70500 18.71100 44.87700
N  56.65400 24.37100 44.80900
C  57.38800 23.27000 45.14400
C  58.78400 23.60400 45.73100
C  58.87200 25.14300 45.51600
C  57.40000 25.51600 45.11600
C  58.99600 23.30800 47.28100
C  59.86600 25.71700 44.46000
C  59.42200 25.56000 42.95000
N  54.47700 26.27700 44.84300
C  55.45600 27.20100 45.13700
C  54.85600 28.46700 45.25400
C  53.55600 28.28700 44.89000
C  53.38600 26.97400 44.54900
C  55.55500 29.76300 45.62800
C  52.21500 28.94000 44.70700
O  51.87400 30.09600 44.98800
C  51.33700 27.93100 43.91200
C  51.17400 28.45500 42.54500
O  52.08400 28.42100 41.70700
O  49.89500 28.89700 42.39400
C  49.56100 29.29300 41.02500
H  51.46400 21.05100 43.60000
H  57.80000 21.31400 45.22800
H  57.56900 27.58400 45.40600
H  49.55200 25.30500 44.12400
H  49.94900 22.95800 42.50700
H  48.92300 23.48100 45.28900
H  49.85100 22.03600 45.11500
H  48.30600 22.32200 44.13000
H  50.43300 25.04700 41.11800
H  49.72000 26.46600 41.86300
H  47.62800 25.86700 41.58800
H  47.94000 24.27300 42.32900
H  52.99400 18.59800 42.74200
H  52.15000 19.02600 44.29200
H  53.30000 17.77700 44.26700
H  58.11300 17.70500 44.97100
H  58.17100 19.26800 45.69000
H  58.10400 19.11200 43.94500
H  59.58400 23.10600 45.18300
H  59.12000 25.60100 46.47400
H  58.30100 22.54500 47.63100
H  58.75200 24.17100 47.90100
H  60.04000 23.17400 47.56600
H  60.85000 25.27800 44.62300
H  60.03900 26.76300 44.71400
H  58.86300 26.42800 42.59900
H  58.75600 24.71600 42.77300
H  60.25400 25.36300 42.27400
H  54.97500 30.60100 46.01500
H  56.15900 30.10500 44.78700
H  56.17700 29.48400 46.47800
H  50.39200 27.83100 44.44500
H  49.13900 30.28600 41.17400
H  48.76100 28.67700 40.61500
H  50.42600 29.30000 40.36200

