158

Mg 46.81500 34.99000 28.39200
C  45.23100 32.91100 30.80900
C  47.12000 37.43200 30.72500
C  47.91500 37.00100 25.96000
C  46.23600 32.49100 25.98900
N  46.27400 35.15200 30.47600
C  45.69800 34.17900 31.29100
C  45.87700 34.54000 32.80500
C  46.09600 36.10400 32.66200
C  46.53300 36.24700 31.16500
C  44.85300 36.87100 33.11100
C  47.19600 33.79200 33.27000
C  47.38200 33.76300 34.79400
H  46.41200 34.55300 35.61700
N  47.49400 37.03100 28.39500
C  47.60500 37.84300 29.48200
C  48.27600 39.12200 29.11800
C  48.48600 38.95300 27.70900
C  47.91700 37.61800 27.29200
C  48.61500 40.24200 30.04900
C  49.04500 40.03800 26.70000
O  49.19900 39.82300 25.54300
C  49.51000 41.43600 27.16300
N  47.00700 34.78100 26.22500
C  47.55000 35.72800 25.45300
C  47.78400 35.25500 23.98600
C  47.36300 33.77800 24.07300
C  46.84300 33.67100 25.53600
C  46.99600 36.02800 22.84600
C  48.46100 32.66300 23.71000
C  48.13300 31.84600 22.47400
N  46.03500 33.07700 28.30200
C  45.84200 32.18700 27.29200
C  45.09800 30.99600 27.73500
C  44.79500 31.20900 29.05700
C  45.38500 32.46900 29.42100
C  44.69900 29.90700 26.78500
C  44.02500 30.72400 30.29600
O  43.27000 29.76300 30.47200
C  44.17100 31.89500 31.33800
C  44.57500 31.34900 32.70400
O  45.51800 30.63000 32.96300
O  43.51600 31.66500 33.55800
C  43.66000 31.19700 34.99400
H  47.36700 38.09400 31.55700
H  48.31100 37.65500 25.18000
H  46.03200 31.66300 25.30700
H  45.07200 34.28400 33.49400
H  46.90700 36.31400 33.35900
H  44.95200 37.65500 33.86300
H  44.21900 36.17400 33.65800
H  44.36400 37.36500 32.27200
H  48.01600 34.42700 32.93500
H  47.20000 32.78600 32.85100
H  48.40800 34.08900 34.96200
H  47.27200 32.75200 35.18500
H  48.20900 41.22000 29.79300
H  49.69000 40.42100 30.00900
H  48.47200 40.01700 31.10600
H  48.77800 42.20600 26.91800
H  50.43700 41.61900 26.62000
H  49.82400 41.52100 28.20300
H  48.87300 35.27000 23.94300
H  46.46200 33.63100 23.47800
H  46.82300 37.08900 23.02400
H  46.08900 35.64400 22.38000
H  47.74300 36.12600 22.05800
H  48.75600 32.02900 24.54600
H  49.40000 33.20100 23.57500
H  47.25000 32.10300 21.88900
H  48.13600 30.80300 22.79400
H  49.03900 31.95200 21.87800
H  44.86500 29.00900 27.37900
H  45.26900 29.83600 25.85800
H  43.63700 29.96200 26.54700
H  43.18900 32.35600 31.44600
H  44.23800 30.28200 35.12000
H  42.67400 30.87100 35.32700
H  43.98100 31.97100 35.69000
Mg -9.96400 17.18100 42.52200
C  -6.47900 16.79600 42.28400
C  -9.51500 20.43100 41.63300
C  -13.30500 17.50800 42.39300
C  -10.17200 13.69700 42.67800
N  -8.05200 18.44800 41.97000
C  -6.78700 18.12100 41.97000
C  -5.89300 19.39800 41.62700
C  -6.90600 20.60700 41.54600
C  -8.27800 19.82300 41.78900
C  -6.62500 21.89700 42.35400
C  -5.05300 19.21500 40.38500
C  -5.56700 18.20800 39.27600
H  -4.88100 18.50100 37.85900
N  -11.29200 18.76400 42.18100
C  -10.85700 19.98800 41.82300
C  -12.05300 20.80200 41.56400
C  -13.25600 20.05800 41.86900
C  -12.69200 18.74000 42.27000
C  -11.90300 22.19000 41.00100
C  -14.72600 20.48700 41.82700
O  -15.13900 21.58900 41.37000
C  -15.86300 19.59800 42.20900
N  -11.47200 15.72200 42.29000
C  -12.81700 16.18100 42.33800
C  -13.75200 14.93800 42.63800
C  -12.72600 13.81700 42.59000
C  -11.36400 14.43500 42.56600
C  -14.47100 15.12300 44.05800
C  -12.97500 12.73700 41.45500
C  -13.04300 11.23600 41.87900
N  -8.60300 15.52900 42.65400
C  -8.86900 14.15900 42.74400
C  -7.66100 13.41800 42.82900
C  -6.68100 14.41400 42.74100
C  -7.25500 15.69300 42.54500
C  -7.46600 11.94300 42.88100
C  -5.32600 14.63600 42.71500
O  -4.30000 13.91300 42.73000
C  -5.15800 16.16800 42.49300
C  -4.31700 16.65900 43.71000
O  -3.15700 17.02900 43.60800
O  -5.09600 16.72100 44.83400
C  -4.52400 17.60600 45.86700
H  -9.26600 21.47200 41.41600
H  -14.38000 17.33200 42.47600
H  -10.30900 12.61700 42.76500
H  -5.25900 19.58500 42.49300
H  -6.90500 20.93900 40.50800
H  -5.59500 21.90300 42.71200
H  -7.28000 21.92200 43.22500
H  -6.79600 22.69800 41.63500
H  -4.00000 19.14700 40.66000
H  -4.96800 20.10300 39.75800
H  -6.65400 18.15700 39.20500
H  -5.25900 17.19900 39.54900
H  -11.16200 22.09700 40.20700
H  -11.40700 22.93900 41.61800
H  -12.89900 22.44400 40.63800
H  -15.99100 18.87400 41.40400
H  -16.74900 20.19500 42.42300
H  -15.61000 19.14300 43.16700
H  -14.47500 14.88800 41.82400
H  -12.63000 13.29400 43.54100
H  -14.45000 14.16800 44.58300
H  -15.44300 15.48100 43.71700
H  -13.93300 15.85600 44.65900
H  -12.19000 12.89600 40.71600
H  -13.90400 13.02900 40.96500
H  -13.98500 10.71700 41.69800
H  -12.76500 11.07600 42.92100
H  -12.23300 10.70700 41.37700
H  -8.34900 11.34300 42.66000
H  -6.96400 11.56200 43.77000
H  -6.66400 11.66300 42.20000
H  -4.62300 16.48300 41.59700
H  -3.85900 18.34200 45.41500
H  -4.03000 17.12900 46.71300
H  -5.24300 18.25700 46.36400

