158

Mg 46.77200 25.66700 28.07100
C  47.90000 27.58900 30.66500
C  46.33400 23.01200 30.30600
C  46.36100 23.63600 25.36700
C  48.03900 28.06400 25.82000
N  47.09800 25.26700 30.25600
C  47.39600 26.29400 31.10000
C  47.15000 25.95800 32.58500
C  46.87800 24.44200 32.46200
C  46.76600 24.23200 30.92900
C  47.99300 23.53600 33.10200
C  45.97800 26.68700 33.31200
C  46.38700 27.58900 34.56300
H  45.39300 27.58100 35.70900
N  46.27300 23.65600 27.87400
C  46.24100 22.69100 28.91700
C  45.80500 21.45400 28.36100
C  45.81200 21.62300 26.90400
C  46.20100 23.03200 26.62300
C  45.52000 20.18000 29.16000
C  45.48000 20.62900 25.77800
O  45.73700 20.83400 24.59400
C  44.96700 19.25500 26.07500
N  47.13400 25.74900 25.89300
C  46.80800 24.86200 24.97200
C  46.92700 25.31300 23.56600
C  47.36800 26.82200 23.73600
C  47.55600 26.90200 25.28800
C  47.82100 24.36800 22.65500
C  46.45900 27.92000 23.11900
C  47.27000 29.06800 22.30600
N  47.85900 27.38700 28.12200
C  48.27900 28.28900 27.16400
C  48.99900 29.40900 27.80100
C  48.81900 29.20800 29.16800
C  48.10800 27.97400 29.30100
C  49.65200 30.56400 27.03100
C  48.98500 29.86200 30.41900
O  49.44600 30.94200 30.67800
C  48.33700 28.82700 31.49200
C  49.38800 28.53600 32.45700
O  50.45300 28.03700 32.21100
O  49.07900 29.12500 33.63800
C  50.02900 29.06000 34.68100
H  46.21900 22.19900 31.02600
H  46.06400 23.03000 24.50800
H  48.39200 28.80500 25.09900
H  48.10700 26.10900 33.08500
H  45.90300 24.19300 32.88100
H  47.55100 22.84900 33.82300
H  48.71600 24.12500 33.66500
H  48.44400 22.94900 32.30200
H  45.23500 25.96600 33.65100
H  45.55300 27.31400 32.52800
H  46.56700 28.63300 34.30500
H  47.36500 27.16300 34.78800
H  45.70800 20.21800 30.23300
H  46.07100 19.36500 28.69100
H  44.46300 19.97400 28.98900
H  45.81700 18.80000 26.58300
H  44.61000 18.73100 25.18800
H  44.07600 19.28000 26.70300
H  45.90500 25.36900 23.19100
H  48.40700 26.84900 23.40600
H  48.80700 24.36100 23.11800
H  47.97800 24.85900 21.69500
H  47.51200 23.33000 22.53000
H  45.99100 28.38000 23.98900
H  45.66700 27.57700 22.45400
H  46.80700 29.39000 21.37300
H  48.32400 28.80100 22.22800
H  47.13700 29.88200 23.01800
H  49.01500 31.40400 26.75600
H  50.34100 30.17100 26.28300
H  50.34900 30.87000 27.81100
H  47.51400 29.39300 31.92900
H  49.62400 28.33200 35.38500
H  50.12200 30.03800 35.15300
H  51.03300 28.67800 34.49500
Mg 48.73600 35.63300 27.21300
C  46.48600 34.28100 29.54700
C  49.15800 38.22400 29.30900
C  50.43000 37.13100 24.77100
C  48.01900 33.10200 24.98900
N  47.95700 36.06800 29.23000
C  47.13400 35.42000 30.07800
C  47.25500 35.89600 31.51500
C  47.85600 37.28500 31.27000
C  48.42200 37.18700 29.83600
C  46.82600 38.42600 31.57300
C  48.24100 34.98000 32.33000
C  47.91500 35.06400 33.80100
H  48.90700 35.77900 34.74200
N  49.74100 37.43100 27.06800
C  49.78200 38.36800 28.05800
C  50.63100 39.39100 27.64100
C  51.03500 39.08600 26.26000
C  50.41000 37.84400 25.93400
C  50.98700 40.65300 28.49700
C  51.93700 39.83000 25.31500
O  52.15500 39.49400 24.18900
C  52.46600 41.14400 25.69700
N  49.07600 35.17300 25.18800
C  49.87100 35.90700 24.40300
C  49.99900 35.34000 22.96200
C  49.35500 33.99700 23.06000
C  48.84300 34.05700 24.50500
C  49.39800 36.25100 21.87000
C  50.29000 32.84900 22.82200
C  49.88800 31.83300 21.68100
N  47.60800 33.95100 27.19600
C  47.41100 33.06000 26.25000
C  46.28200 32.22500 26.63700
C  45.84300 32.68700 27.83100
C  46.73300 33.75900 28.19500
C  45.89100 31.03500 25.72600
C  44.90800 32.47300 28.91300
O  43.96200 31.70600 29.03000
C  45.34500 33.44800 30.02700
C  45.58400 32.74600 31.34300
O  46.36500 31.87600 31.48700
O  44.67100 33.28100 32.22000
C  44.53000 32.68800 33.53200
H  49.31400 38.96800 30.09200
H  50.86500 37.51400 23.84600
H  47.62200 32.42800 24.22600
H  46.23400 35.84300 31.89300
H  48.61900 37.49900 32.01900
H  46.56300 38.92500 30.64000
H  47.39000 39.12300 32.19200
H  45.94700 38.06300 32.10600
H  49.24000 35.39400 32.19500
H  48.15500 33.95300 31.97400
H  47.88000 34.03800 34.16800
H  46.90800 35.47900 33.84400
H  52.03500 40.61100 28.79300
H  50.30500 40.82000 29.33100
H  50.79400 41.52700 27.87400
H  53.02100 40.94900 26.61500
H  51.65300 41.83400 25.92100
H  53.03800 41.58300 24.87900
H  51.04400 35.32800 22.65200
H  48.54400 33.83600 22.34900
H  48.86300 37.05300 22.38000
H  48.76100 35.76400 21.13200
H  50.19200 36.78100 21.34400
H  50.60200 32.27100 23.69200
H  51.21900 33.25100 22.41800
H  50.73100 31.96000 21.00200
H  48.96400 32.05400 21.14700
H  49.78400 30.80800 22.03800
H  45.12100 31.29600 25.00100
H  45.51700 30.18400 26.29500
H  46.74800 30.60800 25.20400
H  44.48300 34.11500 30.03500
H  45.01300 33.32000 34.27700
H  44.76700 31.63500 33.68500
H  43.49400 32.65400 33.87000

