158

Mg 42.61100 41.90100 26.30800
C  42.32400 44.21100 28.91000
C  44.03900 39.64200 28.61500
C  43.10800 39.57800 23.82800
C  41.88100 44.27400 23.98600
N  43.13100 41.94500 28.54500
C  42.78500 42.95000 29.37200
C  42.98200 42.48700 30.86100
C  43.67400 41.08200 30.66000
C  43.62600 40.86300 29.14200
C  45.09200 40.86000 31.28100
C  41.51000 42.44700 31.49500
C  41.30900 43.49800 32.67300
H  40.65100 42.88000 34.01900
N  43.39800 39.91500 26.26900
C  43.88200 39.18500 27.30700
C  44.36200 37.85900 26.87400
C  43.94600 37.77600 25.48400
C  43.50800 39.14300 25.15700
C  45.06300 36.78500 27.79700
C  43.90000 36.59900 24.56400
O  43.46900 36.65100 23.39700
C  44.21200 35.21800 25.08700
N  42.74000 42.00200 24.18200
C  42.72900 40.87500 23.39700
C  42.40100 41.20000 21.97700
C  41.79500 42.65100 22.03600
C  42.11100 43.01900 23.50400
C  43.62600 41.18200 21.00200
C  40.20500 42.78800 21.83100
C  39.32900 41.68300 22.43700
N  42.17800 43.82500 26.36600
C  41.95600 44.69700 25.32700
C  41.70300 45.99700 25.87700
C  41.78600 45.87000 27.25800
C  42.14500 44.56600 27.53500
C  41.48900 47.17900 25.19800
C  41.77000 46.57800 28.45700
O  41.55400 47.77300 28.76100
C  42.07400 45.51900 29.62800
C  43.27400 45.92800 30.51100
O  44.40200 45.51300 30.33700
O  42.87200 46.87400 31.43000
C  43.91500 47.27000 32.33400
H  44.42500 38.92500 29.34300
H  43.02600 38.92600 22.95500
H  41.52700 45.05900 23.31300
H  43.69100 43.09200 31.42600
H  43.06700 40.36800 31.21600
H  45.82400 40.42600 30.60000
H  45.04900 40.27200 32.19900
H  45.53100 41.81800 31.56000
H  41.30200 41.43400 31.84000
H  40.77100 42.70500 30.73700
H  40.55700 44.26000 32.47000
H  42.30900 43.89900 32.83800
H  45.29300 37.18700 28.78300
H  46.01400 36.41300 27.41500
H  44.33300 35.98500 27.92200
H  43.47800 34.68000 25.68800
H  45.19300 35.31600 25.55300
H  44.36100 34.56700 24.22500
H  41.67800 40.43400 21.69900
H  42.36300 43.35300 21.42500
H  44.47800 40.77500 21.54700
H  43.90400 42.02700 20.37100
H  43.46900 40.38100 20.27900
H  40.13800 42.65500 20.75200
H  39.76900 43.76200 22.05600
H  38.67700 42.10200 23.20300
H  40.01700 40.96400 22.88000
H  38.68500 41.22400 21.68700
H  41.43100 48.05400 25.84500
H  40.52800 47.08100 24.69300
H  42.33000 47.22300 24.50600
H  41.30000 45.30600 30.36500
H  44.08400 46.36900 32.92400
H  43.44900 48.04500 32.94300
H  44.82200 47.67500 31.88700
Mg 26.58700 51.01800 26.91100
C  24.23000 52.04000 29.27800
C  28.80200 50.41900 29.53000
C  28.86200 50.45300 24.57900
C  24.35700 52.18300 24.49400
N  26.36600 51.02800 29.11600
C  25.27400 51.37000 29.88100
C  25.41200 50.97400 31.38600
C  27.05400 50.81300 31.48300
C  27.47200 50.64300 29.95000
C  27.82300 51.81900 32.32200
C  24.58400 49.77000 31.75800
C  23.70000 49.92500 33.02600
H  23.63500 48.77400 33.99100
N  28.54900 50.41200 27.00700
C  29.25500 50.17800 28.19900
C  30.54500 49.70100 27.79400
C  30.67000 49.71400 26.35200
C  29.34800 50.17000 25.90500
C  31.63000 49.23000 28.85600
C  31.81000 49.30700 25.44500
O  31.83200 49.57100 24.26100
C  32.97400 48.51300 25.97600
N  26.72300 51.49400 24.81000
C  27.70900 51.02900 24.04100
C  27.41600 51.25800 22.50900
C  25.86800 51.55900 22.61600
C  25.67400 51.85500 24.03300
C  28.22300 52.40100 21.93200
C  24.94700 50.38000 22.19100
C  24.02000 50.58800 20.99700
N  24.69800 51.89600 26.83800
C  23.89100 52.30300 25.78700
C  22.63200 52.84600 26.26900
C  22.71800 52.70400 27.65300
C  23.97900 52.15100 27.93000
C  21.52300 53.59800 25.51100
C  22.01500 52.91400 28.91200
O  20.83000 53.20500 29.16100
C  23.01300 52.54100 30.02200
C  23.24500 53.65000 30.93600
O  23.59900 54.80400 30.68300
O  22.99700 53.16400 32.20900
C  23.48400 54.00500 33.37100
H  29.51200 50.27400 30.34700
H  29.58100 50.30700 23.77100
H  23.66800 52.41100 23.67700
H  25.15400 51.87600 31.94100
H  27.28300 49.86700 31.97400
H  28.63300 51.27400 32.80600
H  27.09400 52.36800 32.91900
H  28.45000 52.48400 31.72700
H  25.28000 48.95400 31.95100
H  23.90200 49.49700 30.95200
H  22.70000 50.09500 32.62600
H  23.92500 50.89700 33.46600
H  31.46600 49.53700 29.88900
H  32.46900 49.87700 28.59900
H  31.94800 48.18900 28.79700
H  32.58000 47.63700 26.49200
H  33.59000 49.16600 26.59400
H  33.58900 48.20200 25.13100
H  27.54000 50.37600 21.88100
H  25.48500 52.46600 22.14700
H  29.17500 52.45100 22.46100
H  27.73900 53.37100 22.04300
H  28.43000 52.17500 20.88600
H  24.21800 50.05800 22.93400
H  25.64000 49.61300 21.84600
H  22.99000 50.50200 21.34300
H  24.16600 49.89700 20.16700
H  24.11100 51.59100 20.57900
H  21.00000 54.36400 26.08300
H  20.74700 52.88000 25.24500
H  21.96600 54.07000 24.63500
H  22.62000 51.66100 30.53300
H  24.34400 53.44500 33.73700
H  22.68800 53.99700 34.11500
H  23.67700 55.07700 33.31900

