158

Mg 2.40100 -3.04100 45.67300
C  5.78400 -2.20100 45.23700
C  1.58600 -0.53800 43.42600
C  -0.79800 -4.35400 45.45800
C  3.42500 -5.77700 47.60100
N  3.55400 -1.58000 44.49300
C  4.95600 -1.38300 44.51200
C  5.36800 -0.25800 43.55300
C  3.97400 0.43100 43.22800
C  2.95000 -0.66300 43.78000
C  3.74300 1.81200 44.04300
C  6.03500 -0.74800 42.27100
C  7.47400 -0.17000 42.00700
H  7.44400 0.69700 40.77700
N  0.67800 -2.49900 44.61500
C  0.49700 -1.37100 43.84000
C  -0.87100 -1.23400 43.41700
C  -1.59800 -2.33800 43.97200
C  -0.55500 -3.11900 44.73400
C  -1.25600 -0.02300 42.53200
C  -3.12000 -2.63900 43.80800
O  -3.81400 -1.87200 43.16200
C  -3.93700 -3.55400 44.66100
N  1.45400 -4.77100 46.40600
C  0.12300 -5.02000 46.27400
C  -0.44700 -6.24800 47.05400
C  0.97800 -6.76600 47.65500
C  2.02900 -5.73700 47.22300
C  -1.56700 -5.86000 48.09700
C  1.47300 -8.01300 47.02300
C  1.87900 -9.08600 48.17600
N  4.22100 -3.87500 46.40400
C  4.45900 -4.91100 47.20300
C  5.85700 -5.02400 47.43100
C  6.41100 -4.01900 46.60900
C  5.35500 -3.34500 46.02800
C  6.61100 -6.06900 48.28700
C  7.64700 -3.42200 46.13200
O  8.78300 -3.82700 46.47200
C  7.29200 -2.17000 45.26200
C  7.68400 -0.99000 45.93300
O  7.07300 -0.44300 46.82400
O  8.75900 -0.42300 45.23700
C  8.70600 1.06100 45.27300
H  1.36100 0.27600 42.73300
H  -1.76800 -4.81400 45.25600
H  3.76700 -6.70800 48.05700
H  6.07300 0.35000 44.12000
H  3.76900 0.66000 42.18200
H  4.56500 2.45600 43.73000
H  3.79600 1.64700 45.11900
H  2.82200 2.29800 43.72200
H  5.45700 -0.40900 41.41200
H  5.95700 -1.83300 42.34800
H  8.19100 -0.95300 41.76100
H  7.87300 0.42900 42.82600
H  -2.32400 0.16700 42.64400
H  -1.16300 -0.32600 41.49000
H  -0.65700 0.85800 42.76400
H  -3.46900 -3.71800 45.63200
H  -4.09800 -4.53500 44.21300
H  -4.92800 -3.11400 44.76800
H  -0.96800 -7.03100 46.50200
H  0.87700 -6.80500 48.73900
H  -2.15200 -5.02000 47.72200
H  -1.16400 -5.59700 49.07500
H  -2.31100 -6.62800 48.30800
H  2.29400 -7.83000 46.32900
H  0.66100 -8.48800 46.47200
H  1.42100 -9.99500 47.78700
H  1.38200 -8.92100 49.13200
H  2.93000 -9.37200 48.21700
H  5.91300 -6.50100 49.00500
H  7.48100 -5.51000 48.63100
H  6.97600 -6.92200 47.71500
H  7.73300 -2.27600 44.27100
H  9.45900 1.42900 44.57600
H  9.03100 1.47800 46.22600
H  7.76500 1.48400 44.92100
Mg 47.11600 24.72200 28.82600
C  47.86300 27.32600 31.00000
C  45.81900 22.98500 31.60100
C  46.60000 22.14700 26.77800
C  48.93600 26.37000 26.26800
N  46.82100 25.09000 31.01200
C  47.15900 26.29600 31.62600
C  46.66500 26.27500 33.07700
C  46.58900 24.73300 33.30700
C  46.44600 24.18300 31.91900
C  47.76700 24.02000 33.91400
C  45.30300 26.94900 33.34400
C  45.37400 27.97400 34.56900
H  45.82800 27.61900 36.03800
N  46.29200 22.82300 29.12100
C  45.73700 22.31100 30.26600
C  45.09100 21.02800 29.92700
C  45.25000 20.83900 28.52800
C  46.11200 21.95500 28.07200
C  44.43600 20.20000 30.94400
C  44.71700 19.72000 27.58000
O  45.05500 19.61200 26.42300
C  43.93100 18.69100 28.21100
N  47.85900 24.26700 26.81600
C  47.37100 23.12800 26.19500
C  47.93800 23.05100 24.73200
C  48.56900 24.44200 24.50100
C  48.48000 25.13800 25.92100
C  48.91500 21.90700 24.34200
C  47.84900 25.37500 23.40000
C  48.77900 26.04400 22.37500
N  48.16800 26.49100 28.64000
C  48.76300 27.02800 27.51100
C  49.31800 28.38800 27.89000
C  48.97500 28.49100 29.26500
C  48.25300 27.35100 29.65100
C  49.92300 29.40000 26.94400
C  49.16400 29.35500 30.43300
O  49.77700 30.38000 30.60700
C  48.43600 28.55700 31.60700
C  49.43000 28.29500 32.69900
O  50.39800 27.55300 32.80800
O  48.97600 29.04200 33.75700
C  49.64800 28.91000 35.09100
H  45.27200 22.52600 32.42700
H  46.55800 21.33200 26.05200
H  49.45300 26.95800 25.50600
H  47.45600 26.66300 33.71900
H  45.80200 24.38600 33.97700
H  47.80700 22.96100 33.65700
H  47.75400 24.08400 35.00200
H  48.72400 24.39600 33.55400
H  44.60800 26.16500 33.64600
H  44.98200 27.54700 32.49100
H  44.35300 28.33800 34.68900
H  46.03100 28.75400 34.18500
H  44.06900 20.77500 31.79400
H  45.18800 19.57700 31.42900
H  43.62800 19.62400 30.49200
H  43.00300 19.14200 28.56400
H  44.51300 18.29100 29.04100
H  43.75200 17.95800 27.42500
H  47.12200 22.88400 24.02900
H  49.60700 24.48300 24.17100
H  49.58100 22.27300 23.56100
H  48.31500 21.05200 24.03100
H  49.49500 21.62300 25.22000
H  47.37000 26.19500 23.93500
H  47.00100 24.85100 22.95900
H  48.98500 27.07700 22.65600
H  48.37700 25.97200 21.36400
H  49.76500 25.58200 22.33100
H  49.46900 30.35900 27.19300
H  49.67200 29.19100 25.90400
H  51.00500 29.46700 27.05400
H  47.65600 29.27200 31.86800
H  48.83000 28.60000 35.74100
H  49.99600 29.87400 35.46100
H  50.47000 28.19600 35.15100

