158

Mg 47.02100 25.52200 28.11700
C  48.18300 27.79800 30.49700
C  46.26300 23.37300 30.66900
C  46.35200 23.30500 25.75900
C  48.69900 27.51900 25.61400
N  47.27500 25.54600 30.32100
C  47.48700 26.71500 30.99400
C  47.10400 26.57200 32.47600
C  46.46600 25.11400 32.53300
C  46.69000 24.61400 31.07100
C  47.09300 24.29300 33.63900
C  46.16900 27.71600 33.02500
C  45.35200 27.46500 34.22000
H  45.21100 28.58000 35.31500
N  46.22500 23.69700 28.22400
C  45.94400 22.98400 29.36500
C  45.34900 21.76600 28.89200
C  45.29400 21.73700 27.44900
C  45.98300 22.94600 27.08100
C  44.62400 20.86800 29.89800
C  44.65800 20.67300 26.56400
O  44.80200 20.64900 25.29800
C  44.04100 19.37700 27.03200
N  47.26300 25.54800 25.96400
C  46.84700 24.48300 25.22500
C  47.12000 24.77200 23.72200
C  47.79000 26.18600 23.69100
C  48.02000 26.43500 25.18200
C  48.03800 23.74300 23.04700
C  47.12200 27.37500 22.96700
C  47.98700 28.22900 22.08400
N  48.24200 27.41400 28.02200
C  48.91400 27.97900 26.98100
C  49.68600 29.00600 27.50900
C  49.37700 29.11300 28.84000
C  48.52800 27.99900 29.16200
C  50.63200 29.84600 26.68300
C  49.67900 29.75800 30.10500
O  50.44400 30.69300 30.35600
C  48.87900 28.99000 31.19000
C  49.90500 28.57900 32.18600
O  50.33400 27.43800 32.36800
O  49.96000 29.65300 33.10500
C  50.50600 29.39400 34.44900
H  46.03800 22.68600 31.48700
H  46.27500 22.51600 25.00800
H  49.23400 28.01500 24.80200
H  47.92300 26.60700 33.19500
H  45.39500 25.26200 32.67400
H  46.33300 24.17400 34.41100
H  47.93600 24.75000 34.15700
H  47.44900 23.31500 33.31600
H  45.51600 27.89400 32.17100
H  46.74400 28.63300 33.15000
H  45.74300 26.57400 34.71000
H  44.31900 27.19700 34.00000
H  43.58700 20.66000 29.63300
H  44.53900 21.36700 30.86300
H  45.21200 19.95700 30.00900
H  44.05900 18.74800 26.14300
H  42.98900 19.53200 27.27000
H  44.60800 18.87700 27.81700
H  46.17700 24.75600 23.17600
H  48.81100 26.01300 23.35300
H  48.41000 23.96800 22.04800
H  47.39500 22.86400 23.01000
H  48.87300 23.39700 23.65600
H  46.57700 28.09300 23.57900
H  46.42000 26.87300 22.30000
H  47.58500 28.15300 21.07300
H  49.04500 27.96800 22.05700
H  47.86700 29.24900 22.44900
H  51.65000 29.57200 26.96000
H  50.37300 30.87700 26.92700
H  50.32000 29.79000 25.64000
H  48.13400 29.70400 31.54100
H  50.69100 28.32000 34.47200
H  49.88100 29.69700 35.28900
H  51.46400 29.90500 34.54000
Mg 1.97400 41.45500 24.87200
C  2.99500 41.72500 28.26200
C  -0.98100 40.06900 26.03100
C  1.04400 40.84200 21.77300
C  5.11700 42.50800 23.92000
N  1.19400 40.85500 26.92400
C  1.70600 41.28500 28.15100
C  0.62800 41.03500 29.26600
C  -0.52100 40.21900 28.55000
C  -0.04200 40.48700 27.07900
C  -0.68600 38.77400 28.93300
C  0.11500 42.42100 29.89900
C  0.00900 42.35200 31.45700
H  -0.81400 41.17100 32.04000
N  0.25200 40.62200 24.04600
C  -0.89100 40.09500 24.64300
C  -1.83300 39.78600 23.63100
C  -1.27100 40.09800 22.37100
C  0.04500 40.62100 22.65900
C  -3.22800 39.31400 23.92700
C  -1.89600 39.95700 20.91800
O  -1.26900 40.33300 19.90800
C  -3.25200 39.33100 20.72700
N  2.95600 41.43500 23.10500
C  2.34600 41.30100 21.94700
C  3.37700 41.38300 20.79800
C  4.41300 42.32200 21.49900
C  4.19500 42.05300 22.93700
C  3.90500 40.03500 20.29500
C  4.44000 43.81200 21.04300
C  3.81600 44.90700 22.03600
N  3.73600 42.04400 25.84500
C  4.93900 42.54900 25.33900
C  5.82300 42.90500 26.43400
C  5.05600 42.56600 27.57200
C  3.81500 42.03900 27.16500
C  7.21000 43.44600 26.37100
C  5.11500 42.80600 28.97400
O  5.92500 43.35000 29.71200
C  3.77500 42.14700 29.51700
C  4.25200 41.08200 30.33700
O  4.21900 39.90200 30.13600
O  4.74100 41.63900 31.52300
C  4.96600 40.60900 32.52600
H  -1.92500 39.60200 26.31900
H  0.91800 40.73800 20.69300
H  6.02500 42.94000 23.49400
H  1.03900 40.29000 29.94700
H  -1.49400 40.70600 28.60900
H  0.12900 38.52100 29.61000
H  -0.73700 38.05500 28.11500
H  -1.67100 38.69600 29.39400
H  -0.84800 42.68500 29.46000
H  0.92000 43.15300 29.83300
H  -0.40700 43.32300 31.72600
H  0.99200 42.25600 31.91900
H  -3.95400 40.10900 23.75900
H  -3.27800 38.87000 24.92100
H  -3.45300 38.44000 23.31500
H  -3.38400 39.29300 19.64500
H  -4.09000 39.86400 21.17500
H  -3.23100 38.34500 21.19000
H  2.99000 42.00000 19.98700
H  5.42400 41.95200 21.32800
H  3.45700 39.28000 20.94000
H  4.98600 39.92100 20.21600
H  3.53900 39.86100 19.28300
H  3.96500 43.94500 20.07100
H  5.49100 44.07700 20.92600
H  3.43400 44.57900 23.00300
H  2.91400 45.35600 21.62000
H  4.59400 45.64800 22.21900
H  7.32800 44.14900 25.54600
H  7.97300 42.67000 26.32600
H  7.40900 43.94200 27.32100
H  3.32900 42.98600 30.05100
H  4.26400 39.78900 32.37800
H  4.83100 41.07300 33.50300
H  5.98600 40.23600 32.62000

