158

Mg 16.93600 -1.64100 28.29500
C  15.99000 0.54600 31.05200
C  18.79800 -3.47500 30.55100
C  18.61600 -2.97300 25.72900
C  15.90000 1.08500 26.15300
N  17.36700 -1.35200 30.52300
C  16.85500 -0.48200 31.45200
C  17.33900 -0.80900 32.83600
C  18.36200 -2.06500 32.60800
C  18.17200 -2.32900 31.08900
C  19.87100 -1.90400 32.93200
C  16.25800 -0.99700 33.89500
C  16.52700 -0.44900 35.27500
H  17.91800 0.01900 35.68500
N  18.30800 -3.19600 28.12100
C  18.89300 -3.88100 29.19600
C  19.63900 -5.02800 28.60400
C  19.59600 -4.85700 27.22100
C  18.75400 -3.65800 26.96100
C  20.28200 -6.07800 29.43000
C  20.17600 -5.71800 26.14100
O  20.02400 -5.46800 24.89900
C  21.05100 -6.89700 26.49100
N  17.14500 -1.05800 26.23300
C  18.00600 -1.73900 25.41200
C  18.05600 -1.16000 24.01100
C  17.04800 0.07300 24.11500
C  16.72300 0.06900 25.60300
C  19.41300 -0.77200 23.49900
C  15.82200 0.05800 23.18400
C  14.69600 -0.90500 23.57800
N  15.90800 0.23300 28.54800
C  15.58600 1.13500 27.56700
C  14.79600 2.25900 28.22300
C  15.03700 2.05200 29.58600
C  15.66400 0.82400 29.72600
C  14.08600 3.32300 27.49100
C  14.70800 2.58800 30.91800
O  14.11900 3.56200 31.18000
C  15.37800 1.66400 31.92600
C  16.34800 2.51400 32.73300
O  17.46900 2.82400 32.35700
O  15.78800 2.89400 33.88000
C  16.56800 3.95900 34.60900
H  19.33100 -4.03500 31.32300
H  19.08300 -3.42800 24.85300
H  15.61500 1.93600 25.53100
H  18.00100 0.03200 33.04700
H  18.01900 -3.00100 33.04800
H  20.17000 -2.62800 33.68900
H  20.01500 -0.90100 33.33500
H  20.51400 -2.01200 32.05900
H  16.27100 -2.08400 33.96500
H  15.36600 -0.62700 33.38900
H  16.21700 -1.23900 35.95900
H  15.93300 0.46400 35.32100
H  20.31600 -5.87400 30.50000
H  21.22500 -6.43700 29.01700
H  19.61300 -6.93300 29.34100
H  21.92300 -6.42600 26.94400
H  21.30600 -7.34600 25.53200
H  20.63400 -7.66900 27.13800
H  17.68500 -1.87400 23.27600
H  17.58300 0.97600 23.82400
H  20.10100 -0.84000 24.34200
H  19.41100 0.24400 23.10300
H  19.75400 -1.61600 22.90000
H  16.08100 -0.24400 22.16900
H  15.47200 1.08800 23.24200
H  13.81200 -0.35600 23.90300
H  14.91700 -1.58300 24.40300
H  14.36700 -1.53800 22.75300
H  14.23600 4.28000 27.99100
H  13.00600 3.21900 27.59600
H  14.44300 3.46600 26.47100
H  14.64600 1.18900 32.57900
H  16.73200 4.76700 33.89600
H  17.56100 3.63800 34.92300
H  16.04400 4.40100 35.45600
Mg 0.31500 43.36600 26.54200
C  2.40400 43.19500 29.41800
C  -2.31600 42.83200 28.52700
C  -1.36200 42.62700 23.85100
C  3.28300 43.54200 24.67900
N  0.14600 43.02200 28.63100
C  1.02300 43.15200 29.68200
C  0.38600 43.16000 31.03900
C  -1.02600 42.61600 30.71400
C  -1.09400 42.72800 29.20200
C  -1.45500 41.21700 31.30500
C  0.32700 44.56200 31.68900
C  0.94500 44.52300 33.10100
H  0.54400 43.34000 33.92600
N  -1.55500 42.97900 26.18300
C  -2.53400 42.76400 27.18000
C  -3.77500 42.57900 26.53600
C  -3.58800 42.58800 25.14600
C  -2.13400 42.74800 25.03300
C  -5.11600 42.36500 27.26900
C  -4.54900 42.45800 23.94600
O  -4.28100 42.29000 22.76600
C  -6.04000 42.45700 24.34700
N  0.85900 43.17500 24.51700
C  -0.02900 42.87700 23.58600
C  0.62600 42.53600 22.25500
C  1.98700 43.29600 22.38600
C  2.07000 43.36200 23.91200
C  0.87500 41.03800 22.05700
C  2.05600 44.79200 21.85700
C  2.54900 44.93500 20.40200
N  2.43100 43.43100 26.90700
C  3.53500 43.62600 26.05900
C  4.77300 43.78600 26.72700
C  4.39200 43.48700 28.03900
C  2.96100 43.30100 28.11300
C  6.12700 44.13100 26.09100
C  4.85600 43.22600 29.44000
O  5.95400 43.08400 29.94200
C  3.58500 43.26900 30.33400
C  3.65200 42.19800 31.27600
O  3.17000 41.03500 31.10500
O  4.23700 42.54700 32.37000
C  4.34700 41.54600 33.51600
H  -3.17500 42.70100 29.18800
H  -1.82200 42.39800 22.88800
H  4.19500 43.78800 24.13200
H  0.87700 42.34800 31.57600
H  -1.85000 43.24800 31.04500
H  -0.75300 40.67300 31.93700
H  -1.56400 40.48800 30.50200
H  -2.39100 41.38500 31.83800
H  -0.70800 44.90300 31.73200
H  0.93100 45.25200 31.10000
H  0.49100 45.33800 33.66600
H  2.01300 44.66000 32.93200
H  -5.59800 43.34200 27.30400
H  -4.91400 42.00900 28.27900
H  -5.82300 41.61600 26.91100
H  -6.29500 43.19600 25.10700
H  -6.22300 41.44600 24.71200
H  -6.64500 42.59600 23.45100
H  -0.05600 42.91000 21.49200
H  2.85900 42.76700 21.99900
H  1.87900 40.74600 21.74800
H  0.15700 40.57000 21.38300
H  0.77500 40.53300 23.01700
H  2.69200 45.41700 22.48500
H  1.01700 45.12000 21.87500
H  1.88900 45.58800 19.83100
H  2.69900 43.94600 19.96900
H  3.49700 45.47300 20.43700
H  6.20000 45.18700 25.83100
H  6.31900 43.61100 25.15300
H  6.86900 43.85400 26.84100
H  3.69200 44.26300 30.77000
H  4.01600 40.54300 33.24700
H  3.70000 41.79100 34.35800
H  5.39500 41.52100 33.81500

