158

Mg 36.03000 49.60100 26.07400
C  36.39600 47.64800 28.94000
C  34.95300 52.29800 27.94400
C  35.39200 51.31300 23.21200
C  36.42200 46.75200 24.20800
N  35.68100 49.92300 28.13200
C  35.84300 48.96500 29.12700
C  35.45700 49.54300 30.48100
C  34.90300 50.97800 30.21100
C  35.10300 51.08400 28.68100
C  33.33300 51.12900 30.43700
C  36.73000 49.62000 31.47600
C  36.41400 49.34400 32.98400
H  34.96100 49.42200 33.54700
N  35.38400 51.60400 25.63300
C  35.12000 52.59500 26.56300
C  34.94100 53.85700 25.81000
C  35.02700 53.51900 24.44200
C  35.24000 52.12300 24.37500
C  34.67800 55.23000 26.54200
C  34.86100 54.37200 23.17200
O  34.83100 54.00500 22.03600
C  34.55600 55.87900 23.36700
N  35.97500 49.06000 24.00900
C  35.83500 49.96200 22.99700
C  35.69400 49.24300 21.59300
C  36.44200 47.91500 21.99700
C  36.18100 47.87400 23.51700
C  34.22800 49.16700 20.96700
C  37.88600 47.69500 21.54300
C  38.28700 46.34500 20.86200
N  36.41900 47.57200 26.46900
C  36.60000 46.53700 25.62500
C  37.05700 45.35800 26.38900
C  36.93200 45.73300 27.71200
C  36.60500 47.10400 27.69900
C  37.59400 44.07500 25.93500
C  37.05300 45.26300 29.09400
O  37.37000 44.20100 29.56000
C  36.55800 46.55000 29.99000
C  35.32000 46.20200 30.73500
O  34.18400 46.32200 30.28200
O  35.64300 45.66100 31.99900
C  34.41800 45.21900 32.67200
H  34.70200 53.15800 28.56900
H  35.20900 51.82700 22.26600
H  36.70000 45.93300 23.54100
H  34.73200 48.82800 30.87100
H  35.29300 51.77300 30.84600
H  32.92500 51.22900 29.43200
H  33.22000 52.05900 30.99500
H  32.86800 50.32400 31.00600
H  37.11400 50.63800 31.41800
H  37.46700 48.86000 31.21600
H  37.11700 49.89400 33.60900
H  36.73400 48.32500 33.20100
H  35.45300 55.92700 26.22000
H  34.68500 55.21200 27.63200
H  33.69200 55.62600 26.30000
H  35.46000 56.25200 23.85000
H  33.67100 56.12500 23.95400
H  34.64800 56.43900 22.43600
H  36.41000 49.75200 20.94800
H  35.97200 47.10200 21.44500
H  34.11800 48.11200 20.71900
H  34.15800 49.72800 20.03400
H  33.43100 49.56900 21.59200
H  38.45500 47.79200 22.46800
H  38.36500 48.51000 21.00100
H  38.40500 46.66100 19.82500
H  37.48400 45.61000 20.80200
H  39.19400 45.99700 21.35500
H  38.65600 43.97200 26.15800
H  37.39300 43.94000 24.87200
H  37.14400 43.24900 26.48600
H  37.43200 46.78000 30.60000
H  33.78400 46.06600 32.93500
H  34.71700 44.79500 33.63000
H  33.76700 44.56100 32.09700
Mg -12.53600 17.32800 40.53500
C  -9.26400 15.88300 40.25600
C  -11.11500 20.35900 39.51100
C  -15.62100 18.63100 39.92900
C  -13.91400 14.16300 40.83500
N  -10.43100 17.92900 39.97000
C  -9.31000 17.26400 39.88200
C  -8.10400 18.13900 39.51200
C  -8.72800 19.54800 39.47300
C  -10.18600 19.25700 39.67600
C  -8.18700 20.42600 40.63600
C  -7.54700 17.64800 38.14200
C  -6.04900 17.52400 38.01900
H  -5.52200 16.21300 37.43400
N  -13.27400 19.32100 39.92900
C  -12.51100 20.39300 39.54200
C  -13.37700 21.51100 39.19700
C  -14.74900 21.01300 39.25300
C  -14.56900 19.59300 39.72600
C  -12.81200 22.88400 38.77900
C  -15.94200 21.83800 38.92400
O  -15.80000 23.03000 38.65700
C  -17.41000 21.34400 38.93300
N  -14.55100 16.50900 40.29500
C  -15.61300 17.25300 40.25000
C  -16.93200 16.41800 40.45200
C  -16.38300 14.92200 40.59600
C  -14.84300 15.18300 40.57600
C  -17.76000 16.89700 41.68000
C  -16.88700 13.89400 39.54600
C  -17.85900 12.87500 40.01700
N  -11.79700 15.39400 40.58300
C  -12.46100 14.21300 40.78900
C  -11.54500 13.18000 40.91900
C  -10.22500 13.78600 40.77000
C  -10.41500 15.11600 40.49500
C  -11.96600 11.70900 40.98400
C  -8.77000 13.53000 40.87000
O  -8.16600 12.47400 41.10600
C  -8.08700 14.91500 40.46600
C  -7.16400 15.23100 41.50500
O  -7.38800 15.88600 42.49600
O  -5.92600 14.88700 41.17700
C  -4.89000 15.16400 42.23000
H  -10.51600 21.22600 39.22600
H  -16.67200 18.92800 39.91300
H  -14.36700 13.20900 41.11400
H  -7.34000 18.18000 40.28700
H  -8.62600 20.09200 38.53400
H  -7.24600 20.04600 41.03500
H  -8.98100 20.66900 41.34200
H  -8.02500 21.45600 40.31900
H  -7.93000 18.38800 37.43800
H  -7.99900 16.75300 37.71600
H  -5.59200 17.66700 38.99900
H  -5.80600 18.44900 37.49700
H  -13.29900 23.64400 39.39000
H  -13.13600 23.18400 37.78200
H  -11.75900 23.05600 39.00100
H  -17.39000 20.33600 38.52100
H  -18.12100 21.90500 38.32600
H  -17.71700 21.39600 39.97800
H  -17.55200 16.45200 39.55600
H  -16.68500 14.52900 41.56700
H  -17.25100 17.72500 42.17400
H  -17.87900 16.12400 42.43900
H  -18.75000 17.26600 41.41100
H  -16.06600 13.40100 39.02600
H  -17.39700 14.47400 38.77600
H  -17.49500 11.84800 39.99000
H  -18.76100 12.95600 39.41000
H  -18.09800 13.06800 41.06300
H  -12.91200 11.66100 40.44600
H  -12.20000 11.38000 41.99600
H  -11.12800 11.19200 40.51500
H  -7.47200 14.83000 39.57000
H  -4.62300 16.21300 42.10500
H  -3.94100 14.69600 41.96800
H  -5.19600 14.97100 43.25800

