158

Mg 29.83500 57.45200 40.95100
C  26.91700 55.87800 39.67500
C  31.62400 55.03500 39.24700
C  32.57700 59.46400 40.79700
C  27.79100 60.18000 41.74900
N  29.26900 55.55600 39.69800
C  28.07000 55.15900 39.29600
C  28.18300 53.91600 38.38900
C  29.63400 53.57000 38.51500
C  30.22700 54.84600 39.14700
C  29.92600 52.35500 39.43000
C  27.62700 54.05500 36.93600
C  27.88800 55.37900 36.17800
H  27.03300 55.55500 34.93900
N  31.87000 57.15600 40.45100
C  32.38200 56.11400 39.73100
C  33.83500 56.21300 39.70100
C  34.16500 57.52800 40.19200
C  32.86100 58.17300 40.46900
C  34.70900 55.26200 38.95100
C  35.58500 58.03100 40.30600
O  36.54900 57.38200 39.95600
C  35.85300 59.36000 40.96600
N  30.08400 59.43500 41.29600
C  31.33300 60.03000 41.22300
C  31.29300 61.59700 41.33800
C  29.83400 61.77800 42.00000
C  29.15100 60.38800 41.71400
C  32.36600 62.18700 42.27800
C  29.08900 63.01300 41.41700
C  28.88600 64.20900 42.43200
N  27.73800 57.94300 40.97200
C  27.07700 59.01900 41.44900
C  25.67400 58.79900 41.29100
C  25.55900 57.51200 40.75600
C  26.86800 57.11600 40.41600
C  24.56500 59.79200 41.63900
C  24.62500 56.46200 40.22700
O  23.42100 56.37700 40.30000
C  25.46300 55.48200 39.41100
C  25.27500 54.08100 39.92700
O  25.66600 53.65300 41.04100
O  24.51600 53.34100 39.04300
C  24.27200 51.91500 39.48800
H  32.28800 54.23300 38.91900
H  33.43300 60.10300 40.57000
H  27.21000 60.97100 42.22600
H  27.51000 53.15600 38.78700
H  30.15700 53.49800 37.56200
H  29.47800 51.49600 38.93000
H  29.36300 52.51200 40.35000
H  31.00000 52.28700 39.60500
H  26.62200 53.63600 36.89300
H  28.33100 53.39900 36.42400
H  28.95700 55.39600 35.96900
H  27.67500 56.16500 36.90400
H  35.37400 55.80300 38.27700
H  34.20000 54.52000 38.33600
H  35.37600 54.89100 39.73000
H  35.62900 60.08800 40.18700
H  36.88300 59.56900 41.25300
H  35.12800 59.52500 41.76400
H  31.24500 62.03300 40.34000
H  29.84800 61.76700 43.09000
H  33.04100 62.93300 41.85800
H  33.11100 61.42900 42.52100
H  31.88500 62.60200 43.16400
H  28.13800 62.77000 40.94300
H  29.66000 63.41600 40.58000
H  29.05500 65.15800 41.92400
H  29.68000 64.15600 43.17700
H  27.91800 64.29800 42.92500
H  24.39800 60.48800 40.81700
H  24.98700 60.45100 42.39800
H  23.58900 59.45700 41.99000
H  25.27500 55.47600 38.33800
H  25.29400 51.53500 39.50200
H  23.87500 51.36900 38.63200
H  23.77500 51.64300 40.42000
Mg 5.01400 54.59100 40.90200
C  4.90400 51.08300 40.63600
C  8.08300 54.51100 39.37000
C  4.76100 57.88100 40.58300
C  1.86500 54.52300 42.41600
N  6.23900 52.99300 40.02700
C  6.03900 51.66400 40.00100
C  7.21500 50.92500 39.41800
C  8.30800 52.00700 39.26900
C  7.53800 53.25400 39.59200
C  9.53100 51.82600 40.25900
C  6.82400 50.07400 38.17400
C  5.88300 50.80200 37.17200
H  6.54500 51.03400 35.78800
N  6.28300 56.11400 40.15100
C  7.57500 55.81900 39.57900
C  8.22300 57.08700 39.27400
C  7.31400 58.14300 39.68100
C  6.00500 57.36900 40.14000
C  9.68400 57.10100 38.65600
C  7.58600 59.59400 39.50800
O  8.60800 60.04700 39.08000
C  6.63200 60.56500 40.03500
N  3.50900 55.93500 41.23700
C  3.64500 57.26400 41.10000
C  2.35900 58.00500 41.43300
C  1.34400 56.86900 41.95900
C  2.32800 55.71800 41.88400
C  2.45700 59.06100 42.51000
C  0.12700 56.65500 41.03700
C  -1.09900 56.05200 41.65800
N  3.59800 53.15200 41.47700
C  2.41500 53.23900 42.19600
C  2.01200 51.85600 42.49300
C  2.91300 51.01800 41.87600
C  3.84200 51.87800 41.23800
C  0.79500 51.48400 43.40600
C  3.17900 49.62500 41.67600
O  2.57900 48.58700 42.03800
C  4.53800 49.66300 40.90400
C  4.15500 48.81700 39.76500
O  3.36100 49.04400 38.93800
O  4.93600 47.65100 39.85700
C  4.62200 46.60300 38.88500
H  9.09000 54.53700 38.94900
H  4.60400 58.96000 40.51400
H  1.05300 54.57300 43.14500
H  7.54600 50.28800 40.23700
H  8.78800 52.03700 38.29100
H  10.26700 51.17700 39.78400
H  9.19500 51.36900 41.19000
H  9.90400 52.79800 40.58200
H  6.49500 49.05200 38.35800
H  7.83500 50.05700 37.76800
H  5.67000 51.80400 37.54500
H  4.91700 50.31700 37.02900
H  10.53000 56.98000 39.33200
H  9.94300 58.01500 38.12200
H  9.69100 56.33000 37.88600
H  5.66500 60.67200 39.54400
H  6.98400 61.58600 39.89000
H  6.43300 60.43700 41.09900
H  1.95100 58.53900 40.57600
H  1.01600 56.92100 42.99800
H  1.93400 58.83000 43.43800
H  2.06200 59.97500 42.06700
H  3.46600 59.39400 42.75200
H  0.47700 55.92300 40.30900
H  -0.05700 57.58700 40.50200
H  -1.39500 55.10700 41.20200
H  -1.91600 56.77300 41.62500
H  -0.90400 55.86200 42.71400
H  0.02900 50.86900 42.93400
H  0.26700 52.38300 43.72400
H  1.10900 50.91400 44.28000
H  5.37900 49.23000 41.44600
H  5.28200 45.77500 39.14400
H  4.63700 46.83200 37.82000
H  3.62100 46.19300 39.01600

