158

Mg 2.37500 -1.83800 44.54700
C  5.71100 -1.19500 43.96300
C  1.57600 0.80200 42.40500
C  -0.82600 -2.87400 44.48100
C  3.32800 -4.65800 46.36900
N  3.56800 -0.43200 43.17600
C  4.92000 -0.33600 43.19500
C  5.30900 0.82100 42.31600
C  4.00900 1.65300 42.07500
C  3.00300 0.55800 42.48100
C  3.88300 3.00000 42.84900
C  5.96000 0.29600 41.08500
C  6.88000 1.17300 40.30000
H  6.39500 1.52000 38.81400
N  0.60900 -1.11100 43.59500
C  0.49800 0.02100 42.85600
C  -0.82700 0.18200 42.34600
C  -1.56100 -0.93200 42.94600
C  -0.60800 -1.71100 43.71000
C  -1.29600 1.34700 41.49800
C  -3.14400 -1.16400 42.88400
O  -3.88700 -0.32100 42.36000
C  -3.74300 -2.53200 43.24900
N  1.34400 -3.50600 45.38600
C  0.01900 -3.77800 45.16300
C  -0.33400 -5.18000 45.84200
C  1.01500 -5.58600 46.58400
C  1.95600 -4.46900 46.19600
C  -1.64500 -5.18100 46.72500
C  1.59300 -7.01100 46.28200
C  1.70300 -7.83600 47.54200
N  4.14700 -2.79100 45.16000
C  4.42200 -3.86100 45.93400
C  5.87900 -3.99800 46.16900
C  6.33300 -2.88800 45.34900
C  5.32100 -2.24800 44.78100
C  6.60700 -5.04300 47.01300
C  7.56700 -2.32300 44.96600
O  8.72600 -2.61400 45.20500
C  7.22300 -1.12200 44.07300
C  7.61400 0.15000 44.60100
O  7.17300 0.78000 45.48600
O  8.62000 0.64000 43.79900
C  8.95400 2.02000 44.07000
H  1.36000 1.72800 41.86800
H  -1.86400 -3.12800 44.70900
H  3.67000 -5.44900 47.04000
H  5.97200 1.39500 42.96400
H  4.06200 1.88300 41.01000
H  2.87900 2.94900 43.27000
H  3.90300 3.80600 42.11600
H  4.65200 3.16700 43.60300
H  5.15500 0.07400 40.38500
H  6.47800 -0.65000 41.24000
H  7.80100 0.63700 40.07500
H  6.95200 2.08700 40.89000
H  -0.50200 1.61300 40.80000
H  -1.54700 2.19300 42.13700
H  -2.19000 1.11000 40.92100
H  -3.15500 -3.39600 42.94100
H  -4.73900 -2.49300 42.80800
H  -3.90200 -2.60300 44.32500
H  -0.57800 -5.90800 45.06800
H  0.97200 -5.45700 47.66600
H  -2.35500 -5.74900 46.12300
H  -2.17700 -4.25300 46.93200
H  -1.50000 -5.80400 47.60800
H  2.56800 -6.83700 45.82600
H  1.09600 -7.56400 45.48400
H  0.68600 -8.17000 47.75100
H  2.05400 -7.24300 48.38600
H  2.40900 -8.64300 47.34100
H  7.56800 -4.64900 47.34600
H  6.85300 -5.93600 46.43900
H  6.16200 -5.36500 47.95400
H  7.70400 -1.39900 43.13400
H  9.82400 2.30300 43.47800
H  9.11300 2.16200 45.13900
H  8.12600 2.70700 43.89400
Mg 53.56500 24.85800 44.33200
C  51.15400 27.26300 43.40900
C  51.37900 22.53100 43.02900
C  56.12800 22.73900 44.03400
C  55.78400 27.47600 45.11300
N  51.60400 24.93700 43.12400
C  50.74100 25.99000 43.03800
C  49.39300 25.61000 42.43300
C  49.31300 24.04000 42.61700
C  50.83800 23.80500 42.86400
C  48.32700 23.49400 43.65600
C  49.35400 26.08600 40.98900
C  47.91100 26.09300 40.48600
H  47.77200 25.17000 39.25500
N  53.71400 22.84600 43.80000
C  52.70600 22.05900 43.29600
C  53.21200 20.73200 43.02300
C  54.60800 20.65200 43.41300
C  54.87600 22.12000 43.75600
C  52.32800 19.58200 42.54100
C  55.50500 19.50000 43.31300
O  55.16900 18.44800 42.84400
C  56.87300 19.58600 43.93300
N  55.65700 25.17200 44.37500
C  56.48700 24.11300 44.30700
C  57.94300 24.47500 44.63100
C  57.89300 25.99000 44.76700
C  56.40100 26.25200 44.90400
C  58.47200 23.66100 45.84900
C  58.56900 26.75700 43.56200
C  60.04400 27.27600 43.65300
N  53.49100 26.91800 44.46900
C  54.40700 27.80900 44.89100
C  53.74600 29.10900 45.10200
C  52.50500 28.95900 44.47900
C  52.33600 27.60400 44.09100
C  54.30100 30.32000 45.74900
C  51.27900 29.68000 44.15000
O  50.92500 30.82200 44.41300
C  50.41600 28.65400 43.38700
C  50.22700 29.27400 42.03100
O  51.14200 29.60400 41.27400
O  48.91300 29.43000 41.76300
C  48.49600 29.84800 40.46800
H  50.68700 21.82400 42.56600
H  57.01300 22.10000 43.99700
H  56.36900 28.27400 45.57500
H  48.59800 26.08700 43.00600
H  48.98300 23.55900 41.69600
H  47.50200 22.88000 43.29500
H  47.99200 24.39500 44.17000
H  48.96400 23.01800 44.40100
H  49.88400 25.30400 40.44500
H  49.84200 27.02200 40.71900
H  47.57300 27.07000 40.13900
H  47.16200 25.79800 41.22000
H  52.34200 19.42300 41.46200
H  51.29800 19.77600 42.84100
H  52.64300 18.62100 42.94700
H  57.62000 19.95700 43.23100
H  57.13900 18.53600 44.05900
H  56.76500 20.07000 44.90300
H  58.60400 24.20800 43.80700
H  58.33500 26.39900 45.67500
H  58.96000 22.74200 45.52300
H  57.68900 23.34700 46.53900
H  59.19700 24.28500 46.37200
H  57.87400 27.54100 43.26300
H  58.55300 26.03600 42.74400
H  60.30900 27.29600 44.71000
H  60.02300 28.23900 43.14300
H  60.67700 26.71000 42.97100
H  54.24000 31.11600 45.00700
H  55.26500 30.10800 46.21200
H  53.53400 30.48000 46.50600
H  49.47400 28.51300 43.91800
H  49.17400 29.49200 39.69200
H  48.47800 30.93700 40.45900
H  47.50900 29.61200 40.07000

