158

Mg 16.39600 -2.84200 27.29400
C  15.75900 -0.92900 30.17000
C  18.13600 -5.16300 29.20900
C  17.71100 -4.10900 24.46200
C  14.79800 -0.29900 25.36000
N  16.91700 -2.97800 29.37100
C  16.44600 -2.14200 30.35700
C  17.01700 -2.61000 31.73500
C  17.71800 -4.00700 31.41300
C  17.58900 -4.09500 29.89100
C  19.22400 -4.06300 31.94900
C  15.87500 -2.56400 32.87700
C  16.20100 -1.82300 34.18400
H  17.60000 -1.49600 34.63700
N  17.72600 -4.44900 26.92000
C  18.18800 -5.39700 27.77500
C  18.80200 -6.50100 27.03400
C  18.66100 -6.18400 25.62000
C  17.99900 -4.80500 25.61700
C  19.44300 -7.71900 27.62400
C  19.03700 -7.04300 24.38800
O  18.73800 -6.78800 23.23000
C  19.77100 -8.36200 24.43300
N  16.35900 -2.22500 25.17800
C  17.01300 -2.91800 24.26100
C  16.76900 -2.32300 22.81600
C  15.66300 -1.20300 23.14300
C  15.53500 -1.21800 24.62400
C  18.11100 -1.60500 22.30900
C  14.20600 -1.38800 22.49100
C  12.99600 -1.69800 23.31500
N  15.38600 -0.93600 27.66200
C  14.74600 -0.08300 26.75000
C  14.14100 1.01200 27.53100
C  14.58600 0.81000 28.83400
C  15.29300 -0.45100 28.89300
C  13.32500 2.12500 26.93400
C  14.37300 1.18900 30.26700
O  13.76300 2.15100 30.74600
C  15.25800 0.16500 31.09600
C  16.39100 1.07400 31.49100
O  17.24300 1.49600 30.70700
O  16.31900 1.41800 32.79500
C  17.19700 2.43500 33.28000
H  18.50500 -6.03700 29.75100
H  18.00900 -4.45300 23.46900
H  14.35600 0.48500 24.74200
H  17.79400 -1.93400 32.09100
H  17.10600 -4.81900 31.80600
H  19.26700 -4.73200 32.80900
H  19.64100 -3.09100 32.21100
H  19.84600 -4.37200 31.10900
H  15.48900 -3.52800 33.20900
H  14.94900 -2.14600 32.48100
H  15.80700 -2.48100 34.95800
H  15.55900 -0.94400 34.24200
H  19.68700 -7.62600 28.68200
H  20.39600 -7.74100 27.09600
H  18.80500 -8.58700 27.45900
H  20.75600 -8.24800 24.88700
H  19.90700 -8.67800 23.39900
H  19.10200 -9.02000 24.98700
H  16.40800 -3.09400 22.13500
H  16.03000 -0.23000 22.81700
H  18.14400 -0.57600 22.66600
H  18.11800 -1.40900 21.23700
H  19.02800 -2.15100 22.53000
H  14.33300 -2.18500 21.75800
H  14.02500 -0.44100 21.98300
H  12.52300 -0.72200 23.42700
H  13.08500 -2.29200 24.22500
H  12.32100 -2.23500 22.64900
H  13.94100 2.80600 26.34700
H  12.87100 2.68600 27.75100
H  12.49200 1.67100 26.39700
H  14.73800 -0.17300 31.99300
H  16.97600 3.36000 32.74800
H  18.26300 2.23200 33.17500
H  16.85200 2.58500 34.30300
Mg 40.62800 8.29000 29.76400
C  42.31700 9.61200 32.68900
C  38.23300 7.03500 31.83700
C  39.41700 7.06700 27.09200
C  43.69400 9.27700 27.96100
N  40.31700 8.40700 32.03200
C  41.11200 8.97400 33.02100
C  40.48700 8.93600 34.42200
C  39.18600 8.04700 34.11200
C  39.22600 7.78900 32.55600
C  39.10400 6.83100 35.06100
C  40.15500 10.32900 34.94600
C  40.05700 10.35700 36.45800
H  40.91900 11.26800 37.30100
N  39.00500 7.21000 29.50700
C  38.11000 6.78800 30.44800
C  37.05700 6.09900 29.77700
C  37.27100 6.24100 28.37700
C  38.63800 6.84300 28.26100
C  35.88700 5.54500 30.53300
C  36.41600 5.81300 27.20700
O  36.63600 6.13400 26.02300
C  35.26000 5.04200 27.50600
N  41.56800 8.03700 27.80100
C  40.74300 7.54700 26.88400
C  41.34700 7.70300 25.44300
C  42.75100 8.45000 25.66800
C  42.68000 8.63500 27.23700
C  41.44300 6.39000 24.74400
C  42.88900 9.74700 24.95200
C  41.77300 10.73700 25.11500
N  42.56400 9.21400 30.17400
C  43.65500 9.55300 29.31500
C  44.70400 10.09600 30.08200
C  44.27100 10.08800 31.41600
C  42.91600 9.65800 31.39600
C  45.98900 10.56200 29.45900
C  44.65000 10.33900 32.78600
O  45.72400 10.77600 33.27500
C  43.41400 10.01100 33.66800
C  43.77400 8.90400 34.67500
O  44.32200 7.84300 34.43900
O  43.32800 9.25300 35.96500
C  43.55300 8.32000 37.06700
H  37.49900 6.60400 32.52200
H  38.98300 6.72900 26.14800
H  44.57600 9.65300 27.43700
H  41.26300 8.40300 34.97100
H  38.27800 8.64700 34.15700
H  38.68100 5.99700 34.50000
H  38.47900 7.04300 35.92900
H  40.11100 6.50900 35.32700
H  39.23800 10.75500 34.53700
H  40.92700 10.97900 34.53400
H  40.15800 9.33700 36.82800
H  39.06200 10.66400 36.77800
H  35.61900 4.54400 30.19400
H  34.95800 6.09900 30.39800
H  36.15600 5.34700 31.57000
H  35.53300 4.18600 28.12400
H  34.89700 4.58300 26.58700
H  34.45200 5.59200 27.98900
H  40.60000 8.35800 24.99500
H  43.57300 7.81200 25.34300
H  42.33400 6.15600 24.16200
H  40.69500 6.52600 23.96300
H  41.34300 5.53600 25.41400
H  42.85700 9.41900 23.91300
H  43.85900 10.16600 25.21900
H  41.20000 10.69800 24.18900
H  42.18900 11.70800 25.38600
H  41.03000 10.54000 25.88800
H  45.98400 11.24500 28.61000
H  46.70300 9.74100 29.38400
H  46.35700 11.14300 30.30400
H  43.17700 10.95300 34.16100
H  43.08300 8.90400 37.85800
H  44.62900 8.22800 37.22100
H  43.08500 7.35400 36.87900

