158

Mg 47.41300 25.22800 28.51400
C  48.21800 27.27400 31.19700
C  46.44300 22.65900 30.73800
C  47.09000 23.08700 25.94300
C  48.69000 27.68000 26.35100
N  47.18300 25.09500 30.53700
C  47.46400 26.11700 31.49900
C  47.26700 25.65300 32.97500
C  46.89600 24.18000 32.76500
C  46.82900 23.94700 31.24700
C  47.75700 23.24800 33.51300
C  46.29100 26.46000 33.79600
C  46.73800 26.73200 35.25100
H  45.89800 27.54800 36.19000
N  46.73000 23.13700 28.37100
C  46.41200 22.28100 29.38500
C  46.13100 20.97300 28.82200
C  46.26800 21.07600 27.44200
C  46.70700 22.46100 27.17400
C  45.85200 19.76700 29.65900
C  45.91600 20.18300 26.33900
O  46.00100 20.43800 25.13400
C  45.43900 18.82300 26.63800
N  47.81000 25.32100 26.44000
C  47.52500 24.34000 25.55000
C  47.71200 24.78300 24.07200
C  48.03900 26.30800 24.25200
C  48.20000 26.48000 25.79200
C  48.76700 23.90100 23.33700
C  47.02800 27.25500 23.60800
C  47.39300 27.72700 22.18500
N  48.29900 27.05600 28.65700
C  48.82800 27.95200 27.72100
C  49.44200 29.04700 28.38300
C  49.23800 28.83200 29.78300
C  48.53700 27.59100 29.86600
C  50.10200 30.17200 27.68100
C  49.38400 29.41900 31.06100
O  50.00000 30.43700 31.41000
C  48.67700 28.44500 32.01000
C  49.61400 28.12800 33.04700
O  50.52300 27.29600 32.94800
O  49.35800 28.96400 34.05900
C  50.15500 28.91500 35.26000
H  46.26600 21.87900 31.48200
H  47.06400 22.55900 24.98700
H  49.12500 28.34200 25.59900
H  48.20200 25.68600 33.53400
H  45.89200 24.09000 33.17800
H  48.27600 23.70300 34.35600
H  48.50700 22.92000 32.79300
H  47.08400 22.46300 33.85900
H  45.32500 25.97000 33.91900
H  45.98500 27.34600 33.23900
H  47.67200 27.29400 35.25000
H  46.94100 25.77800 35.73800
H  46.46000 18.91700 29.35200
H  44.87100 19.43700 29.31600
H  46.13700 19.85500 30.70700
H  44.51700 18.83300 27.21900
H  46.24700 18.39000 27.22800
H  45.22200 18.28200 25.71700
H  46.74600 24.68800 23.57500
H  48.94100 26.63100 23.73300
H  49.35500 23.51700 24.17000
H  49.27900 24.54700 22.62400
H  48.27900 23.10300 22.77800
H  46.82300 28.10400 24.26000
H  46.08900 26.73900 23.40700
H  47.70600 28.77000 22.13700
H  46.54300 27.56600 21.52100
H  48.21000 27.06300 21.90200
H  49.33200 30.89900 27.42100
H  50.67800 29.72200 26.87300
H  50.76800 30.75200 28.32000
H  47.84100 29.05100 32.35800
H  50.21600 29.94800 35.60300
H  51.12600 28.42600 35.18800
H  49.65100 28.32000 36.02200
Mg -5.85800 25.41700 25.77600
C  -4.37700 26.38500 28.84600
C  -7.88300 23.15800 27.60400
C  -6.68400 23.84100 22.74100
C  -3.22400 27.02300 24.06300
N  -6.06600 24.89100 27.98800
C  -5.47600 25.52100 29.05800
C  -6.04600 25.11700 30.35700
C  -6.90800 23.83500 29.87300
C  -6.98300 23.94200 28.36500
C  -6.30200 22.38900 30.27100
C  -6.90000 26.15200 31.08700
C  -6.69800 26.27200 32.62200
H  -6.07500 25.09300 33.43000
N  -7.25200 23.88300 25.24200
C  -7.95900 23.11400 26.16300
C  -8.78700 22.21500 25.33900
C  -8.44700 22.40300 23.91500
C  -7.44400 23.43200 23.89700
C  -9.81700 21.25500 25.99800
C  -8.89700 21.54300 22.71300
O  -8.47400 21.67500 21.62900
C  -9.79200 20.44700 22.94400
N  -5.12900 25.48300 23.68800
C  -5.55500 24.73600 22.56200
C  -4.84600 25.20900 21.21800
C  -3.84400 26.27300 21.77800
C  -4.11100 26.34900 23.30200
C  -4.31000 24.04300 20.34600
C  -3.81200 27.65900 21.01200
C  -2.63000 27.94900 20.17700
N  -4.17300 26.56700 26.28600
C  -3.19700 27.21200 25.53000
C  -2.22200 27.89100 26.37000
C  -2.62500 27.46500 27.64500
C  -3.81900 26.73500 27.59100
C  -0.95000 28.54500 25.91900
C  -2.21900 27.66600 29.04000
O  -1.35600 28.39400 29.48100
C  -3.33100 27.03800 29.83900
C  -2.74100 26.04700 30.78100
O  -2.42800 24.88800 30.52100
O  -2.42800 26.72400 31.89900
C  -1.72200 25.95000 32.91900
H  -8.36800 22.41800 28.24300
H  -6.80100 23.36900 21.76400
H  -2.52800 27.55000 23.40700
H  -5.26800 24.72000 31.00900
H  -7.92900 23.74200 30.24000
H  -5.44600 22.44900 30.94200
H  -6.01000 21.84300 29.37500
H  -7.08800 21.83000 30.77900
H  -7.96300 25.94400 30.96100
H  -6.66500 27.12300 30.65100
H  -7.71500 26.33100 33.01000
H  -6.06500 27.14400 32.78300
H  -10.30800 21.78900 26.81200
H  -9.39500 20.28500 26.26100
H  -10.56200 21.02400 25.23600
H  -9.89500 19.86200 22.03000
H  -10.80400 20.78300 23.17000
H  -9.39300 19.84200 23.75800
H  -5.51500 25.80300 20.59500
H  -2.84600 25.83600 21.74200
H  -3.25700 23.91700 20.59800
H  -4.47600 24.28900 19.29700
H  -4.88800 23.15900 20.61600
H  -3.82000 28.37900 21.83000
H  -4.79900 27.88200 20.60700
H  -2.90400 28.56900 19.32300
H  -2.29700 27.02500 19.70500
H  -1.84900 28.53300 20.66200
H  -1.20800 29.21200 25.09600
H  -0.31700 27.77200 25.48500
H  -0.39700 29.03300 26.72100
H  -3.85900 27.81300 30.39400
H  -1.83200 24.86800 32.84000
H  -1.71400 26.34600 33.93400
H  -0.75200 26.06200 32.43400

