158

Mg 26.36100 49.73400 27.16800
C  24.37500 50.85500 29.90100
C  28.96900 49.32600 29.43200
C  28.37900 49.25000 24.61300
C  23.84600 50.86500 25.00000
N  26.65400 50.24200 29.41000
C  25.65700 50.50200 30.31100
C  26.16400 50.37900 31.78400
C  27.65900 50.04000 31.56000
C  27.78600 49.85200 30.03500
C  28.71300 51.03100 32.25900
C  25.28500 49.31200 32.55000
C  24.56500 49.79500 33.89500
H  25.54900 50.31500 34.95600
N  28.36400 49.27500 27.01200
C  29.21800 49.07400 28.06000
C  30.45300 48.61400 27.59000
C  30.36100 48.69100 26.17000
C  28.97600 49.12100 25.83900
C  31.64700 48.21000 28.50300
C  31.46400 48.48700 25.16700
O  31.27400 48.59500 23.94700
C  32.87100 48.25200 25.51100
N  26.11300 50.01600 25.14800
C  27.09200 49.65000 24.29900
C  26.66100 49.67300 22.84700
C  25.16800 50.10100 22.98000
C  25.00500 50.24700 24.48900
C  27.49400 50.30800 21.65300
C  24.15600 49.07500 22.28800
C  23.09200 49.73500 21.37600
N  24.48600 50.78100 27.39700
C  23.62400 51.16000 26.40400
C  22.47800 51.75900 27.01000
C  22.67500 51.68000 28.37500
C  23.95100 51.06900 28.54300
C  21.31900 52.38300 26.28600
C  22.11300 52.00900 29.72000
O  21.09200 52.59600 30.00100
C  23.21800 51.49400 30.72600
C  23.59900 52.72400 31.53300
O  24.71700 53.24900 31.61800
O  22.64200 53.00800 32.50200
C  23.05000 53.93300 33.60300
H  29.77300 49.13000 30.14300
H  28.99600 49.02000 23.74200
H  23.06800 51.15200 24.29000
H  26.12100 51.30600 32.35500
H  27.86300 49.05200 31.97400
H  28.32200 51.96500 32.66400
H  29.49300 51.11000 31.50200
H  29.02800 50.45800 33.13000
H  25.98700 48.53600 32.85500
H  24.63300 48.74200 31.88800
H  24.00200 48.94900 34.29000
H  23.92900 50.67000 33.76200
H  31.34800 47.66800 29.40100
H  32.29600 49.04200 28.77500
H  32.32200 47.54100 27.96900
H  33.17400 48.94300 26.29800
H  33.42600 48.38400 24.58300
H  32.88300 47.21200 25.83900
H  26.56400 48.62300 22.57200
H  25.12100 51.13400 22.63500
H  28.44800 50.52600 22.13400
H  26.98100 51.18900 21.26500
H  27.58600 49.50200 20.92500
H  23.63100 48.45600 23.01600
H  24.71300 48.38100 21.65900
H  22.07700 49.40900 21.60600
H  23.30200 49.35900 20.37500
H  23.14500 50.81700 21.49900
H  20.42400 52.27500 26.89900
H  21.07900 52.17600 25.24300
H  21.59100 53.43700 26.23700
H  22.61200 50.84200 31.35500
H  23.26900 54.93400 33.23100
H  24.05300 53.76700 33.99700
H  22.34800 53.97000 34.43600
Mg -5.29800 24.61500 26.26000
C  -3.71000 26.23200 29.00300
C  -7.35300 22.92400 28.36100
C  -6.52100 23.12600 23.55500
C  -3.17400 26.54700 24.17500
N  -5.53700 24.59800 28.34700
C  -4.80000 25.31800 29.30300
C  -5.26300 24.88300 30.67400
C  -6.23900 23.73300 30.48500
C  -6.40000 23.75500 28.97300
C  -5.90000 22.39000 31.15800
C  -5.89400 26.08700 31.44500
C  -5.66300 26.19800 32.98000
H  -5.05100 25.05900 33.70000
N  -6.68600 23.11300 26.06300
C  -7.53600 22.60700 27.03200
C  -8.54300 21.75700 26.36500
C  -8.24600 21.70900 24.99600
C  -7.08400 22.62900 24.78800
C  -9.62100 21.01900 27.18100
C  -8.87000 20.85200 23.83200
O  -8.59300 20.91300 22.65200
C  -9.77200 19.79200 24.26000
N  -4.72600 24.60800 24.17600
C  -5.46100 24.07300 23.23400
C  -5.10000 24.44800 21.82500
C  -4.16500 25.65900 22.09400
C  -3.93200 25.58600 23.56700
C  -4.57200 23.23400 21.01700
C  -4.81600 26.98300 21.61200
C  -4.15700 27.63300 20.48400
N  -3.82000 26.20600 26.46300
C  -3.05000 26.87300 25.53100
C  -2.22200 27.85500 26.17700
C  -2.43800 27.63300 27.56700
C  -3.36100 26.55700 27.64600
C  -1.29600 28.91600 25.52300
C  -2.17000 28.08300 28.92100
O  -1.62000 29.10600 29.34600
C  -2.85400 27.12900 29.85700
C  -1.73900 26.48400 30.68400
O  -0.81000 25.79500 30.25300
O  -1.82600 26.79300 32.00800
C  -0.92100 26.25500 32.95900
H  -8.10400 22.52800 29.04800
H  -7.06700 22.86300 22.64600
H  -2.70600 27.29300 23.53000
H  -4.38700 24.57400 31.24400
H  -7.24000 24.04900 30.78100
H  -5.70800 21.59000 30.44400
H  -6.69400 22.12600 31.85700
H  -4.94300 22.40200 31.67800
H  -6.95400 26.09200 31.19200
H  -5.53000 27.00900 30.99200
H  -6.59700 26.54000 33.42800
H  -4.95500 27.01500 33.11300
H  -9.35100 19.98700 27.40500
H  -10.57800 21.23300 26.70500
H  -9.79400 21.40700 28.18500
H  -9.79400 19.04300 23.46900
H  -10.73900 20.16500 24.60000
H  -9.33100 19.27300 25.11100
H  -6.04300 24.77500 21.38700
H  -3.21700 25.44700 21.60100
H  -5.16300 23.16400 20.10400
H  -4.58400 22.34800 21.65100
H  -3.53400 23.44700 20.76100
H  -4.84000 27.65000 22.47400
H  -5.82300 26.87100 21.20800
H  -4.85000 27.52400 19.65000
H  -3.21200 27.17400 20.19300
H  -3.85900 28.67100 20.63000
H  -1.77500 29.84200 25.84000
H  -1.06800 28.85600 24.45900
H  -0.38300 29.01100 26.11200
H  -3.42100 27.77700 30.52500
H  0.07200 26.07700 32.54400
H  -1.24300 25.34800 33.47100
H  -0.85700 26.88500 33.84600

