158

Mg 52.47600 23.66700 44.56300
C  49.51400 25.46400 44.01700
C  50.73800 20.71000 43.68300
C  55.45500 22.14100 44.19200
C  54.05400 26.60700 45.42600
N  50.32300 23.16300 43.88100
C  49.31200 24.06500 43.75200
C  48.02200 23.27500 43.49600
C  48.35300 21.76000 43.47600
C  49.91000 21.87500 43.74900
C  47.54000 20.94500 44.44100
C  47.06300 23.79400 42.34600
C  47.67500 23.93300 40.93200
H  47.55800 22.71800 39.93900
N  53.03300 21.69000 44.12700
C  52.14400 20.65100 43.78600
C  52.98900 19.42100 43.63700
C  54.33000 19.81200 43.69500
C  54.36000 21.26300 44.00500
C  52.35700 18.05800 43.32600
C  55.46600 18.91800 43.23000
O  55.27900 17.72700 43.04100
C  56.75800 19.48700 42.93700
N  54.45900 24.34100 44.59500
C  55.46700 23.45000 44.42400
C  56.75900 24.22500 44.83500
C  56.44100 25.75100 44.83100
C  54.88500 25.60100 45.03200
C  57.47300 23.65200 46.05100
C  56.77200 26.59600 43.55800
C  58.14100 27.28100 43.47200
N  51.88900 25.66200 44.74500
C  52.60500 26.69000 45.27000
C  51.75200 27.83000 45.51400
C  50.52900 27.44800 44.91900
C  50.66900 26.10500 44.46500
C  52.09100 29.20900 45.99900
C  49.14400 27.82000 44.61800
O  48.52800 28.86600 44.92400
C  48.55000 26.65400 43.88000
C  48.39100 27.09300 42.51300
O  49.19200 26.91900 41.60100
O  47.18100 27.72200 42.32700
C  46.72300 27.79300 40.92100
H  50.18800 19.78700 43.49000
H  56.48900 21.79600 44.11600
H  54.53400 27.47700 45.88100
H  47.50100 23.60700 44.39400
H  48.22900 21.42500 42.44600
H  47.30100 19.97500 44.00500
H  46.66700 21.55300 44.68000
H  48.16300 20.74100 45.31100
H  46.73100 24.78900 42.64000
H  46.12900 23.23300 42.36400
H  48.72000 24.18400 41.10900
H  47.14400 24.79700 40.53300
H  52.63900 17.22700 43.97300
H  52.53000 17.77700 42.28700
H  51.27300 17.96500 43.40200
H  57.38100 18.78700 42.37900
H  57.33400 19.52900 43.86100
H  56.69100 20.39900 42.34400
H  57.37000 24.11700 43.93800
H  56.85800 26.18700 45.73900
H  58.37400 23.11500 45.75400
H  56.83700 22.88800 46.49600
H  57.68500 24.42300 46.79200
H  56.02500 27.37400 43.40100
H  56.79400 25.97900 42.66000
H  58.60600 26.82500 42.59800
H  58.77400 27.08300 44.33800
H  58.10000 28.36900 43.42600
H  53.06600 29.56900 45.67300
H  52.02500 29.34600 47.07900
H  51.33100 29.85800 45.56500
H  47.56500 26.41900 44.28300
H  45.91000 27.06700 40.87700
H  47.49600 27.73000 40.15500
H  46.22600 28.76100 40.85800
Mg 46.38700 44.79900 43.80600
C  43.09100 43.69400 43.38600
C  47.51400 41.50300 43.27800
C  49.66200 45.85100 43.72400
C  45.26800 48.01900 43.93900
N  45.43000 42.81400 43.23100
C  44.10200 42.61400 43.19700
C  43.73000 41.08900 42.96400
C  45.12000 40.41000 43.23700
C  46.09200 41.64400 43.13200
C  45.16600 39.80900 44.61700
C  43.08800 40.77300 41.56400
C  43.64100 41.52500 40.34200
H  43.25400 40.97900 38.94100
N  48.37200 43.81600 43.53000
C  48.57800 42.42300 43.44000
C  49.98400 42.16600 43.48300
C  50.65700 43.43400 43.63900
C  49.53100 44.43700 43.66500
C  50.61200 40.82200 43.30800
C  52.16500 43.53800 43.78600
O  52.88100 42.57100 43.76600
C  52.84900 44.88300 43.84200
N  47.35600 46.74700 43.58500
C  48.64500 46.86100 43.89800
C  49.01100 48.31000 44.23800
C  47.58300 49.04000 44.03000
C  46.63900 47.86300 43.80800
C  49.63600 48.37500 45.73500
C  47.48500 50.13100 42.85400
C  47.58400 51.57000 43.28300
N  44.63800 45.70700 43.65900
C  44.28700 47.02300 43.75100
C  42.81300 47.18900 43.67200
C  42.32400 45.88800 43.52600
C  43.47600 45.02700 43.53600
C  42.02600 48.42600 43.67200
C  41.14900 45.05800 43.43200
O  39.98200 45.40000 43.42900
C  41.58400 43.59200 43.33300
C  40.98600 42.87800 44.50100
O  40.08700 42.02900 44.42100
O  41.54400 43.40300 45.67700
C  40.83900 42.86100 46.89900
H  47.74800 40.45200 43.45500
H  50.67800 46.24600 43.80000
H  44.90500 49.00300 44.24400
H  42.98700 40.68200 43.65100
H  45.41500 39.62100 42.54500
H  44.25900 39.24300 44.82500
H  45.44200 40.52700 45.39000
H  45.97500 39.07800 44.59700
H  42.05100 41.00700 41.80300
H  43.23400 39.72400 41.30600
H  44.72800 41.55500 40.41800
H  43.18700 42.50600 40.48100
H  51.16700 40.74200 42.37300
H  49.90500 39.99400 43.36300
H  51.11700 40.65900 44.26000
H  52.32900 45.26600 44.72000
H  52.82300 45.47100 42.92500
H  53.91600 44.78500 44.04600
H  49.66800 48.64900 43.43700
H  47.23000 49.48500 44.96100
H  49.14300 49.20500 46.24000
H  50.68900 48.65400 45.69800
H  49.47900 47.42700 46.25000
H  46.49000 50.12100 42.40900
H  48.18900 50.00300 42.03200
H  47.55600 51.70400 44.36400
H  46.70900 52.13100 42.95500
H  48.46600 52.13800 42.98900
H  41.49200 48.58100 44.61000
H  41.26100 48.27300 42.91000
H  42.48700 49.40100 43.51400
H  41.27800 43.13800 42.39100
H  40.90400 41.77300 46.90100
H  39.78000 43.11500 46.84000
H  41.26200 43.25000 47.82600

