158

Mg 0.56000 41.73600 25.74400
C  1.55500 41.96800 29.10300
C  -2.54500 40.64300 26.88700
C  -0.42900 41.51300 22.64300
C  3.86400 42.50700 24.77400
N  -0.39200 41.40100 27.75000
C  0.19400 41.70400 28.97200
C  -0.82400 41.51000 30.18800
C  -1.98900 40.67600 29.41200
C  -1.63600 40.83300 27.88300
C  -2.17100 39.18700 29.89800
C  -1.18300 42.80400 31.00300
C  -0.72800 42.74900 32.43300
H  -1.27200 41.55900 33.31600
N  -1.23000 41.27000 24.92600
C  -2.40900 40.77700 25.49000
C  -3.39100 40.32100 24.47900
C  -2.77600 40.74200 23.22000
C  -1.40200 41.22700 23.54500
C  -4.64100 39.49500 24.82700
C  -3.49200 40.81400 21.83100
O  -2.94400 41.21300 20.75900
C  -4.87500 40.34700 21.74900
N  1.54200 41.89800 23.98700
C  0.92000 41.85200 22.76600
C  1.88200 41.87500 21.63900
C  3.20700 42.47300 22.33100
C  2.87600 42.20800 23.78500
C  2.11800 40.53500 20.88900
C  3.53000 43.91100 22.06600
C  3.93600 44.24700 20.63200
N  2.44800 41.99900 26.69200
C  3.68100 42.36400 26.15200
C  4.61900 42.50700 27.27800
C  3.78800 42.45400 28.40900
C  2.52600 42.10400 28.05200
C  6.03700 42.94100 27.10600
C  3.73600 42.58000 29.88100
O  4.61400 42.91600 30.65900
C  2.34200 42.20600 30.39000
C  2.44800 41.01400 31.17800
O  2.64200 39.86800 30.76500
O  2.28700 41.33000 32.51700
C  2.34800 40.20200 33.50800
H  -3.51000 40.38500 27.32900
H  -0.80400 41.29500 21.64100
H  4.85200 42.89700 24.52300
H  -0.26700 40.82500 30.82800
H  -2.91300 41.21100 29.63600
H  -1.89000 38.53500 29.07100
H  -3.13300 38.91600 30.33400
H  -1.38000 38.98400 30.62000
H  -2.24900 43.01800 31.08000
H  -0.73300 43.63000 30.45300
H  -1.00800 43.72000 32.84100
H  0.36100 42.76700 32.45500
H  -5.41600 40.05800 24.30600
H  -4.72300 39.53400 25.91300
H  -4.61600 38.53600 24.31000
H  -4.95900 39.31600 22.09300
H  -5.07700 40.36000 20.67800
H  -5.45400 41.15700 22.19200
H  1.60600 42.50800 20.79500
H  4.08600 41.87600 22.08600
H  1.86100 39.68100 21.51400
H  3.17000 40.40600 20.63500
H  1.56400 40.44100 19.95500
H  4.30300 44.40800 22.65200
H  2.67500 44.54400 22.30600
H  3.10300 44.69500 20.09000
H  4.16100 43.32500 20.09600
H  4.75500 44.96500 20.66600
H  6.12400 43.64000 26.27400
H  6.73100 42.11300 26.95900
H  6.45200 43.42600 27.98900
H  2.14400 43.12400 30.94400
H  2.13700 40.78200 34.40700
H  3.27900 39.67900 33.72400
H  1.63900 39.40800 33.27400
Mg -6.15700 24.70800 26.74000
C  -4.63100 25.92700 29.79200
C  -8.20800 22.72200 28.68800
C  -7.10900 22.97300 23.98000
C  -3.60400 26.26600 25.00600
N  -6.39500 24.39600 28.97800
C  -5.68700 25.00900 29.97500
C  -6.29700 24.64000 31.34100
C  -7.43600 23.57100 30.97100
C  -7.41000 23.57600 29.45700
C  -7.08300 22.17600 31.62400
C  -6.90800 25.96300 32.03000
C  -7.14300 25.96600 33.56100
H  -6.47600 24.83900 34.34500
N  -7.55800 23.18700 26.40800
C  -8.34700 22.56500 27.34200
C  -9.36000 21.80600 26.59700
C  -9.02700 21.82900 25.20100
C  -7.85300 22.73400 25.11600
C  -10.51600 21.03700 27.17400
C  -9.61500 21.01100 24.02300
O  -9.01500 20.90500 22.93600
C  -10.95500 20.29400 24.10700
N  -5.40000 24.54600 24.76500
C  -5.98100 23.76600 23.81300
C  -5.34500 24.11200 22.40100
C  -4.39700 25.26900 22.75100
C  -4.41900 25.35500 24.23800
C  -4.68900 22.88800 21.75800
C  -4.84500 26.65800 22.23500
C  -4.36600 26.95200 20.77700
N  -4.42500 25.82500 27.23400
C  -3.51100 26.44600 26.41300
C  -2.49200 27.17500 27.19000
C  -2.83600 26.91400 28.51100
C  -4.05300 26.19700 28.49700
C  -1.25600 27.91500 26.73900
C  -2.43300 27.18500 29.85300
O  -1.40500 27.71000 30.30500
C  -3.63000 26.68800 30.82200
C  -2.83400 25.93200 31.82100
O  -2.42600 24.77900 31.73600
O  -2.63300 26.70900 32.94800
C  -2.09100 25.99000 34.08800
H  -8.92100 22.12500 29.26200
H  -7.56600 22.59100 23.06500
H  -2.92300 26.87900 24.41200
H  -5.49900 24.31300 32.00700
H  -8.44800 23.80300 31.30200
H  -7.14600 21.42200 30.83900
H  -7.69700 21.87200 32.47200
H  -6.08700 22.19100 32.06700
H  -7.87700 26.05000 31.53900
H  -6.45600 26.87700 31.64400
H  -8.22400 25.83700 33.61000
H  -6.93500 26.96600 33.94000
H  -10.46300 19.96700 26.97300
H  -11.47200 21.44300 26.84200
H  -10.39600 21.22000 28.24200
H  -10.93900 19.43500 23.43600
H  -11.76600 20.95200 23.79700
H  -11.27900 19.92300 25.07900
H  -6.09800 24.42700 21.68000
H  -3.39200 25.03600 22.39800
H  -5.29600 22.61400 20.89500
H  -4.84200 22.11500 22.51100
H  -3.64700 22.98000 21.45300
H  -4.36600 27.45400 22.80600
H  -5.93300 26.71100 22.25600
H  -4.31200 25.98500 20.27600
H  -3.35300 27.35300 20.75300
H  -5.07200 27.59700 20.25400
H  -0.81700 28.30400 27.65800
H  -1.41000 28.67000 25.96800
H  -0.52800 27.27300 26.24300
H  -4.08200 27.56600 31.28400
H  -1.11600 26.43500 34.28700
H  -2.18000 24.90800 33.98700
H  -2.73200 26.28000 34.92000

