158

Mg 0.31400 7.26500 25.78800
C  1.16800 9.41200 28.73000
C  0.90000 4.62100 27.93900
C  0.08200 5.48900 23.20500
C  0.48000 10.25400 23.89000
N  1.03600 7.10300 28.05500
C  1.11500 8.02500 29.04400
C  1.23100 7.47000 30.44000
C  1.38600 5.95000 30.08400
C  1.12900 5.85900 28.56200
C  2.78800 5.30900 30.44400
C  -0.07900 7.84800 31.27000
C  -0.09600 7.53800 32.73600
H  1.29700 7.39900 33.43100
N  0.46600 5.30900 25.63400
C  0.60200 4.34700 26.60200
C  0.46600 3.07600 25.98800
C  0.05900 3.31900 24.65600
C  0.19500 4.74500 24.41900
C  0.92500 1.80400 26.71500
C  -0.18800 2.20700 23.63100
O  -0.19900 2.49900 22.47500
C  -0.36100 0.74400 23.87000
N  0.47600 7.83700 23.84800
C  0.15500 6.84300 22.93800
C  -0.26000 7.46300 21.57600
C  -0.23200 8.99500 21.83000
C  0.23300 9.07700 23.26000
C  0.53900 6.93500 20.33200
C  -1.56800 9.80000 21.59400
C  -1.34000 11.09700 20.74800
N  0.69100 9.45900 26.19700
C  0.77300 10.48400 25.24000
C  1.08400 11.73200 25.93800
C  1.16500 11.30200 27.24400
C  1.03100 9.93900 27.40700
C  1.20300 13.09400 25.25100
C  1.47700 11.81800 28.56300
O  1.81400 12.92400 28.86400
C  1.40500 10.59900 29.63800
C  2.71200 10.57900 30.32400
O  3.79700 10.49700 29.75700
O  2.48100 10.77400 31.66900
C  3.64000 10.87700 32.50900
H  0.95600 3.76700 28.61700
H  -0.19400 4.78800 22.41400
H  0.35700 11.13200 23.25200
H  2.08600 7.88400 30.97500
H  0.67800 5.37900 30.68600
H  2.70200 4.45700 31.11800
H  3.25700 5.98300 31.16000
H  3.45100 5.07100 29.61200
H  -0.86000 7.31000 30.73400
H  -0.26100 8.92200 31.23900
H  -0.68200 6.61900 32.73300
H  -0.71700 8.28100 33.23600
H  1.39600 1.05200 26.08300
H  0.06400 1.46900 27.29500
H  1.80100 2.08300 27.30100
H  -0.69500 0.68400 24.90600
H  0.59100 0.25900 23.65300
H  -1.18300 0.47300 23.20800
H  -1.26200 7.06700 21.41100
H  0.51900 9.46100 21.19300
H  1.17300 7.71400 19.90900
H  -0.09300 6.57900 19.51900
H  1.20200 6.09100 20.52100
H  -2.04200 10.04700 22.54300
H  -2.19300 9.23700 20.90000
H  -1.44700 10.86700 19.68800
H  -0.34900 11.53800 20.85700
H  -2.15600 11.71400 21.12300
H  0.58400 13.02100 24.35600
H  2.23100 13.34200 24.98900
H  0.77600 13.86900 25.88700
H  0.54300 10.68400 30.29900
H  4.30000 10.05200 32.24400
H  3.44300 10.82700 33.58000
H  4.28600 11.73400 32.31700
Mg 36.04500 50.32100 25.44600
C  35.95000 48.43800 28.53000
C  34.74700 52.95300 27.26800
C  35.99200 52.03400 22.58800
C  37.06700 47.47000 23.76000
N  35.46400 50.73800 27.69800
C  35.60500 49.82100 28.72000
C  35.19200 50.48300 30.06100
C  34.75900 51.89900 29.61300
C  34.97800 51.94200 28.10600
C  33.33300 52.32000 30.05900
C  36.28100 50.42700 31.15900
C  35.88600 49.71600 32.47000
H  34.47000 49.83600 33.04200
N  35.64500 52.27200 25.02400
C  34.99900 53.20600 25.84500
C  34.60200 54.40100 25.09400
C  35.01300 54.21700 23.76500
C  35.62000 52.82900 23.74800
C  33.89800 55.54100 25.74500
C  34.83000 55.07500 22.54400
O  35.29900 54.90800 21.42200
C  34.17600 56.41100 22.80800
N  36.26300 49.77900 23.47200
C  36.25200 50.66000 22.42200
C  36.67000 49.99300 21.09200
C  37.29200 48.66700 21.50200
C  36.80300 48.63500 23.01400
C  35.46500 49.98300 20.07500
C  38.84000 48.57100 21.37300
C  39.72300 49.29100 22.41500
N  36.34500 48.40100 25.94000
C  36.84100 47.32700 25.15900
C  37.01300 46.11500 25.97500
C  36.63000 46.50700 27.23700
C  36.23200 47.91700 27.20600
C  37.50900 44.81500 25.43700
C  36.50600 46.04800 28.61800
O  36.77000 44.95100 29.10400
C  36.17400 47.29000 29.48500
C  35.01500 46.82900 30.29800
O  33.81000 47.05700 29.96800
O  35.33100 46.12000 31.41900
C  34.24000 45.50600 32.23400
H  34.19700 53.80900 27.66400
H  35.95900 52.61400 21.66400
H  37.44900 46.58900 23.24100
H  34.31200 49.95900 30.43400
H  35.44700 52.65600 29.99300
H  32.79800 52.73400 29.20400
H  33.36700 53.15200 30.76200
H  32.67900 51.49900 30.35300
H  36.72200 51.40600 31.34900
H  37.07900 49.85000 30.69200
H  36.54200 50.05500 33.27100
H  36.15000 48.68400 32.23400
H  33.79600 55.61100 26.82800
H  32.94100 55.65200 25.23400
H  34.29900 56.53800 25.56500
H  33.12300 56.32500 23.07800
H  34.30200 57.05200 21.93600
H  34.75400 56.93400 23.56900
H  37.37000 50.63900 20.56200
H  36.78500 47.82300 21.03500
H  34.57900 50.11000 20.69700
H  35.41900 49.00300 19.60000
H  35.47700 50.87700 19.45200
H  39.09100 49.03600 20.41900
H  39.07200 47.51200 21.25900
H  39.10800 49.86700 23.10700
H  40.48000 49.85600 21.87100
H  40.27500 48.55700 23.00100
H  38.17300 45.13800 24.63500
H  36.60200 44.32700 25.07900
H  37.97500 44.13600 26.15100
H  37.00100 47.55500 30.14300
H  33.62200 44.90200 31.57000
H  33.71000 46.38400 32.60200
H  34.58700 44.82200 33.00800

