158

Mg 48.36800 45.25800 42.42000
C  45.10800 45.82600 40.95300
C  48.33500 42.26300 40.97200
C  51.67800 45.34700 42.44300
C  48.15700 48.61700 43.51400
N  46.92700 44.26600 40.97700
C  45.58800 44.57900 40.58600
C  44.88000 43.43900 39.84500
C  45.81700 42.23700 40.23300
C  47.16200 42.92600 40.78300
C  45.24200 41.27900 41.34900
C  44.70900 43.82500 38.36800
C  43.52700 43.20800 37.68800
H  43.75900 42.70200 36.24800
N  49.81700 43.90400 42.00200
C  49.55300 42.66100 41.34200
C  50.86000 41.94000 41.19300
C  51.84900 42.90400 41.69500
C  51.13800 44.12400 42.01700
C  51.09100 40.66600 40.66400
C  53.30600 42.60100 41.92600
O  53.75200 41.51200 41.58400
C  54.28700 43.48600 42.58900
N  49.66600 46.75800 42.88300
C  50.99300 46.51000 42.92000
C  51.78300 47.77500 43.40400
C  50.67900 48.70000 43.80200
C  49.39500 47.96200 43.48100
C  52.93100 47.60100 44.43300
C  50.73200 50.03500 43.15900
C  50.41300 51.23200 44.14100
N  46.93900 46.90900 42.31500
C  46.98100 48.16800 42.87900
C  45.74500 48.88900 42.63800
C  44.98700 47.92400 41.91600
C  45.79000 46.79500 41.71300
C  45.45300 50.32500 43.00500
C  43.65100 47.69100 41.30000
O  42.67700 48.48000 41.23400
C  43.72600 46.34500 40.62800
C  42.62500 45.62400 41.36600
O  41.72200 45.00300 40.89100
O  42.88300 45.79000 42.75000
C  42.01000 44.94500 43.54700
H  48.25700 41.22500 40.64200
H  52.76900 45.34500 42.39600
H  48.16600 49.62700 43.93100
H  43.91600 43.27200 40.32700
H  45.93100 41.58100 39.37000
H  44.62900 41.89500 42.00600
H  45.98800 40.68000 41.87100
H  44.55500 40.53200 40.95000
H  45.58500 43.39400 37.88300
H  44.79400 44.88200 38.11700
H  42.74900 43.97000 37.63900
H  43.06600 42.39500 38.24800
H  50.10400 40.23900 40.48400
H  51.65300 40.14900 41.44200
H  51.58800 40.76800 39.70000
H  53.84900 43.87200 43.50900
H  54.55600 44.27000 41.88000
H  55.15200 42.86900 42.83200
H  52.22200 48.09300 42.45800
H  50.68500 48.87400 44.87800
H  52.98200 46.56200 44.75700
H  53.01500 48.22400 45.32300
H  53.89500 47.71400 43.93800
H  49.99500 50.11100 42.35900
H  51.74300 50.15100 42.77000
H  49.63700 51.08600 44.89200
H  50.12500 52.07400 43.51200
H  51.30000 51.34800 44.76500
H  45.92700 51.09200 42.39200
H  45.82300 50.44500 44.02300
H  44.38300 50.52900 43.01800
H  43.42700 46.39900 39.58100
H  41.61300 44.07800 43.01700
H  41.20800 45.56900 43.94100
H  42.59000 44.66100 44.42500
Mg 30.08400 58.17500 39.25000
C  27.40200 55.91900 38.14800
C  32.21800 55.59700 38.56200
C  32.56100 60.42700 38.97200
C  27.76100 60.81600 38.91900
N  29.77300 55.97600 38.42600
C  28.63900 55.28600 38.20300
C  29.00400 53.77200 38.09800
C  30.51700 53.71300 38.24400
C  30.85800 55.21000 38.47500
C  30.91700 52.76900 39.42900
C  28.48000 53.17900 36.69200
C  29.04600 53.92700 35.42700
H  28.13100 54.82100 34.57200
N  32.12900 58.01200 38.93500
C  32.78300 56.91900 38.64900
C  34.19300 57.20000 38.53000
C  34.35100 58.59700 38.88200
C  32.99800 59.06500 38.91000
C  35.31200 56.19100 38.25400
C  35.61500 59.24900 39.19400
O  36.66300 58.59600 39.23800
C  35.76900 60.70000 39.44100
N  30.20500 60.30900 38.82200
C  31.34400 60.96400 39.05000
C  31.11700 62.44500 39.23100
C  29.55000 62.57400 39.28900
C  29.08900 61.16800 38.96200
C  31.90300 63.26700 40.33400
C  29.03300 63.70700 38.35100
C  28.95400 65.11000 39.13700
N  28.06100 58.34100 38.77600
C  27.23100 59.47300 38.80300
C  25.82500 59.08300 38.72400
C  25.91400 57.75600 38.50400
C  27.24700 57.34600 38.49000
C  24.70100 60.04500 38.81900
C  25.10100 56.52700 38.25700
O  23.88800 56.43900 38.14300
C  26.00800 55.29500 38.04200
C  25.70300 54.16200 39.00800
O  26.09400 54.08900 40.14100
O  24.80600 53.28500 38.49400
C  24.34900 52.22900 39.41000
H  32.78300 54.71200 38.26200
H  33.38200 61.14700 39.00800
H  27.06100 61.65300 38.86400
H  28.43900 53.20900 38.84100
H  30.88500 53.37500 37.27500
H  29.98900 52.30000 39.75600
H  31.54900 53.25100 40.17500
H  31.55000 51.99300 38.99800
H  27.39200 53.23500 36.66700
H  28.78800 52.13400 36.65400
H  29.52100 53.19100 34.77900
H  29.83800 54.59000 35.77500
H  34.79600 55.23700 38.14800
H  35.99500 55.99900 39.08100
H  35.80900 56.45700 37.32100
H  35.26400 61.00000 40.35900
H  35.43700 61.29800 38.59200
H  36.80500 60.97000 39.64500
H  31.43600 62.87600 38.28200
H  29.29700 62.74900 40.33400
H  31.13200 63.71900 40.95600
H  32.55100 63.95500 39.79100
H  32.45100 62.60500 41.00500
H  28.03700 63.48100 37.97000
H  29.80200 63.76500 37.58100
H  29.94700 65.53000 39.29700
H  28.53100 64.85200 40.10700
H  28.42400 65.89800 38.60200
H  23.83700 59.57000 39.28300
H  24.26800 60.34100 37.86400
H  25.06700 60.88200 39.41300
H  25.73600 54.93900 37.04800
H  24.24000 52.59200 40.43200
H  25.15100 51.50000 39.53000
H  23.50700 51.65200 39.02600

