158

Mg 40.46100 9.89600 30.25800
C  42.12000 11.15700 33.00400
C  37.97900 8.85200 32.37200
C  39.01400 8.36200 27.63900
C  43.07300 10.85600 28.16400
N  40.16900 9.98200 32.56100
C  40.87400 10.67200 33.41200
C  40.26900 10.79000 34.79400
C  38.97600 9.89100 34.60400
C  38.97900 9.57600 33.07300
C  38.98800 8.58900 35.43100
C  39.97300 12.25400 35.25200
C  40.85600 12.78100 36.49400
H  40.12700 13.47100 37.66000
N  38.65000 8.89000 30.00100
C  37.76000 8.56900 30.99900
C  36.53100 7.97300 30.40400
C  36.85400 7.85000 28.99400
C  38.27600 8.27700 28.80100
C  35.38300 7.45700 31.26900
C  36.01800 7.31800 27.89000
O  36.39100 7.16100 26.72800
C  34.55000 7.00000 28.17000
N  40.90400 9.74400 28.11800
C  40.18300 8.98200 27.30800
C  40.68100 9.15100 25.80800
C  42.12700 9.80600 25.99100
C  42.06300 10.18000 27.51000
C  40.61800 7.89800 24.94000
C  42.36200 10.96700 25.08400
C  41.61600 12.31200 25.48000
N  42.22600 10.84400 30.46600
C  43.23100 11.14000 29.52700
C  44.23900 11.84400 30.25200
C  43.89000 11.84900 31.57000
C  42.65600 11.18900 31.66500
C  45.46000 12.49500 29.58600
C  44.28100 12.33200 32.94000
O  45.22900 13.05700 33.23200
C  43.15200 11.81300 33.87700
C  43.69700 10.82600 34.89800
O  43.73400 9.58900 34.79900
O  44.19500 11.58900 35.95600
C  44.94700 10.96200 36.99300
H  37.22400 8.54600 33.09900
H  38.53400 7.93000 26.75800
H  43.89600 11.13500 27.50300
H  40.96700 10.33000 35.49300
H  38.06000 10.42400 34.85700
H  39.67500 8.70200 36.27000
H  39.32100 7.68300 34.92500
H  37.97300 8.47400 35.81200
H  38.90400 12.37600 35.42800
H  40.23800 12.82900 34.36500
H  41.51700 13.55200 36.09700
H  41.36600 11.87400 36.81900
H  35.46200 7.54500 32.35300
H  35.31900 6.39400 31.03700
H  34.44900 7.93300 30.97100
H  34.00700 6.69800 27.27400
H  34.12900 7.94800 28.50200
H  34.54900 6.17700 28.88600
H  39.94400 9.87100 25.45300
H  42.97200 9.11700 25.97900
H  40.57400 7.04000 25.61100
H  41.47000 7.78100 24.27100
H  39.70900 7.82700 24.34200
H  42.10900 10.94800 24.02400
H  43.43400 11.16200 25.07400
H  41.44200 13.08000 24.72700
H  42.22200 12.75800 26.26900
H  40.72400 12.07900 26.06100
H  46.32100 11.82800 29.62400
H  45.42000 13.46300 30.08600
H  45.33100 12.63400 28.51300
H  42.74200 12.71600 34.33000
H  44.28000 10.18400 37.36500
H  45.18900 11.58900 37.85100
H  45.87000 10.50600 36.63700
Mg -13.15600 16.04800 41.70400
C  -10.23000 14.34400 41.07400
C  -11.74400 18.84800 40.16900
C  -16.10400 17.70800 41.96000
C  -14.77700 13.05300 42.47300
N  -11.13600 16.52000 40.82800
C  -10.12000 15.68600 40.64000
C  -8.97900 16.27100 39.85400
C  -9.44600 17.76700 39.86700
C  -10.89200 17.74700 40.35700
C  -8.61400 18.77400 40.67400
C  -8.63200 15.57100 38.46700
C  -7.11000 15.23800 38.16700
H  -6.48200 15.90100 36.91600
N  -13.82300 17.99100 41.21800
C  -13.12400 18.95100 40.52600
C  -13.98200 20.04400 40.28500
C  -15.19700 19.89800 40.92000
C  -15.12300 18.54200 41.42900
C  -13.48300 21.34100 39.57200
C  -16.29400 20.92700 40.95300
O  -16.10200 21.99600 40.42900
C  -17.58100 20.71700 41.73000
N  -15.18100 15.46700 42.05300
C  -16.17000 16.35700 42.34400
C  -17.41700 15.68700 42.92300
C  -16.88100 14.22300 43.23800
C  -15.48100 14.22900 42.60900
C  -18.24500 16.45300 43.99900
C  -17.88100 13.05300 42.86300
C  -18.43500 12.18400 43.99100
N  -12.65800 14.05900 41.84100
C  -13.40100 12.93600 42.08900
C  -12.55900 11.77000 42.02200
C  -11.23400 12.27100 41.67500
C  -11.39500 13.64100 41.49400
C  -12.96600 10.28800 41.99900
C  -9.85100 11.91500 41.46200
O  -9.29100 10.81700 41.57300
C  -9.14000 13.22000 40.92800
C  -7.92900 13.47600 41.66800
O  -7.84900 14.03200 42.71300
O  -6.81700 12.89500 41.12500
C  -5.59600 13.04400 41.97600
H  -11.22600 19.71000 39.74400
H  -17.04300 18.24900 42.09000
H  -15.26200 12.18600 42.92700
H  -8.06800 16.17100 40.44400
H  -9.62700 18.11100 38.84900
H  -9.25800 19.36500 41.32400
H  -8.05700 19.40100 39.97800
H  -7.89400 18.17900 41.23500
H  -8.92500 16.08900 37.55400
H  -9.23700 14.66400 38.47700
H  -7.18300 14.15000 38.15500
H  -6.59000 15.49600 39.09000
H  -13.54700 22.18000 40.26500
H  -14.02900 21.36200 38.62900
H  -12.47000 21.28200 39.17400
H  -18.16500 21.61600 41.53100
H  -17.37500 20.39600 42.75100
H  -18.02200 19.90200 41.15500
H  -18.05900 15.65300 42.04300
H  -16.68100 14.14300 44.30700
H  -17.71600 17.39600 44.14000
H  -18.21000 16.01200 44.99600
H  -19.29100 16.57800 43.72100
H  -17.34700 12.43600 42.14000
H  -18.80500 13.48600 42.48000
H  -19.46600 11.86100 43.84500
H  -18.27000 12.50500 45.02000
H  -17.80300 11.29700 43.95400
H  -12.19700 9.68800 42.48600
H  -13.07700 9.97900 40.96000
H  -13.93900 10.07700 42.44100
H  -8.75500 13.10900 39.91400
H  -5.29300 14.08900 41.90600
H  -4.76100 12.40500 41.69000
H  -5.77300 12.85700 43.03500

