158

Mg 8.04000 3.21100 27.11500
C  9.45400 1.65500 29.98000
C  6.20100 5.19500 29.43200
C  6.19400 4.32000 24.57500
C  9.43900 0.76800 25.13000
N  7.94900 3.50600 29.43800
C  8.66800 2.78100 30.37300
C  8.47100 3.26200 31.85200
C  7.41900 4.47700 31.61700
C  7.12600 4.36000 30.09700
C  6.17400 4.57500 32.50400
C  9.76300 3.69000 32.60800
C  9.72600 4.75000 33.72500
H  10.65400 4.54400 34.98700
N  6.54100 4.55100 27.03700
C  5.95800 5.35200 28.05200
C  5.09900 6.32300 27.45600
C  5.25500 6.20600 26.05800
C  6.02400 5.03000 25.84200
C  4.29800 7.27800 28.30400
C  4.70000 7.05400 24.93000
O  5.00600 6.93400 23.74400
C  3.82600 8.23200 25.28600
N  7.98700 2.67900 25.03800
C  7.08500 3.28800 24.20500
C  7.44200 2.84100 22.72000
C  8.62500 1.81100 22.87900
C  8.68300 1.72200 24.40400
C  6.28500 2.26500 21.87900
C  9.95800 2.21600 22.27200
C  10.92600 1.09300 21.94500
N  9.16100 1.56700 27.43300
C  9.64600 0.67600 26.53600
C  10.48200 -0.31800 27.25400
C  10.44800 0.07100 28.60800
C  9.66500 1.24600 28.65200
C  10.98200 -1.60900 26.73200
C  11.00600 -0.27600 29.92000
O  11.75200 -1.20700 30.24000
C  10.32600 0.80700 30.89800
C  9.55200 0.15100 31.94200
O  8.54300 -0.53900 31.71400
O  10.03500 0.44600 33.20200
C  9.27400 0.01400 34.41800
H  5.64900 5.82200 30.13500
H  5.56400 4.66000 23.75100
H  9.92200 -0.05300 24.59500
H  8.08200 2.38100 32.36300
H  7.89100 5.45300 31.72600
H  6.07300 5.54500 32.99100
H  6.28300 3.80200 33.26400
H  5.27900 4.32200 31.93500
H  10.36500 4.14500 31.82200
H  10.38100 2.87500 32.98500
H  8.73500 4.81600 34.17400
H  10.03600 5.69600 33.28000
H  4.00200 6.83600 29.25500
H  3.30100 7.30600 27.86400
H  4.81100 8.22700 28.46000
H  3.24700 8.41800 24.38200
H  4.33600 9.16500 25.52500
H  2.97100 8.16800 25.95900
H  7.67300 3.82300 22.30600
H  8.31700 0.82000 22.54600
H  5.41100 2.74000 22.32500
H  6.18200 1.18000 21.89100
H  6.31700 2.49000 20.81300
H  10.41500 2.96000 22.92400
H  9.68800 2.74800 21.36000
H  10.38800 0.14500 21.92200
H  11.69100 0.99200 22.71400
H  11.41400 1.23100 20.98000
H  10.44500 -1.92600 25.83800
H  10.95400 -2.45700 27.41700
H  12.02800 -1.36700 26.54400
H  11.18000 1.36700 31.27800
H  10.01900 -0.54900 34.98000
H  8.48500 -0.70500 34.19900
H  8.93400 0.87000 35.00200
Mg 35.03800 2.14100 29.56300
C  33.06300 3.27900 32.15900
C  37.67800 2.06100 31.75800
C  37.05600 1.32700 26.93100
C  32.38900 2.87100 27.38700
N  35.32000 2.56100 31.73300
C  34.38000 3.05600 32.58200
C  34.91000 3.23900 34.03600
C  36.46900 3.15200 33.83600
C  36.52700 2.57900 32.34700
C  37.06400 4.52700 33.87600
C  34.41200 2.16100 34.95900
C  34.33600 2.40200 36.49500
H  34.95200 3.60500 37.12300
N  37.07500 1.70500 29.35600
C  37.98700 1.73600 30.42700
C  39.24700 1.18500 29.95500
C  39.09900 0.97700 28.56000
C  37.71500 1.39400 28.20100
C  40.44900 0.94600 30.80900
C  40.16300 0.56500 27.56200
O  39.98200 0.56100 26.39900
C  41.52300 0.17600 28.06800
N  34.86600 2.38200 27.44900
C  35.80800 1.88500 26.54700
C  35.33500 2.10800 25.10800
C  33.85200 2.49800 25.31300
C  33.63200 2.59000 26.81500
C  36.27400 3.08200 24.30700
C  32.86900 1.66100 24.42700
C  32.49800 0.29300 25.04100
N  33.10900 2.83200 29.68200
C  32.15400 3.10800 28.73800
C  30.93900 3.65300 29.34400
C  31.24000 3.67200 30.76000
C  32.59700 3.26400 30.81300
C  29.64900 3.87200 28.55900
C  30.65000 3.87200 32.06900
O  29.49600 4.19600 32.41000
C  31.89000 3.81000 33.05500
C  32.06000 5.18400 33.47500
O  32.24200 6.11200 32.74900
O  31.99100 5.23000 34.84500
C  32.03200 6.55100 35.47300
H  38.47700 2.14100 32.49800
H  37.69800 0.94300 26.13500
H  31.56000 3.11800 26.72100
H  34.49300 4.15600 34.45200
H  36.98600 2.45100 34.49200
H  36.37700 5.15700 34.44000
H  37.21100 4.99200 32.90100
H  38.03000 4.48700 34.37900
H  34.93300 1.21400 34.81700
H  33.39400 1.91200 34.65900
H  34.81400 1.63800 37.10900
H  33.25800 2.35100 36.65200
H  40.33800 1.47400 31.75600
H  41.32600 1.43700 30.38700
H  40.53900 -0.12900 30.96600
H  42.06600 -0.26200 27.23100
H  41.39500 -0.68800 28.72000
H  42.07300 1.01500 28.49600
H  35.52600 1.17400 24.58000
H  33.71200 3.51700 24.95100
H  35.62000 3.90000 24.00500
H  36.75900 2.53200 23.50100
H  37.09400 3.50700 24.88700
H  33.42800 1.62400 23.49200
H  31.98600 2.29000 24.31200
H  32.66600 -0.41100 24.22700
H  31.44900 0.11300 25.27900
H  32.99100 -0.17500 25.89300
H  28.77200 3.97700 29.19800
H  29.52400 3.02800 27.88000
H  29.68000 4.73300 27.89100
H  31.58100 3.11400 33.83500
H  30.99700 6.89400 35.44500
H  32.66300 7.27900 34.96500
H  32.32800 6.52900 36.52200

