158

Mg 17.18400 -0.33600 28.01200
C  16.09700 1.70500 30.66400
C  19.16000 -2.05600 30.47800
C  18.73200 -1.98300 25.53300
C  15.79700 1.82600 25.70600
N  17.74200 -0.08000 30.33000
C  16.95600 0.69600 31.15800
C  17.32100 0.40600 32.67700
C  18.56100 -0.60200 32.57400
C  18.45900 -0.99000 31.08700
C  19.96000 0.01000 32.94000
C  16.15100 0.02900 33.65100
C  16.15300 0.73300 35.04900
H  17.43300 1.32000 35.71600
N  18.62300 -1.88600 28.02700
C  19.32200 -2.44900 29.11100
C  20.23700 -3.45200 28.58200
C  20.16600 -3.35100 27.11600
C  19.06900 -2.41400 26.84000
C  20.94600 -4.43500 29.60500
C  21.13900 -4.22100 26.01700
O  21.06700 -4.06900 24.80800
C  22.19700 -5.16100 26.65700
N  17.31700 -0.01900 25.91200
C  17.99500 -0.88500 25.16600
C  17.86500 -0.56100 23.68300
C  16.69300 0.57900 23.69400
C  16.61000 0.83300 25.19100
C  19.15800 -0.15900 22.98700
C  15.39100 0.37900 22.96900
C  14.30000 -0.47000 23.64600
N  16.05800 1.29800 28.09400
C  15.52500 2.07700 27.03700
C  14.62200 3.10700 27.59500
C  14.85900 3.07700 28.99800
C  15.75100 1.94700 29.26400
C  13.79200 4.05700 26.78800
C  14.50500 3.65300 30.35700
O  13.74000 4.54300 30.69300
C  15.39700 2.83300 31.41800
C  16.29500 3.77400 32.18900
O  17.27800 4.28500 31.73500
O  15.89000 3.91800 33.52200
C  16.86200 4.79700 34.25600
H  19.82800 -2.51300 31.21200
H  19.26500 -2.54600 24.76500
H  15.21900 2.34000 24.93500
H  17.69100 1.36800 33.03300
H  18.39500 -1.42700 33.26700
H  19.89700 0.97900 33.43500
H  20.58600 0.11500 32.05500
H  20.38700 -0.68400 33.66500
H  16.14000 -1.05700 33.73200
H  15.29600 0.32500 33.04200
H  15.53300 0.10600 35.69000
H  15.56800 1.63700 34.88000
H  22.00900 -4.19900 29.56800
H  20.70400 -5.45600 29.31000
H  20.68900 -4.38300 30.66300
H  22.67500 -5.69900 25.83800
H  21.71300 -5.80700 27.39000
H  22.95100 -4.54000 27.14100
H  17.50100 -1.46900 23.20100
H  17.01000 1.56500 23.35500
H  19.97000 -0.02900 23.70100
H  19.07600 0.82000 22.51400
H  19.47300 -0.83900 22.19600
H  15.59900 -0.13300 22.02900
H  15.00100 1.37700 22.76700
H  13.45700 0.10700 24.02600
H  14.71700 -1.05300 24.46600
H  13.80900 -0.97400 22.81300
H  14.07300 3.93600 25.74100
H  13.89200 5.08500 27.13500
H  12.72000 3.87500 26.72000
H  14.61000 2.50200 32.09600
H  16.43000 5.78300 34.08700
H  17.85200 4.62100 33.83500
H  16.69500 4.70000 35.32900
Mg 41.51900 8.65000 30.54200
C  43.55200 9.67800 33.06800
C  39.19900 7.65400 32.84100
C  39.78300 7.34900 28.03000
C  44.13800 9.35700 28.24100
N  41.35000 8.78900 32.67600
C  42.28200 9.18700 33.55900
C  41.83200 9.21300 35.01700
C  40.50600 8.45200 34.91700
C  40.35800 8.20900 33.43600
C  40.37700 7.15400 35.75100
C  41.96300 10.67600 35.71800
C  40.67700 11.29500 36.48600
H  41.03900 12.10500 37.74500
N  39.69200 7.71600 30.43700
C  38.86600 7.39900 31.49200
C  37.69800 6.73000 31.01800
C  37.77100 6.83500 29.61800
C  39.13600 7.29500 29.24000
C  36.64500 6.06300 31.90300
C  36.80600 6.34800 28.55500
O  37.06400 6.46600 27.36800
C  35.45700 5.89000 29.02500
N  42.00900 8.32300 28.47300
C  41.06000 7.80200 27.68400
C  41.60700 7.52400 26.23500
C  42.76600 8.57600 26.25100
C  43.00000 8.75300 27.71400
C  42.06900 6.05000 25.87700
C  42.35800 9.82600 25.45200
C  41.51100 10.92400 26.04900
N  43.45300 9.43500 30.58600
C  44.37200 9.64300 29.57500
C  45.57500 10.17300 30.19600
C  45.31400 10.10000 31.57800
C  43.92800 9.73800 31.73500
C  46.85700 10.72800 29.49200
C  45.85400 10.45100 32.87700
O  46.95900 10.91400 33.18500
C  44.71200 10.18600 33.83500
C  45.29300 9.19000 34.85300
O  45.80600 8.12500 34.66000
O  45.09200 9.65100 36.09700
C  45.59900 8.78900 37.20400
H  38.30100 7.45900 33.43000
H  39.26900 7.06500 27.10900
H  44.97200 9.59800 27.57900
H  42.58600 8.57400 35.47700
H  39.57300 8.99200 35.08100
H  39.52500 7.24700 36.42400
H  41.35900 6.95300 36.18000
H  40.26100 6.31100 35.06900
H  42.21000 11.41500 34.95500
H  42.74100 10.61400 36.47800
H  40.04500 10.45500 36.77300
H  40.21900 12.00200 35.79400
H  35.75100 6.68600 31.91800
H  36.96400 5.93700 32.93800
H  36.43500 5.07900 31.48400
H  35.56200 4.95600 29.57700
H  34.80400 5.74500 28.16600
H  34.88800 6.62400 29.59600
H  40.84200 7.79800 25.50900
H  43.62500 8.17400 25.71400
H  43.14300 5.95200 25.71900
H  41.46900 5.71900 25.02900
H  41.89300 5.42800 26.75500
H  41.89200 9.55900 24.50400
H  43.31000 10.26100 25.14700
H  41.02600 10.52200 26.93800
H  40.64800 11.17300 25.43200
H  41.96000 11.87100 26.34800
H  47.66200 11.15300 30.09200
H  46.77100 11.39700 28.63600
H  47.39000 9.83700 29.16000
H  44.47400 11.10400 34.37200
H  45.02400 7.86700 37.28400
H  45.77900 9.32100 38.13800
H  46.58800 8.48200 36.86500

