158

Mg 42.35700 41.20000 25.73500
C  41.70700 43.62600 28.08600
C  43.21400 39.09000 28.27900
C  43.10800 38.95800 23.33100
C  41.37500 43.48300 23.18400
N  42.59400 41.43000 27.93000
C  42.07600 42.42300 28.66400
C  42.11900 42.01900 30.17300
C  42.80700 40.68800 30.18400
C  42.88700 40.39700 28.73500
C  44.11900 40.67300 31.00900
C  40.73500 42.06300 31.00600
C  40.61800 41.37200 32.37100
H  41.10700 42.30900 33.50300
N  43.15600 39.31400 25.81100
C  43.42400 38.58800 26.94900
C  43.78900 37.28900 26.58000
C  43.79000 37.23300 25.14200
C  43.39800 38.54300 24.65700
C  43.98100 36.20400 27.65200
C  44.12900 36.07800 24.23900
O  44.07300 36.19700 22.97100
C  44.49400 34.75900 24.87100
N  42.25300 41.23600 23.56400
C  42.50400 40.14400 22.81900
C  42.30900 40.41000 21.31300
C  41.55500 41.77800 21.35100
C  41.66900 42.19200 22.78100
C  43.69300 40.48400 20.55100
C  40.13300 41.69200 20.74200
C  39.20200 40.81900 21.68900
N  41.92300 43.18600 25.63900
C  41.51300 43.99300 24.49600
C  41.11300 45.27900 24.96100
C  41.17900 45.25500 26.35600
C  41.64800 43.91600 26.72600
C  40.55200 46.27100 24.08100
C  40.91500 45.93400 27.62500
O  40.55800 47.10600 27.89900
C  41.18400 44.85500 28.83500
C  42.17400 45.51600 29.66000
O  43.36900 45.40700 29.53400
O  41.56700 46.08600 30.76400
C  42.48300 46.21600 31.94900
H  43.34700 38.34200 29.06300
H  43.39700 38.20700 22.59300
H  40.98300 44.09700 22.37100
H  42.86900 42.70400 30.57000
H  42.12200 39.97800 30.64600
H  44.81600 41.38600 30.56800
H  44.48800 39.65000 30.93200
H  43.95400 40.95200 32.04900
H  40.04100 41.54700 30.34200
H  40.41300 43.09800 31.11800
H  41.19600 40.45100 32.44800
H  39.61300 41.04700 32.63700
H  43.44000 35.33200 27.28500
H  43.54700 36.32600 28.64500
H  45.03900 35.97900 27.78600
H  44.83700 34.14200 24.04000
H  43.57700 34.39300 25.33200
H  45.35500 34.81100 25.53800
H  41.67000 39.66600 20.83800
H  42.10500 42.46400 20.70600
H  44.44300 40.64800 21.32400
H  43.82900 41.39400 19.96700
H  43.87800 39.64300 19.88200
H  40.08700 41.28000 19.73400
H  39.76100 42.71500 20.68300
H  38.51100 40.23300 21.08300
H  38.58500 41.46500 22.31500
H  39.71700 40.08800 22.31200
H  41.36800 46.77600 23.56600
H  39.97500 47.04200 24.59100
H  39.98400 45.69900 23.34700
H  40.23800 44.84000 29.37600
H  43.07000 45.30000 32.02200
H  41.87000 46.20000 32.85000
H  43.12100 47.08900 31.81100
Mg -10.89900 15.13900 42.52100
C  -7.67500 13.65500 41.94200
C  -10.12800 17.65300 40.46800
C  -14.15800 15.99600 42.71300
C  -11.80500 12.01400 44.15200
N  -9.06300 15.48900 41.31900
C  -7.82100 14.88700 41.28900
C  -6.89200 15.61000 40.25800
C  -7.68900 16.91600 40.00800
C  -9.08200 16.66400 40.58300
C  -6.95000 18.14000 40.64300
C  -6.40500 14.78500 39.01700
C  -4.95200 14.81500 38.81300
H  -4.38600 15.72400 37.67200
N  -11.99400 16.66500 41.74900
C  -11.49800 17.60800 40.90000
C  -12.44400 18.62600 40.75400
C  -13.60500 18.23900 41.47800
C  -13.35900 16.87100 41.99400
C  -12.22100 19.94600 40.02000
C  -14.93900 19.00800 41.50500
O  -15.00000 20.14600 41.04100
C  -16.18300 18.46700 42.17500
N  -12.73300 14.02000 43.28300
C  -13.89800 14.74600 43.30200
C  -14.94700 14.02600 44.20800
C  -14.28500 12.62600 44.55900
C  -12.85400 12.90300 44.00400
C  -15.26100 14.83800 45.48600
C  -14.95700 11.47400 43.81100
C  -15.08900 10.16900 44.76000
N  -9.87400 13.31100 43.20400
C  -10.46000 12.13600 43.73600
C  -9.36200 11.18500 43.95700
C  -8.27900 11.73100 43.18700
C  -8.66200 13.03000 42.76600
C  -9.44800 9.89700 44.75800
C  -6.92700 11.50600 42.62800
O  -6.20000 10.50000 42.72500
C  -6.42600 12.82300 41.94000
C  -5.39300 13.48600 42.78400
O  -5.35200 13.37700 44.04700
O  -4.44000 14.10100 41.98200
C  -3.56600 14.97600 42.67100
H  -9.67800 18.53500 40.00700
H  -15.17600 16.32800 42.92800
H  -12.00100 11.13900 44.77500
H  -6.04700 15.82800 40.91200
H  -7.70700 17.19700 38.95500
H  -7.44300 18.48200 41.55300
H  -6.90300 18.98100 39.95200
H  -5.88700 18.03800 40.86100
H  -6.78500 15.33900 38.15900
H  -6.81100 13.77400 39.01900
H  -4.57400 13.82200 38.57200
H  -4.36900 15.17900 39.65900
H  -11.16400 20.14600 39.84400
H  -12.63900 20.67300 40.71600
H  -12.80300 19.91500 39.09800
H  -16.91300 19.26800 42.29400
H  -15.84200 18.23300 43.18300
H  -16.67700 17.67000 41.62000
H  -15.87900 13.86300 43.66600
H  -14.16900 12.48900 45.63400
H  -14.76500 15.79500 45.64700
H  -15.12100 14.29900 46.42300
H  -16.30300 15.15400 45.53300
H  -14.37300 11.13600 42.95500
H  -15.96000 11.73300 43.47300
H  -15.98200 9.57700 44.55900
H  -14.97100 10.41200 45.81600
H  -14.28000 9.46000 44.58300
H  -9.37100 9.89400 45.84500
H  -8.65300 9.29900 44.31400
H  -10.40800 9.51300 44.41200
H  -5.99200 12.52500 40.98600
H  -2.96500 14.52200 43.45800
H  -4.14200 15.70100 43.24600
H  -2.82500 15.41800 42.00400

