158

Mg 0.21400 7.97200 26.27800
C  0.98100 9.73300 29.22100
C  0.20500 5.05300 28.19300
C  -0.20000 6.31500 23.48300
C  0.58900 10.94000 24.49700
N  0.46800 7.49100 28.33800
C  0.69400 8.37900 29.41800
C  0.57800 7.73700 30.77700
C  0.51000 6.20700 30.40400
C  0.47500 6.24000 28.87400
C  1.65900 5.36000 31.01400
C  -0.69600 8.28500 31.53000
C  -0.51900 8.42700 33.06600
H  0.71000 7.87200 33.87100
N  0.05800 6.00800 25.86000
C  0.01800 4.94600 26.81500
C  -0.33000 3.69800 26.11300
C  -0.31300 4.03800 24.72100
C  -0.15700 5.53600 24.64000
C  -0.51500 2.34000 26.85800
C  -0.60500 3.13200 23.51500
O  -0.56500 3.50500 22.36200
C  -1.06400 1.83800 23.78900
N  0.38400 8.53100 24.29100
C  -0.01400 7.66500 23.30500
C  -0.20300 8.27900 21.92500
C  -0.03700 9.81000 22.28100
C  0.30500 9.78200 23.77000
C  0.86600 7.75100 20.83500
C  -1.22900 10.69700 21.85000
C  -2.52200 10.61600 22.64000
N  0.80000 9.91700 26.70700
C  0.94600 10.98300 25.83800
C  1.36300 12.13800 26.57900
C  1.36500 11.70900 27.93700
C  1.04500 10.33600 27.95900
C  1.68400 13.50400 25.99100
C  1.55000 12.14000 29.27500
O  1.94700 13.18900 29.70000
C  1.26000 10.92600 30.14000
C  2.32400 10.76300 31.07300
O  3.24200 9.93600 30.99700
O  2.21200 11.70100 32.05900
C  3.19100 11.59600 33.15000
H  0.09900 4.14800 28.79400
H  -0.51600 5.77200 22.59000
H  0.82800 11.84900 23.94100
H  1.42200 8.06200 31.38500
H  -0.44600 5.75400 30.66900
H  1.28700 4.55500 31.64700
H  2.20600 5.89400 31.79100
H  2.39900 4.95400 30.32300
H  -1.34900 7.42900 31.35900
H  -1.08500 9.19700 31.07900
H  -1.38800 7.95000 33.51800
H  -0.56000 9.49400 33.28800
H  -1.26700 1.69900 26.39800
H  -0.84600 2.51600 27.88100
H  0.43800 1.82100 26.74900
H  -1.44000 1.32700 22.90200
H  -1.95400 2.10200 24.35900
H  -0.40400 1.19400 24.37100
H  -1.17900 7.99100 21.53500
H  0.83500 10.23900 21.78800
H  1.58500 7.03000 21.22600
H  1.52300 8.48000 20.36100
H  0.27400 7.13600 20.15700
H  -1.36400 10.54800 20.77900
H  -0.92100 11.73400 21.98200
H  -2.44700 9.80200 23.36000
H  -3.38100 10.44600 21.99100
H  -2.76300 11.52800 23.18700
H  0.67000 13.81800 25.74200
H  2.31200 13.36200 25.11100
H  2.04200 14.20500 26.74500
H  0.36200 11.06800 30.74200
H  4.05000 12.26500 33.09500
H  3.50200 10.57500 33.37300
H  2.59500 11.91600 34.00400
Mg 9.97300 48.35400 24.01400
C  7.47000 49.01000 26.32100
C  12.23900 48.88900 26.52100
C  12.30200 47.26300 21.82400
C  7.51700 47.90700 21.46800
N  9.88700 48.79500 26.21500
C  8.77000 49.01600 26.85000
C  9.03300 49.22400 28.32300
C  10.53300 49.68400 28.23700
C  10.95800 49.01900 26.94600
C  10.67000 51.22500 28.10700
C  8.95500 47.91200 29.21300
C  8.33500 48.33500 30.66100
H  8.05600 47.18400 31.67500
N  11.88800 48.15600 24.08000
C  12.65700 48.48700 25.22900
C  14.06900 48.43000 24.87400
C  14.12700 47.95000 23.51800
C  12.73300 47.71100 23.08400
C  15.13100 48.91300 25.86500
C  15.38400 47.84100 22.54100
O  15.26700 47.51500 21.35000
C  16.72300 48.06300 23.13700
N  9.94200 47.81900 21.83000
C  11.04700 47.39000 21.19000
C  10.72200 46.89700 19.76800
C  9.18400 47.22500 19.61300
C  8.83300 47.73900 21.04400
C  11.59400 47.34000 18.61200
C  8.32300 45.96300 19.25700
C  7.77600 45.08700 20.32700
N  7.91800 48.47500 23.87400
C  7.04700 48.29900 22.79300
C  5.65800 48.54100 23.25700
C  5.79100 48.91300 24.59300
C  7.16700 48.78400 24.93000
C  4.42100 48.40600 22.50000
C  5.08900 49.42500 25.76700
O  3.94900 49.81800 25.93100
C  6.08400 49.26100 26.99900
C  5.70000 48.12700 27.80200
O  5.97200 46.96900 27.42100
O  4.96600 48.46000 28.93900
C  4.67300 47.25500 29.63100
H  12.97800 49.03300 27.31200
H  13.13300 46.67200 21.43200
H  6.74100 47.73500 20.72000
H  8.50200 50.08600 28.72500
H  11.16100 49.29100 29.03700
H  11.22300 51.45400 27.19600
H  11.24200 51.61800 28.94700
H  9.72700 51.76000 27.99800
H  9.91200 47.40700 29.34300
H  8.24200 47.28500 28.67800
H  7.33400 48.69100 30.41800
H  8.92100 49.13800 31.10800
H  14.91000 48.76100 26.92100
H  15.35700 49.95600 25.64100
H  16.09800 48.42600 25.74700
H  16.95400 47.20400 23.76700
H  16.68100 49.02500 23.64700
H  17.55500 47.99900 22.43600
H  10.78800 45.80900 19.73700
H  8.95500 48.03900 18.92400
H  11.07800 48.12900 18.06600
H  11.80100 46.45000 18.01700
H  12.49800 47.81900 18.98800
H  8.78600 45.40000 18.44600
H  7.40400 46.34500 18.81100
H  8.48100 45.26700 21.13900
H  7.85400 44.05800 19.97700
H  6.77700 45.39600 20.63400
H  4.60800 47.77300 21.63300
H  4.04300 49.39300 22.23200
H  3.63900 47.91700 23.08100
H  5.97500 50.18100 27.57200
H  3.62900 47.06200 29.38600
H  4.54400 47.56400 30.66800
H  5.33600 46.39500 29.53300

