158

Mg 43.86200 4.36100 48.29700
C  41.66400 6.82800 47.45800
C  41.41500 2.05000 47.66800
C  46.25100 1.86300 48.36000
C  46.52700 6.69200 48.27900
N  41.80300 4.49800 47.32600
C  41.07700 5.59400 47.38200
C  39.60100 5.26100 46.89000
C  39.54100 3.74400 47.23600
C  40.98400 3.43200 47.46500
C  38.69200 3.35300 48.51600
C  39.36100 5.60000 45.37200
C  38.38500 6.77600 45.06500
H  37.51100 6.76400 43.79800
N  43.85900 2.27300 48.09600
C  42.73400 1.55500 47.89100
C  43.11100 0.11900 47.97300
C  44.51400 0.07600 48.18800
C  44.91500 1.41700 48.23800
C  42.09700 -0.99000 47.72400
C  45.31700 -1.24700 48.26900
O  44.74300 -2.31600 48.28900
C  46.79500 -1.27000 48.33200
N  46.07800 4.28600 48.48500
C  46.80700 3.14000 48.48500
C  48.24200 3.53300 48.93300
C  48.38400 5.02500 48.69700
C  46.91200 5.38400 48.49300
C  48.69500 3.12900 50.41500
C  49.30500 5.34600 47.55300
C  50.39700 6.38000 47.72000
N  44.08900 6.32800 48.11700
C  45.18600 7.19400 48.12700
C  44.76400 8.58100 47.84100
C  43.38600 8.47700 47.58000
C  43.04700 7.12100 47.81300
C  45.66700 9.68400 47.67600
C  42.16300 9.21700 47.29500
O  42.03600 10.36900 47.09400
C  40.99000 8.22400 47.31900
C  40.03300 8.52800 48.42900
O  40.22700 8.10100 49.57200
O  38.95400 9.21800 48.01400
C  37.79400 9.21300 48.89800
H  40.67500 1.25400 47.77700
H  47.04900 1.12500 48.47000
H  47.35800 7.37700 48.09900
H  38.96800 5.90600 47.49900
H  39.39800 3.15000 46.33300
H  39.30900 3.04800 49.36100
H  37.95400 2.56100 48.38900
H  38.10700 4.20800 48.85400
H  38.86600 4.75500 44.89300
H  40.23200 5.79400 44.74600
H  39.08700 7.58600 44.86800
H  37.69500 7.09100 45.84700
H  42.33900 -1.51200 46.79900
H  41.06000 -0.65500 47.68400
H  42.18500 -1.72200 48.52700
H  47.08100 -0.83200 49.28800
H  47.10500 -0.62300 47.51100
H  47.24700 -2.26100 48.28000
H  48.80500 2.89900 48.24800
H  48.61500 5.57900 49.60700
H  49.38700 2.29100 50.32700
H  47.79500 2.87400 50.97400
H  49.15300 3.97700 50.92400
H  48.64900 5.77400 46.79500
H  49.70500 4.42200 47.13500
H  50.71400 6.23900 48.75300
H  50.12400 7.41900 47.53400
H  51.18400 6.12700 47.00900
H  46.25800 9.77000 48.58800
H  45.06600 10.58900 47.59200
H  46.36900 9.53100 46.85700
H  40.41200 8.31100 46.39900
H  37.62100 10.26000 49.14700
H  37.89100 8.62800 49.81300
H  36.91500 8.85200 48.36400
Mg 35.82000 2.06900 29.69400
C  33.43700 3.13500 32.19200
C  38.10800 2.23400 32.27100
C  38.19600 1.75400 27.38900
C  33.25700 2.16600 27.30100
N  35.73000 2.40100 31.92100
C  34.60100 2.67700 32.75600
C  35.04000 2.79700 34.22400
C  36.57400 2.86700 34.13000
C  36.83600 2.42700 32.74200
C  37.29100 4.19600 34.52600
C  34.42500 1.61300 34.99700
C  34.29200 1.58200 36.52200
H  34.70700 2.86100 37.30700
N  37.91700 1.88700 29.82200
C  38.67600 2.01600 30.97200
C  40.03900 1.74200 30.69000
C  40.13000 1.70600 29.22700
C  38.71500 1.82900 28.71300
C  41.17400 1.58700 31.69300
C  41.39900 1.52900 28.34700
O  41.35000 1.45700 27.11300
C  42.78200 1.32400 29.04500
N  35.72900 1.89600 27.67100
C  36.85600 1.72800 26.94600
C  36.51800 1.45500 25.45600
C  34.99500 1.28700 25.52100
C  34.55000 1.73300 26.93200
C  37.00700 2.51300 24.32700
C  34.42700 -0.13500 25.19200
C  33.91500 -0.45100 23.79400
N  33.77200 2.59300 29.61500
C  32.85600 2.60400 28.60500
C  31.56500 3.16800 29.12400
C  31.75000 3.40000 30.44900
C  33.10100 2.97100 30.75300
C  30.38600 3.50100 28.31100
C  31.18200 3.82600 31.70800
O  30.00700 4.18700 31.91700
C  32.18400 3.75300 32.86400
C  32.44400 5.08500 33.42300
O  33.16500 5.92400 32.92200
O  31.73100 5.23000 34.64400
C  31.66100 6.49200 35.38600
H  38.91000 2.26400 33.01200
H  38.85000 1.47400 26.56100
H  32.45100 2.10800 26.56600
H  34.63000 3.75100 34.55700
H  36.91000 2.07600 34.80100
H  37.08900 5.01500 33.83600
H  38.34000 3.90900 34.58700
H  37.03200 4.65800 35.47900
H  34.79600 0.69600 34.54000
H  33.35200 1.52700 34.82700
H  34.87800 0.74200 36.89500
H  33.28900 1.24000 36.77700
H  41.75400 2.48500 31.48100
H  41.79600 0.70900 31.51800
H  40.70700 1.52800 32.67600
H  43.62800 1.37500 28.35900
H  42.83700 0.46900 29.71800
H  42.79800 2.20700 29.68400
H  36.92600 0.49800 25.13300
H  34.46200 2.00900 24.90200
H  37.68500 3.23700 24.77900
H  36.14800 3.04400 23.91800
H  37.67100 2.04700 23.59900
H  33.66400 -0.27900 25.95600
H  35.15100 -0.84200 25.59600
H  33.90500 0.49500 23.25400
H  32.91400 -0.87800 23.72500
H  34.57300 -1.09800 23.21400
H  30.68300 3.37400 27.27000
H  30.02100 4.50900 28.50800
H  29.51400 2.87700 28.50800
H  31.79900 3.05300 33.60500
H  30.68500 6.81200 35.75000
H  31.96200 7.30500 34.72600
H  32.26400 6.38400 36.28800

