158

Mg 44.43300 2.20500 47.27500
C  44.05200 5.51900 46.30300
C  41.31400 1.52900 46.10000
C  45.14600 -1.08800 47.56300
C  47.84400 2.87300 47.90900
N  42.80000 3.41600 46.49700
C  42.86600 4.73100 46.05400
C  41.60100 5.17500 45.39200
C  40.63300 3.91000 45.55300
C  41.61900 2.88100 46.12900
C  39.44800 4.04000 46.59300
C  41.82700 5.60200 43.90800
C  41.37600 7.00000 43.47500
H  40.20300 7.16500 42.43300
N  43.34100 0.43100 46.96500
C  42.03100 0.39100 46.47700
C  41.60600 -1.01400 46.35300
C  42.70500 -1.80000 46.82300
C  43.79900 -0.85700 47.17600
C  40.21700 -1.45000 45.88500
C  42.73100 -3.32900 46.96600
O  41.70700 -3.93400 46.72700
C  43.90400 -4.12600 47.33500
N  46.27100 1.02000 47.73600
C  46.21200 -0.25600 47.85800
C  47.60000 -0.91000 48.11100
C  48.53200 0.39300 47.95200
C  47.50700 1.54200 47.90300
C  47.78400 -1.71000 49.41700
C  49.56100 0.45100 46.83500
C  51.00600 0.11600 47.16800
N  45.66600 3.89900 47.22500
C  46.98200 4.00500 47.62400
C  47.35300 5.42000 47.51700
C  46.23500 6.02600 47.03400
C  45.26100 5.08700 46.85400
C  48.57500 6.03700 47.90800
C  45.70400 7.28700 46.57100
O  46.20900 8.40800 46.52100
C  44.25200 6.97400 46.01400
C  43.32000 7.81000 46.79700
O  42.90600 7.62500 47.88900
O  43.11600 8.99000 46.09600
C  42.49200 10.04500 46.86300
H  40.33100 1.31500 45.67600
H  45.42000 -2.12500 47.76900
H  48.90600 3.10500 48.01600
H  41.09800 6.04000 45.82500
H  40.08100 3.57100 44.67600
H  39.80500 4.03300 47.62300
H  38.65300 3.30900 46.44400
H  39.09000 5.06100 46.46300
H  41.41000 4.82800 43.26300
H  42.88000 5.38100 43.73600
H  42.21800 7.44800 42.94800
H  41.20200 7.67900 44.31000
H  40.20900 -2.19600 45.09000
H  39.69400 -0.56100 45.53200
H  39.63300 -1.71900 46.76500
H  44.26500 -3.81100 48.31400
H  44.67400 -4.12800 46.56400
H  43.46300 -5.12100 47.40800
H  47.67000 -1.59400 47.26600
H  49.07900 0.47600 48.89100
H  48.47000 -1.16700 50.06700
H  48.10700 -2.72500 49.18700
H  46.87200 -1.66300 50.01200
H  49.60400 1.42800 46.35500
H  49.15300 -0.29400 46.15200
H  51.62900 0.86100 46.67300
H  51.25500 -0.85300 46.73600
H  51.27500 0.11200 48.22500
H  49.43300 5.38300 48.06100
H  48.41900 6.65600 48.79200
H  48.72200 6.66800 47.03200
H  44.26000 7.28500 44.96900
H  42.89100 10.98400 46.47800
H  42.57800 9.89200 47.93900
H  41.44700 9.95200 46.56700
Mg 6.60700 56.88700 41.39300
C  4.93700 53.70100 41.74200
C  9.23500 55.25600 40.20400
C  8.07300 59.92900 40.79000
C  3.56600 58.45200 42.36000
N  6.91500 54.70100 40.86800
C  6.17700 53.62300 41.09800
C  6.86800 52.38300 40.80500
C  8.29500 52.85300 40.47700
C  8.16300 54.35000 40.48600
C  9.45500 52.32100 41.28800
C  6.29500 51.60200 39.60200
C  6.90100 50.22500 39.30200
H  6.11400 49.38900 38.26100
N  8.44800 57.48200 40.46700
C  9.36900 56.59000 40.02500
C  10.49000 57.33800 39.47400
C  10.15500 58.76400 39.57100
C  8.83900 58.77700 40.33600
C  11.66100 56.72500 38.75300
C  10.90900 59.94100 39.08000
O  12.01700 59.76900 38.61800
C  10.46500 61.41500 39.13400
N  5.97300 58.85800 41.53600
C  6.74400 59.96900 41.26600
C  6.12700 61.22400 41.82400
C  4.65500 60.82600 42.18900
C  4.69300 59.25700 42.07500
C  6.88600 61.93600 42.95500
C  3.50000 61.40400 41.29400
C  2.45200 62.28600 42.04400
N  4.62700 56.23300 41.89900
C  3.50800 57.03500 42.27800
C  2.49100 56.12800 42.70900
C  3.02900 54.83900 42.59500
C  4.35800 54.98000 42.04100
C  1.19300 56.41800 43.23400
C  2.73400 53.48700 42.94600
O  1.81900 52.94400 43.49700
C  4.04300 52.64800 42.51800
C  3.51900 51.53400 41.75800
O  2.79600 51.63300 40.79500
O  3.78500 50.35900 42.40100
C  3.63700 49.10200 41.58900
H  10.24200 54.84600 40.10600
H  8.42800 60.95700 40.69200
H  2.72000 59.06700 42.67300
H  6.88500 51.80400 41.72800
H  8.44500 52.56400 39.43700
H  9.86400 53.13400 41.88700
H  10.23400 52.06300 40.57000
H  9.16300 51.55900 42.01000
H  6.36500 52.12600 38.64900
H  5.23700 51.50000 39.84500
H  6.86000 49.73300 40.27400
H  7.96000 50.30900 39.06200
H  11.68100 56.87400 37.67300
H  11.65400 55.64200 38.87600
H  12.64100 57.01200 39.13300
H  10.33900 61.74700 40.16400
H  9.52800 61.56900 38.59800
H  11.27400 61.93800 38.62500
H  6.00300 61.95200 41.02200
H  4.35700 61.01800 43.21900
H  6.30000 62.08900 43.86100
H  7.00800 62.95800 42.59700
H  7.88000 61.49100 42.99900
H  2.83500 60.62800 40.91400
H  3.83600 61.93300 40.40200
H  2.55200 63.26200 41.57000
H  2.69000 62.38100 43.10300
H  1.44800 61.87100 41.94800
H  1.20100 56.18000 44.29700
H  0.53800 55.65900 42.80400
H  0.81700 57.42700 43.06800
H  4.56700 52.27100 43.39600
H  4.64900 48.69700 41.56900
H  3.29200 49.05600 40.55700
H  3.07900 48.37200 42.17600

