158

Mg 7.91600 3.23600 27.25900
C  8.94900 1.50500 30.10800
C  5.74900 4.93900 29.18100
C  6.61000 4.50500 24.37100
C  10.01400 1.12500 25.37700
N  7.31600 3.07900 29.47800
C  7.89900 2.37800 30.45200
C  7.52400 2.97300 31.85800
C  6.37700 3.92000 31.50000
C  6.45800 4.00400 29.96900
C  4.92100 3.57600 31.98700
C  8.70000 3.69500 32.62300
C  8.36700 4.12900 34.03800
H  9.40100 4.02100 35.15700
N  6.48100 4.67400 26.88300
C  5.70400 5.27700 27.85200
C  4.92800 6.23900 27.15900
C  5.09200 6.09400 25.73900
C  6.04400 4.99700 25.55900
C  4.02700 7.24700 27.89800
C  4.47300 6.84700 24.57300
O  4.63200 6.59700 23.38400
C  3.73500 8.09200 24.91100
N  8.29400 2.87300 25.20500
C  7.68000 3.58000 24.23900
C  8.22700 3.18700 22.86000
C  9.42700 2.30400 23.18500
C  9.31600 2.08600 24.66400
C  7.13800 2.58200 22.01200
C  10.85400 2.94000 22.86900
C  11.35600 2.34600 21.54800
N  9.17300 1.52200 27.59800
C  10.01500 0.85600 26.73000
C  10.84400 -0.04400 27.53300
C  10.55800 0.21500 28.88200
C  9.45000 1.14000 28.84500
C  11.73200 -1.17000 27.04400
C  10.82900 -0.11700 30.24600
O  11.65500 -0.88100 30.69800
C  9.83400 0.79200 31.07500
C  9.12500 -0.02600 32.03200
O  8.28300 -0.88000 31.80700
O  9.64000 0.30300 33.27100
C  9.28000 -0.57900 34.42800
H  5.10200 5.52300 29.83900
H  6.17400 4.76800 23.40500
H  10.53800 0.51800 24.63600
H  7.08500 2.15700 32.43200
H  6.59300 4.85400 32.01800
H  4.14900 3.78500 31.24600
H  4.71800 4.26700 32.80600
H  4.82200 2.57300 32.40200
H  9.05100 4.57400 32.08200
H  9.58100 3.05400 32.59600
H  7.54700 3.50200 34.38800
H  8.13900 5.19500 34.01000
H  2.99000 6.91200 27.89400
H  4.07600 8.26500 27.51000
H  4.33800 7.30000 28.94100
H  2.85300 7.85800 25.50800
H  3.45000 8.62100 24.00200
H  4.48500 8.72900 25.38000
H  8.58600 4.13900 22.47000
H  9.41700 1.28100 22.80900
H  6.12700 2.67500 22.41000
H  7.33300 1.52800 21.81300
H  7.03400 3.04100 21.02900
H  11.56300 2.61900 23.63100
H  10.83500 4.02900 22.82200
H  12.03600 1.53400 21.80600
H  11.86100 3.05600 20.89200
H  10.52600 2.04500 20.90900
H  11.12400 -1.67100 26.29100
H  11.97500 -1.88500 27.83000
H  12.68900 -0.86200 26.62200
H  10.57500 1.42000 31.56900
H  8.54400 -0.08300 35.06100
H  10.20700 -0.72700 34.98200
H  8.95300 -1.59300 34.19900
Mg 16.87600 52.08900 26.54900
C  19.22600 50.67900 28.84400
C  14.87500 52.69300 29.17400
C  14.84300 53.11400 24.40800
C  19.06300 50.79700 23.95700
N  17.15500 51.84400 28.69800
C  18.14500 51.22500 29.43700
C  17.77900 51.26500 30.92200
C  16.23800 51.51600 30.97500
C  16.03300 51.98700 29.50600
C  15.44900 50.26600 31.07600
C  18.58700 52.23200 31.76500
C  18.58600 52.02800 33.32000
H  17.70100 50.87600 33.93800
N  15.16800 52.94800 26.76000
C  14.47900 53.10800 27.89000
C  13.27200 53.83200 27.58800
C  13.19700 53.97400 26.15100
C  14.38500 53.28300 25.67800
C  12.35300 54.30500 28.60500
C  12.09600 54.55500 25.20600
O  12.23600 54.66000 24.01400
C  10.86700 55.07700 25.80700
N  16.91500 51.84600 24.43900
C  15.88600 52.43500 23.81200
C  16.14000 52.49000 22.27200
C  17.65200 52.05600 22.14500
C  17.95100 51.58900 23.57700
C  15.08600 51.59400 21.47800
C  18.67000 53.22500 21.81500
C  19.16400 53.22000 20.38600
N  18.74800 50.94800 26.38000
C  19.47700 50.55300 25.28000
C  20.76600 49.97000 25.77400
C  20.66600 49.93400 27.12000
C  19.47000 50.61700 27.45000
C  21.86400 49.42300 24.91500
C  21.32900 49.53300 28.36500
O  22.30800 48.91500 28.56100
C  20.47000 50.06200 29.53400
C  20.19600 48.89400 30.41700
O  20.03100 47.74900 30.01700
O  20.25200 49.21400 31.78700
C  20.44900 48.05900 32.70800
H  14.26500 52.87700 30.06100
H  14.19800 53.59000 23.66700
H  19.81600 50.54400 23.20800
H  17.88800 50.23800 31.27100
H  15.84600 52.27300 31.65500
H  15.63100 49.57700 30.25100
H  14.39900 50.53600 31.19500
H  15.63500 49.80100 32.04400
H  18.27000 53.26200 31.60500
H  19.58200 52.16200 31.32700
H  18.22500 52.96800 33.73800
H  19.62800 51.83200 33.57200
H  11.59600 53.53000 28.72400
H  11.98700 55.29200 28.32200
H  12.81400 54.44500 29.58300
H  10.13000 55.48600 25.11600
H  11.13700 55.95900 26.38700
H  10.34800 54.28200 26.34200
H  15.88800 53.50200 21.95700
H  17.59600 51.25700 21.40500
H  15.59000 50.99000 20.72400
H  14.29200 52.20500 21.04800
H  14.50600 50.92900 22.11800
H  19.53800 53.14600 22.47000
H  18.09600 54.14300 21.93600
H  18.55500 53.94000 19.83900
H  18.92700 52.22400 20.01100
H  20.22000 53.48600 20.34500
H  21.92700 49.82300 23.90300
H  21.73000 48.34400 24.84000
H  22.77900 49.65900 25.45900
H  21.01800 50.81500 30.10100
H  21.12600 48.26600 33.53700
H  20.82100 47.17600 32.18700
H  19.56600 47.67100 33.21500

