158

Mg 37.31100 50.38600 25.56300
C  37.56900 48.05700 28.43500
C  36.11100 52.71500 27.72000
C  36.53500 52.24600 22.90900
C  37.90800 47.58300 23.56800
N  36.96400 50.31000 27.80700
C  37.16400 49.37000 28.76000
C  36.95500 49.95900 30.19800
C  36.35600 51.36400 29.88100
C  36.54100 51.50500 28.33000
C  34.87700 51.59500 30.39200
C  38.35800 50.01600 31.03900
C  38.17200 49.73600 32.54300
H  36.77000 49.93400 33.19800
N  36.52600 52.23800 25.39100
C  36.04700 53.01200 26.36400
C  35.51700 54.24000 25.73800
C  35.74400 54.15900 24.28700
C  36.25500 52.87500 24.15600
C  34.90300 55.32500 26.57600
C  35.39500 55.16700 23.14300
O  35.69600 54.93900 21.98200
C  34.57900 56.41600 23.47300
N  37.12800 49.96900 23.53700
C  36.93400 50.92900 22.58500
C  37.01600 50.34900 21.17300
C  37.43500 48.85600 21.43600
C  37.45400 48.79300 22.94500
C  35.76200 50.59400 20.27900
C  38.72700 48.46000 20.63600
C  40.07900 48.73600 21.31900
N  37.84400 48.28700 25.87200
C  38.05100 47.31000 24.94500
C  38.39200 46.05900 25.58300
C  38.25000 46.34300 26.95100
C  37.86100 47.71000 27.08300
C  38.72000 44.74400 24.95100
C  38.28700 45.72900 28.25200
O  38.49600 44.57800 28.60400
C  37.93000 46.85800 29.28100
C  36.80800 46.51900 30.08200
O  35.63400 46.44100 29.75700
O  37.25900 46.02300 31.30400
C  36.23300 45.69500 32.34000
H  35.82900 53.50700 28.41600
H  36.44900 52.71000 21.92400
H  38.10200 46.77900 22.85500
H  36.22700 49.32300 30.70100
H  36.98300 52.06400 30.43400
H  34.41800 50.61200 30.49900
H  34.22000 52.00900 29.62700
H  34.80300 52.18700 31.30400
H  38.89800 50.95500 30.92200
H  39.09400 49.31000 30.65500
H  38.93200 50.26900 33.11300
H  38.43600 48.68900 32.68900
H  33.99200 55.79400 26.20500
H  35.54500 56.20400 26.62700
H  34.79100 54.95500 27.59500
H  33.59100 56.02700 23.71900
H  34.52300 57.10100 22.62800
H  35.02700 56.92400 24.32700
H  37.83800 50.76800 20.59100
H  36.60500 48.19000 21.20100
H  35.16700 49.69300 20.42800
H  35.94800 50.74500 19.21500
H  35.15600 51.47300 20.49800
H  38.76300 48.99400 19.68700
H  38.74800 47.37300 20.55500
H  40.59300 49.62600 20.95400
H  40.71600 47.86600 21.15800
H  40.16400 48.81600 22.40300
H  38.88900 43.95700 25.68700
H  39.60700 44.80000 24.32000
H  37.95000 44.36600 24.27800
H  38.82000 47.03400 29.88600
H  35.24600 45.82200 31.89500
H  36.12600 46.21500 33.29200
H  36.28400 44.63200 32.57500
Mg 17.35900 51.94300 26.35200
C  19.44700 50.73000 28.81100
C  15.08300 52.85800 28.74700
C  15.39100 53.17600 23.83600
C  19.69000 50.91000 23.90300
N  17.28400 51.74800 28.51700
C  18.28300 51.32500 29.30500
C  17.98900 51.49700 30.79400
C  16.46600 51.83600 30.75200
C  16.23300 52.21000 29.28600
C  15.56700 50.60700 31.11900
C  18.91700 52.55600 31.42500
C  18.86500 52.71700 32.95200
H  17.82700 51.92700 33.74900
N  15.47500 52.90900 26.30100
C  14.71500 53.21500 27.39200
C  13.62400 53.96000 26.89700
C  13.63400 54.01200 25.49500
C  14.82000 53.31900 25.15000
C  12.67300 54.57100 27.95800
C  12.69900 54.77600 24.51100
O  13.00300 54.79100 23.38200
C  11.44100 55.54300 25.05300
N  17.47900 51.87900 24.15000
C  16.56000 52.55100 23.38100
C  16.84100 52.32600 21.87600
C  18.32200 51.71800 21.94700
C  18.53400 51.56600 23.46900
C  15.83700 51.34600 21.17600
C  19.34500 52.58500 21.23300
C  19.51200 54.02900 21.87200
N  19.13300 50.89700 26.28400
C  19.96900 50.58000 25.26100
C  21.16500 49.89500 25.80000
C  20.97400 49.92000 27.20500
C  19.74600 50.54800 27.41400
C  22.31600 49.25800 25.03300
C  21.56100 49.57800 28.48300
O  22.62100 48.99800 28.76900
C  20.64300 50.13800 29.55100
C  20.25600 48.96400 30.37400
O  19.71900 47.99100 29.85600
O  20.50900 49.17900 31.68400
C  20.03300 48.09900 32.59000
H  14.34500 53.20500 29.47400
H  14.77600 53.49500 22.99200
H  20.38600 50.51900 23.15800
H  18.26200 50.67000 31.45000
H  16.25300 52.72300 31.34900
H  15.08900 50.83400 32.07200
H  16.23800 49.75500 31.22800
H  14.77200 50.55200 30.37500
H  18.65300 53.56100 31.09800
H  19.92100 52.36800 31.04400
H  18.74400 53.77800 33.17400
H  19.86500 52.36400 33.20400
H  12.61000 54.03500 28.90500
H  11.63700 54.64600 27.63000
H  13.13300 55.52900 28.20000
H  11.84300 56.21200 25.81300
H  10.84700 54.74000 25.49000
H  11.00000 56.11000 24.23300
H  16.85900 53.29600 21.37900
H  18.28500 50.74800 21.45000
H  15.26800 50.81700 21.94000
H  16.38000 50.76200 20.43200
H  15.17800 51.87800 20.49100
H  19.00300 52.65600 20.20100
H  20.33400 52.12600 21.21600
H  18.96300 54.70400 21.21600
H  20.56200 54.31200 21.78700
H  19.18300 54.01700 22.91100
H  22.14200 48.19000 24.90200
H  23.27400 49.50800 25.48800
H  22.47700 49.74000 24.06900
H  21.21300 50.75300 30.24700
H  19.09200 47.64300 32.28400
H  20.07500 48.60900 33.55300
H  20.73000 47.26100 32.57400

