158

Mg 46.96800 44.75700 41.72600
C  43.63500 43.83100 42.49400
C  47.66200 41.35300 41.53800
C  49.85000 45.48300 40.28500
C  45.92300 48.18700 41.51600
N  45.79600 42.85200 42.09000
C  44.45900 42.78300 42.27700
C  43.93700 41.37400 42.24200
C  45.28500 40.50800 42.24200
C  46.35200 41.62900 41.94700
C  45.52100 39.78600 43.58700
C  43.03800 40.88800 41.04900
C  43.00800 41.71100 39.71700
H  42.89200 40.91700 38.43200
N  48.55600 43.54500 40.95800
C  48.67400 42.22400 41.04000
C  50.03600 41.85900 40.71500
C  50.61100 43.03900 40.19200
C  49.62200 44.07300 40.40900
C  50.62800 40.54700 40.75000
C  51.96400 43.14300 39.50400
O  52.71900 42.17000 39.29000
C  52.41500 44.38200 38.81400
N  47.71700 46.50900 40.93500
C  49.00100 46.58700 40.55300
C  49.56800 47.97800 40.52800
C  48.22900 48.87800 40.62200
C  47.23300 47.83300 41.12900
C  50.64100 48.20400 41.63800
C  47.85800 49.57000 39.34500
C  48.43000 50.96900 38.98000
N  45.17600 45.88200 42.11600
C  44.92000 47.21800 41.93600
C  43.47700 47.43200 42.35500
C  42.92900 46.13200 42.50700
C  43.97400 45.22600 42.46300
C  42.79400 48.73800 42.43800
C  41.66200 45.39000 42.65900
O  40.47300 45.83400 42.72200
C  42.09100 43.81900 42.81300
C  41.75400 43.35600 44.18600
O  42.13400 43.79800 45.23800
O  40.91100 42.24300 44.02300
C  40.48400 41.72100 45.29300
H  47.95200 40.30000 41.54100
H  50.83100 45.86900 40.00300
H  45.65000 49.24300 41.44800
H  43.48400 41.20900 43.22000
H  45.43900 39.79700 41.43000
H  46.37300 39.12300 43.43300
H  44.63600 39.22800 43.89200
H  45.90800 40.41500 44.38900
H  42.03300 40.71700 41.43300
H  43.28700 39.93300 40.58700
H  43.84100 42.40600 39.61300
H  42.09600 42.30900 39.74000
H  50.57300 40.03700 39.78900
H  50.16100 39.85900 41.45500
H  51.64700 40.64000 41.12800
H  51.67500 44.90900 38.21200
H  53.17300 44.19800 38.05300
H  52.73700 45.01500 39.64200
H  49.95600 48.13100 39.52200
H  48.24500 49.63500 41.40700
H  50.89200 47.23800 42.07700
H  50.24100 48.85800 42.41200
H  51.57800 48.67000 41.33400
H  46.77200 49.66200 39.34200
H  48.06000 48.92100 38.49300
H  49.02800 51.29600 39.83100
H  47.54200 51.59600 39.06000
H  49.04300 50.90000 38.08200
H  41.99500 48.81900 41.70100
H  43.46300 49.55200 42.15700
H  42.41800 48.89400 43.44900
H  41.46400 43.26300 42.11600
H  40.13800 42.50500 45.96600
H  41.29800 41.09700 45.66200
H  39.61700 41.06400 45.23500
Mg 47.01500 34.36100 27.23200
C  45.58100 32.55600 29.84500
C  47.11500 37.14200 29.23000
C  47.93700 36.05600 24.55900
C  46.39400 31.52600 25.15900
N  46.39200 34.80500 29.27800
C  45.94300 33.84300 30.20500
C  46.10500 34.41200 31.67200
C  46.30800 35.90500 31.40100
C  46.58500 36.02500 29.87700
C  45.11400 36.88300 31.74600
C  47.26500 33.68300 32.43500
C  47.00900 33.26000 33.85800
H  47.67800 34.14900 34.93800
N  47.44300 36.30300 26.95400
C  47.51900 37.31000 27.86700
C  48.06200 38.54700 27.27700
C  48.40200 38.18900 25.92200
C  47.92200 36.78100 25.73500
C  48.14700 39.77200 28.12200
C  49.20300 38.99200 24.91900
O  49.65700 38.52200 23.87900
C  49.68900 40.35100 25.38400
N  46.96400 33.87400 25.11100
C  47.53700 34.71900 24.28100
C  47.64000 34.17900 22.85100
C  47.36100 32.69200 23.07900
C  46.85200 32.64300 24.48600
C  46.64800 34.78000 21.89800
C  48.66900 31.70600 22.95100
C  50.06400 32.32300 23.18300
N  46.33200 32.34000 27.45900
C  46.04000 31.40100 26.51100
C  45.48400 30.26500 27.10800
C  45.22500 30.67900 28.45200
C  45.74300 31.98000 28.54800
C  45.12900 28.99600 26.41400
C  44.70900 30.21700 29.74400
O  44.29200 29.13000 30.09400
C  44.84800 31.48100 30.61400
C  45.32300 31.05200 31.96000
O  46.43600 30.59200 32.16800
O  44.35700 31.28700 32.89700
C  44.57000 30.72800 34.24700
H  47.20000 38.02100 29.87200
H  48.34200 36.49500 23.64500
H  46.24100 30.68800 24.47500
H  45.17100 34.12600 32.15700
H  47.16100 36.24400 31.98900
H  44.22000 36.32700 32.02600
H  44.96100 37.49300 30.85500
H  45.30600 37.60200 32.54200
H  48.15500 34.31200 32.44200
H  47.54800 32.73800 31.97100
H  47.43300 32.25800 33.92000
H  45.94400 33.25100 34.09000
H  48.20100 40.65500 27.48400
H  48.86700 39.80900 28.93900
H  47.20900 39.96600 28.64200
H  50.29800 40.91100 24.67400
H  50.12000 40.34600 26.38500
H  48.78500 40.94100 25.53800
H  48.62600 34.37200 22.42900
H  46.57500 32.23500 22.47700
H  47.15400 35.20400 21.03000
H  46.18800 35.57800 22.48100
H  45.85700 34.07800 21.63500
H  48.66700 31.25600 21.95800
H  48.57900 30.86000 23.63300
H  50.28400 32.72200 22.19300
H  50.72300 31.50900 23.48300
H  50.01400 33.09000 23.95500
H  44.63000 28.26700 27.05400
H  46.09900 28.56800 26.16300
H  44.62900 29.20500 25.46800
H  43.80200 31.74600 30.76600
H  45.15600 29.81100 34.19100
H  43.57100 30.58900 34.66200
H  45.19500 31.37700 34.85900

