158

Mg -2.28800 17.39500 24.90800
C  -2.60800 15.07800 27.64900
C  -3.22400 19.82900 27.08600
C  -1.87700 19.38800 22.49400
C  -2.14900 14.53600 22.77700
N  -2.69100 17.44700 27.19300
C  -2.76200 16.43600 28.04800
C  -3.32200 16.93200 29.39700
C  -4.04200 18.35200 29.01200
C  -3.31400 18.57300 27.63300
C  -5.57200 18.32500 28.77800
C  -2.31900 16.99400 30.55600
C  -2.62100 16.17600 31.92100
H  -1.44900 15.88800 32.82800
N  -2.32700 19.31500 24.85300
C  -2.77100 20.21800 25.77000
C  -2.56800 21.59700 25.32000
C  -2.15200 21.45300 24.00500
C  -2.06700 20.04900 23.73000
C  -2.85500 22.78500 26.19900
C  -1.90400 22.53000 22.90800
O  -1.74800 22.17800 21.72200
C  -1.88400 23.95000 23.44400
N  -2.13500 16.97600 22.83500
C  -1.89300 18.08500 22.04400
C  -1.85700 17.68400 20.58100
C  -1.99600 16.11600 20.66400
C  -2.06400 15.84600 22.17100
C  -2.82200 18.30200 19.61500
C  -0.71300 15.42800 20.03500
C  0.49400 15.26800 20.95100
N  -2.29600 15.26600 25.12100
C  -2.21400 14.27400 24.14600
C  -2.25800 12.91600 24.83400
C  -2.35800 13.19600 26.18500
C  -2.33000 14.61300 26.32600
C  -2.25000 11.70800 24.16300
C  -2.49700 12.56600 27.44800
O  -2.53800 11.38300 27.66000
C  -2.67100 13.75300 28.47500
C  -1.65500 13.69200 29.49300
O  -0.50100 14.17600 29.48400
O  -2.22700 12.92400 30.47900
C  -1.35900 12.45700 31.56800
H  -3.67600 20.58200 27.73600
H  -1.82500 20.05300 21.62900
H  -1.98800 13.72500 22.06400
H  -4.07700 16.22800 29.74700
H  -3.87700 19.18100 29.70000
H  -6.08600 19.12000 29.31900
H  -5.97400 17.46000 29.30600
H  -5.84000 18.11700 27.74200
H  -1.99800 17.96100 30.94200
H  -1.43400 16.51900 30.13300
H  -3.11200 15.25900 31.59500
H  -3.34700 16.81700 32.42200
H  -2.12300 23.58500 26.08100
H  -2.93400 22.55000 27.26000
H  -3.82400 23.23700 25.99000
H  -1.52000 24.66200 22.70200
H  -1.14200 24.06200 24.23400
H  -2.86400 24.21300 23.84200
H  -0.87300 17.99300 20.22700
H  -2.97100 15.75400 20.33900
H  -3.38700 19.10600 20.08700
H  -3.52200 17.55200 19.24600
H  -2.34900 18.67700 18.70700
H  -0.45700 16.05300 19.17900
H  -1.13000 14.47000 19.72400
H  0.34500 15.80500 21.88800
H  1.32300 15.70000 20.39100
H  0.57200 14.20200 21.16200
H  -2.33400 11.94800 23.10300
H  -3.13400 11.17200 24.50900
H  -1.32400 11.18600 24.40100
H  -3.61800 13.62400 28.99900
H  -1.36900 11.36900 31.50200
H  -1.79400 12.87000 32.47800
H  -0.30900 12.73100 31.46300
Mg 46.84200 24.91600 28.83600
C  47.32200 27.14600 31.38300
C  45.61500 22.54800 30.93900
C  46.88400 22.68000 26.34200
C  47.88600 27.41900 26.71100
N  46.47600 24.93700 30.88000
C  46.84600 25.85700 31.76800
C  46.44600 25.41200 33.16300
C  46.09200 23.98800 33.01400
C  45.98600 23.80800 31.45800
C  46.96700 22.92000 33.70900
C  45.39300 26.31700 33.81800
C  45.85200 26.95100 35.15000
H  44.87700 27.10300 36.31800
N  46.31000 22.86000 28.65200
C  45.64900 22.08400 29.64800
C  45.28300 20.75700 29.19300
C  45.71900 20.83500 27.77700
C  46.26100 22.16000 27.46800
C  44.74000 19.64700 30.12100
C  45.52600 19.77000 26.67600
O  45.84000 19.98400 25.55400
C  44.80600 18.42100 27.07400
N  47.53000 24.95900 26.85900
C  47.39100 23.94800 26.00500
C  48.01500 24.29800 24.63800
C  47.77900 25.83300 24.63700
C  47.60400 26.14300 26.13700
C  49.46100 23.89500 24.47800
C  46.57700 26.43400 23.82900
C  45.24400 26.59000 24.57400
N  47.60400 26.91900 28.99100
C  47.85000 27.83900 28.00800
C  48.28900 29.04300 28.65000
C  47.99900 28.88500 29.96300
C  47.61200 27.61900 30.09000
C  48.81900 30.29300 27.99300
C  47.98000 29.48400 31.31500
O  48.24200 30.61300 31.74000
C  47.72700 28.26700 32.33500
C  49.00700 28.06000 33.03900
O  50.05100 27.69900 32.51500
O  48.84900 28.36700 34.35500
C  49.97200 28.25600 35.25400
H  45.24200 21.94800 31.77200
H  46.94200 22.06700 25.44000
H  48.08300 28.24700 26.02700
H  47.31300 25.53400 33.81200
H  45.06900 23.81100 33.34500
H  47.17400 22.02100 33.12800
H  46.26800 22.72100 34.52100
H  47.90900 23.40600 33.96400
H  44.42300 25.85200 33.99500
H  45.19900 27.14100 33.13200
H  46.30200 27.91600 34.91700
H  46.62100 26.29000 35.54800
H  44.48500 20.13900 31.05900
H  45.45200 18.84900 30.33300
H  43.80900 19.31800 29.66000
H  43.99500 18.66400 27.76100
H  45.42900 17.84300 27.75700
H  44.40000 17.85200 26.23700
H  47.47300 23.93400 23.76400
H  48.63900 26.33700 24.19600
H  50.06100 24.80200 24.55600
H  49.76900 23.45800 23.52800
H  49.74600 23.19700 25.26600
H  46.35100 25.74800 23.01300
H  46.92800 27.44200 23.60600
H  45.23800 27.48400 25.19700
H  45.03400 25.77600 25.26700
H  44.39700 26.63400 23.89000
H  48.28100 31.10600 28.48000
H  48.71200 30.25200 26.90900
H  49.89700 30.29400 28.15800
H  46.97500 28.48000 33.09500
H  50.19700 29.22200 35.70700
H  50.89100 27.83500 34.84800
H  49.75000 27.61000 36.10300

