158

Mg 1.17300 -2.54100 44.50600
C  4.67100 -2.21200 43.62000
C  0.55500 0.10200 42.47400
C  -2.04400 -3.70700 44.20900
C  2.01000 -5.57900 46.06000
N  2.50700 -1.37300 43.07300
C  3.88000 -1.25100 42.99000
C  4.33600 -0.14800 41.99500
C  3.00600 0.71700 42.01700
C  1.92800 -0.25900 42.54900
C  3.03700 1.99300 42.86000
C  4.77900 -0.60400 40.54500
C  6.19000 -0.07400 40.10500
H  6.29500 0.73700 38.84700
N  -0.57500 -1.85000 43.62500
C  -0.59100 -0.67800 42.86500
C  -1.93900 -0.39400 42.44000
C  -2.77600 -1.44800 42.88700
C  -1.88200 -2.37700 43.64300
C  -2.36200 0.84600 41.53300
C  -4.27300 -1.57500 42.65000
O  -4.89900 -0.63800 42.13100
C  -5.02700 -2.81300 43.02100
N  0.13100 -4.35700 45.11300
C  -1.20600 -4.61800 44.89600
C  -1.66400 -5.98700 45.53300
C  -0.35400 -6.34700 46.35200
C  0.66900 -5.37000 45.81400
C  -2.98000 -5.92000 46.34800
C  0.04000 -7.86800 46.09900
C  0.60100 -8.55200 47.36800
N  2.91200 -3.67900 44.93400
C  3.11800 -4.85000 45.64500
C  4.55300 -5.20200 45.62300
C  5.15000 -4.13300 44.93700
C  4.11200 -3.26900 44.45400
C  5.31200 -6.36700 46.25600
C  6.47200 -3.57100 44.48900
O  7.61700 -3.89700 44.71800
C  6.18300 -2.43000 43.56500
C  6.89500 -1.21100 44.10400
O  6.47200 -0.40400 44.91500
O  8.03100 -1.01400 43.31500
C  8.98100 0.03200 43.72400
H  0.34500 1.06300 41.99900
H  -3.06800 -4.08400 44.21800
H  2.30100 -6.54200 46.48600
H  5.05900 0.43100 42.57000
H  2.73300 0.98400 40.99600
H  2.84500 2.81500 42.17100
H  4.01100 2.19200 43.30600
H  2.24600 2.09400 43.60400
H  4.11900 -0.22800 39.76300
H  4.76200 -1.69000 40.46400
H  6.98600 -0.79200 39.90900
H  6.58800 0.63100 40.83500
H  -3.32000 0.68200 41.03900
H  -1.62500 0.89300 40.73100
H  -2.55600 1.75300 42.10600
H  -4.36500 -3.62900 42.73200
H  -5.91300 -2.77200 42.38800
H  -5.21600 -2.91300 44.09000
H  -1.83700 -6.75000 44.77300
H  -0.51500 -6.11800 47.40500
H  -2.79000 -6.20800 47.38200
H  -3.66300 -6.70200 46.01400
H  -3.49300 -4.97400 46.17400
H  0.79900 -7.82800 45.31900
H  -0.89900 -8.35800 45.84200
H  0.00200 -9.36200 47.78300
H  0.64800 -7.84600 48.19800
H  1.52100 -9.05100 47.06600
H  4.59900 -6.82600 46.94000
H  6.28300 -6.17100 46.71000
H  5.42200 -7.10400 45.46000
H  6.51900 -2.66400 42.55400
H  9.86300 -0.51300 44.06100
H  8.55700 0.75500 44.42100
H  9.33800 0.55400 42.83600
Mg 42.63400 41.94600 26.04500
C  41.75400 44.23700 28.37300
C  43.89400 39.94700 28.72400
C  43.91900 39.68900 23.76600
C  42.27100 44.32100 23.55300
N  42.75900 42.16100 28.27300
C  42.19300 43.07100 28.96600
C  42.05200 42.59400 30.45300
C  43.05500 41.43600 30.57400
C  43.19500 41.10400 29.08600
C  44.29900 41.67400 31.38500
C  40.56700 42.38000 30.84900
C  40.40800 41.64400 32.25300
H  39.98500 42.61900 33.38800
N  43.68000 40.05200 26.25700
C  44.03100 39.40100 27.41600
C  44.53800 38.11900 27.07900
C  44.38200 37.89000 25.60400
C  44.00300 39.24700 25.13600
C  45.18900 37.23000 28.06500
C  44.70800 36.70400 24.77600
O  44.70500 36.75800 23.57400
C  45.05100 35.45000 25.49600
N  43.02300 42.02700 24.00200
C  43.40600 40.91400 23.26900
C  43.31400 41.16300 21.82200
C  42.67300 42.57100 21.71700
C  42.69800 43.07000 23.18100
C  44.65700 40.92300 21.07500
C  41.15300 42.66200 21.18000
C  40.13600 42.09600 22.19500
N  42.07600 43.89600 25.96100
C  41.88100 44.75000 24.84300
C  41.21000 45.98100 25.33700
C  41.17000 45.84700 26.75700
C  41.69800 44.60000 27.05400
C  40.84600 47.11900 24.50600
C  40.73800 46.46500 28.03300
O  40.21400 47.53000 28.38700
C  41.20000 45.42200 29.18600
C  42.33400 45.93100 30.06100
O  43.49500 46.06200 29.74000
O  41.98700 46.03900 31.37900
C  43.04200 46.49000 32.32500
H  44.17700 39.35900 29.60000
H  44.26800 39.05500 22.94900
H  42.20200 45.04700 22.74100
H  42.34200 43.43800 31.07900
H  42.55000 40.62900 31.10300
H  45.25900 41.35000 30.98400
H  44.18700 41.07400 32.28800
H  44.34000 42.71700 31.70200
H  40.11700 41.78100 30.05700
H  40.06700 43.34700 30.87900
H  41.31100 41.19200 32.66300
H  39.70700 40.81800 32.13000
H  44.60000 36.35800 28.35000
H  45.44500 37.80500 28.95500
H  46.11000 36.83800 27.63200
H  44.26100 35.05800 26.13500
H  46.01800 35.47300 26.00000
H  45.10800 34.61500 24.79800
H  42.71200 40.34500 21.42700
H  43.22100 43.28300 21.10000
H  45.00700 41.84500 20.61000
H  44.49800 40.20900 20.26800
H  45.43300 40.48800 21.70400
H  41.03200 42.15100 20.22500
H  40.97000 43.70900 20.93800
H  40.69300 41.51400 22.93000
H  39.42600 41.36000 21.82000
H  39.50700 42.86100 22.64900
H  41.63200 47.73600 24.07100
H  40.37800 47.86400 25.14900
H  40.20500 46.91200 23.64900
H  40.33500 45.20700 29.81400
H  43.56600 45.56000 32.54300
H  42.78200 46.98900 33.25800
H  43.70100 47.21300 31.84400

