158

Mg 17.08800 -2.99200 27.57900
C  16.24900 -1.02400 30.24400
C  18.65700 -5.19000 29.68900
C  17.88600 -4.76600 24.89000
C  15.55500 -0.56100 25.42100
N  17.37600 -3.10800 29.69000
C  16.93000 -2.18600 30.60600
C  17.27200 -2.68900 32.06900
C  18.09500 -3.98900 31.81600
C  18.01500 -4.13400 30.29700
C  19.54200 -4.04400 32.45300
C  16.01100 -2.92100 32.93900
C  16.11800 -2.54200 34.48600
H  17.43500 -1.91800 35.07600
N  18.05300 -4.83000 27.34300
C  18.72100 -5.51700 28.32300
C  19.34200 -6.73400 27.70400
C  19.04900 -6.67200 26.27400
C  18.29400 -5.40300 26.11800
C  20.00000 -7.80400 28.55100
C  19.42000 -7.72300 25.25000
O  19.16200 -7.61400 24.01100
C  20.17600 -8.95100 25.55400
N  16.81200 -2.73100 25.42800
C  17.25300 -3.55500 24.52500
C  17.00000 -3.07500 23.03600
C  16.21700 -1.70200 23.27900
C  16.22400 -1.63400 24.82000
C  18.23100 -2.92700 22.11000
C  14.67000 -1.71300 22.88200
C  13.52200 -2.19600 23.79600
N  15.99300 -1.18200 27.77200
C  15.43300 -0.30700 26.82500
C  14.78700 0.79700 27.50400
C  15.05700 0.53200 28.89200
C  15.83300 -0.64800 28.96800
C  14.01200 1.94400 26.84400
C  14.91400 1.06900 30.16100
O  14.43300 2.08200 30.48900
C  15.61400 0.09000 31.17700
C  16.60400 0.80800 31.93300
O  17.77500 1.08000 31.59400
O  15.95400 1.19200 33.07700
C  16.79100 2.08000 33.95900
H  19.18800 -5.84500 30.38300
H  18.14900 -5.29100 23.97000
H  15.11300 0.20800 24.78500
H  17.96100 -2.00900 32.56900
H  17.53800 -4.85800 32.16600
H  19.80200 -3.06800 32.86300
H  20.28600 -4.28800 31.69500
H  19.66900 -4.78700 33.24100
H  15.66000 -3.95100 32.88200
H  15.19900 -2.34000 32.50000
H  15.85100 -3.37600 35.13500
H  15.36900 -1.75700 34.58400
H  19.41400 -8.72200 28.53700
H  20.13100 -7.45500 29.57500
H  20.98100 -8.01400 28.12400
H  21.11000 -8.90200 26.11300
H  20.40900 -9.43600 24.60600
H  19.43700 -9.55400 26.08200
H  16.22900 -3.74700 22.66200
H  16.64900 -0.76100 22.93700
H  18.49200 -1.88000 21.95600
H  18.14900 -3.59400 21.25200
H  19.16700 -3.15400 22.62000
H  14.62800 -2.24900 21.93300
H  14.45300 -0.66800 22.66200
H  12.68300 -2.45200 23.14900
H  13.16300 -1.33200 24.35600
H  13.83600 -2.98400 24.48100
H  13.94800 1.80300 25.76500
H  14.41200 2.89800 27.18800
H  12.99500 1.89300 27.23200
H  14.82100 -0.27400 31.83100
H  17.80400 1.71600 34.12800
H  16.39700 2.13000 34.97300
H  16.96700 3.06000 33.51500
Mg 26.11800 50.56300 26.04600
C  23.95800 51.66800 28.50000
C  28.42900 49.94100 28.57100
C  28.37300 49.84300 23.66800
C  23.91700 51.76900 23.60900
N  26.20900 50.89800 28.28000
C  25.13500 51.23900 29.04500
C  25.43300 51.19700 30.59000
C  26.99900 50.87600 30.57100
C  27.24100 50.54300 29.04800
C  27.93600 51.96900 31.19300
C  24.58800 50.20100 31.35100
C  24.10500 50.63400 32.77800
H  24.23300 49.44500 33.78700
N  28.10300 49.85100 26.10500
C  28.87000 49.65600 27.25200
C  30.15100 49.03300 26.80300
C  30.14400 48.98200 25.39800
C  28.85600 49.56200 24.94200
C  31.30300 48.73100 27.73100
C  31.20600 48.65000 24.41400
O  31.05600 48.82800 23.21200
C  32.42900 47.97800 24.88000
N  26.06100 50.74900 23.97600
C  27.17100 50.35900 23.16000
C  26.76600 50.35900 21.66500
C  25.35200 51.00700 21.70800
C  25.04700 51.14200 23.20900
C  27.71100 51.16700 20.83800
C  24.31700 50.11000 20.84600
C  23.86500 48.84200 21.49600
N  24.29100 51.55100 26.03800
C  23.45800 51.90700 24.98100
C  22.26600 52.44500 25.42900
C  22.42800 52.42800 26.84400
C  23.64400 51.82200 27.12100
C  21.25500 53.04200 24.51700
C  21.69800 52.73400 28.13400
O  20.59000 53.23600 28.37700
C  22.71800 52.12700 29.22500
C  23.07900 53.29200 30.11500
O  23.84200 54.18800 29.83100
O  22.38300 53.22300 31.28300
C  22.46500 54.26500 32.33200
H  29.20900 49.69300 29.29400
H  28.95700 49.55400 22.79200
H  23.16700 52.05900 22.87100
H  25.43200 52.19700 31.02300
H  27.13500 49.98000 31.17600
H  27.69600 52.99300 30.90800
H  28.96000 51.74600 30.89300
H  27.75600 51.80500 32.25500
H  25.16500 49.28700 31.49200
H  23.81500 49.85200 30.66700
H  23.02900 50.79800 32.72000
H  24.65600 51.51000 33.12000
H  31.66600 47.70400 27.69100
H  30.99800 48.72900 28.77800
H  32.13900 49.43100 27.73700
H  33.12900 47.73200 24.08200
H  32.40300 47.13800 25.57500
H  32.90900 48.82900 25.36300
H  26.69900 49.30600 21.39000
H  25.41100 52.02600 21.32600
H  28.51300 51.64500 21.40000
H  27.24200 51.91600 20.20000
H  28.32100 50.46800 20.26600
H  24.80700 49.87400 19.90200
H  23.39300 50.62100 20.57500
H  24.39000 48.03000 20.99400
H  22.78300 48.75200 21.39700
H  24.04000 48.79300 22.57100
H  20.92600 53.90500 25.09600
H  20.53500 52.23200 24.40500
H  21.68600 53.30700 23.55100
H  22.40000 51.36500 29.93700
H  21.42500 54.48000 32.57900
H  22.84000 55.23800 32.01200
H  22.88700 54.01100 33.30400

