158

Mg -1.26300 18.34500 27.27500
C  -1.58700 16.37000 30.29700
C  -1.52900 21.00300 29.28100
C  -1.56700 20.09600 24.45800
C  -1.43800 15.44400 25.36700
N  -1.64500 18.59000 29.59900
C  -1.45900 17.75000 30.63100
C  -1.66500 18.36000 31.97900
C  -1.89000 19.83800 31.57700
C  -1.70400 19.83600 30.01200
C  -3.27000 20.51700 31.99900
C  -0.62400 17.93300 33.07400
C  -1.09100 17.22800 34.36200
H  -0.09900 17.33600 35.58400
N  -1.46500 20.26800 26.93600
C  -1.58500 21.28500 27.88400
C  -1.64000 22.62200 27.22700
C  -1.40200 22.28400 25.82800
C  -1.50100 20.79900 25.65800
C  -1.63900 23.93500 27.94800
C  -1.15900 23.25400 24.70300
O  -1.03800 22.87400 23.53300
C  -0.96300 24.76200 24.89600
N  -1.64500 17.74800 25.15800
C  -1.55800 18.71500 24.21000
C  -1.47600 18.00400 22.77200
C  -1.20100 16.56500 23.13100
C  -1.41700 16.56300 24.63900
C  -2.74500 18.15000 21.97300
C  0.17900 15.99600 22.82800
C  1.38000 16.72500 23.57600
N  -1.51800 16.33000 27.69200
C  -1.47300 15.28100 26.79200
C  -1.53700 14.04800 27.61700
C  -1.60900 14.46300 28.97200
C  -1.62700 15.83800 28.96700
C  -1.50900 12.66900 27.02300
C  -1.80000 13.97200 30.32600
O  -2.03100 12.77600 30.67900
C  -1.64300 15.12600 31.30300
C  -0.36200 14.70700 31.98300
O  0.76300 15.07700 31.68000
O  -0.74600 13.83800 32.92600
C  0.32500 13.60500 33.84900
H  -1.50700 21.88000 29.93200
H  -1.73100 20.67100 23.54500
H  -1.17600 14.52700 24.83400
H  -2.58200 17.94600 32.39800
H  -1.13100 20.52800 31.94700
H  -3.39400 20.21900 33.04100
H  -4.00500 20.02000 31.36600
H  -3.25600 21.60400 31.93000
H  -0.05900 18.83000 33.32800
H  -0.01700 17.16200 32.59900
H  -1.27000 16.17400 34.14700
H  -2.06400 17.63800 34.63300
H  -0.59600 24.20600 27.78500
H  -1.92500 23.64100 28.95700
H  -2.26400 24.75400 27.59000
H  0.03000 24.90000 25.32300
H  -1.74900 25.28600 25.44100
H  -0.92400 25.17800 23.88900
H  -0.61300 18.47400 22.30100
H  -1.95500 15.91000 22.69400
H  -2.52400 18.61700 21.01300
H  -3.42300 18.84500 22.47000
H  -3.29000 17.24800 21.69700
H  0.34900 16.06400 21.75300
H  0.25900 14.94800 23.11700
H  1.07900 17.00100 24.58700
H  1.76200 17.60300 23.05500
H  2.21900 16.03500 23.66700
H  -0.76700 12.04100 27.51600
H  -1.15300 12.82000 26.00400
H  -2.47900 12.17300 27.03400
H  -2.46500 15.14200 32.01900
H  1.10000 13.10600 33.26700
H  -0.01700 13.02300 34.70500
H  0.63400 14.49100 34.40200
Mg 42.12600 41.31800 26.82800
C  41.39900 43.26200 29.79300
C  43.61300 39.08400 28.85500
C  42.85000 39.47200 24.14700
C  40.86100 43.82200 24.89300
N  42.32400 41.09900 29.09400
C  41.93000 41.92600 30.03800
C  42.11300 41.34900 31.41600
C  43.19700 40.17400 31.12000
C  43.07900 40.07700 29.59100
C  44.66600 40.45900 31.60100
C  40.83400 41.02700 32.26700
C  40.47100 41.91900 33.55800
H  40.05800 41.20400 34.83400
N  42.89700 39.46900 26.58200
C  43.57700 38.74800 27.53100
C  44.03900 37.50400 26.89600
C  43.59200 37.49700 25.55900
C  43.14700 38.86400 25.34700
C  44.72800 36.42400 27.75000
C  43.67100 36.35900 24.51000
O  43.28400 36.50800 23.39700
C  44.35300 35.10400 24.81600
N  41.97400 41.75100 24.77700
C  42.26400 40.72900 23.89300
C  41.52300 41.01400 22.53100
C  41.11900 42.51200 22.66400
C  41.31600 42.74500 24.15500
C  42.53600 40.79900 21.38900
C  39.66400 42.79700 22.10400
C  39.36200 44.26100 21.76500
N  41.25500 43.09100 27.17800
C  40.89900 44.06800 26.25800
C  40.29600 45.19800 26.98500
C  40.39300 44.93000 28.35300
C  41.06600 43.63800 28.46500
C  39.78300 46.47500 26.33800
C  40.22100 45.42300 29.69800
O  39.60500 46.42000 29.99800
C  40.86400 44.36200 30.67700
C  42.03200 45.02100 31.36600
O  43.03800 45.36100 30.74500
O  41.72000 45.28300 32.67900
C  42.70100 46.12600 33.37900
H  44.14300 38.33700 29.45000
H  43.03400 38.76400 23.33600
H  40.35400 44.69200 24.46900
H  42.64100 42.13500 31.95600
H  43.01400 39.21900 31.61200
H  45.34800 40.64100 30.77100
H  44.88500 39.49400 32.05900
H  44.76400 41.20200 32.39200
H  40.79700 40.03400 32.71300
H  39.95800 41.07400 31.62000
H  39.58600 42.47100 33.24200
H  41.23400 42.69000 33.66600
H  44.97700 35.51600 27.20000
H  44.36800 36.28000 28.76900
H  45.71300 36.85800 27.92400
H  44.43700 34.67000 23.82000
H  43.93700 34.35400 25.48800
H  45.31900 35.38600 25.23400
H  40.65500 40.35500 22.50400
H  41.83000 43.18000 22.17700
H  43.56900 40.67600 21.71500
H  42.40400 41.55700 20.61700
H  42.25400 39.85800 20.91500
H  38.97300 42.46700 22.88000
H  39.58000 42.12600 21.24900
H  39.43500 44.37400 20.68300
H  40.05600 44.97300 22.21100
H  38.33500 44.58900 21.92500
H  38.87500 46.27000 25.77100
H  40.52200 46.95100 25.69300
H  39.61900 47.18400 27.15000
H  40.13000 43.95900 31.37500
H  43.53400 46.39800 32.73100
H  43.12900 45.66700 34.27000
H  42.20400 46.94400 33.90000

