158

Mg 5.83900 54.62000 40.64400
C  5.73800 51.03600 40.43900
C  9.19500 54.29800 39.62800
C  5.85700 57.86500 40.10400
C  2.50600 54.69000 41.29400
N  7.26600 52.81800 40.00500
C  6.99200 51.50100 39.97600
C  8.22500 50.67400 39.51900
C  9.38200 51.72400 39.60900
C  8.57500 53.04700 39.70100
C  10.32000 51.62700 40.92900
C  8.16700 49.88700 38.15800
C  7.99400 50.72800 36.83200
H  6.72300 50.58200 36.02000
N  7.30200 55.90800 40.05400
C  8.63600 55.61900 39.82100
C  9.42800 56.83700 39.64100
C  8.52600 57.84700 39.84500
C  7.15300 57.27800 39.96000
C  10.83800 56.93100 39.14100
C  8.86800 59.29400 39.97500
O  10.06400 59.56200 39.94200
C  7.82900 60.31600 40.22300
N  4.24000 56.06500 40.32800
C  4.58500 57.34800 40.36300
C  3.35900 58.25000 40.69400
C  2.24900 57.16200 40.79100
C  3.02700 55.89200 40.89500
C  3.67800 59.00400 42.11000
C  1.26300 57.11900 39.56900
C  -0.16300 57.61600 39.87000
N  4.33400 53.17100 40.88900
C  3.03500 53.38500 41.26100
C  2.44800 52.04900 41.50600
C  3.49600 51.14700 41.25100
C  4.61800 51.83800 40.83700
C  1.19000 51.58400 42.09300
C  3.90300 49.70200 41.26200
O  3.23800 48.71200 41.64500
C  5.34300 49.57700 40.64700
C  5.00100 48.88500 39.34200
O  4.58100 49.39000 38.28300
O  5.29000 47.54500 39.50400
C  4.81700 46.64300 38.37400
H  10.18700 54.34900 39.17400
H  5.83000 58.95200 40.00000
H  1.49000 54.72000 41.69400
H  8.37800 49.93100 40.30200
H  10.02000 51.73500 38.72600
H  11.33100 51.51100 40.53800
H  10.06700 50.79400 41.58500
H  10.31700 52.51400 41.56200
H  7.39600 49.12200 38.24200
H  9.09600 49.33100 38.02700
H  8.90300 50.53000 36.26300
H  7.95800 51.79200 37.06400
H  10.97500 57.70300 38.38300
H  11.35000 56.00100 38.89200
H  11.49300 57.23500 39.95800
H  8.29900 61.26800 40.47000
H  7.22200 60.01400 41.07700
H  7.19800 60.39800 39.33800
H  3.18300 58.89600 39.83400
H  1.62800 57.36300 41.66500
H  2.92900 59.79500 42.13400
H  4.69600 59.38500 42.19500
H  3.42500 58.44600 43.01100
H  1.10900 56.07600 39.29400
H  1.80000 57.69000 38.81100
H  -0.85400 56.83700 39.54700
H  -0.37500 58.55300 39.35500
H  -0.23900 57.82300 40.93800
H  0.62400 52.50400 42.24400
H  1.36700 51.06600 43.03600
H  0.84700 50.92500 41.29600
H  6.06200 48.98100 41.20900
H  3.73900 46.64300 38.21600
H  5.04500 45.60400 38.61100
H  5.27000 47.06100 37.47400
Mg 8.77600 48.75400 26.23900
C  6.48800 48.32500 28.74000
C  11.04600 50.12000 28.53900
C  10.78800 49.46500 23.64600
C  6.12800 48.14900 23.92200
N  8.72300 49.14400 28.36500
C  7.76200 48.72400 29.17700
C  8.22000 49.04400 30.66200
C  9.49100 49.90400 30.60000
C  9.74100 49.82700 29.07500
C  9.39900 51.38400 31.01900
C  8.40600 47.75300 31.49100
C  9.18800 47.78800 32.83600
H  8.66600 47.08300 34.03800
N  10.72000 49.36800 26.21500
C  11.47000 49.95400 27.21600
C  12.70600 50.24400 26.68000
C  12.77700 49.91200 25.25200
C  11.34600 49.56000 25.01300
C  13.82400 50.87200 27.48200
C  14.00800 49.93500 24.23200
O  13.81800 49.52400 23.10600
C  15.34000 50.40300 24.57000
N  8.45500 48.97100 24.07400
C  9.53400 49.10900 23.23100
C  9.12700 48.79700 21.76900
C  7.72600 48.12900 21.95600
C  7.37600 48.46300 23.42100
C  9.17900 49.99800 20.78200
C  7.87400 46.54900 21.95000
C  8.20400 45.99000 20.52500
N  6.72700 48.29900 26.27500
C  5.73700 48.23300 25.30300
C  4.44900 47.95700 25.89500
C  4.71700 47.95900 27.27000
C  6.06400 48.21900 27.42800
C  3.28300 47.65900 25.08900
C  4.13900 47.76900 28.58400
O  3.04900 47.42000 28.92800
C  5.37000 47.85100 29.63100
C  5.49000 46.46000 29.99200
O  6.10300 45.64700 29.36600
O  4.76700 46.17800 31.16500
C  4.91400 44.82500 31.80300
H  11.79100 50.42400 29.27700
H  11.56600 49.76200 22.93900
H  5.42000 47.88500 23.13400
H  7.55800 49.62600 31.30400
H  10.32400 49.43700 31.12700
H  9.50600 52.08100 30.18800
H  10.18500 51.69600 31.70800
H  8.44000 51.51100 31.52100
H  8.83100 47.03300 30.79100
H  7.43200 47.27700 31.60100
H  9.23100 48.82900 33.15800
H  10.19500 47.51100 32.52500
H  14.80100 50.70600 27.02800
H  13.89700 50.59400 28.53300
H  13.63800 51.94600 27.48800
H  15.94100 49.77800 25.23200
H  15.28500 51.41500 24.97100
H  15.90700 50.34900 23.64100
H  9.93300 48.19100 21.35500
H  7.12800 48.56700 21.15700
H  9.49800 50.94700 21.21200
H  8.20600 50.20600 20.33800
H  9.91300 49.82100 19.99600
H  6.85300 46.23600 22.17100
H  8.59000 46.26900 22.72200
H  7.99800 46.77100 19.79300
H  7.62700 45.15600 20.12500
H  9.25100 45.77200 20.31600
H  3.05200 46.76300 24.51300
H  3.28900 48.44700 24.33500
H  2.44000 47.88600 25.74000
H  5.11900 48.56400 30.41600
H  4.02500 44.20400 31.69000
H  5.06100 44.92000 32.87900
H  5.71900 44.23800 31.36100

