158

Mg 2.19900 -3.38200 45.33000
C  5.53700 -2.75500 44.54500
C  1.36500 -0.71700 43.25200
C  -0.97400 -4.53400 45.30700
C  3.12100 -6.20000 46.96600
N  3.32600 -2.02600 43.99100
C  4.70200 -1.95000 43.85700
C  5.08500 -0.88600 42.92200
C  3.80900 0.01300 42.87000
C  2.74600 -0.95700 43.36300
C  3.85900 1.21300 43.80100
C  5.64900 -1.40100 41.50700
C  6.99000 -1.01500 41.10300
H  7.18700 -0.47400 39.66800
N  0.45400 -2.68400 44.40900
C  0.31000 -1.53500 43.59000
C  -1.00900 -1.45100 43.11700
C  -1.72900 -2.48200 43.74000
C  -0.72600 -3.33500 44.54700
C  -1.39200 -0.42900 42.09400
C  -3.19700 -2.73200 43.50100
O  -3.89200 -1.98800 42.81200
C  -3.88600 -3.83300 44.04100
N  1.21000 -5.09800 46.04300
C  -0.09200 -5.35000 45.91500
C  -0.55000 -6.57500 46.64100
C  0.77500 -7.17500 47.19000
C  1.79300 -6.12800 46.71300
C  -1.65200 -6.29300 47.68400
C  1.07500 -8.63400 46.60300
C  0.06900 -9.78500 46.85500
N  3.97200 -4.28000 45.82600
C  4.21200 -5.39600 46.54600
C  5.60900 -5.68200 46.68800
C  6.22600 -4.64400 45.88500
C  5.16900 -3.81700 45.38900
C  6.09300 -6.90400 47.30300
C  7.46300 -4.15200 45.34000
O  8.59000 -4.47800 45.56700
C  7.03400 -2.94500 44.40200
C  7.93500 -1.87200 44.75300
O  8.93500 -1.58000 44.07000
O  7.45600 -1.09700 45.79500
C  8.03900 0.24700 45.96100
H  1.07100 0.13900 42.64200
H  -2.00400 -4.87100 45.44200
H  3.38300 -7.10500 47.51900
H  5.83400 -0.39100 43.54000
H  3.71800 0.43600 41.87000
H  3.93100 2.14100 43.23500
H  4.54700 1.10300 44.64000
H  2.85800 1.25300 44.23100
H  4.91400 -1.18200 40.73300
H  5.70800 -2.48100 41.64400
H  7.62400 -1.85700 41.38000
H  7.39400 -0.24800 41.76400
H  -2.05600 -0.83400 41.33000
H  -0.65900 0.14900 41.53100
H  -1.90400 0.35000 42.66000
H  -3.33600 -4.77200 43.98500
H  -4.88000 -4.02900 43.64000
H  -3.96800 -3.54600 45.08900
H  -0.95200 -7.16200 45.81600
H  0.86400 -7.07800 48.27200
H  -1.19000 -6.38000 48.66700
H  -2.49100 -6.97900 47.57000
H  -2.00900 -5.26400 47.62800
H  2.10700 -8.94600 46.76500
H  1.10600 -8.48100 45.52500
H  0.58500 -10.58100 47.38900
H  -0.17300 -10.16300 45.86100
H  -0.85700 -9.55800 47.38300
H  5.65100 -7.78000 46.82700
H  5.88700 -6.91400 48.37300
H  7.17500 -6.91700 47.17000
H  7.25900 -3.27400 43.38700
H  7.39700 0.89900 46.55200
H  8.07400 0.73800 44.98800
H  9.07600 0.27400 46.29500
Mg -12.21100 15.93600 41.87600
C  -9.36900 14.12500 41.23200
C  -10.80200 18.63000 40.10400
C  -15.32600 17.37200 41.68900
C  -13.72200 12.95500 42.96300
N  -10.44500 16.15800 40.56200
C  -9.35500 15.34100 40.56300
C  -8.11000 15.94900 39.90400
C  -8.54300 17.50500 39.79200
C  -10.07600 17.46100 40.15400
C  -7.67600 18.53700 40.57900
C  -7.61600 15.17800 38.64900
C  -6.16300 14.78000 38.67200
H  -5.40600 15.60500 37.60600
N  -13.00400 17.84900 41.18400
C  -12.19500 18.77400 40.51200
C  -13.01800 19.89000 40.28200
C  -14.32300 19.57200 40.62800
C  -14.29000 18.19400 41.23300
C  -12.34000 21.16000 39.74700
C  -15.52000 20.45400 40.41100
O  -15.36200 21.50900 39.72800
C  -16.86500 20.19700 40.98300
N  -14.24700 15.28100 42.27700
C  -15.32700 16.08700 42.13500
C  -16.61300 15.26000 42.41000
C  -16.07700 13.87800 42.86300
C  -14.59000 14.08500 42.72000
C  -17.59700 16.12100 43.35000
C  -16.64900 12.65100 42.06700
C  -17.48000 11.62600 42.83600
N  -11.71300 13.92700 42.13600
C  -12.36900 12.85800 42.72600
C  -11.44400 11.70600 42.93300
C  -10.23800 12.24800 42.36500
C  -10.47900 13.53100 41.88400
C  -11.76500 10.31700 43.56600
C  -8.86300 11.90700 42.09700
O  -8.22400 10.88600 42.43500
C  -8.21200 13.15400 41.39800
C  -7.10400 13.56200 42.38500
O  -7.24700 14.09900 43.44500
O  -5.92600 13.12500 41.86800
C  -4.69100 13.38000 42.69800
H  -10.42900 19.58600 39.73000
H  -16.34200 17.73100 41.51300
H  -14.16500 12.06900 43.42300
H  -7.25600 15.84100 40.57200
H  -8.50900 17.76300 38.73300
H  -7.19300 19.26700 39.93000
H  -7.02000 18.06300 41.30900
H  -8.30800 19.08400 41.27900
H  -7.80000 15.77700 37.75600
H  -8.14400 14.23000 38.54600
H  -6.17500 13.70300 38.50300
H  -5.63600 15.04200 39.58900
H  -12.98200 22.04100 39.75500
H  -11.86600 21.15600 38.76600
H  -11.50400 21.43400 40.39000
H  -17.42400 21.12800 41.08000
H  -16.84800 19.80500 42.00000
H  -17.35400 19.54400 40.26000
H  -17.12600 15.19000 41.45100
H  -16.16800 13.82700 43.94800
H  -18.41000 16.48100 42.71900
H  -16.98100 16.89100 43.81400
H  -17.92700 15.42100 44.11900
H  -15.88400 12.20600 41.43200
H  -17.40400 12.93600 41.33500
H  -18.53600 11.88100 42.74800
H  -17.09600 11.52500 43.85200
H  -17.30600 10.59700 42.52300
H  -10.90600 9.85600 44.05400
H  -12.17800 9.63200 42.82500
H  -12.48800 10.47900 44.36600
H  -7.74500 12.88100 40.45200
H  -3.86600 12.73900 42.38500
H  -4.84900 13.28900 43.77300
H  -4.41800 14.40700 42.45600

