158

Mg 35.01800 2.66700 30.09700
C  32.56300 3.53300 32.57100
C  37.36300 2.66200 32.52600
C  37.45200 2.27800 27.79100
C  32.59800 3.00600 27.70500
N  34.91800 2.91400 32.23700
C  33.86000 3.21900 33.03800
C  34.27700 3.27700 34.47900
C  35.80500 3.42600 34.44600
C  36.04700 2.92500 32.97000
C  36.39300 4.79800 34.97900
C  33.69800 2.14000 35.42400
C  33.23500 2.55800 36.87300
H  33.88400 3.76200 37.62700
N  37.05300 2.30700 30.19900
C  37.84200 2.37500 31.29500
C  39.29500 2.27500 30.93100
C  39.36400 2.17700 29.51900
C  37.93900 2.27100 29.07500
C  40.42600 2.35800 31.91500
C  40.58600 1.94900 28.58500
O  40.51300 1.83800 27.36800
C  42.04600 1.71900 29.05400
N  35.04500 2.54700 28.07300
C  36.12300 2.32500 27.31200
C  35.73100 2.24700 25.82100
C  34.19700 2.48800 25.81900
C  33.93700 2.68200 27.30400
C  36.48600 3.26100 24.92200
C  33.32300 1.34600 25.16400
C  32.50200 1.69500 23.93700
N  33.05200 3.18900 30.05400
C  32.15000 3.28100 29.07600
C  30.85700 3.68400 29.49300
C  30.99000 3.88600 30.89800
C  32.33100 3.46000 31.19200
C  29.64400 3.98200 28.61700
C  30.29600 4.26700 32.12000
O  29.15200 4.73300 32.30300
C  31.34900 4.09300 33.25000
C  31.55700 5.40500 33.90000
O  32.37800 6.23400 33.53000
O  30.65800 5.58800 34.94200
C  30.57900 6.94600 35.48100
H  38.06600 2.81800 33.34700
H  38.22600 2.24400 27.02000
H  31.91200 3.27600 26.89900
H  33.79900 4.18900 34.83800
H  36.22900 2.65600 35.09100
H  35.81600 5.46300 35.62200
H  36.60000 5.48900 34.16200
H  37.20900 4.50300 35.63900
H  34.35600 1.28000 35.54500
H  32.78700 1.82700 34.91300
H  33.23800 1.64000 37.46100
H  32.16800 2.76400 36.78700
H  41.00600 1.43800 31.84200
H  40.01600 2.33800 32.92500
H  41.04300 3.24000 31.74700
H  42.59500 1.14100 28.31100
H  42.10300 1.14200 29.97700
H  42.63000 2.63000 29.18800
H  35.86700 1.19200 25.58000
H  33.87800 3.36900 25.26200
H  36.79500 4.16400 25.44900
H  35.91200 3.44600 24.01400
H  37.37700 2.82500 24.46900
H  32.70500 0.96000 25.97500
H  33.99300 0.54300 24.85700
H  32.72200 2.69800 23.57200
H  31.44900 1.72200 24.21900
H  32.65400 0.96200 23.14400
H  29.70800 4.89300 28.02100
H  28.81800 4.08200 29.32000
H  29.49500 3.12400 27.96200
H  31.02900 3.50800 34.11200
H  30.42900 7.66600 34.67600
H  31.49500 7.30100 35.95500
H  29.72900 7.09000 36.14700
Mg 17.22900 52.98400 26.57800
C  19.45000 51.50200 29.14300
C  14.97600 53.55300 29.07300
C  15.06500 53.91600 24.16800
C  19.45900 51.71600 24.22600
N  17.31000 52.64300 28.84900
C  18.25500 52.06600 29.65500
C  17.82700 52.28400 31.16400
C  16.32000 52.64700 31.11800
C  16.16800 52.99100 29.59300
C  15.37000 51.54100 31.53200
C  18.61900 53.45200 31.92300
C  18.99000 53.18100 33.35900
H  17.92300 52.36000 34.14500
N  15.38600 53.69100 26.61900
C  14.60800 53.83600 27.72600
C  13.32600 54.42700 27.36300
C  13.44000 54.67100 26.02100
C  14.61600 54.03600 25.53400
C  12.19100 54.79900 28.31800
C  12.52500 55.48300 25.12000
O  12.67000 55.64100 23.89900
C  11.29200 56.03600 25.68100
N  17.20400 52.75100 24.50400
C  16.22900 53.30900 23.68900
C  16.72500 53.53600 22.27100
C  18.09700 52.77900 22.20800
C  18.32600 52.38600 23.77100
C  15.61900 53.14800 21.20700
C  19.22800 53.77600 21.67800
C  20.10600 53.18700 20.55900
N  19.01400 51.82900 26.56200
C  19.79700 51.45800 25.51900
C  21.02100 50.76400 25.96100
C  20.93500 50.77700 27.38400
C  19.68100 51.39400 27.70600
C  22.11900 50.19700 25.05600
C  21.64000 50.44400 28.60900
O  22.71300 49.85200 28.74400
C  20.70800 50.95300 29.83700
C  20.43400 49.81100 30.76000
O  20.18400 48.69300 30.35800
O  20.52100 50.24800 31.99800
C  20.50600 49.21100 33.05700
H  14.30200 53.70000 29.92000
H  14.39700 54.29800 23.39300
H  20.15700 51.44300 23.43300
H  17.92400 51.31900 31.66100
H  16.07800 53.58800 31.61000
H  14.75300 52.01700 32.29500
H  15.75100 50.58400 31.88900
H  14.62900 51.19000 30.81400
H  18.30900 54.49500 31.85900
H  19.55400 53.60100 31.38300
H  18.98900 54.09700 33.94900
H  19.97000 52.73600 33.53400
H  11.21700 54.39900 28.03800
H  12.18300 55.87700 28.47800
H  12.36400 54.54200 29.36300
H  10.49500 55.39400 26.05600
H  10.83300 56.51800 24.81800
H  11.80200 56.65400 26.41900
H  16.93600 54.58700 22.07700
H  17.97900 51.85300 21.64500
H  14.93600 52.40100 21.61200
H  16.22300 52.80900 20.36500
H  15.16000 54.07800 20.87100
H  19.96600 54.16500 22.38000
H  18.89100 54.71100 21.23100
H  20.07500 52.09700 20.53800
H  21.11100 53.55400 20.76800
H  19.86100 53.52600 19.55200
H  21.89200 50.31600 23.99600
H  22.14200 49.13000 25.27500
H  23.08800 50.59000 25.36300
H  21.17800 51.78800 30.35600
H  19.47500 49.17200 33.40900
H  21.23200 49.50600 33.81400
H  20.70500 48.19000 32.73400

