158

Mg 49.01500 46.52200 42.61800
C  45.74400 47.37100 41.77400
C  48.46300 43.55200 40.86000
C  52.26700 46.00600 42.62800
C  49.52300 49.87400 43.50900
N  47.30200 45.62700 41.37400
C  46.00900 46.05900 41.27000
C  44.98700 45.03000 40.80800
C  45.88600 43.75700 40.85300
C  47.28300 44.27500 41.05900
C  45.42400 42.71300 41.90800
C  44.24200 45.36000 39.49900
C  44.90600 46.30800 38.46500
H  45.80700 45.71400 37.42100
N  50.13600 44.85800 42.03800
C  49.76900 43.76600 41.30200
C  50.93000 42.91000 41.25700
C  52.00300 43.62900 41.87500
C  51.48600 44.96900 42.19300
C  50.94300 41.55700 40.66500
C  53.42700 42.98300 41.94000
O  53.54500 41.76300 41.78000
C  54.61300 43.77400 42.34700
N  50.73100 47.87100 42.70900
C  51.94000 47.34400 42.91800
C  52.96700 48.42100 43.34900
C  52.02600 49.62700 43.70100
C  50.68000 49.09700 43.23400
C  53.87900 47.95000 44.49600
C  52.34200 51.09400 43.08600
C  52.37600 52.20900 44.11600
N  47.90600 48.29300 42.66300
C  48.21300 49.52300 43.24000
C  46.99200 50.36200 43.29900
C  45.97900 49.54400 42.67600
C  46.57100 48.29500 42.41100
C  46.77400 51.82000 43.73200
C  44.60600 49.43300 42.28500
O  43.66700 50.23500 42.30500
C  44.37700 48.05600 41.78900
C  43.38300 47.40000 42.62300
O  43.55300 47.36200 43.81800
O  42.39300 46.82400 41.90800
C  41.49000 46.03100 42.76200
H  48.33900 42.58700 40.36300
H  53.34700 45.88000 42.72700
H  49.68200 50.89700 43.85700
H  44.28700 44.87700 41.62900
H  45.87800 43.25800 39.88400
H  46.20400 42.54300 42.65000
H  45.09900 41.78900 41.43100
H  44.51900 42.95500 42.46600
H  43.22800 45.66300 39.76000
H  44.07000 44.38200 39.05000
H  45.64200 46.93800 38.96400
H  44.16700 46.92800 37.95700
H  50.01500 41.54500 40.09300
H  50.87400 40.81700 41.46200
H  51.81900 41.30500 40.06800
H  54.33700 44.23700 43.29500
H  54.79500 44.39500 41.47000
H  55.40200 43.07400 42.62000
H  53.51700 48.77400 42.47700
H  52.02700 49.67100 44.79000
H  53.73500 46.87600 44.61400
H  53.58700 48.51900 45.37900
H  54.92800 48.11700 44.25000
H  51.58200 51.37100 42.35500
H  53.34000 50.99100 42.66200
H  51.99800 51.90600 45.09200
H  51.72900 53.03200 43.81200
H  53.35500 52.68000 44.20400
H  47.59500 52.13700 44.37400
H  45.82800 51.98100 44.24900
H  46.70100 52.44400 42.84100
H  43.93600 48.26200 40.81400
H  41.83300 45.00300 42.64400
H  40.50000 46.14600 42.32100
H  41.46900 45.97100 43.85000
Mg 49.29900 35.00700 28.11000
C  47.03300 33.75700 30.57400
C  49.56000 37.89000 29.93100
C  51.15400 36.31700 25.71700
C  48.60700 32.18900 26.28900
N  48.32700 35.77600 30.03100
C  47.52300 35.01400 30.85600
C  47.23300 35.77900 32.23600
C  47.81500 37.20600 31.85800
C  48.69300 36.98300 30.55200
C  46.75800 38.36400 31.72600
C  47.94700 35.04100 33.43000
C  48.90500 35.78600 34.40000
H  48.22200 36.75400 35.39000
N  50.18500 36.92500 27.85600
C  50.19000 37.93800 28.71300
C  51.04100 39.02400 28.25700
C  51.71600 38.51400 27.10100
C  51.04800 37.22700 26.85000
C  51.26500 40.35400 29.06400
C  52.95000 39.06400 26.40000
O  53.42000 38.44300 25.45900
C  53.50600 40.45500 26.70700
N  49.63200 34.45300 26.28500
C  50.43200 35.17600 25.44300
C  50.65900 34.36000 24.15300
C  50.15100 32.91400 24.40800
C  49.43900 33.18600 25.71500
C  50.08100 34.97500 22.90600
C  51.15300 31.79800 24.56600
C  51.00500 30.57400 23.57200
N  48.20200 33.23900 28.43300
C  47.94600 32.22100 27.50700
C  47.04800 31.26900 28.08300
C  46.66800 31.84000 29.28000
C  47.36100 33.05000 29.45800
C  46.63100 30.00500 27.38200
C  45.74600 31.61900 30.37200
O  44.99500 30.69800 30.68400
C  46.03400 32.76600 31.32500
C  46.39000 32.19200 32.67200
O  47.45500 31.63000 32.97000
O  45.30800 32.42700 33.47900
C  45.74100 32.34500 34.91500
H  49.56400 38.78600 30.55500
H  51.81300 36.67700 24.92500
H  48.51700 31.23000 25.77400
H  46.15200 35.78900 32.37200
H  48.49700 37.59300 32.61400
H  47.05300 39.16800 32.40100
H  45.72000 38.05700 31.85800
H  46.82400 38.69100 30.68800
H  48.44400 34.11200 33.15100
H  47.14800 34.66700 34.07100
H  49.60700 36.30000 33.74400
H  49.40000 34.91300 34.82600
H  52.15400 40.20700 29.67700
H  50.46800 40.43700 29.80400
H  51.31700 41.23600 28.42600
H  52.56600 41.00500 26.68000
H  54.25400 40.65700 25.94100
H  53.91500 40.40600 27.71700
H  51.74500 34.30500 24.08500
H  49.41100 32.75100 23.62500
H  50.86800 35.46300 22.33000
H  49.31800 35.69700 23.19600
H  49.76200 34.25200 22.15600
H  51.17200 31.35400 25.56100
H  52.15800 32.17500 24.37800
H  50.39900 30.79600 22.69400
H  50.38600 29.85500 24.10800
H  52.03700 30.41200 23.26000
H  45.73400 30.22600 26.80300
H  46.42800 29.26400 28.15500
H  47.43800 29.70500 26.71400
H  45.03800 33.19700 31.43200
H  46.68600 32.86600 35.06600
H  45.80900 31.30800 35.24100
H  44.99200 32.81400 35.55400

