158

Mg 17.11200 50.99400 26.56000
C  19.12200 49.67300 29.04400
C  14.82000 51.94100 28.85500
C  15.32100 52.29600 24.00800
C  19.42600 49.69000 24.27500
N  16.94400 50.76200 28.65600
C  17.93400 50.29500 29.50100
C  17.60200 50.56300 30.96600
C  16.05900 50.95100 30.86200
C  15.91800 51.29600 29.36700
C  15.04700 49.88200 31.34900
C  18.55200 51.65000 31.55100
C  18.91700 51.44200 33.02700
H  17.88300 50.76800 33.99000
N  15.37500 52.04100 26.39800
C  14.58100 52.32500 27.46800
C  13.38700 53.12800 27.04500
C  13.57300 53.25700 25.66900
C  14.76900 52.48300 25.25000
C  12.42800 53.61300 28.00300
C  12.72300 54.00600 24.72200
O  13.00400 54.25700 23.59200
C  11.34700 54.42000 25.07700
N  17.31200 50.90600 24.50700
C  16.47600 51.59500 23.66400
C  16.80600 51.35600 22.19900
C  18.18100 50.70100 22.22400
C  18.35400 50.37000 23.73300
C  15.82000 50.61600 21.32100
C  19.26600 51.55100 21.55100
C  20.19600 52.42500 22.45300
N  18.84600 49.88200 26.59600
C  19.67900 49.44300 25.61400
C  20.85600 48.73200 26.14700
C  20.64000 48.80400 27.50800
C  19.48300 49.57200 27.72000
C  21.82000 48.02400 25.28300
C  21.22100 48.41500 28.68600
O  22.27900 47.83200 28.86600
C  20.27300 48.93000 29.79600
C  19.86900 47.78100 30.65100
O  19.26400 46.83100 30.14900
O  20.07700 48.01900 31.99900
C  19.48700 46.96500 32.86100
H  14.14400 52.43800 29.55300
H  14.67400 52.65800 23.20600
H  20.26300 49.33100 23.67100
H  17.63200 49.61700 31.50500
H  15.78100 51.86800 31.38200
H  14.53100 49.41000 30.51200
H  14.36200 50.32100 32.07500
H  15.56900 49.03200 31.78700
H  18.06600 52.60900 31.37400
H  19.50700 51.82400 31.05600
H  19.11200 52.39000 33.52800
H  19.91500 51.00800 33.09400
H  11.93100 54.49500 27.59900
H  12.89200 53.91300 28.94200
H  11.75500 52.78100 28.21100
H  11.35100 55.46700 25.38100
H  10.94800 53.81300 25.89000
H  10.72700 54.38700 24.18100
H  16.96500 52.33700 21.75000
H  18.18600 49.76400 21.66700
H  14.99600 50.22700 21.92000
H  16.22800 49.80400 20.71900
H  15.36800 51.30100 20.60300
H  18.87400 51.89900 20.59500
H  19.99300 50.76100 21.36600
H  19.82200 52.50100 23.47400
H  20.27600 53.45400 22.10100
H  21.23300 52.09900 22.53400
H  22.24600 47.11600 25.71000
H  22.58200 48.71800 24.93000
H  21.18100 47.65300 24.48100
H  20.75700 49.65600 30.44900
H  18.43500 46.91900 32.57900
H  19.49800 47.39900 33.86100
H  19.99700 46.00200 32.85700
Mg -6.22700 25.24100 26.09100
C  -4.70300 26.79300 28.80300
C  -8.16400 23.29500 28.36300
C  -7.34800 23.50000 23.53400
C  -3.92600 26.86800 23.94800
N  -6.37800 25.06200 28.33900
C  -5.66100 25.83800 29.22700
C  -6.05300 25.50400 30.68100
C  -7.05800 24.33300 30.43100
C  -7.27700 24.26100 28.92100
C  -6.71700 22.94000 31.11200
C  -6.64300 26.74200 31.38400
C  -7.52400 26.45900 32.68800
H  -7.00400 25.67900 33.82400
N  -7.69300 23.73100 25.94600
C  -8.36600 23.12700 26.97800
C  -9.25100 22.18200 26.38700
C  -9.11000 22.17400 24.96200
C  -8.04400 23.16700 24.76500
C  -10.05900 21.36200 27.29400
C  -9.71100 21.29200 23.78300
O  -9.34400 21.23900 22.61300
C  -10.71400 20.27700 24.15300
N  -5.63100 25.18700 24.06600
C  -6.26000 24.37700 23.23400
C  -5.75500 24.46700 21.73300
C  -4.60700 25.51800 21.90000
C  -4.78200 25.98300 23.38200
C  -5.27400 23.10700 21.03700
C  -4.53700 26.67300 20.84000
C  -3.27500 26.68000 20.04300
N  -4.68000 26.53600 26.28800
C  -3.90100 27.21100 25.35300
C  -3.01000 28.15700 25.99200
C  -3.27900 28.01600 27.39500
C  -4.31000 27.07700 27.47900
C  -1.94800 28.91600 25.20400
C  -2.92800 28.41000 28.73000
O  -1.96800 29.09700 29.09800
C  -3.83700 27.71600 29.72300
C  -3.02100 26.80200 30.59500
O  -2.27500 25.89200 30.16600
O  -3.24300 27.16700 31.90600
C  -2.29200 26.54400 32.88600
H  -8.66400 22.67600 29.11000
H  -7.78700 23.04900 22.64200
H  -3.30200 27.38400 23.21600
H  -5.13500 25.19500 31.18100
H  -8.03600 24.65200 30.79200
H  -6.62100 22.09400 30.43200
H  -7.39500 22.79700 31.95400
H  -5.74500 23.09400 31.58000
H  -7.20600 27.30400 30.63800
H  -5.82500 27.30500 31.83300
H  -8.57800 26.23200 32.52600
H  -7.56500 27.46000 33.11600
H  -10.96500 20.98000 26.82400
H  -10.43200 21.81700 28.21200
H  -9.38500 20.55100 27.57100
H  -11.13800 19.78800 23.27600
H  -11.49700 20.72900 24.76100
H  -10.25500 19.45200 24.69700
H  -6.51700 24.95500 21.12500
H  -3.63500 25.02300 21.91400
H  -5.60400 22.33100 21.72700
H  -4.20100 22.93600 20.96300
H  -5.65300 23.10100 20.01500
H  -4.55800 27.65800 21.30600
H  -5.33900 26.61400 20.10400
H  -2.60800 25.82800 20.17900
H  -2.69400 27.60000 20.11500
H  -3.58900 26.62800 19.00100
H  -1.11600 29.05700 25.89300
H  -2.15400 29.92800 24.85700
H  -1.68900 28.38100 24.29000
H  -4.30500 28.40200 30.43000
H  -1.91600 25.56600 32.58700
H  -2.95200 26.34100 33.72900
H  -1.53500 27.20500 33.30900

