158

Mg 17.37600 -1.03900 28.41300
C  16.11200 0.97200 31.03200
C  18.89600 -2.86000 30.85400
C  18.82300 -2.74600 25.97700
C  15.62500 0.98300 26.16000
N  17.67000 -0.78100 30.71400
C  16.96200 -0.01600 31.55300
C  17.26900 -0.32200 33.04800
C  18.27600 -1.49900 32.91500
C  18.32400 -1.72900 31.34800
C  19.69400 -1.23500 33.50300
C  15.94900 -0.59100 33.87900
C  15.69600 0.16700 35.18400
H  16.75300 0.07500 36.24000
N  18.77200 -2.58100 28.40500
C  19.15600 -3.22600 29.51700
C  19.92300 -4.44900 29.13400
C  19.87000 -4.44600 27.70000
C  19.12800 -3.26700 27.29100
C  20.41000 -5.40400 30.13300
C  20.49500 -5.38500 26.67000
O  20.28500 -5.22000 25.46900
C  21.39600 -6.62200 27.11000
N  17.25600 -0.87100 26.40700
C  17.98700 -1.67400 25.58200
C  17.77600 -1.27500 24.09100
C  16.66600 -0.24300 24.19200
C  16.40400 -0.06800 25.63200
C  19.08900 -0.82900 23.39800
C  15.28000 -0.39900 23.48300
C  14.28400 -1.35600 24.11600
N  16.11600 0.61000 28.43600
C  15.52300 1.33100 27.49600
C  14.83500 2.43700 27.99900
C  14.86400 2.25400 29.44900
C  15.78100 1.18000 29.65900
C  14.10600 3.45900 27.19700
C  14.38600 2.77900 30.65200
O  13.46600 3.58400 30.88800
C  15.26900 2.03400 31.73700
C  16.14500 3.09200 32.33700
O  17.25100 3.43400 31.91300
O  15.59100 3.49500 33.59400
C  16.46900 4.42400 34.27400
H  19.29900 -3.49900 31.64200
H  19.17900 -3.15500 25.02900
H  15.12900 1.64300 25.44600
H  17.70800 0.53700 33.55600
H  17.96900 -2.39500 33.45400
H  19.75600 -1.85700 34.39500
H  19.86200 -0.20200 33.80800
H  20.47000 -1.57700 32.81900
H  16.00200 -1.58400 34.32400
H  15.03700 -0.66500 33.28700
H  14.84400 -0.40300 35.55500
H  15.36500 1.18800 34.99500
H  21.49400 -5.44100 30.02400
H  19.97300 -6.36600 29.86600
H  20.21300 -5.15700 31.17600
H  20.83000 -7.20800 27.83400
H  22.26900 -6.28700 27.67100
H  21.58800 -7.19200 26.20100
H  17.41900 -2.20900 23.65800
H  17.05700 0.72500 23.87800
H  19.16200 0.20800 23.06900
H  19.28900 -1.48500 22.55100
H  19.80200 -0.97100 24.21000
H  15.52700 -0.52300 22.42900
H  14.81400 0.58300 23.56500
H  13.58400 -0.74400 24.68500
H  14.68600 -1.96500 24.92500
H  13.75300 -1.85100 23.30300
H  13.02000 3.36400 27.22100
H  14.30700 3.39100 26.12800
H  14.28600 4.45800 27.59500
H  14.56700 1.70200 32.50200
H  16.48200 5.42300 33.83700
H  17.49200 4.05300 34.33600
H  16.14000 4.52000 35.30900
Mg 30.30600 58.21800 40.12900
C  27.69200 55.98800 39.18800
C  32.50000 55.84200 39.18700
C  32.67000 60.52700 40.74400
C  27.83200 60.82700 40.36100
N  29.98800 56.08200 39.31400
C  28.90400 55.35200 39.07600
C  29.27100 53.95200 38.55100
C  30.84900 54.01400 38.47600
C  31.16100 55.40800 39.03500
C  31.53600 52.80800 39.09500
C  28.72800 53.60800 37.15500
C  29.00100 54.63200 36.08100
H  28.03000 54.82300 34.92900
N  32.35900 58.13500 40.10900
C  33.00200 57.04700 39.70500
C  34.44800 57.28000 39.85300
C  34.58600 58.60800 40.29000
C  33.21600 59.17200 40.36700
C  35.45900 56.15400 39.53800
C  35.92900 59.31800 40.53000
O  36.98300 58.66000 40.51800
C  35.99100 60.72800 40.81900
N  30.20000 60.36800 40.55100
C  31.36300 61.01400 40.84400
C  31.08800 62.54500 41.00100
C  29.54600 62.54600 41.28700
C  29.13900 61.18100 40.71200
C  31.95700 63.44900 41.94200
C  28.72600 63.71400 40.72800
C  27.94000 64.52800 41.82800
N  28.24000 58.39400 39.92200
C  27.38000 59.49700 40.10100
C  25.99600 59.11600 39.88200
C  26.10900 57.73000 39.53500
C  27.47700 57.36100 39.57700
C  24.79600 60.00000 39.94200
C  25.28000 56.58900 39.16800
O  24.07300 56.46800 39.12900
C  26.29500 55.41700 38.88100
C  25.96700 54.26500 39.78300
O  26.36200 54.16400 40.89700
O  25.33900 53.26000 39.05100
C  25.05300 51.96700 39.63400
H  33.12700 55.06500 38.74400
H  33.50000 61.21800 40.90800
H  27.07900 61.58300 40.59400
H  29.02700 53.27300 39.36800
H  31.17600 54.11300 37.44100
H  32.41400 53.12400 39.65800
H  31.83800 52.06400 38.35800
H  30.87800 52.37700 39.84900
H  27.67600 53.32800 37.09800
H  29.50100 52.89400 36.87000
H  29.91800 54.46400 35.51600
H  29.10700 55.65900 36.43300
H  36.48100 56.45600 39.76400
H  35.58600 55.82500 38.50700
H  35.23900 55.30600 40.18800
H  35.67200 60.98700 41.82800
H  35.41700 61.30100 40.09100
H  37.02500 61.06900 40.75800
H  31.20700 62.99000 40.01300
H  29.41400 62.41800 42.36200
H  32.84600 62.92500 42.29300
H  31.29600 63.48900 42.80800
H  32.14100 64.42800 41.50000
H  27.97400 63.48200 39.97400
H  29.38200 64.40600 40.19900
H  28.14100 65.56000 41.54100
H  28.34000 64.30500 42.81700
H  26.87500 64.38700 41.64700
H  24.55200 60.24800 40.97500
H  23.93200 59.53600 39.46600
H  25.00700 60.95600 39.46200
H  26.20000 54.98400 37.88500
H  25.03100 51.80300 40.71200
H  25.73900 51.19400 39.28800
H  24.16900 51.69300 39.05800

