158

Mg 16.17900 -2.07700 28.05300
C  15.30400 0.22400 30.72800
C  18.05600 -3.81200 30.30600
C  17.16000 -3.84000 25.42900
C  14.57300 0.30600 25.81800
N  16.72700 -1.70600 30.29600
C  16.17800 -0.83600 31.16900
C  16.77600 -0.97700 32.58700
C  17.75300 -2.26600 32.34400
C  17.46200 -2.65000 30.87600
C  19.26700 -2.02100 32.51100
C  15.67500 -1.09400 33.76800
C  15.95200 -0.35800 35.10700
H  17.40400 0.01500 35.40500
N  17.49200 -3.67800 27.86800
C  18.07800 -4.28900 28.91100
C  18.59100 -5.54000 28.40200
C  18.35300 -5.53900 26.95400
C  17.65500 -4.32800 26.67300
C  19.27900 -6.48700 29.29900
C  18.76500 -6.57500 25.99000
O  18.54300 -6.50800 24.75800
C  19.39600 -7.81500 26.44400
N  15.97400 -1.68800 25.89000
C  16.46800 -2.64200 25.04100
C  16.22100 -2.13400 23.55000
C  15.58900 -0.69200 23.64500
C  15.25400 -0.72000 25.15600
C  17.52200 -2.22400 22.66800
C  14.31200 -0.59800 22.79100
C  13.91900 0.85900 22.51200
N  14.98600 -0.30000 28.19700
C  14.49100 0.54500 27.19400
C  13.81400 1.60500 27.87700
C  14.15700 1.58800 29.22000
C  14.91600 0.38200 29.34000
C  12.90300 2.58600 27.27700
C  13.97000 2.25000 30.49100
O  13.22200 3.19300 30.71600
C  14.80400 1.44700 31.49100
C  15.81700 2.46700 31.96900
O  16.47900 3.18100 31.23500
O  15.73500 2.56800 33.35200
C  16.50500 3.74900 33.91900
H  18.53100 -4.48200 31.02500
H  17.51100 -4.39100 24.55400
H  14.08900 1.08900 25.23100
H  17.33700 -0.07000 32.81200
H  17.50700 -3.12700 32.96500
H  19.59400 -1.40200 33.34700
H  19.68400 -1.61900 31.58700
H  19.63400 -3.03900 32.64100
H  15.32600 -2.12300 33.86100
H  14.81100 -0.55800 33.37800
H  15.67500 -0.91300 36.00400
H  15.39700 0.57900 35.06400
H  20.00300 -7.21300 28.92800
H  18.65200 -7.05600 29.98600
H  19.86600 -5.91100 30.01400
H  18.76700 -8.26600 27.21200
H  20.43600 -7.71100 26.75200
H  19.31900 -8.54100 25.63500
H  15.49900 -2.82300 23.11100
H  16.19800 0.19900 23.49500
H  17.81700 -1.24200 22.29900
H  17.30700 -2.81200 21.77600
H  18.39600 -2.59400 23.20400
H  13.55200 -1.04100 23.43500
H  14.42200 -1.20900 21.89600
H  12.93100 1.09500 22.90600
H  13.95700 0.87700 21.42200
H  14.63000 1.64800 22.75500
H  13.46600 3.31400 26.69400
H  12.26800 2.95000 28.08500
H  12.19800 2.05800 26.63400
H  14.15400 1.12300 32.30400
H  15.93100 4.02100 34.80600
H  16.64200 4.67800 33.36500
H  17.51200 3.41700 34.17000
Mg 48.42500 46.21200 43.41800
C  45.21800 46.71800 41.91100
C  48.69500 43.37100 41.68400
C  51.68200 46.12600 44.26900
C  48.31800 49.63800 44.39700
N  47.06200 45.12700 41.97500
C  45.74200 45.44000 41.65300
C  45.16200 44.38300 40.64100
C  46.29300 43.27300 40.66400
C  47.48800 43.99600 41.45200
C  45.80200 41.89500 41.11900
C  44.86900 44.90300 39.20200
C  43.60600 44.37300 38.57800
H  43.61400 43.96000 37.13600
N  49.94500 44.87700 43.02900
C  49.76400 43.68700 42.42200
C  51.05200 42.97500 42.40800
C  51.98100 43.80100 43.13000
C  51.23600 45.02400 43.52800
C  51.22900 41.62200 41.71800
C  53.42700 43.37600 43.30600
O  53.91100 42.40600 42.76300
C  54.45100 44.12600 44.10800
N  49.83600 47.71400 44.25800
C  51.11200 47.36200 44.57100
C  51.85100 48.54900 45.31000
C  50.80800 49.71700 45.19200
C  49.57000 49.02100 44.56500
C  52.28800 48.24100 46.80000
C  51.20600 50.90800 44.30400
C  51.16400 52.29300 45.05500
N  47.13100 47.84600 43.27500
C  47.16700 49.13100 43.79800
C  45.92200 49.80300 43.52900
C  45.14200 48.93100 42.75600
C  45.93000 47.71500 42.65800
C  45.50300 51.32800 43.81500
C  43.85900 48.72400 42.01600
O  42.88800 49.47200 41.80500
C  43.87600 47.26900 41.48600
C  42.74100 46.48800 42.02000
O  42.50800 46.22100 43.16200
O  41.96900 45.96300 41.02200
C  41.00100 44.92900 41.34500
H  48.75600 42.37900 41.23100
H  52.68500 45.98500 44.67700
H  48.39600 50.68500 44.69800
H  44.19900 44.04900 41.02700
H  46.68100 43.16500 39.65100
H  45.99100 41.93000 42.19200
H  46.26300 41.00200 40.69600
H  44.73200 41.88600 40.91100
H  45.73300 44.56900 38.62700
H  44.88300 45.98900 39.10500
H  42.91400 45.21400 38.60200
H  43.14800 43.65800 39.26100
H  50.37900 40.98900 41.46200
H  51.66600 40.99800 42.49800
H  51.91500 41.79100 40.88800
H  54.11200 44.18900 45.14200
H  54.45100 45.08400 43.58800
H  55.42400 43.63700 44.06200
H  52.76100 48.77300 44.75200
H  50.49500 50.00800 46.19400
H  52.16200 47.18200 47.02900
H  51.80200 48.90000 47.51900
H  53.36300 48.40100 46.87900
H  50.52500 50.98400 43.45600
H  52.21100 50.82200 43.89300
H  52.14600 52.74800 45.18200
H  50.88100 52.17700 46.10200
H  50.46300 52.91900 44.50300
H  44.44200 51.37800 44.05800
H  45.78600 51.85800 42.90500
H  46.00100 51.78400 44.67100
H  43.88100 47.24600 40.39600
H  41.42700 43.98800 40.99500
H  40.05000 45.16200 40.86600
H  40.83500 44.79100 42.41300

