158

Mg 24.62900 -4.64100 46.26400
C  26.61800 -1.99000 44.76700
C  22.11400 -3.65100 44.13900
C  22.93900 -7.43600 47.06400
C  27.52700 -5.67700 47.79700
N  24.41100 -2.97100 44.67200
C  25.28100 -1.99000 44.28500
C  24.92200 -1.39100 43.00300
C  23.42200 -1.64900 42.98100
C  23.29900 -2.85000 43.97200
C  22.51900 -0.42300 43.36400
C  25.70400 -1.84900 41.80600
C  26.21700 -0.78600 40.82300
H  25.37700 -0.57900 39.53300
N  22.69700 -5.52500 45.69900
C  21.85300 -4.91400 44.80900
C  20.72300 -5.75400 44.58200
C  20.93800 -6.88900 45.35800
C  22.17900 -6.66500 46.14000
C  19.62800 -5.48400 43.51400
C  19.96400 -8.13700 45.40000
O  18.98500 -8.15900 44.65500
C  20.10100 -9.19100 46.39800
N  25.18300 -6.44800 47.04500
C  24.31000 -7.39400 47.51000
C  25.05900 -8.47400 48.25600
C  26.39600 -7.76900 48.71600
C  26.39800 -6.56600 47.77700
C  24.22800 -9.05000 49.42600
C  27.73300 -8.57400 48.52400
C  28.64900 -8.60800 49.73600
N  26.60300 -3.95500 46.42700
C  27.64300 -4.48700 47.15100
C  28.74200 -3.51000 47.09400
C  28.38600 -2.64000 46.10500
C  27.11300 -2.97000 45.68100
C  29.99800 -3.48700 47.89300
C  28.93600 -1.51600 45.39900
O  30.04400 -0.97500 45.44500
C  27.81800 -1.18900 44.35400
C  27.56800 0.27700 44.45500
O  27.05500 0.80100 45.39300
O  27.97800 0.89100 43.33600
C  27.72300 2.34700 43.22400
H  21.25900 -3.22500 43.61100
H  22.37900 -8.24300 47.54100
H  28.38200 -5.95400 48.41700
H  25.09500 -0.33800 43.22200
H  23.16600 -2.11700 42.03000
H  23.05100 0.35200 43.91500
H  21.60900 -0.78100 43.84600
H  22.21400 -0.03700 42.39100
H  25.08300 -2.50800 41.19900
H  26.48300 -2.57200 42.04900
H  27.24700 -0.90300 40.48800
H  26.25700 0.13200 41.40900
H  19.62400 -6.34800 42.84900
H  19.91800 -4.60600 42.93700
H  18.57500 -5.41600 43.78700
H  19.45500 -10.04800 46.20700
H  19.79500 -8.78900 47.36400
H  21.12300 -9.53900 46.54200
H  25.31400 -9.20200 47.48600
H  26.27200 -7.40400 49.73500
H  23.27700 -8.51800 49.44600
H  24.87100 -8.93000 50.29800
H  24.09600 -10.10900 49.20200
H  28.26400 -8.06300 47.72000
H  27.49100 -9.59400 48.22600
H  28.77400 -9.63600 50.07500
H  28.21900 -7.93500 50.47800
H  29.60900 -8.26400 49.35100
H  30.02800 -4.41200 48.46900
H  30.04300 -2.66600 48.60800
H  30.86300 -3.51300 47.23000
H  28.13800 -1.24200 43.31400
H  28.56200 2.77300 43.77500
H  26.83300 2.70100 43.74400
H  27.70300 2.60600 42.16600
Mg -1.64200 35.06600 27.23300
C  -3.39800 33.26300 29.86300
C  -0.30500 37.07800 29.65600
C  -0.29100 36.92500 24.75100
C  -3.25700 33.10500 24.91800
N  -1.90200 35.19600 29.56500
C  -2.62200 34.35700 30.38300
C  -2.30800 34.73000 31.85400
C  -1.51200 36.14300 31.75400
C  -1.26800 36.20600 30.20600
C  -2.18200 37.56100 32.26200
C  -1.63400 33.59400 32.63300
C  -2.11800 33.39800 34.10000
H  -1.10200 33.62700 35.21800
N  -0.34600 36.50900 27.22300
C  0.18300 37.12400 28.30800
C  1.24000 37.99500 27.95200
C  1.27700 37.97800 26.51300
C  0.17300 37.09400 26.08100
C  2.09600 38.88400 28.91300
C  2.14400 38.87300 25.54600
O  1.98200 38.87100 24.32800
C  3.19900 39.88600 26.08500
N  -1.93900 35.16500 25.15000
C  -1.22500 35.97700 24.33400
C  -1.74000 35.76500 22.88500
C  -2.39200 34.36400 22.90800
C  -2.58600 34.22000 24.39200
C  -2.64800 36.89900 22.25000
C  -1.49300 33.31200 22.22100
C  -0.16200 32.90700 22.83700
N  -3.14100 33.55200 27.27300
C  -3.60600 32.74600 26.24700
C  -4.38200 31.68100 26.75000
C  -4.28200 31.83800 28.17700
C  -3.52700 32.96600 28.44800
C  -5.13900 30.64200 25.99400
C  -4.69800 31.31000 29.49300
O  -5.30700 30.29300 29.69600
C  -4.19000 32.22500 30.62700
C  -5.25600 32.77300 31.38400
O  -6.09400 33.54000 30.89200
O  -5.20300 32.35000 32.64300
C  -6.20400 33.02300 33.57200
H  0.26900 37.61100 30.41800
H  0.21700 37.52800 23.99500
H  -3.68400 32.48300 24.12800
H  -3.25200 34.94900 32.35500
H  -0.58400 36.02700 32.31600
H  -2.80300 38.09800 31.54500
H  -1.39800 38.23300 32.61200
H  -2.85000 37.39900 33.10800
H  -0.55800 33.74400 32.54600
H  -1.83200 32.61800 32.19100
H  -2.49700 32.38600 34.24300
H  -3.02400 33.99000 34.23600
H  2.10800 38.56900 29.95700
H  1.77200 39.92300 28.96300
H  3.13800 38.76700 28.61600
H  2.60900 40.48100 26.78300
H  3.54200 40.44400 25.21400
H  4.00000 39.45800 26.68800
H  -0.85700 35.69200 22.25000
H  -3.34000 34.58400 22.41600
H  -2.32800 37.81800 22.74100
H  -3.71300 36.72400 22.40300
H  -2.48400 36.87300 21.17300
H  -1.16800 33.62500 21.22900
H  -2.10700 32.41600 22.12900
H  -0.34900 31.84200 22.98000
H  0.08300 33.37500 23.79000
H  0.55700 33.15100 22.05500
H  -4.55600 30.17200 25.20200
H  -5.94300 31.11100 25.42800
H  -5.54600 29.86300 26.63900
H  -3.58000 31.63700 31.31300
H  -5.52600 33.55400 34.24100
H  -6.71900 32.27500 34.17300
H  -7.05200 33.57500 33.16700

