158

Mg 41.23400 41.16300 26.88000
C  40.27200 43.58400 29.12100
C  42.06300 38.97500 29.36200
C  42.25200 38.75300 24.59100
C  40.71000 43.42900 24.26800
N  41.13700 41.28900 28.94100
C  40.61700 42.34300 29.70200
C  40.66900 41.92700 31.24500
C  41.40100 40.57100 31.30500
C  41.55600 40.25800 29.77200
C  42.65700 40.28800 32.17200
C  39.32000 42.05100 32.01300
C  39.44200 42.66900 33.38900
H  38.65200 42.11900 34.65000
N  41.96800 39.07900 26.95100
C  42.27400 38.45800 28.08900
C  42.66800 37.12000 27.73400
C  42.77600 37.00300 26.32500
C  42.29700 38.27300 25.86900
C  43.14500 36.21800 28.80000
C  43.29300 35.85200 25.48300
O  43.36800 35.91800 24.27700
C  43.75000 34.56400 26.10400
N  41.54100 41.17100 24.76900
C  41.81500 39.98900 24.09000
C  41.78700 40.29700 22.48200
C  41.21300 41.73400 22.46200
C  41.16200 42.16600 23.94600
C  43.17900 40.17700 21.88300
C  39.84900 41.82400 21.68400
C  38.60300 41.39000 22.54100
N  40.69800 43.17700 26.65200
C  40.49300 43.94800 25.54700
C  40.10800 45.30900 25.89200
C  39.97100 45.22000 27.34000
C  40.40700 43.92800 27.74800
C  39.91900 46.47300 24.94400
C  39.59400 45.91000 28.61600
O  39.14200 47.02100 28.85700
C  39.75600 44.87200 29.75500
C  40.78000 45.41200 30.59300
O  41.88200 45.92700 30.27900
O  40.19200 45.50000 31.82500
C  41.01600 46.32700 32.75700
H  42.31100 38.32900 30.20700
H  42.51600 38.13200 23.73200
H  40.23600 44.03500 23.49300
H  41.35700 42.65200 31.68000
H  40.65600 39.84400 31.62900
H  42.64200 40.93100 33.05300
H  43.61800 40.45800 31.68700
H  42.51200 39.32800 32.66700
H  38.94200 41.05100 32.22500
H  38.55600 42.48500 31.36800
H  39.12800 43.71300 33.39000
H  40.48900 42.64200 33.69200
H  43.18800 36.63400 29.80700
H  44.14200 35.85000 28.55900
H  42.41300 35.41100 28.83000
H  43.01400 33.97200 26.65000
H  44.71600 34.75600 26.57200
H  44.17100 34.01000 25.26500
H  41.17900 39.51900 22.02000
H  41.93600 42.40800 22.00100
H  43.38200 40.98900 21.18500
H  43.26700 39.23300 21.34600
H  43.92800 40.06900 22.66900
H  39.81600 41.24000 20.76400
H  39.74100 42.87700 21.42300
H  38.78000 41.19600 23.59900
H  38.20300 40.46200 22.13400
H  37.92100 42.23400 22.43400
H  38.88300 46.62400 24.64300
H  40.50900 46.34200 24.03600
H  40.37900 47.33800 25.42200
H  38.84100 44.71100 30.32500
H  42.08500 46.43700 32.57000
H  40.80200 46.08400 33.79800
H  40.67200 47.36100 32.73200
Mg 28.58300 57.87300 41.45800
C  26.05900 55.86600 40.08000
C  30.96400 55.84100 39.60800
C  31.07800 60.13000 41.99700
C  26.19900 59.97600 42.72500
N  28.51000 56.10900 39.95700
C  27.29900 55.52400 39.60400
C  27.56800 54.30700 38.73800
C  29.03700 54.04300 39.02800
C  29.58500 55.39300 39.58100
C  29.17700 52.83100 39.95100
C  27.31400 54.65900 37.27500
C  26.85500 53.49800 36.36100
H  26.11800 53.96700 35.09000
N  30.64500 58.01100 40.91000
C  31.40700 57.05600 40.19700
C  32.79200 57.49600 40.10500
C  32.87100 58.75700 40.78600
C  31.49900 58.96400 41.30100
C  33.80000 56.73300 39.34800
C  34.14600 59.62700 40.83700
O  35.17800 59.28800 40.23100
C  34.27800 60.86400 41.71500
N  28.60200 59.70900 42.31800
C  29.78900 60.48200 42.38100
C  29.42300 61.95800 42.76600
C  27.89700 61.83200 43.24300
C  27.50400 60.44300 42.75200
C  30.42800 62.61300 43.86100
C  27.11100 63.06300 42.60700
C  25.84000 63.44900 43.35000
N  26.54200 57.85800 41.50400
C  25.71100 58.80500 42.09800
C  24.35300 58.28300 42.01600
C  24.49300 57.06600 41.30200
C  25.78500 56.98200 40.91000
C  23.08900 58.88500 42.68700
C  23.68400 56.00100 40.72900
O  22.46100 55.86100 40.83400
C  24.70200 55.23300 39.85500
C  24.65800 53.78600 40.35000
O  24.89900 53.44500 41.49700
O  24.29400 52.99100 39.33400
C  24.27100 51.61100 39.67400
H  31.69400 55.19900 39.11200
H  31.91000 60.76000 42.31700
H  25.48700 60.69800 43.12800
H  26.96200 53.42800 38.95900
H  29.63100 53.82700 38.14000
H  28.27300 52.59100 40.51000
H  29.86600 53.16500 40.72600
H  29.68400 51.93900 39.58300
H  28.10900 55.18700 36.74900
H  26.42900 55.29700 37.28200
H  26.29200 52.81100 36.99200
H  27.70400 52.91100 36.00800
H  33.71300 57.21800 38.37600
H  33.59600 55.67300 39.19900
H  34.83300 56.66400 39.69100
H  33.53700 61.61300 41.43800
H  35.28700 61.23500 41.54100
H  34.28000 60.43000 42.71500
H  29.61100 62.52200 41.85300
H  27.83600 61.71500 44.32500
H  30.30600 63.69600 43.84400
H  31.46000 62.29800 43.70300
H  30.02000 62.21800 44.79100
H  26.94500 62.79500 41.56300
H  27.82700 63.88400 42.56800
H  25.07400 63.54300 42.58100
H  25.84300 64.45500 43.77100
H  25.56500 62.79600 44.17800
H  23.12200 58.78200 43.77200
H  22.20400 58.44000 42.23100
H  23.08900 59.96100 42.51200
H  24.36800 55.27600 38.81800
H  25.28900 51.27200 39.86600
H  23.82500 51.02100 38.87300
H  23.65100 51.45600 40.55700

