158

Mg -12.50800 38.18000 40.75100
C  -10.73200 35.41800 39.85100
C  -10.25300 40.08800 38.80300
C  -14.60600 40.90700 40.86700
C  -14.98300 36.20400 41.99300
N  -10.71900 37.79300 39.43900
C  -10.14300 36.56700 39.33300
C  -8.87200 36.57800 38.49600
C  -8.51600 38.09700 38.50700
C  -9.87900 38.76800 38.95400
C  -7.39200 38.63100 39.50900
C  -9.09100 36.12400 37.04800
C  -7.90800 35.35000 36.51100
H  -6.91800 36.17000 35.62000
N  -12.37300 40.26300 40.10800
C  -11.37900 40.77600 39.32400
C  -11.61800 42.21700 39.12300
C  -12.92900 42.51400 39.73200
C  -13.35100 41.19800 40.28200
C  -10.63900 43.14700 38.22800
C  -13.59900 43.84600 39.73900
O  -13.02600 44.77400 39.17800
C  -14.85300 44.19700 40.43000
N  -14.55700 38.53700 41.31500
C  -15.17700 39.72100 41.32000
C  -16.59400 39.63400 41.87000
C  -16.62900 38.18000 42.31800
C  -15.36500 37.54700 41.78000
C  -16.95900 40.61300 43.03800
C  -17.88500 37.39300 42.11800
C  -18.93700 37.64700 43.14200
N  -12.75400 36.23200 41.02100
C  -13.75900 35.56500 41.63600
C  -13.40200 34.13100 41.79900
C  -12.26000 34.04000 41.03700
C  -11.92200 35.33900 40.62200
C  -14.19500 33.05400 42.42300
C  -11.29000 33.14000 40.57700
O  -11.25100 31.94500 40.79200
C  -10.22300 33.89500 39.71000
C  -8.87100 33.67100 40.38800
O  -8.02600 32.88900 39.92700
O  -8.68200 34.50000 41.49000
C  -7.44400 34.39100 42.10900
H  -9.67100 40.67100 38.08500
H  -15.23200 41.79900 40.80100
H  -15.51300 35.59500 42.72800
H  -7.92900 36.19100 38.88300
H  -8.29200 38.50200 37.52100
H  -7.88300 39.03200 40.39500
H  -6.77800 39.36700 38.99000
H  -6.81500 37.76400 39.83300
H  -9.26600 36.92800 36.33400
H  -9.95900 35.46500 37.06900
H  -8.39800 34.64200 35.84300
H  -7.31100 34.74700 37.19500
H  -9.62100 42.75800 38.26400
H  -10.57800 44.19600 38.51900
H  -11.07500 43.19000 37.23000
H  -15.46400 43.61400 39.74000
H  -15.02700 45.27300 40.43800
H  -14.89200 43.98500 41.49800
H  -17.39400 39.81100 41.15000
H  -16.42600 38.13200 43.38800
H  -17.12500 40.12000 43.99600
H  -17.94900 41.00000 42.79500
H  -16.21900 41.41200 43.08300
H  -17.67500 36.34700 41.89600
H  -18.21900 37.71100 41.13000
H  -19.46000 36.69100 43.12000
H  -19.63000 38.45500 42.90700
H  -18.45800 37.80700 44.10800
H  -15.23400 33.29200 42.65200
H  -13.62700 32.73700 43.29700
H  -14.21400 32.16800 41.78800
H  -10.17700 33.57200 38.67000
H  -6.56300 34.49900 41.47600
H  -7.41900 33.46300 42.68000
H  -7.49400 35.26100 42.76200
Mg -1.45600 33.85000 26.32600
C  -3.46700 32.21100 28.70300
C  -0.27900 35.77800 28.74500
C  0.21000 35.62800 23.93700
C  -2.87600 31.70800 23.86000
N  -1.88700 33.97400 28.45000
C  -2.73400 33.25500 29.29900
C  -2.52700 33.66100 30.76200
C  -1.63500 34.87000 30.66600
C  -1.25400 34.90600 29.20000
C  -2.27100 36.19600 31.08800
C  -1.92900 32.58500 31.64000
C  -2.80200 32.15700 32.83800
H  -2.28700 32.09900 34.24100
N  -0.20900 35.55100 26.32900
C  0.25300 36.07900 27.45100
C  1.19400 37.22300 27.11600
C  1.22200 37.23900 25.66500
C  0.31900 36.10700 25.20800
C  1.79400 38.08200 28.14100
C  2.03300 38.08400 24.80800
O  1.96900 38.13000 23.57300
C  3.16200 38.94600 25.37800
N  -1.41500 33.77600 24.16700
C  -0.48300 34.48300 23.53700
C  -0.56900 34.13400 22.07600
C  -1.54000 32.92500 22.00700
C  -2.02100 32.78800 23.39900
C  -1.05000 35.33100 21.20500
C  -0.96200 31.67600 21.35100
C  0.03000 30.90900 22.15500
N  -2.72100 32.25700 26.29500
C  -3.24100 31.46900 25.21700
C  -4.24900 30.55100 25.70500
C  -4.27900 30.81200 27.06900
C  -3.37500 31.81900 27.38200
C  -5.04500 29.62900 24.89400
C  -5.05200 30.39000 28.26200
O  -5.94600 29.58400 28.38400
C  -4.43000 31.34600 29.39900
C  -5.50600 32.01300 30.13200
O  -5.87500 33.21100 29.86200
O  -5.74900 31.32400 31.27300
C  -6.63500 31.88400 32.39400
H  0.21000 36.38100 29.51300
H  0.82500 36.11000 23.17400
H  -3.35700 31.10600 23.08700
H  -3.51400 33.92500 31.14200
H  -0.70900 34.85900 31.24000
H  -1.69900 36.73900 31.84000
H  -3.34300 36.18700 31.28700
H  -2.28400 36.85600 30.22100
H  -0.92600 32.78700 32.01500
H  -1.86200 31.72400 30.97500
H  -3.08000 31.11000 32.72200
H  -3.71200 32.75700 32.83800
H  2.79100 37.75100 28.43200
H  1.14600 38.13100 29.01600
H  1.85500 39.11800 27.80500
H  3.80800 38.37500 26.04400
H  2.68800 39.77300 25.90800
H  3.73800 39.32800 24.53500
H  0.43000 33.84800 21.74900
H  -2.44700 33.09900 21.42800
H  -0.30400 36.10100 21.00700
H  -1.72400 35.77700 21.93700
H  -1.61000 34.99900 20.33200
H  -0.32700 31.99300 20.52300
H  -1.83200 31.14500 20.96300
H  -0.62400 30.15400 22.59200
H  0.40700 31.42200 23.03900
H  0.86900 30.52700 21.57300
H  -4.35300 29.20100 24.16900
H  -5.66800 30.23100 24.23200
H  -5.61100 28.97800 25.56000
H  -3.97900 30.62700 30.08200
H  -7.61400 32.21600 32.04700
H  -6.16900 32.82700 32.68100
H  -6.72700 31.23500 33.26500

