158

Mg -2.55600 16.99200 27.10800
C  -3.19800 14.65900 29.73000
C  -2.71300 19.39600 29.45500
C  -2.27300 19.27000 24.64400
C  -2.53900 14.41900 24.80700
N  -3.04100 16.94200 29.39300
C  -3.23100 15.95000 30.29000
C  -3.27100 16.42100 31.75300
C  -3.26600 18.04400 31.48100
C  -2.98500 18.14500 30.00100
C  -4.35600 18.92800 32.14300
C  -2.18800 15.86900 32.77300
C  -2.09000 16.88500 33.93500
H  -1.63900 16.29000 35.26400
N  -2.50900 19.06300 27.10400
C  -2.45900 19.88100 28.18900
C  -2.25700 21.27400 27.70900
C  -2.05200 21.22900 26.32000
C  -2.29100 19.81200 25.97200
C  -2.23000 22.45700 28.73800
C  -1.56400 22.31100 25.46100
O  -1.72800 22.34400 24.25900
C  -1.04800 23.51100 26.00900
N  -2.62500 16.83600 25.03200
C  -2.36200 17.92800 24.25100
C  -2.22700 17.56600 22.79800
C  -2.12400 16.01200 22.87000
C  -2.44600 15.70400 24.30800
C  -3.35800 18.17900 21.91600
C  -0.80300 15.47100 22.31400
C  0.45600 15.58700 23.18800
N  -2.87000 15.03100 27.18600
C  -2.81600 14.13000 26.15300
C  -3.15400 12.82400 26.64600
C  -3.20000 12.96700 28.03400
C  -3.06700 14.35500 28.34200
C  -3.00900 11.49800 25.89900
C  -3.16500 12.17000 29.25900
O  -3.10400 11.00300 29.42100
C  -3.43300 13.28800 30.35800
C  -2.38900 13.04800 31.38900
O  -1.19000 13.27500 31.19900
O  -2.87200 12.53300 32.56900
C  -1.85700 12.32700 33.63600
H  -2.91700 20.21700 30.14600
H  -2.07800 19.98800 23.84500
H  -2.45200 13.58400 24.10900
H  -4.29900 16.21300 32.05100
H  -2.26800 18.42200 31.70100
H  -4.86500 19.48500 31.35600
H  -3.90500 19.54600 32.91900
H  -5.13800 18.35900 32.64500
H  -1.24000 15.96900 32.24500
H  -2.26200 14.86800 33.19800
H  -3.05900 17.32500 34.17400
H  -1.32900 17.59100 33.60400
H  -2.74200 23.28300 28.24500
H  -1.21000 22.82200 28.85400
H  -2.68700 22.10800 29.66500
H  -1.74900 24.14200 26.55500
H  -0.77100 24.13100 25.15700
H  -0.16800 23.34400 26.63100
H  -1.29700 18.00100 22.43100
H  -2.93300 15.60600 22.26300
H  -3.84400 18.97400 22.48000
H  -3.99100 17.39300 21.50100
H  -2.82500 18.54200 21.03700
H  -0.65600 15.93700 21.33900
H  -0.93900 14.41500 22.08100
H  0.34700 16.21100 24.07500
H  1.24000 16.05100 22.59000
H  0.89200 14.61900 23.43800
H  -2.75400 11.68900 24.85600
H  -3.91400 10.92100 26.08200
H  -2.18700 10.99400 26.40700
H  -4.43300 13.24200 30.78900
H  -2.29700 11.43900 34.09000
H  -1.85300 13.07000 34.43400
H  -0.84300 12.01700 33.38400
Mg 16.20600 -2.18200 27.57600
C  14.79600 -0.59200 30.37500
C  18.11400 -4.02100 29.75800
C  17.60900 -3.77600 24.90400
C  14.32900 -0.21200 25.49600
N  16.50500 -2.22700 29.80100
C  15.79700 -1.53800 30.79200
C  16.38300 -1.71200 32.20700
C  17.51500 -2.69500 31.83200
C  17.42000 -2.97100 30.36100
C  18.95100 -2.28600 32.34300
C  15.33300 -2.16300 33.16400
C  15.19700 -1.41800 34.50800
H  16.51100 -0.81800 35.02600
N  17.66500 -3.65500 27.38000
C  18.30000 -4.34400 28.43400
C  19.20300 -5.29800 27.95900
C  18.97700 -5.37400 26.51600
C  18.01400 -4.24300 26.19800
C  20.12700 -6.04900 28.79500
C  19.51000 -6.30900 25.46200
O  19.10300 -6.19800 24.26500
C  20.40600 -7.44200 25.89200
N  16.01300 -2.06800 25.44000
C  16.69900 -2.79000 24.51000
C  16.35800 -2.17400 23.09000
C  15.07900 -1.31400 23.35700
C  15.10300 -1.19100 24.87400
C  17.61400 -1.44600 22.56800
C  13.66800 -1.79500 22.69700
C  13.23100 -1.26800 21.27900
N  14.84700 -0.74100 27.79200
C  14.12200 -0.01000 26.88400
C  13.16200 0.87400 27.54600
C  13.48100 0.67800 28.91700
C  14.49000 -0.29100 29.01000
C  12.17400 1.70700 26.90300
C  13.02400 1.12200 30.21500
O  12.25200 2.00700 30.52400
C  13.87600 0.35200 31.15100
C  14.65500 1.26400 31.93900
O  15.69700 1.78700 31.65700
O  13.98000 1.54500 33.06800
C  14.63600 2.48600 34.03100
H  18.60200 -4.66500 30.49200
H  18.13500 -4.17800 24.03500
H  13.76100 0.50000 24.89300
H  16.90100 -0.80300 32.51300
H  17.33500 -3.64800 32.33000
H  19.04300 -1.25400 32.68100
H  19.70400 -2.49600 31.58300
H  19.28000 -2.84200 33.22200
H  15.53400 -3.22500 33.30900
H  14.34400 -2.11800 32.70800
H  14.78900 -2.00500 35.33100
H  14.40300 -0.69500 34.31900
H  19.50300 -6.38900 29.62100
H  20.83500 -5.28400 29.11200
H  20.60400 -6.91000 28.32600
H  19.97800 -7.98500 26.73400
H  21.43000 -7.10700 26.06100
H  20.27300 -8.18200 25.10300
H  16.16900 -2.97800 22.37800
H  15.33900 -0.35000 22.92100
H  18.17500 -2.02900 21.83900
H  18.29100 -1.29700 23.40900
H  17.36600 -0.50000 22.08700
H  12.81700 -1.74900 23.37700
H  13.77800 -2.86100 22.49900
H  12.26900 -0.84200 21.56500
H  13.22400 -2.04300 20.51400
H  13.94600 -0.56100 20.85900
H  12.27600 1.71300 25.81800
H  12.23600 2.67900 27.39200
H  11.16300 1.35300 27.10700
H  13.27100 -0.27700 31.80500
H  14.49400 3.49600 33.64700
H  15.69600 2.25500 34.13400
H  14.05100 2.42800 34.94800

