158

Mg 44.71100 4.51600 48.16200
C  42.24100 6.88200 47.47400
C  42.25600 1.98800 48.17900
C  47.11100 2.16700 48.27000
C  47.20600 6.95600 47.60800
N  42.49300 4.48200 47.79200
C  41.73100 5.55800 47.60600
C  40.30000 5.16300 47.38500
C  40.19100 3.62800 47.78100
C  41.71900 3.27400 47.93100
C  39.38700 3.40500 49.10700
C  40.05400 5.38300 45.83400
C  39.00300 6.44600 45.51300
H  39.32000 7.36600 44.31900
N  44.67800 2.32700 48.24100
C  43.60100 1.51100 48.23400
C  44.08900 0.16500 48.21200
C  45.51400 0.13000 48.19900
C  45.85600 1.58200 48.26500
C  43.05100 -1.01900 47.97800
C  46.33200 -1.14000 48.12700
O  45.78500 -2.24800 48.08400
C  47.86600 -1.12300 48.11000
N  46.85400 4.59200 47.65200
C  47.54500 3.51400 48.15900
C  49.04200 3.77300 48.38400
C  49.11200 5.33900 48.07000
C  47.66200 5.66800 47.79000
C  49.72100 3.34500 49.73300
C  50.08100 5.92900 46.99700
C  51.45800 6.22100 47.42600
N  44.71000 6.50100 47.68100
C  45.88800 7.40600 47.57100
C  45.27100 8.74400 47.35400
C  43.87000 8.54000 47.46200
C  43.56500 7.17700 47.55800
C  46.00900 9.99200 46.93700
C  42.65000 9.23700 47.32900
O  42.44400 10.43200 47.08600
C  41.53200 8.19100 47.33000
C  40.58200 8.50000 48.43100
O  40.57700 8.00500 49.53900
O  39.62900 9.37600 47.94100
C  38.67900 9.92700 48.95200
H  41.45400 1.25600 48.07000
H  47.94300 1.52300 48.56000
H  48.02800 7.67500 47.61000
H  39.58300 5.81700 47.88200
H  39.82900 3.00700 46.96200
H  38.68800 2.60000 48.88000
H  38.87200 4.33000 49.36400
H  39.96200 3.04400 49.96000
H  39.67900 4.45900 45.39300
H  41.00900 5.66600 45.39200
H  38.69500 6.95900 46.42500
H  38.14700 5.93400 45.07400
H  43.32600 -1.61700 47.10900
H  42.02200 -0.70300 47.81000
H  43.11200 -1.55100 48.92700
H  48.24000 -0.55300 47.26000
H  48.34600 -2.10200 48.09700
H  48.04100 -0.54000 49.01400
H  49.62200 3.24200 47.63000
H  49.45200 5.67300 49.05100
H  50.48200 4.07100 50.01900
H  50.37100 2.51600 49.45400
H  49.11400 3.14100 50.61500
H  49.58700 6.72900 46.44500
H  50.13100 5.08200 46.31400
H  51.71600 7.24800 47.17000
H  52.21000 5.65400 46.87900
H  51.72600 6.03800 48.46700
H  46.85000 10.31100 47.55300
H  45.25700 10.78200 46.93500
H  46.42900 9.68500 45.97900
H  41.19400 8.15500 46.29500
H  37.70900 10.30800 48.63000
H  39.21800 10.78700 49.35100
H  38.51200 9.28000 49.81300
Mg 50.18700 46.70700 42.86500
C  46.94500 47.26300 41.53900
C  50.25200 43.78200 41.21000
C  53.23500 46.45900 43.83700
C  50.18200 50.18300 43.75800
N  48.81800 45.69600 41.43100
C  47.50600 45.98800 41.20600
C  46.75500 44.98700 40.40200
C  47.67500 43.77500 40.60800
C  48.99700 44.41500 41.11000
C  47.16600 42.63100 41.55200
C  46.61800 45.45100 38.89000
C  45.27100 45.74400 38.34100
H  44.70500 44.63300 37.39200
N  51.58700 45.30200 42.51100
C  51.46000 44.12200 41.81800
C  52.64700 43.27700 42.07400
C  53.53400 44.04300 42.87200
C  52.83400 45.32200 43.08800
C  52.88900 41.89400 41.51900
C  54.92800 43.59700 43.41200
O  55.32900 42.46700 43.21100
C  55.73000 44.48200 44.36400
N  51.54800 48.21400 43.48300
C  52.76300 47.75700 43.90100
C  53.72700 48.84500 44.42300
C  52.64900 50.05600 44.47200
C  51.35800 49.47100 43.88800
C  54.52400 48.43200 45.71200
C  53.15900 51.30400 43.60500
C  53.43100 52.59100 44.33500
N  48.84900 48.42200 42.67500
C  49.00400 49.76200 43.06300
C  47.83200 50.52200 42.76300
C  46.92600 49.59400 42.22500
C  47.64800 48.33600 42.11700
C  47.63900 51.92800 43.03800
C  45.65300 49.42100 41.57900
O  44.66200 50.11800 41.36800
C  45.58200 47.85600 41.20600
C  44.42500 47.23200 41.80500
O  44.25400 46.93300 42.99500
O  43.39600 47.15600 40.86100
C  42.10100 46.77400 41.32500
H  50.30800 42.77400 40.79400
H  54.30300 46.44600 44.06300
H  50.19000 51.20800 44.13400
H  45.81800 44.70200 40.88100
H  47.91500 43.35200 39.63300
H  46.17800 42.85400 41.95300
H  47.87100 42.52100 42.37700
H  46.96200 41.80100 40.87600
H  47.22900 44.70100 38.38700
H  47.18600 46.37500 38.77900
H  45.35700 46.71900 37.86100
H  44.44800 45.84600 39.04800
H  53.95100 41.78200 41.29700
H  52.36800 41.61300 40.60400
H  52.64200 41.16000 42.28600
H  55.20800 44.79300 45.26900
H  55.89500 45.37800 43.76600
H  56.69900 44.08200 44.66300
H  54.49200 48.97500 43.65800
H  52.51200 50.34600 45.51400
H  54.39600 49.25500 46.41500
H  55.58900 48.37900 45.48500
H  54.19800 47.51800 46.20800
H  52.44900 51.58100 42.82500
H  54.14500 51.11300 43.18100
H  54.48600 52.85500 44.26400
H  53.13200 52.44400 45.37300
H  52.80300 53.40700 43.97800
H  48.46400 52.30600 43.64000
H  46.78800 52.04900 43.70800
H  47.52400 52.44300 42.08400
H  45.51300 47.86200 40.11800
H  42.24400 45.87100 41.91800
H  41.50500 46.62700 40.42400
H  41.48600 47.44700 41.92300

