158

Mg 3.06200 -2.23000 44.04100
C  6.24000 -0.71300 43.72300
C  1.82800 0.21100 41.86500
C  0.30700 -3.92700 43.76400
C  4.78900 -5.02300 45.38000
N  4.01700 -0.54000 42.84300
C  5.24300 -0.02100 43.03100
C  5.41900 1.36100 42.40800
C  3.93300 1.67600 42.07300
C  3.19000 0.33900 42.32300
C  3.29500 2.81600 42.97200
C  6.42600 1.40300 41.18500
C  6.49500 0.16400 40.16000
H  5.88700 0.51700 38.77900
N  1.20100 -1.87800 43.12800
C  0.89600 -0.80400 42.32200
C  -0.45700 -0.99300 41.81000
C  -0.92600 -2.23000 42.26400
C  0.14400 -2.71200 43.18300
C  -1.07900 0.00900 40.86700
C  -2.31100 -2.81000 41.95000
O  -3.07400 -2.26300 41.22700
C  -2.77500 -4.24200 42.48300
N  2.56700 -4.12500 44.66900
C  1.32200 -4.62900 44.48900
C  1.12500 -6.04100 45.19400
C  2.60300 -6.41300 45.52000
C  3.36200 -5.11200 45.16400
C  0.15000 -5.99300 46.40900
C  3.23800 -7.66500 44.89700
C  3.83100 -8.66100 45.89200
N  5.13100 -2.72300 44.61900
C  5.65900 -3.96300 45.05100
C  7.02100 -3.85700 45.27300
C  7.31300 -2.57000 44.86100
C  6.15100 -1.91400 44.35800
C  7.92200 -4.95100 45.83000
C  8.37000 -1.64100 44.61200
O  9.55200 -1.61900 44.90500
C  7.77400 -0.37000 43.86500
C  8.09600 0.96600 44.54100
O  8.81500 1.88000 44.04100
O  7.70300 0.95000 45.84000
C  8.03800 2.09300 46.65300
H  1.45000 0.98900 41.19900
H  -0.55800 -4.59300 43.80100
H  5.28300 -5.89600 45.81300
H  5.73600 2.21200 43.01100
H  3.79700 1.93300 41.02300
H  2.65600 2.24600 43.64700
H  2.81300 3.60400 42.39400
H  3.97000 3.33200 43.65500
H  7.38200 1.80300 41.52300
H  6.06400 2.24700 40.59600
H  5.82100 -0.56900 40.60400
H  7.47200 -0.30200 40.03600
H  -1.75500 0.68300 41.39400
H  -1.50700 -0.48200 39.99300
H  -0.28100 0.57800 40.39000
H  -2.02000 -4.89800 42.04900
H  -3.74100 -4.54700 42.08100
H  -2.87700 -4.31800 43.56500
H  0.78900 -6.78900 44.47500
H  2.71000 -6.39300 46.60400
H  -0.63600 -6.74200 46.31000
H  -0.30300 -5.01700 46.58300
H  0.63900 -6.13700 47.37200
H  4.11200 -7.41700 44.29600
H  2.59300 -8.19800 44.19800
H  3.17700 -9.52100 46.03200
H  4.03500 -8.28300 46.89400
H  4.82100 -9.04700 45.64900
H  7.71600 -5.82600 45.21400
H  7.64100 -5.26400 46.83600
H  8.95900 -4.65500 45.99000
H  8.26400 -0.20500 42.90600
H  7.62100 1.84900 47.63000
H  7.51200 2.97100 46.27900
H  9.10700 2.29600 46.70700
Mg 8.69000 2.29400 27.70900
C  10.09900 0.60700 30.53900
C  7.27500 4.49300 29.83700
C  6.95100 3.42300 25.15200
C  9.93300 -0.40400 25.68800
N  8.64500 2.44800 29.85000
C  9.32900 1.74500 30.79300
C  9.27100 2.35000 32.15300
C  8.19700 3.37400 31.94800
C  8.07800 3.51100 30.43600
C  6.86000 3.24100 32.78800
C  10.60300 2.93500 32.62600
C  10.92900 2.82700 34.10100
H  9.85300 2.80000 35.23600
N  7.33200 3.76700 27.51200
C  6.93000 4.63300 28.47100
C  6.12000 5.63200 27.95300
C  6.06900 5.44700 26.54300
C  6.74300 4.10200 26.35700
C  5.30200 6.66700 28.78300
C  5.38600 6.32800 25.40200
O  5.27600 5.98900 24.20700
C  4.79300 7.68700 25.83000
N  8.39700 1.53200 25.63600
C  7.68600 2.24600 24.81800
C  7.84300 1.70200 23.35700
C  8.82200 0.54600 23.59000
C  9.18700 0.61800 24.99600
C  6.49800 1.38300 22.67200
C  10.12900 0.69400 22.72000
C  10.50700 -0.44700 21.78200
N  9.75000 0.46500 27.97800
C  10.11400 -0.51500 27.09500
C  10.82100 -1.53700 27.84100
C  10.88800 -1.08200 29.20400
C  10.16900 0.07700 29.23100
C  11.48900 -2.76300 27.24700
C  11.43400 -1.40000 30.51200
O  12.21600 -2.26900 30.82200
C  10.96400 -0.24700 31.41600
C  10.02400 -0.80300 32.45100
O  8.86200 -1.11200 32.17700
O  10.57100 -0.82400 33.74700
C  9.61700 -1.19600 34.79300
H  7.00500 5.29700 30.52500
H  6.41600 3.89300 24.32300
H  10.30000 -1.21800 25.05900
H  8.93700 1.60800 32.87800
H  8.53200 4.33000 32.35300
H  5.97500 2.99200 32.20200
H  6.70900 4.22400 33.23500
H  7.00400 2.41500 33.48400
H  10.66500 4.00900 32.45500
H  11.40200 2.36100 32.15600
H  11.70500 3.54000 34.37800
H  11.34100 1.81800 34.13000
H  5.79000 7.57800 28.43600
H  5.41300 6.50500 29.85500
H  4.26400 6.65200 28.45100
H  5.57100 8.42400 26.02800
H  4.01900 7.50500 26.57600
H  4.24400 8.12200 24.99400
H  8.21200 2.52100 22.73900
H  8.40900 -0.45500 23.46600
H  6.54400 0.39900 22.20500
H  6.24900 2.10400 21.89300
H  5.69200 1.34900 23.40400
H  11.00600 0.75600 23.36500
H  10.21300 1.61200 22.13800
H  9.65600 -1.10700 21.61200
H  11.35100 -1.08900 22.03600
H  10.83000 -0.00700 20.83900
H  12.46700 -2.44400 26.88700
H  10.82300 -3.28500 26.56000
H  11.69100 -3.54100 27.98300
H  11.82500 0.29800 31.80400
H  9.16500 -2.18200 34.69000
H  9.00600 -0.29400 34.83600
H  10.24500 -1.18900 35.68300

