158

Mg 48.17100 15.72200 28.94900
C  46.02300 15.62800 31.61400
C  50.24800 17.76500 30.65700
C  50.07600 16.08700 26.17100
C  45.70400 14.14300 26.95800
N  48.16500 16.51300 30.89900
C  47.22000 16.38400 31.85600
C  47.74600 16.84100 33.25900
C  49.02100 17.76300 32.86900
C  49.16000 17.37100 31.35400
C  48.79000 19.31500 32.93500
C  48.08900 15.61100 34.14400
C  47.89200 15.73500 35.69100
H  47.33500 17.05700 36.16700
N  49.95900 16.72400 28.54700
C  50.73300 17.40000 29.41800
C  51.98600 17.66700 28.84200
C  51.95500 17.29900 27.49700
C  50.54800 16.73700 27.32300
C  53.10800 18.19500 29.62700
C  53.10500 17.35900 26.45300
O  52.93700 16.85800 25.32700
C  54.36900 18.04800 26.71500
N  47.96600 15.19800 26.90600
C  48.84700 15.59200 25.91800
C  48.43500 15.05600 24.51300
C  47.13000 14.23000 24.86700
C  46.87400 14.53000 26.37200
C  48.31600 16.20500 23.53600
C  47.30200 12.70700 24.74500
C  46.53300 12.15000 23.52000
N  46.29500 15.09500 29.21500
C  45.43300 14.45900 28.30100
C  44.18700 14.20600 29.00300
C  44.38500 14.60600 30.34200
C  45.69600 15.10900 30.40700
C  43.01100 13.68000 28.31800
C  43.74100 14.56300 31.64200
O  42.65900 14.02700 31.96600
C  44.88300 15.24900 32.61800
C  44.23800 16.36600 33.38100
O  44.32700 17.56700 33.11100
O  43.60500 15.86100 34.50300
C  42.88900 16.85400 35.27300
H  50.85900 18.38400 31.31700
H  50.69100 16.18200 25.27300
H  44.96200 13.60400 26.36500
H  47.03300 17.55900 33.66700
H  49.91500 17.35400 33.34100
H  49.30400 19.87800 33.71300
H  47.74900 19.33500 33.25800
H  48.85200 19.78300 31.95200
H  49.15500 15.39300 34.08000
H  47.45900 14.78300 33.82000
H  48.85400 15.47400 36.13200
H  47.18800 14.93800 35.93100
H  53.95900 17.51400 29.64700
H  52.83800 18.42500 30.65700
H  53.37100 19.22600 29.38600
H  54.17100 19.08000 27.00500
H  54.87400 18.20200 25.76100
H  55.04300 17.55900 27.41800
H  49.31100 14.45200 24.27600
H  46.28300 14.60000 24.28900
H  47.32000 16.33400 23.11200
H  48.90600 15.88900 22.67600
H  48.65900 17.17700 23.88900
H  46.85800 12.17900 25.58900
H  48.34700 12.42600 24.61900
H  46.90400 11.13100 23.40200
H  46.53700 12.84500 22.68000
H  45.50600 11.90400 23.79100
H  43.13500 12.63900 28.02000
H  42.85100 14.24600 27.40000
H  42.08400 13.91000 28.84300
H  45.26000 14.57700 33.38900
H  41.93700 17.02300 34.77000
H  43.35600 17.83900 35.27500
H  42.80400 16.48700 36.29600
Mg 16.18800 52.20600 26.29800
C  18.19300 51.37800 29.09300
C  13.65600 52.93000 28.57300
C  14.52300 53.28000 23.78900
C  18.79400 51.08800 24.25500
N  16.01800 52.29600 28.63200
C  16.91700 51.79300 29.49900
C  16.32600 51.93100 30.99700
C  14.75200 52.17600 30.73100
C  14.74000 52.46900 29.24300
C  13.88200 50.95800 31.17100
C  16.95200 53.23300 31.62000
C  17.53900 52.99500 33.09600
H  16.60600 52.26200 34.12700
N  14.31300 52.99300 26.13500
C  13.44500 53.23000 27.13900
C  12.28800 53.85400 26.59400
C  12.54500 54.06000 25.24400
C  13.84200 53.47700 24.99400
C  11.13500 54.45800 27.46100
C  11.75700 54.86600 24.16000
O  12.07200 54.93000 22.98300
C  10.45300 55.38600 24.50600
N  16.66200 52.12900 24.30200
C  15.76700 52.70600 23.40500
C  16.29300 52.63200 21.95500
C  17.72300 52.10100 22.20000
C  17.74200 51.74900 23.72100
C  15.33700 51.80300 20.88500
C  18.88100 53.12000 21.83900
C  20.22300 52.50000 21.47300
N  18.05500 51.29900 26.54900
C  18.98100 50.95200 25.61800
C  20.16800 50.47900 26.31200
C  19.87200 50.64500 27.66000
C  18.61300 51.20100 27.76000
C  21.29600 49.87000 25.70800
C  20.41700 50.50500 29.05100
O  21.49500 50.07400 29.48200
C  19.35100 51.01700 29.99800
C  18.98400 49.81300 30.83200
O  18.28000 48.86900 30.45200
O  19.37800 50.07100 32.10500
C  18.67400 49.20100 33.02900
H  12.75400 53.18000 29.13600
H  14.03000 53.66900 22.89500
H  19.55300 50.79300 23.52700
H  16.50100 50.98800 31.51500
H  14.34300 53.09500 31.14900
H  13.08200 50.73100 30.46700
H  13.40100 51.20900 32.11600
H  14.45400 50.03600 31.28000
H  16.21500 54.03200 31.69900
H  17.77800 53.64400 31.03900
H  17.85400 53.94700 33.52300
H  18.44900 52.39800 33.03700
H  11.14100 54.12400 28.49900
H  10.20800 54.11800 26.99900
H  11.18600 55.54400 27.53500
H  9.78400 55.65600 23.68800
H  10.50700 56.23500 25.18800
H  9.97900 54.51000 24.94700
H  16.30200 53.63100 21.51800
H  17.86100 51.21000 21.58800
H  14.64400 51.17200 21.44100
H  15.93000 51.31900 20.10900
H  14.71200 52.58500 20.45300
H  19.15200 53.79400 22.65000
H  18.58900 53.79400 21.03400
H  20.09800 51.56500 20.92600
H  20.77400 52.30900 22.39400
H  20.79900 53.17800 20.84400
H  21.02500 49.07200 25.01600
H  21.92900 49.44600 26.48800
H  21.86200 50.58200 25.10800
H  19.65700 51.80800 30.68300
H  18.89800 49.76100 33.93600
H  19.04300 48.18700 33.18400
H  17.62700 49.15300 32.72700

