158

Mg 34.35000 2.28300 29.82300
C  31.92100 3.51600 32.13000
C  36.60300 2.43800 32.54100
C  36.67600 1.36800 27.65500
C  32.02700 2.86500 27.15000
N  34.21200 2.78800 32.00600
C  33.13200 3.26800 32.69200
C  33.40700 3.44900 34.16700
C  34.95800 3.46400 34.21400
C  35.26400 2.84100 32.83600
C  35.55500 4.85100 34.30200
C  32.77800 2.23800 34.96800
C  33.17100 1.99700 36.36100
H  33.60100 3.12200 37.31100
N  36.30900 1.81700 30.09600
C  37.05500 1.88100 31.25900
C  38.38400 1.45100 30.96700
C  38.46000 1.17300 29.56100
C  37.11700 1.43200 29.04700
C  39.45100 1.15600 32.02600
C  39.62300 0.73400 28.66300
O  39.42800 0.43500 27.51100
C  41.09900 0.65200 29.19000
N  34.34300 2.18000 27.74600
C  35.38100 1.77600 27.06900
C  35.19300 1.75000 25.52400
C  33.70200 1.88000 25.49700
C  33.32200 2.45800 26.84500
C  35.98000 2.88200 24.72700
C  32.82400 0.56400 25.12600
C  32.73400 0.31200 23.64900
N  32.35600 2.96300 29.64200
C  31.59200 3.23900 28.50700
C  30.20900 3.55700 28.96300
C  30.35900 3.67000 30.35200
C  31.67500 3.33400 30.73900
C  28.93600 3.92400 28.06600
C  29.53900 3.99200 31.53800
O  28.34900 4.16500 31.75400
C  30.58100 4.00400 32.72300
C  30.61200 5.37300 33.37800
O  30.78500 6.41000 32.77900
O  30.47000 5.20000 34.77000
C  30.76600 6.37600 35.59500
H  37.37400 2.57900 33.30200
H  37.45500 1.22000 26.90400
H  31.29000 2.93200 26.34700
H  32.85800 4.30700 34.55500
H  35.32500 2.91300 35.08000
H  34.74700 5.57800 34.22100
H  36.31300 5.09200 33.55700
H  35.90500 5.02500 35.31900
H  32.96500 1.31700 34.41600
H  31.70300 2.40100 34.89200
H  34.05100 1.37300 36.20600
H  32.56500 1.26800 36.89900
H  40.28100 1.86100 31.97200
H  39.83500 0.13600 32.04300
H  39.16000 1.23900 33.07300
H  41.33900 1.69000 29.42000
H  41.72200 0.28300 28.37600
H  41.17800 0.14300 30.15100
H  35.54500 0.81500 25.09000
H  33.44500 2.54900 24.67600
H  35.27700 3.22800 23.96900
H  36.85000 2.43300 24.24900
H  36.24100 3.72500 25.36700
H  31.79700 0.64200 25.48300
H  33.32400 -0.20900 25.70900
H  32.92300 -0.75000 23.49100
H  33.48800 0.87200 23.09500
H  31.75500 0.58800 23.25800
H  28.20300 4.39500 28.72000
H  28.50700 2.96900 27.76100
H  29.21500 4.45000 27.15400
H  30.18700 3.31300 33.46700
H  29.88500 7.00200 35.74000
H  31.50900 7.04900 35.16800
H  31.12100 5.97300 36.54300
Mg 47.23700 16.84200 27.51600
C  45.55800 16.45000 30.55800
C  49.69000 18.70400 29.36600
C  48.57900 17.77000 24.69400
C  44.47700 15.43900 25.83500
N  47.50900 17.59500 29.67400
C  46.73700 17.15600 30.77400
C  47.42500 17.57800 32.12000
C  48.69000 18.38300 31.67800
C  48.63300 18.21600 30.11900
C  48.68300 19.84100 32.19700
C  47.79800 16.23400 32.97800
C  47.66000 16.39200 34.54700
H  47.56200 17.83400 35.07600
N  48.91000 18.02100 27.07800
C  49.78800 18.66600 27.96600
C  50.93100 19.06300 27.15500
C  50.65700 18.81600 25.78700
C  49.35800 18.16900 25.77700
C  52.19700 19.61600 27.69200
C  51.37000 19.14800 24.46200
O  50.92900 18.94800 23.31900
C  52.89300 19.71500 24.52800
N  46.51800 16.84300 25.61300
C  47.35000 17.21300 24.60500
C  46.75700 16.99700 23.18700
C  45.47300 16.18500 23.52800
C  45.45400 16.11000 25.09500
C  46.44500 18.33400 22.40000
C  45.38400 14.77200 22.84200
C  43.97700 14.51900 22.33300
N  45.34700 16.02500 28.05100
C  44.41400 15.40500 27.26700
C  43.33000 14.94500 28.03100
C  43.71600 15.27700 29.38900
C  44.99000 15.94700 29.33300
C  42.08700 14.20700 27.53400
C  43.33200 15.20900 30.74800
O  42.35100 14.78200 31.30000
C  44.42900 15.94100 31.58100
C  43.72600 16.99600 32.32300
O  42.92200 17.80500 31.85000
O  44.14200 16.96700 33.69700
C  43.57100 17.88800 34.61600
H  50.50300 19.16700 29.92900
H  48.91700 17.91500 23.66500
H  43.63800 15.00500 25.28600
H  46.73900 18.20300 32.69100
H  49.62200 17.87300 31.92500
H  48.73200 20.62900 31.44600
H  49.52300 19.98900 32.87600
H  47.77100 20.11000 32.72900
H  48.79200 15.87800 32.70400
H  47.17800 15.40000 32.65200
H  48.59500 15.98200 34.92900
H  46.80900 15.78500 34.85700
H  52.35500 20.54900 27.15000
H  53.06000 19.00200 27.43600
H  52.14400 19.84500 28.75700
H  52.99200 20.61900 25.12800
H  53.32300 19.92000 23.54800
H  53.58900 18.97600 24.92400
H  47.41800 16.33000 22.63400
H  44.61100 16.78500 23.23700
H  45.38800 18.60000 22.37500
H  46.80800 18.22300 21.37900
H  46.94200 19.08000 23.02000
H  45.70200 14.06500 23.60800
H  46.05500 14.55900 22.01000
H  44.05300 14.01200 21.37100
H  43.39300 15.42700 22.18800
H  43.42900 13.82300 22.96900
H  42.24700 13.14100 27.70000
H  41.82100 14.41700 26.49800
H  41.18100 14.37500 28.11500
H  44.85700 15.13900 32.18200
H  43.94100 17.54200 35.58100
H  42.49400 17.97100 34.47000
H  43.99000 18.87300 34.40900

