158

Mg 1.29400 -1.77000 43.47100
C  4.67300 -1.17400 42.82600
C  0.55400 1.11900 41.81800
C  -1.93100 -2.67000 43.57500
C  2.13800 -4.74000 45.07000
N  2.48400 -0.29600 42.37200
C  3.84100 -0.21700 42.27300
C  4.32000 0.97100 41.41700
C  2.96700 1.78800 41.27700
C  1.88700 0.81300 41.91900
C  2.95600 3.13500 42.04800
C  4.92300 0.36300 40.04500
C  6.00900 1.13900 39.51900
H  6.02500 1.71000 38.11500
N  -0.47500 -0.86500 42.73700
C  -0.57700 0.38200 42.15700
C  -1.95600 0.63000 41.85200
C  -2.67000 -0.42900 42.43000
C  -1.67800 -1.40200 43.00800
C  -2.39800 1.88900 41.08400
C  -4.15900 -0.50300 42.40600
O  -4.89100 0.33700 41.83700
C  -4.86400 -1.65500 43.07200
N  0.33700 -3.45200 44.17900
C  -1.01300 -3.62100 44.04000
C  -1.43600 -5.00200 44.59300
C  -0.12100 -5.68200 44.97300
C  0.84600 -4.51200 44.79100
C  -2.47500 -4.87100 45.73800
C  0.26500 -6.91000 44.15000
C  0.32500 -8.18800 45.01300
N  3.04200 -2.85700 43.85000
C  3.26800 -3.96600 44.58300
C  4.69700 -4.20600 44.65900
C  5.33400 -3.06600 44.09200
C  4.30500 -2.35400 43.51300
C  5.25600 -5.41700 45.43100
C  6.60800 -2.40400 43.80100
O  7.83700 -2.63000 44.07100
C  6.17500 -1.15000 42.85200
C  6.83000 0.14100 43.23000
O  7.59900 0.79600 42.51000
O  6.54000 0.55900 44.53700
C  6.99800 1.95700 44.88700
H  0.39600 2.12300 41.41900
H  -2.88200 -3.20200 43.50500
H  2.48200 -5.65100 45.56500
H  5.07000 1.62600 41.85800
H  2.59300 1.84800 40.25500
H  2.33500 3.06700 42.94100
H  2.59600 3.97700 41.45700
H  3.98200 3.29600 42.37800
H  4.18300 0.57300 39.27300
H  5.13600 -0.70200 39.94900
H  6.84600 0.44100 39.52800
H  6.25100 1.98400 40.16300
H  -1.65400 2.66200 40.89400
H  -3.05100 2.43900 41.76200
H  -2.82900 1.58300 40.13000
H  -4.36000 -1.71100 44.03700
H  -4.77100 -2.58600 42.51200
H  -5.92100 -1.42500 43.20600
H  -1.91500 -5.56200 43.79000
H  -0.12300 -5.93500 46.03300
H  -2.62500 -3.82200 45.99700
H  -2.24200 -5.53300 46.57200
H  -3.45300 -5.16800 45.35700
H  1.16500 -6.78500 43.54700
H  -0.53300 -7.09500 43.43100
H  0.02100 -8.99400 44.34400
H  -0.30100 -8.07200 45.89700
H  1.30600 -8.32400 45.46900
H  5.97800 -5.02000 46.14500
H  5.78800 -6.10600 44.77500
H  4.62000 -5.90900 46.16700
H  6.42300 -1.38100 41.81600
H  6.48600 2.66900 44.23900
H  8.07800 2.04600 44.77700
H  6.73500 2.18800 45.91900
Mg 27.11200 50.68900 26.85900
C  24.92400 51.74400 29.18300
C  29.51500 50.33800 29.41100
C  29.31800 49.53700 24.58400
C  24.80700 51.46800 24.36300
N  27.17300 51.08500 28.98500
C  26.07600 51.36200 29.80300
C  26.32300 51.11700 31.33100
C  27.87800 50.93100 31.32100
C  28.17900 50.71400 29.72600
C  28.66700 52.07500 31.94900
C  25.56600 49.99400 31.95400
C  24.42600 50.25900 32.92800
H  24.27800 49.39000 34.15100
N  29.15800 50.19500 26.99500
C  29.96500 50.05300 28.12000
C  31.18500 49.37300 27.76400
C  31.19000 49.15900 26.35700
C  29.85500 49.65600 25.93300
C  32.21200 49.05500 28.79800
C  32.24200 48.50100 25.50400
O  32.15000 48.39900 24.32200
C  33.52400 48.04100 26.07300
N  26.95800 50.51200 24.79900
C  28.03100 49.92700 24.03900
C  27.76800 49.80600 22.53500
C  26.22300 50.32400 22.53700
C  25.99100 50.85100 23.97300
C  28.65800 50.64800 21.54800
C  25.19400 49.11200 22.08200
C  24.04200 49.62000 21.28000
N  25.27300 51.45300 26.75900
C  24.41300 51.76100 25.67700
C  23.23600 52.40800 26.16200
C  23.37200 52.39200 27.59000
C  24.60000 51.80400 27.84000
C  22.16500 52.98100 25.31600
C  22.70400 52.69100 28.77100
O  21.64700 53.26700 28.95300
C  23.68200 52.34600 29.90900
C  23.97700 53.48700 30.84400
O  24.92600 54.23700 30.74200
O  23.10500 53.45500 31.92900
C  23.64400 54.22000 33.06100
H  30.19400 50.12000 30.23800
H  30.04600 49.14600 23.87000
H  24.11300 51.71500 23.55700
H  25.97700 52.03300 31.81100
H  28.21000 50.01300 31.80600
H  28.84100 51.66800 32.94500
H  28.07300 52.98600 32.01300
H  29.60800 52.25600 31.43000
H  26.25200 49.34600 32.50100
H  25.16900 49.38300 31.14400
H  23.53900 50.16400 32.30100
H  24.44700 51.29900 33.25300
H  32.28100 47.96800 28.83600
H  32.02100 49.46900 29.78800
H  33.12800 49.48600 28.39200
H  34.22900 48.80800 26.39400
H  33.94300 47.41800 25.28200
H  33.48400 47.33900 26.90600
H  27.84600 48.74000 22.32400
H  26.03100 51.20100 21.91900
H  29.37300 51.15400 22.19700
H  28.12500 51.44500 21.02800
H  28.99000 50.03600 20.71000
H  24.88100 48.65300 23.02000
H  25.64700 48.31900 21.48700
H  23.94200 50.70400 21.22800
H  23.05400 49.33400 21.64200
H  24.24800 49.21900 20.28800
H  22.24900 52.53400 24.32500
H  22.34300 54.05200 25.22400
H  21.25200 52.75800 25.86800
H  23.11300 51.59400 30.45700
H  24.52500 53.77100 33.52100
H  22.76800 54.38900 33.68700
H  23.87100 55.21600 32.68000

