158

Mg 25.75900 -6.81200 47.90300
C  27.72100 -4.20300 46.81900
C  23.63100 -6.11700 45.20100
C  24.04200 -9.53200 48.62800
C  28.39100 -7.77000 49.94200
N  25.77400 -5.40900 46.05300
C  26.67400 -4.38600 45.91800
C  26.34500 -3.49700 44.72800
C  25.00600 -4.12700 44.24700
C  24.72400 -5.26300 45.19100
C  23.80100 -3.23100 44.16400
C  27.39100 -3.50900 43.61700
C  27.80200 -2.04200 43.25000
H  27.96700 -1.74400 41.76500
N  24.01000 -7.65400 47.09900
C  23.25900 -7.18600 46.05700
C  22.09600 -8.06500 46.00400
C  22.14300 -9.08400 46.96800
C  23.36300 -8.75800 47.63500
C  21.02300 -7.81000 44.95500
C  21.00600 -10.15300 47.22000
O  19.92700 -10.18900 46.60000
C  21.20000 -11.00100 48.43200
N  26.22600 -8.48300 48.93500
C  25.28700 -9.41000 49.29700
C  25.81300 -10.37700 50.39800
C  27.18000 -9.80400 50.79800
C  27.29300 -8.61500 49.80700
C  24.76500 -10.42600 51.53300
C  28.35200 -10.86100 50.71700
C  29.39500 -10.65700 51.78100
N  27.63400 -6.14200 48.44800
C  28.58000 -6.64400 49.23000
C  29.66400 -5.76500 49.26600
C  29.29000 -4.73200 48.45100
C  28.09000 -5.05500 47.89200
C  30.98600 -6.01800 49.99100
C  29.76700 -3.49700 47.94500
O  30.75600 -2.89400 48.30300
C  28.70900 -3.13100 46.86100
C  28.11900 -1.86400 47.25100
O  27.40300 -1.63500 48.22400
O  28.28300 -0.98700 46.23500
C  27.52900 0.32900 46.38200
H  22.96400 -5.84000 44.38200
H  23.61600 -10.53100 48.73600
H  29.23100 -8.08300 50.56500
H  26.25800 -2.46500 45.06900
H  25.19200 -4.58100 43.27400
H  23.50100 -2.82800 43.19700
H  24.01300 -2.39900 44.83500
H  22.92700 -3.66000 44.65400
H  26.89400 -4.07400 42.82700
H  28.19500 -4.18200 43.91400
H  28.66000 -1.74400 43.85200
H  27.01500 -1.34900 43.54400
H  20.04500 -8.06700 45.36000
H  21.20500 -8.48800 44.12100
H  21.06600 -6.83500 44.47000
H  21.90900 -11.82700 48.38700
H  20.22400 -11.46800 48.56100
H  21.38600 -10.38500 49.31100
H  25.98100 -11.40500 50.07500
H  27.03400 -9.41200 51.80400
H  25.18700 -10.83500 52.45000
H  24.05300 -11.15000 51.13600
H  24.24900 -9.47500 51.66800
H  28.92800 -10.83600 49.79200
H  28.05800 -11.90800 50.64900
H  29.19700 -11.35700 52.59300
H  29.42100 -9.71500 52.32800
H  30.42100 -10.80200 51.44100
H  31.48100 -5.04800 49.94200
H  31.43000 -6.83700 49.42600
H  30.67100 -6.18700 51.02100
H  29.31400 -3.03800 45.95900
H  26.46800 0.17200 46.18800
H  28.02700 0.96300 45.64800
H  27.62500 0.92800 47.28800
Mg -5.37200 25.56800 25.27500
C  -3.83900 27.08900 28.02000
C  -6.97100 23.45500 27.40400
C  -6.62200 23.91900 22.50300
C  -3.22300 27.30100 23.16200
N  -5.38100 25.30600 27.56100
C  -4.73800 26.11600 28.45900
C  -5.38100 25.92300 29.85500
C  -6.24600 24.67100 29.63400
C  -6.25400 24.44700 28.11000
C  -5.68700 23.33700 30.32100
C  -6.25600 27.16500 30.25700
C  -6.45100 27.47900 31.72600
H  -6.12100 26.42200 32.92900
N  -6.66100 23.97200 25.02500
C  -7.21200 23.26500 26.05300
C  -8.01000 22.18500 25.45900
C  -7.85600 22.25800 24.03600
C  -6.99500 23.43600 23.80200
C  -8.85000 21.20800 26.27000
C  -8.35700 21.37300 22.95900
O  -8.09800 21.46200 21.76100
C  -9.17500 20.14900 23.37300
N  -4.99200 25.58200 23.09700
C  -5.69500 24.87300 22.15200
C  -5.15400 25.18900 20.69800
C  -4.09600 26.37300 21.02000
C  -4.03300 26.42600 22.52600
C  -4.67800 23.93700 19.96000
C  -4.47500 27.77000 20.36700
C  -3.99100 27.86300 18.96300
N  -3.81700 26.92700 25.56500
C  -3.03800 27.56700 24.59900
C  -2.16400 28.53500 25.21600
C  -2.54200 28.39500 26.56800
C  -3.46000 27.40200 26.71900
C  -1.09200 29.38400 24.66000
C  -2.26200 28.92100 27.86700
O  -1.57500 29.86200 28.26800
C  -3.08400 28.05800 28.91400
C  -2.11500 27.45700 29.88700
O  -1.16400 26.76400 29.52400
O  -2.47700 27.80200 31.20800
C  -1.49000 27.36200 32.21100
H  -7.48900 22.71900 28.02300
H  -6.98000 23.50100 21.56000
H  -2.68900 27.98200 22.49600
H  -4.52300 25.73100 30.49900
H  -7.27800 24.82000 29.95300
H  -4.77900 23.59900 30.86400
H  -5.39500 22.55100 29.62400
H  -6.32400 22.91000 31.09500
H  -7.25500 26.97200 29.86500
H  -5.72500 27.98400 29.77200
H  -7.49400 27.76700 31.85900
H  -5.93900 28.40600 31.98300
H  -8.94000 21.47100 27.32400
H  -8.37500 20.22700 26.26800
H  -9.86300 21.12800 25.87700
H  -9.28000 19.47100 22.52600
H  -10.14900 20.52400 23.69000
H  -8.66000 19.73600 24.24100
H  -5.98400 25.63500 20.15100
H  -3.11100 26.08100 20.65500
H  -5.01400 23.93500 18.92300
H  -5.05800 23.00700 20.38500
H  -3.59200 23.98900 20.03400
H  -4.04700 28.58800 20.94700
H  -5.54900 27.94300 20.42500
H  -3.42400 26.99500 18.62700
H  -3.39900 28.76200 18.79600
H  -4.82600 27.88400 18.26200
H  -1.51700 30.34400 24.36800
H  -0.57100 28.88300 23.84400
H  -0.33200 29.68900 25.37900
H  -3.71400 28.75600 29.46600
H  -0.45500 27.27900 31.87900
H  -1.84900 26.37700 32.51000
H  -1.54600 28.07200 33.03500

