158

Mg 44.09200 4.19300 46.93300
C  42.10200 7.08700 46.78000
C  41.33400 2.25400 46.95800
C  46.12300 1.71000 46.67500
C  46.98500 6.47100 46.85500
N  41.95800 4.73200 46.84700
C  41.35200 5.94900 46.79400
C  39.79900 5.79900 46.88300
C  39.63300 4.25100 46.99200
C  41.08300 3.68700 46.84400
C  38.99800 3.88000 48.31000
C  38.98200 6.48100 45.80800
C  39.53200 6.30300 44.33800
H  38.52200 6.03700 43.18400
N  43.75900 2.22100 46.77000
C  42.58900 1.58900 46.82900
C  42.76600 0.19300 46.62500
C  44.17000 -0.10900 46.55800
C  44.77800 1.27400 46.72000
C  41.66600 -0.79800 46.45100
C  44.79200 -1.45800 46.41700
O  44.04600 -2.41300 46.18900
C  46.31000 -1.78300 46.44100
N  46.32000 4.15200 46.57000
C  46.80200 2.90700 46.67500
C  48.39900 2.98000 46.73700
C  48.69400 4.54300 46.75000
C  47.30800 5.11700 46.71300
C  49.15400 2.08000 47.80000
C  49.46400 5.04300 45.49100
C  51.02800 4.86400 45.48900
N  44.52800 6.36300 46.71200
C  45.69400 7.07400 46.77000
C  45.42000 8.50600 46.81800
C  43.99300 8.55300 46.85600
C  43.49000 7.24200 46.76200
C  46.40700 9.57800 46.89500
C  42.83400 9.42500 46.83200
O  42.81600 10.64100 46.67300
C  41.55800 8.54100 46.82000
C  40.77400 8.83600 48.12500
O  40.92500 8.19500 49.16600
O  39.96900 9.91900 48.06300
C  39.09400 10.00300 49.24200
H  40.40700 1.68000 46.91500
H  46.82200 0.87000 46.67600
H  47.91700 6.99100 47.08800
H  39.43800 6.16900 47.84200
H  39.01100 3.81800 46.20900
H  38.30100 4.63600 48.67000
H  39.73200 3.61100 49.07000
H  38.53700 2.91400 48.10700
H  38.69700 7.50200 46.06200
H  38.07100 5.88500 45.76700
H  40.28400 5.52400 44.21500
H  40.02400 7.25300 44.13000
H  41.85800 -1.55500 45.69000
H  40.71500 -0.26500 46.45700
H  41.63500 -1.42300 47.34300
H  46.83100 -1.21000 45.67400
H  46.51100 -2.84200 46.27400
H  46.60600 -1.65200 47.48200
H  48.63600 2.47400 45.80100
H  49.32300 4.81900 47.59700
H  48.29800 1.77400 48.40200
H  49.85600 2.72000 48.33300
H  49.55600 1.18500 47.32500
H  49.19500 6.05600 45.19100
H  49.09600 4.37300 44.71400
H  51.34500 4.19500 44.68900
H  51.31700 4.45700 46.45800
H  51.52900 5.81300 45.29800
H  47.40100 9.19300 46.66800
H  46.51800 9.88200 47.93600
H  46.16500 10.43000 46.26000
H  40.97800 8.79500 45.93300
H  39.59000 10.63100 49.98200
H  38.69200 9.18500 49.84000
H  38.20100 10.46300 48.81700
Mg 26.59000 50.54900 26.30100
C  24.52100 51.89900 28.87500
C  28.75900 49.38300 28.73900
C  28.76400 49.93800 23.90300
C  24.63600 52.37400 24.01000
N  26.60900 50.68000 28.56000
C  25.57200 51.09300 29.39800
C  25.94400 50.78100 30.80800
C  27.32800 50.08100 30.76700
C  27.59400 50.02800 29.24400
C  28.44900 50.79900 31.59500
C  24.79300 50.04200 31.56400
C  24.48900 50.83800 32.92500
H  24.68400 50.02900 34.23300
N  28.51300 49.67500 26.35700
C  29.19400 49.29700 27.43700
C  30.53300 48.79600 27.05700
C  30.53300 48.98400 25.60300
C  29.23500 49.53500 25.21800
C  31.52300 48.19200 28.03700
C  31.55300 48.65300 24.60400
O  31.52200 48.90600 23.40700
C  32.60200 47.74500 25.07200
N  26.78500 51.31600 24.29900
C  27.73800 50.74800 23.45200
C  27.29400 50.68500 22.03500
C  25.97400 51.44200 22.06900
C  25.81200 51.81700 23.50700
C  28.41900 51.30500 21.13300
C  24.78800 50.55100 21.47300
C  24.09500 51.08800 20.15800
N  24.88000 51.89200 26.36600
C  24.17000 52.39600 25.35900
C  22.93400 52.96900 25.81100
C  23.06700 52.90500 27.20500
C  24.24300 52.18200 27.49000
C  21.87700 53.67500 25.04700
C  22.41000 53.24500 28.46600
O  21.43600 53.88900 28.75500
C  23.41900 52.69200 29.60400
C  23.92900 53.86100 30.38900
O  24.79200 54.63700 29.98600
O  23.17600 54.02000 31.47100
C  23.38500 55.16200 32.40400
H  29.39800 49.07700 29.57000
H  29.33900 49.43800 23.12200
H  23.87600 52.73700 23.31400
H  26.05600 51.79400 31.19300
H  27.28000 49.04800 31.11100
H  28.19700 51.68300 32.18000
H  29.28900 51.09200 30.96500
H  28.90100 50.09100 32.29000
H  25.13200 49.04600 31.85000
H  23.87300 49.91500 30.99400
H  23.42800 51.07400 32.84700
H  25.05400 51.76300 33.03300
H  31.19600 48.13900 29.07600
H  32.40200 48.82200 27.89700
H  31.96000 47.22700 27.78000
H  33.40800 47.60000 24.35200
H  32.10000 46.82200 25.36300
H  33.12300 48.31300 25.84200
H  27.09700 49.62800 21.85600
H  26.04000 52.33500 21.44800
H  29.30700 51.47800 21.74000
H  28.14100 52.26900 20.70700
H  28.73400 50.67800 20.29900
H  23.98300 50.43200 22.19900
H  25.15200 49.54400 21.26700
H  24.00000 50.13500 19.63700
H  24.67400 51.74000 19.50400
H  23.16300 51.55800 20.47000
H  22.24300 54.50900 24.44900
H  21.21400 54.16400 25.76100
H  21.34500 52.91600 24.47200
H  22.80000 52.12000 30.29500
H  23.89000 56.03300 31.98500
H  24.03000 54.78200 33.19600
H  22.46900 55.43100 32.92900

