158

Mg -2.17100 17.12800 26.63200
C  -2.90100 14.96100 29.29000
C  -2.97500 19.81500 28.81100
C  -2.00100 19.16800 24.06000
C  -2.11000 14.38600 24.49700
N  -2.78800 17.37800 28.82000
C  -3.04800 16.27200 29.70900
C  -3.50900 16.83100 31.01900
C  -3.44600 18.35300 30.87900
C  -3.04900 18.56200 29.43000
C  -4.69900 19.14800 31.21500
C  -2.83300 15.99500 32.20300
C  -2.63800 16.78300 33.54000
H  -2.50800 15.93400 34.84200
N  -2.36800 19.25200 26.51400
C  -2.61000 20.15200 27.52800
C  -2.37900 21.46300 26.94700
C  -2.16000 21.34400 25.56200
C  -2.22000 19.89400 25.27700
C  -2.62400 22.70000 27.80000
C  -1.86600 22.32700 24.59300
O  -1.59900 22.06400 23.40500
C  -1.82000 23.82500 24.86800
N  -2.23200 16.82900 24.57700
C  -2.07300 17.82400 23.70700
C  -1.81300 17.37100 22.28400
C  -1.55600 15.86600 22.52500
C  -1.94600 15.66400 23.96500
C  -2.95800 17.64600 21.29700
C  -0.16300 15.33600 22.15200
C  0.97700 15.77400 23.12800
N  -2.37400 15.09600 26.83000
C  -2.31000 14.11300 25.84900
C  -2.67100 12.83900 26.51600
C  -2.79800 13.12100 27.86100
C  -2.63500 14.50700 27.99300
C  -2.86100 11.53000 25.92900
C  -3.09300 12.57400 29.11200
O  -3.30600 11.41000 29.41100
C  -3.00900 13.67100 30.10200
C  -1.78300 13.43400 30.90700
O  -0.62300 13.79900 30.68600
O  -2.17700 12.60400 32.03800
C  -1.14400 12.32100 33.03600
H  -3.08700 20.68100 29.46700
H  -1.93600 19.76400 23.14800
H  -1.90800 13.49400 23.90000
H  -4.56900 16.57900 31.05300
H  -2.55400 18.71300 31.39300
H  -4.61500 20.07800 31.77800
H  -5.15000 18.55400 32.00900
H  -5.38500 19.35600 30.39400
H  -1.77600 15.81900 32.00500
H  -3.37100 15.08500 32.46700
H  -3.38100 17.55700 33.73600
H  -1.63800 17.21500 33.50300
H  -1.69000 23.13200 28.16000
H  -3.24300 22.57800 28.68900
H  -3.08300 23.40500 27.10700
H  -1.75100 24.48100 24.00000
H  -1.07800 23.96900 25.65300
H  -2.80200 24.18000 25.18100
H  -0.86200 17.81100 21.98300
H  -2.19700 15.18500 21.96400
H  -2.81400 17.05500 20.39300
H  -2.78500 18.66000 20.93700
H  -3.90300 17.50100 21.82100
H  0.08100 15.54300 21.11000
H  -0.26400 14.25300 22.08900
H  0.70900 16.05200 24.14700
H  1.39200 16.65200 22.63500
H  1.62500 14.90200 23.22000
H  -2.44700 10.84200 26.66600
H  -2.43700 11.51200 24.92500
H  -3.92700 11.32700 25.82300
H  -3.85500 13.54700 30.77900
H  -1.66400 12.03100 33.94900
H  -0.43100 13.11800 33.24700
H  -0.59600 11.46500 32.64400
Mg 47.79600 16.21500 28.53300
C  45.96400 15.78400 31.49500
C  50.09100 18.08500 30.42900
C  49.26300 17.04100 25.67100
C  45.44400 14.37900 26.79400
N  47.99200 16.85200 30.73300
C  47.21100 16.44200 31.72900
C  47.70400 17.00000 33.10500
C  48.86100 17.94500 32.69700
C  49.02100 17.57000 31.18400
C  48.49100 19.39600 33.05500
C  48.04300 15.73800 34.06100
C  47.77600 15.89700 35.58800
H  47.64600 17.28200 36.23400
N  49.52100 17.34200 28.10900
C  50.27400 18.01100 28.97300
C  51.34500 18.66100 28.24500
C  51.21500 18.30600 26.88700
C  49.95300 17.55000 26.81800
C  52.47700 19.35100 28.87500
C  52.04700 18.80700 25.69900
O  51.79700 18.37300 24.56000
C  53.12300 19.87000 25.88200
N  47.50100 15.60100 26.53500
C  48.22100 16.14800 25.52000
C  47.79300 15.62600 24.14000
C  46.70300 14.60800 24.56800
C  46.54300 14.82000 26.03300
C  47.26500 16.79800 23.21700
C  46.85900 13.14000 24.23200
C  45.71800 12.55400 23.43800
N  46.05600 15.35900 29.01700
C  45.23500 14.55500 28.18300
C  44.02600 14.30300 28.84400
C  44.27900 14.64800 30.16000
C  45.53500 15.29200 30.22300
C  42.74300 13.82900 28.29300
C  43.72100 14.62800 31.51300
O  42.71600 14.13000 31.90900
C  44.82300 15.39200 32.45800
C  44.30200 16.52300 33.24900
O  43.94900 17.61300 32.80700
O  44.15000 16.17900 34.57800
C  43.41600 17.19500 35.40500
H  50.65200 18.80100 31.03300
H  49.66300 17.24800 24.67500
H  44.69900 13.70000 26.37500
H  46.89900 17.48600 33.65700
H  49.83600 17.69200 33.11400
H  48.74100 19.52000 34.10900
H  47.40400 19.46900 33.01100
H  49.01400 20.10100 32.40900
H  49.08400 15.47500 33.87500
H  47.41600 14.89000 33.78500
H  48.68300 15.40700 35.94300
H  46.94600 15.26400 35.89900
H  52.34000 20.42800 28.77600
H  53.42700 19.03600 28.44400
H  52.56200 19.02000 29.91000
H  53.40100 20.42200 24.98400
H  54.07100 19.47600 26.24900
H  52.63700 20.61200 26.51600
H  48.62600 15.16200 23.61200
H  45.81700 15.18100 24.29300
H  46.31700 16.40700 22.84700
H  47.87800 16.90600 22.32200
H  47.05700 17.73800 23.72900
H  46.94500 12.59900 25.17400
H  47.79300 12.92100 23.71300
H  46.13200 11.78500 22.78600
H  45.13300 13.24200 22.82800
H  45.04100 12.17500 24.20400
H  42.34000 14.38200 27.44400
H  41.95700 13.89200 29.04500
H  42.61500 12.77300 28.05600
H  45.20400 14.64200 33.15100
H  42.34200 17.33200 35.28100
H  43.89800 18.17300 35.40600
H  43.51500 16.85500 36.43600

