158

Mg -2.63300 17.24500 27.10100
C  -3.14100 15.04100 29.76000
C  -3.06300 19.84700 29.18500
C  -2.53800 19.20200 24.37100
C  -2.79600 14.36600 24.94500
N  -3.25300 17.40400 29.27600
C  -3.28900 16.41000 30.15100
C  -3.38100 16.93400 31.62600
C  -3.52300 18.46700 31.35300
C  -3.30400 18.65700 29.84100
C  -4.76500 19.22700 31.79400
C  -2.22900 16.63400 32.61000
C  -2.66600 16.13800 33.98200
H  -1.74300 16.16000 35.25600
N  -2.61000 19.24500 26.83900
C  -2.86700 20.11400 27.84100
C  -2.59900 21.41300 27.22800
C  -2.46100 21.32600 25.85300
C  -2.51400 19.89300 25.60300
C  -2.79300 22.68400 27.95200
C  -2.24300 22.33700 24.69400
O  -2.20700 22.01500 23.47500
C  -2.09900 23.81400 25.02400
N  -2.91300 16.83600 24.94300
C  -2.70300 17.85500 24.05400
C  -2.60900 17.34500 22.58000
C  -2.56400 15.74800 22.77300
C  -2.79300 15.62000 24.31400
C  -3.65700 17.86800 21.54100
C  -1.42100 14.99700 22.18800
C  -0.08600 15.31000 22.86100
N  -2.98400 15.15800 27.23400
C  -2.92500 14.11500 26.32500
C  -2.95900 12.84700 26.92300
C  -3.03300 13.18100 28.26700
C  -3.07200 14.53800 28.41100
C  -2.92200 11.59000 26.27400
C  -3.22500 12.59300 29.50400
O  -3.34700 11.45100 29.89200
C  -3.18400 13.80700 30.55900
C  -1.89400 13.57600 31.29900
O  -0.74200 13.64000 30.85800
O  -2.14800 13.22600 32.63300
C  -0.93600 12.92400 33.42400
H  -3.11100 20.71800 29.84100
H  -2.35200 19.66300 23.39900
H  -2.81500 13.53700 24.23500
H  -4.31000 16.48000 31.97100
H  -2.66300 18.96800 31.79800
H  -5.45100 19.44100 30.97500
H  -4.45100 20.14900 32.28200
H  -5.37900 18.58200 32.42400
H  -1.48500 17.43100 32.63200
H  -1.74300 15.82800 32.06100
H  -3.10500 15.14300 33.89900
H  -3.43100 16.77100 34.43000
H  -3.24400 23.52700 27.42800
H  -1.81300 22.89400 28.37900
H  -3.34400 22.46800 28.86700
H  -1.58300 24.34500 24.22300
H  -1.54200 23.91100 25.95600
H  -3.09800 24.17900 25.26000
H  -1.60000 17.59900 22.25700
H  -3.47600 15.34400 22.33200
H  -4.10000 18.78100 21.93800
H  -4.53300 17.22100 21.50700
H  -3.24600 18.02600 20.54400
H  -1.29800 15.30300 21.14900
H  -1.58500 13.92000 22.24000
H  -0.14400 15.67100 23.88700
H  0.56800 16.01400 22.34600
H  0.53700 14.41800 22.79700
H  -2.45900 11.50100 25.29100
H  -3.98600 11.45400 26.08100
H  -2.57400 10.82400 26.96600
H  -4.01900 13.79200 31.25900
H  -0.81900 11.85800 33.23400
H  -1.09900 13.02000 34.49700
H  0.00800 13.40100 33.16100
Mg -12.00100 38.23700 42.43400
C  -9.99200 35.54000 41.25600
C  -9.76100 40.33200 40.83400
C  -14.23500 40.67100 43.01500
C  -14.24200 35.86900 43.65000
N  -10.01500 37.93700 41.21700
C  -9.50100 36.78000 40.85200
C  -8.22000 36.96400 40.09200
C  -7.96700 38.48500 40.10300
C  -9.27500 39.00400 40.77800
C  -6.72800 38.92400 40.82100
C  -8.22200 36.27700 38.67200
C  -6.99200 35.41100 38.37800
H  -5.95300 35.91300 37.33500
N  -11.96900 40.27300 42.00700
C  -10.96500 40.93000 41.35000
C  -11.29500 42.32900 41.30700
C  -12.63500 42.44200 41.79700
C  -13.02900 41.12100 42.25900
C  -10.42100 43.33600 40.68800
C  -13.34800 43.72700 41.85000
O  -12.91600 44.74000 41.35800
C  -14.67600 43.88200 42.43100
N  -13.95500 38.25800 43.28800
C  -14.68400 39.40600 43.40800
C  -16.08000 39.09900 44.04400
C  -15.95700 37.61400 44.47300
C  -14.60300 37.19800 43.76500
C  -16.54700 40.12300 45.10800
C  -17.05400 36.61100 44.17700
C  -17.57300 35.72300 45.28600
N  -12.12200 36.08700 42.48100
C  -13.11100 35.29800 43.06000
C  -12.68700 33.88200 42.95200
C  -11.45100 33.87900 42.20400
C  -11.18200 35.27700 41.99900
C  -13.45700 32.66300 43.47000
C  -10.39400 33.08600 41.53600
O  -10.21300 31.90600 41.50100
C  -9.37600 34.16700 40.95500
C  -8.02500 33.88700 41.52100
O  -7.16400 33.24900 40.94700
O  -7.79000 34.61500 42.69200
C  -6.45000 34.54300 43.28200
H  -9.01700 41.04600 40.47300
H  -15.03900 41.37300 43.24700
H  -14.95900 35.09900 43.94000
H  -7.45400 36.45100 40.67200
H  -7.87700 38.90900 39.10200
H  -6.95100 39.78800 41.44700
H  -6.01500 39.29400 40.08400
H  -6.39600 38.14000 41.50200
H  -8.20800 37.06700 37.92100
H  -9.09800 35.68500 38.40800
H  -7.37900 34.41200 38.17300
H  -6.40400 35.27300 39.28500
H  -10.67100 43.44300 39.63300
H  -9.34800 43.20000 40.82500
H  -10.56000 44.33200 41.10800
H  -14.76300 43.47700 43.43900
H  -15.33800 43.32500 41.76900
H  -15.02000 44.91000 42.54700
H  -16.79000 39.20900 43.22400
H  -15.72600 37.53100 45.53500
H  -16.96000 39.63600 45.99100
H  -17.33300 40.75300 44.69100
H  -15.72100 40.75600 45.43400
H  -16.83300 35.98200 43.31400
H  -17.86800 37.19200 43.74500
H  -17.48700 34.64600 45.13800
H  -18.58500 36.04700 45.53000
H  -17.03100 35.93300 46.20800
H  -14.32400 32.44100 42.84700
H  -14.03600 32.89900 44.36200
H  -12.80000 31.81800 43.67300
H  -9.33300 34.00600 39.87800
H  -5.57900 34.34100 42.65800
H  -6.45800 33.75000 44.02900
H  -6.29300 35.48400 43.81000

