158

Mg -2.77800 17.38800 27.19100
C  -3.36600 15.06900 29.76000
C  -3.22300 19.91000 29.54300
C  -2.54400 19.50100 24.79200
C  -3.11700 14.72400 24.86200
N  -3.25000 17.45200 29.34200
C  -3.32800 16.40200 30.16600
C  -3.37300 16.88300 31.67500
C  -3.79000 18.40500 31.48500
C  -3.47400 18.61000 30.02900
C  -5.31900 18.77800 31.75200
C  -2.07000 16.60600 32.41300
C  -1.93600 17.35700 33.70200
H  -1.59700 16.66900 34.95100
N  -2.68000 19.45800 27.17600
C  -2.84300 20.34800 28.24100
C  -2.59600 21.68900 27.72700
C  -2.22400 21.55300 26.37700
C  -2.47800 20.14000 26.04700
C  -2.71400 22.89900 28.51400
C  -1.58200 22.55200 25.42800
O  -1.37000 22.33400 24.24600
C  -1.23200 23.82600 25.95100
N  -2.75700 17.16600 25.11400
C  -2.77100 18.20100 24.32800
C  -2.90700 17.85500 22.83100
C  -3.04600 16.28800 22.90800
C  -2.90500 16.04700 24.38700
C  -3.89700 18.66700 22.04100
C  -2.16300 15.42900 21.99700
C  -0.74900 14.99700 22.32900
N  -3.21400 15.31600 27.20700
C  -3.24000 14.33700 26.27000
C  -3.41300 12.99800 26.87200
C  -3.28600 13.29600 28.19600
C  -3.28100 14.66000 28.38300
C  -3.54500 11.72700 26.11400
C  -3.25900 12.64100 29.47000
O  -3.16500 11.49000 29.85200
C  -3.40600 13.80700 30.48000
C  -2.34400 13.64100 31.49400
O  -1.19800 13.70600 31.14600
O  -2.90600 13.17400 32.68300
C  -1.89600 12.59200 33.59500
H  -3.34800 20.75400 30.22500
H  -2.45300 20.13600 23.90800
H  -3.24000 13.93600 24.11700
H  -4.10700 16.27900 32.20800
H  -3.23500 19.09600 32.11900
H  -5.43600 18.65200 32.82800
H  -6.03700 18.17800 31.19200
H  -5.40700 19.84000 31.52300
H  -1.09700 16.81100 31.96600
H  -2.22500 15.57000 32.71200
H  -2.87300 17.88200 33.89000
H  -1.15500 18.11400 33.65100
H  -1.75300 23.36700 28.72700
H  -3.13800 22.69800 29.49700
H  -3.29600 23.72700 28.10900
H  -0.51500 23.71800 26.76500
H  -2.11500 24.37900 26.27100
H  -0.78200 24.51200 25.23400
H  -1.98700 18.17000 22.34000
H  -4.09700 16.09000 22.69600
H  -3.51200 19.45100 21.38800
H  -4.63800 19.06100 22.73600
H  -4.52300 18.04900 21.39700
H  -2.05100 16.05700 21.11300
H  -2.75600 14.58800 21.63900
H  -0.42900 15.36800 23.30200
H  0.03600 15.28900 21.63100
H  -0.69500 13.91600 22.46400
H  -4.13200 11.02600 26.70700
H  -2.55000 11.43900 25.77500
H  -4.18000 11.89700 25.24400
H  -4.37800 13.73800 30.96900
H  -2.28900 12.91400 34.55900
H  -0.87900 12.84900 33.29600
H  -1.92600 11.50200 33.60000
Mg 1.94400 41.64700 24.97600
C  2.57900 41.98300 28.44700
C  -1.14000 40.65500 25.83900
C  1.43700 40.90700 21.79800
C  5.31100 42.40700 24.39600
N  0.79200 41.47900 26.95100
C  1.28400 41.68500 28.23000
C  0.18700 41.58000 29.28300
C  -1.02600 40.92500 28.44000
C  -0.43200 40.97500 26.98000
C  -1.51800 39.47800 28.92600
C  -0.10800 42.98600 29.82600
C  -0.13600 43.04900 31.39500
H  -0.87500 41.91300 32.17200
N  0.31800 41.03400 23.93400
C  -0.84800 40.69300 24.44600
C  -1.75800 40.29100 23.36500
C  -1.04900 40.25500 22.15800
C  0.27700 40.69600 22.54600
C  -3.24400 40.09000 23.57700
C  -1.50600 39.89700 20.78000
O  -0.69400 39.84200 19.84100
C  -2.98000 39.68500 20.43700
N  3.18600 41.68100 23.35600
C  2.72600 41.34300 22.13300
C  3.86600 41.57800 21.04900
C  5.02300 42.21500 21.85500
C  4.47100 42.14500 23.25400
C  4.37200 40.30500 20.21400
C  5.36200 43.69200 21.45500
C  5.86000 43.81300 20.02000
N  3.66000 42.14800 26.10600
C  4.94100 42.46900 25.72700
C  5.74300 42.78300 26.93100
C  4.86400 42.53200 27.97200
C  3.63200 42.24400 27.49800
C  7.19300 43.15600 26.93700
C  4.77900 42.55700 29.44600
O  5.59200 42.59500 30.36800
C  3.30700 42.08100 29.79200
C  3.28600 40.78400 30.49400
O  3.90700 39.75900 30.15300
O  2.45600 40.85500 31.54000
C  2.26400 39.56300 32.27600
H  -2.14300 40.27900 26.05400
H  1.45700 40.70700 20.72400
H  6.35400 42.65200 24.18100
H  0.40200 40.78900 30.00100
H  -1.89600 41.57500 28.53300
H  -2.45400 39.67400 29.45000
H  -0.76700 39.01500 29.56700
H  -1.71500 38.88900 28.03000
H  -1.04100 43.43100 29.48000
H  0.78600 43.51900 29.50200
H  -0.63600 43.98000 31.65900
H  0.86900 43.11000 31.81200
H  -3.84500 40.82400 23.03900
H  -3.49000 40.00700 24.63500
H  -3.59100 39.14300 23.16400
H  -3.25100 38.68900 20.78400
H  -3.01300 39.66200 19.34800
H  -3.64100 40.46900 20.80600
H  3.56900 42.28300 20.27300
H  5.89400 41.57200 21.73400
H  4.16100 39.39600 20.77700
H  5.43700 40.39400 19.99600
H  3.99800 40.14800 19.20200
H  6.09600 44.13700 22.12700
H  4.48600 44.29900 21.68300
H  5.04100 44.37100 19.56500
H  5.99600 42.86900 19.49300
H  6.67700 44.51100 19.83700
H  7.74800 42.37900 27.46200
H  7.38100 44.02100 27.57200
H  7.58700 43.16800 25.92000
H  2.85600 42.83300 30.44100
H  2.94400 39.38600 33.10900
H  2.42300 38.67200 31.67000
H  1.29000 39.53900 32.76500

