158

Mg 17.06300 -1.15500 27.68400
C  16.32500 1.12000 30.34200
C  18.74400 -3.19600 29.87600
C  17.91700 -2.93500 24.99800
C  15.34700 1.18600 25.57900
N  17.43800 -1.03800 29.88400
C  17.11700 0.01300 30.69500
C  17.66800 -0.34600 32.10500
C  18.58800 -1.62200 31.91200
C  18.22000 -2.01400 30.47700
C  20.07100 -1.33400 32.29600
C  16.58500 -0.35000 33.21400
C  16.91600 0.26100 34.57000
H  18.42900 0.44700 34.98700
N  18.28400 -2.80400 27.49800
C  18.79700 -3.53300 28.50200
C  19.41200 -4.73400 27.91900
C  19.19400 -4.74200 26.47400
C  18.44400 -3.45400 26.25800
C  20.12100 -5.70000 28.79300
C  19.56400 -5.67600 25.36100
O  19.23300 -5.45200 24.16500
C  20.27800 -7.05300 25.68000
N  16.83800 -0.82200 25.57500
C  17.27600 -1.70400 24.62600
C  17.05500 -1.20200 23.19700
C  16.11900 0.10100 23.38400
C  15.98000 0.11200 24.92200
C  18.35600 -0.97900 22.45400
C  14.64700 0.00900 22.73000
C  14.41700 1.06800 21.55100
N  15.98000 0.74300 27.86500
C  15.28200 1.49700 26.99800
C  14.64400 2.60500 27.57700
C  15.09000 2.54500 28.91100
C  15.85900 1.37200 29.05000
C  13.72000 3.70000 26.97400
C  15.03600 3.22500 30.19900
O  14.60800 4.33000 30.45400
C  15.72800 2.24500 31.23100
C  16.66700 3.03600 32.05400
O  17.78400 3.39300 31.74500
O  16.07500 3.43200 33.20400
C  16.90500 4.28200 34.08100
H  19.21800 -3.88500 30.57800
H  18.10700 -3.41200 24.03400
H  14.83200 1.88800 24.92000
H  18.25000 0.56400 32.24600
H  18.32200 -2.38400 32.64500
H  20.32900 -0.29700 32.51100
H  20.67300 -1.51000 31.40400
H  20.30500 -2.07900 33.05600
H  16.38400 -1.38300 33.49900
H  15.62400 0.07600 32.92400
H  16.44300 -0.37200 35.32100
H  16.35100 1.19200 34.51400
H  20.48400 -6.51500 28.16700
H  19.56300 -6.10400 29.63700
H  21.01200 -5.18700 29.15500
H  20.06000 -7.61500 26.58800
H  21.33800 -6.80000 25.65000
H  19.99400 -7.74000 24.88400
H  16.46800 -2.04100 22.82400
H  16.66900 0.98900 23.07300
H  18.18000 -0.04400 21.92100
H  18.42500 -1.82600 21.77200
H  19.11800 -0.93800 23.23200
H  13.92600 0.11700 23.54000
H  14.42300 -0.97300 22.31400
H  14.21100 0.54400 20.61800
H  15.16500 1.85900 21.49500
H  13.53600 1.61500 21.88900
H  12.72500 3.44500 26.60800
H  14.31800 4.02400 26.12200
H  13.63800 4.52200 27.68500
H  14.88100 1.91900 31.83600
H  16.24600 4.56800 34.90100
H  17.20600 5.28000 33.76000
H  17.80300 3.83900 34.51100
Mg 16.64600 52.16000 26.39200
C  18.52300 50.78100 28.91600
C  14.23000 53.07400 28.88100
C  14.65300 53.47500 23.94900
C  18.76400 50.66300 24.05300
N  16.40100 51.92700 28.61300
C  17.35700 51.29500 29.39100
C  17.10200 51.57800 30.87400
C  15.55700 52.07100 30.87800
C  15.44300 52.49500 29.37600
C  14.52400 51.09700 31.44800
C  17.96400 52.68300 31.44700
C  18.10400 52.68900 33.00500
H  17.25800 51.75600 33.86800
N  14.62000 53.19100 26.41600
C  13.88200 53.48000 27.53200
C  12.77700 54.30900 27.11600
C  12.93900 54.45500 25.65800
C  14.12000 53.72600 25.26000
C  11.64500 54.71400 28.09900
C  11.99800 55.15800 24.58100
O  12.34800 55.35900 23.41500
C  10.58700 55.57900 25.02100
N  16.68600 52.02900 24.28300
C  15.81600 52.72200 23.54100
C  16.13700 52.52700 22.04800
C  17.46500 51.71700 22.10400
C  17.71400 51.47100 23.56200
C  15.00200 52.04900 21.11500
C  18.71400 52.43300 21.40600
C  19.35900 51.65800 20.22400
N  18.29300 51.06700 26.42500
C  19.10300 50.46100 25.42700
C  20.15100 49.61500 26.03100
C  20.00900 49.79900 27.42300
C  18.89100 50.73900 27.58300
C  21.15500 48.82000 25.33300
C  20.55600 49.51500 28.74200
O  21.50600 48.87100 29.01600
C  19.57000 50.01000 29.71300
C  18.97600 48.89700 30.48000
O  18.06800 48.25500 30.02600
O  19.53500 48.80900 31.70100
C  18.90500 47.79800 32.58100
H  13.56900 53.42400 29.67600
H  14.18900 53.88600 23.05100
H  19.38300 50.15400 23.31100
H  17.19000 50.69400 31.50500
H  15.39100 52.98400 31.44900
H  15.06400 50.25400 31.88000
H  13.84400 50.79500 30.65100
H  13.96500 51.59100 32.24200
H  17.63200 53.66300 31.10400
H  18.99900 52.48300 31.17000
H  18.08200 53.73400 33.31300
H  19.07900 52.22500 33.15600
H  11.40900 55.77400 28.00300
H  11.91300 54.58400 29.14700
H  10.72600 54.17900 27.86100
H  9.87600 55.26100 24.25900
H  10.54100 56.65000 25.22000
H  10.38500 54.99200 25.91600
H  16.29900 53.56200 21.74900
H  17.31100 50.70900 21.72000
H  15.22800 51.13800 20.56100
H  14.67800 52.83300 20.43100
H  14.16500 51.72200 21.73200
H  19.38100 52.59400 22.25300
H  18.52300 53.46600 21.11500
H  19.18600 52.16600 19.27600
H  18.96900 50.64500 20.12800
H  20.43400 51.59500 20.39200
H  21.84900 49.43100 24.75600
H  20.54700 48.26000 24.62300
H  21.81200 48.17900 25.92100
H  20.07200 50.60700 30.47400
H  18.92500 46.86600 32.01600
H  17.90000 48.01700 32.93900
H  19.55700 47.53600 33.41400

