158

Mg 40.77800 9.26300 30.30300
C  42.63800 10.23100 33.10400
C  38.16600 8.54400 32.53300
C  39.03600 8.04000 27.64000
C  43.53200 9.79300 28.29500
N  40.53500 9.33900 32.59800
C  41.32700 9.93900 33.55800
C  40.63900 10.09600 34.89000
C  39.32000 9.35000 34.66300
C  39.35600 9.06700 33.17900
C  39.18400 7.94500 35.28800
C  40.42700 11.63200 35.18500
C  39.94400 11.94200 36.63200
H  40.93100 12.71500 37.55600
N  38.88400 8.46600 30.06700
C  38.01700 8.17300 31.11300
C  36.85100 7.52000 30.54500
C  37.06200 7.44400 29.13400
C  38.40900 7.98000 28.86800
C  35.56600 7.14400 31.39600
C  36.13100 6.91200 28.03400
O  36.42300 6.82300 26.86500
C  34.68700 6.44600 28.33800
N  41.28000 8.75900 28.28500
C  40.35100 8.48800 27.39400
C  40.86200 8.77000 25.94600
C  42.31800 9.23300 26.15300
C  42.33200 9.27900 27.69400
C  40.68000 7.62400 24.87800
C  42.78300 10.65900 25.52900
C  42.14200 11.16600 24.25600
N  42.73200 9.83000 30.56200
C  43.77100 10.08000 29.64700
C  44.99200 10.44700 30.34600
C  44.55700 10.58000 31.65900
C  43.17900 10.22600 31.78900
C  46.35600 10.56700 29.84800
C  44.99200 10.91300 33.01700
O  46.06300 11.33800 33.37000
C  43.81100 10.80500 33.95700
C  44.09500 9.93300 35.15400
O  44.80200 8.93200 35.19000
O  43.73600 10.60300 36.32700
C  44.07400 9.97200 37.60200
H  37.30900 8.57600 33.20900
H  38.41900 7.87900 26.75300
H  44.36300 9.91200 27.59600
H  41.33300 9.48200 35.46400
H  38.46400 9.97100 34.92800
H  39.89300 7.72100 36.08500
H  39.25600 7.13600 34.56100
H  38.21400 7.92400 35.78300
H  39.79300 12.07400 34.41600
H  41.39700 12.11100 35.04700
H  39.64100 11.03500 37.15600
H  39.01900 12.46200 36.38200
H  35.71000 7.26400 32.46900
H  35.31700 6.10000 31.20400
H  34.65500 7.65200 31.08200
H  34.17000 7.38900 28.51000
H  34.63000 5.96700 29.31500
H  34.24100 5.83500 27.55300
H  40.30600 9.66200 25.65900
H  42.94300 8.36600 25.94400
H  40.07500 8.13400 24.12900
H  40.13300 6.72700 25.16700
H  41.64500 7.28900 24.49900
H  43.86900 10.69000 25.45000
H  42.45700 11.45200 26.20300
H  41.50500 10.40000 23.81300
H  42.93400 11.48700 23.57900
H  41.52900 12.03800 24.48300
H  46.85300 9.59700 29.82100
H  46.91900 11.34500 30.36300
H  46.27200 10.94500 28.82900
H  43.62800 11.82700 34.28900
H  43.80100 10.51100 38.51000
H  45.13700 9.73400 37.62100
H  43.47900 9.06000 37.65000
Mg 48.63000 33.90500 27.54000
C  46.93300 32.33100 30.05000
C  48.65500 36.80600 29.54200
C  50.21400 35.58500 25.14100
C  47.97500 31.23800 25.41900
N  47.87400 34.48400 29.59300
C  47.34200 33.60800 30.47500
C  47.11700 34.20800 31.87600
C  47.30400 35.74500 31.50900
C  47.93900 35.69000 30.09300
C  46.04700 36.58000 31.65600
C  48.23200 33.71400 32.77500
C  47.66900 33.40800 34.18700
H  47.75200 34.50100 35.31200
N  49.39300 35.92200 27.39900
C  49.34800 36.93600 28.32800
C  50.18500 38.05900 27.88700
C  50.81200 37.63600 26.65400
C  50.18100 36.37400 26.33000
C  50.38300 39.31300 28.68000
C  51.87200 38.34100 25.76900
O  52.17700 37.82700 24.70700
C  52.44500 39.72200 26.11600
N  48.91500 33.61200 25.53500
C  49.59200 34.42300 24.73100
C  49.87500 33.84900 23.34400
C  49.43500 32.40000 23.56500
C  48.69800 32.38200 24.91200
C  49.13100 34.59200 22.18400
C  50.62000 31.37200 23.63700
C  50.18300 29.93300 22.97200
N  47.63300 32.10300 27.65800
C  47.43100 31.14600 26.71000
C  46.71300 30.07000 27.31700
C  46.45500 30.42700 28.63100
C  47.03000 31.72600 28.74200
C  46.38300 28.83300 26.66600
C  45.84000 30.09800 29.95800
O  45.17200 29.07900 30.21300
C  46.07700 31.33900 30.91900
C  46.77600 30.76800 32.04600
O  47.95200 30.47000 32.09500
O  45.85800 30.67900 33.10300
C  46.31900 29.94600 34.32900
H  48.76100 37.70900 30.14700
H  50.72200 36.16000 24.36300
H  47.73100 30.44200 24.71300
H  46.08000 34.05700 32.17800
H  48.07000 36.19300 32.14200
H  46.00600 37.34900 30.88500
H  46.18200 37.08000 32.61600
H  45.10600 36.04300 31.77100
H  49.04200 34.44300 32.75400
H  48.71800 32.86100 32.30100
H  48.24900 32.53600 34.48900
H  46.61600 33.12700 34.20900
H  51.12300 39.21000 29.47400
H  49.47700 39.50200 29.25700
H  50.69100 40.15600 28.06200
H  52.55800 39.90200 27.18500
H  51.93800 40.58800 25.69000
H  53.42300 39.57800 25.65700
H  50.91500 34.11900 23.16100
H  48.60400 32.10900 22.92300
H  48.46500 35.39400 22.50400
H  48.68600 33.80300 21.57800
H  49.85300 35.17600 21.61300
H  51.00600 31.20400 24.64200
H  51.50900 31.76900 23.14700
H  49.13800 29.90000 22.66400
H  50.35400 29.15000 23.71100
H  50.83100 29.71000 22.12400
H  45.86300 28.14600 27.33200
H  47.23900 28.28500 26.27300
H  45.73800 29.21100 25.87300
H  45.11500 31.79600 31.15100
H  47.08100 29.19800 34.11300
H  45.44100 29.48000 34.77700
H  46.64900 30.66600 35.07800

