158

Mg 54.99600 24.91700 44.12400
C  51.93200 26.88700 43.36200
C  53.13400 22.23000 43.03600
C  57.86100 23.43600 43.89100
C  56.48900 27.93200 44.77600
N  52.84000 24.73100 43.06900
C  51.82100 25.59900 42.89800
C  50.60300 24.86200 42.29900
C  50.91000 23.41700 42.90900
C  52.37500 23.44000 43.12700
C  50.13500 23.07600 44.30100
C  50.48600 24.90600 40.71800
C  49.06900 24.49000 40.29000
H  48.65300 24.64300 38.80100
N  55.42700 23.05900 43.63300
C  54.51800 22.05200 43.18100
C  55.24800 20.79800 43.08800
C  56.61400 21.06700 43.38400
C  56.67800 22.53200 43.60900
C  54.59000 19.45700 42.66500
C  57.66400 20.03400 43.48900
O  57.39900 18.88100 43.41200
C  59.06700 20.40800 43.83200
N  56.93600 25.62400 44.12100
C  57.96400 24.76600 44.15100
C  59.22200 25.41100 44.65900
C  58.79300 26.95800 44.67300
C  57.23600 26.88400 44.52800
C  59.70900 24.90400 46.06000
C  59.43100 27.74300 43.46100
C  60.15800 29.07200 43.86400
N  54.35300 26.95700 44.21300
C  55.13200 28.02800 44.55900
C  54.31400 29.23000 44.62500
C  53.05800 28.77200 44.18200
C  53.11500 27.39500 43.91100
C  54.72800 30.64100 44.98300
C  51.75800 29.29700 43.86100
O  51.33500 30.45800 43.93200
C  50.91300 28.02000 43.36100
C  50.42000 28.27100 41.99800
O  51.16700 28.68000 41.12200
O  49.10000 27.90200 41.82400
C  48.71200 27.97400 40.42400
H  52.44500 21.39300 42.90800
H  58.78800 22.93000 44.16900
H  57.03300 28.87100 44.89800
H  49.74200 25.26800 42.83100
H  50.74400 22.68400 42.12000
H  49.37600 23.82500 44.52800
H  50.86900 23.02100 45.10500
H  49.65200 22.10400 44.20600
H  51.05000 24.02500 40.41100
H  50.85800 25.81800 40.25300
H  48.26900 24.88800 40.91500
H  48.91400 23.41600 40.38800
H  53.70700 19.70800 42.07700
H  54.19900 18.99000 43.56900
H  55.19600 18.73700 42.11600
H  59.45000 21.11300 43.09400
H  59.70000 19.53700 44.00400
H  58.89600 20.95400 44.75900
H  59.88100 25.07800 43.85600
H  59.10000 27.42500 45.60900
H  60.14800 23.90600 46.06500
H  58.93100 25.06700 46.80500
H  60.52200 25.48100 46.50100
H  58.68600 27.93400 42.68900
H  60.18100 27.08000 43.03000
H  59.82200 29.77600 43.10400
H  61.21500 28.93400 44.09100
H  59.62400 29.38400 44.76200
H  53.94400 31.28100 44.57900
H  55.71300 30.87200 44.57600
H  54.83200 30.72900 46.06400
H  50.19900 27.83200 44.16300
H  47.86200 27.33400 40.19100
H  49.51300 27.69000 39.74200
H  48.41500 28.99300 40.17300
Mg 5.60000 55.35500 40.57900
C  3.91000 52.29400 40.14900
C  8.27200 53.99600 38.68000
C  7.03200 58.21300 40.82200
C  2.57200 56.71800 41.67600
N  5.95300 53.41500 39.44300
C  5.16400 52.32300 39.49000
C  5.78800 51.24000 38.61300
C  7.22500 51.72800 38.33400
C  7.15000 53.16800 38.77100
C  8.36700 50.92200 39.09200
C  5.00300 50.97400 37.35900
C  4.70800 49.46600 37.04500
H  5.19500 48.95100 35.70000
N  7.40900 55.96200 39.97000
C  8.38000 55.27500 39.30200
C  9.50900 56.17500 39.08600
C  9.20900 57.44200 39.63100
C  7.83700 57.23900 40.22000
C  10.68500 55.84500 38.16000
C  10.04400 58.69400 39.45600
O  11.16900 58.62800 38.96400
C  9.61600 60.10800 39.99100
N  4.93100 57.27600 41.23600
C  5.76200 58.22700 41.33900
C  5.06500 59.53100 41.82700
C  3.58200 59.05500 42.03800
C  3.63500 57.59500 41.58500
C  5.66900 60.20200 43.05200
C  2.49300 59.76900 41.23500
C  1.21900 60.07100 41.92000
N  3.63400 54.70300 40.92500
C  2.46200 55.37900 41.32200
C  1.29300 54.45600 41.43100
C  1.92000 53.21400 41.19100
C  3.25700 53.42200 40.70900
C  -0.13000 54.82100 41.83900
C  1.69500 51.76800 41.21600
O  0.71800 51.16600 41.66400
C  3.01700 51.11000 40.62700
C  2.73000 49.95800 39.72500
O  2.03800 49.93100 38.73300
O  3.09000 48.86000 40.51800
C  2.91600 47.55100 39.92700
H  9.08700 53.56000 38.09800
H  7.48700 59.16200 41.11300
H  1.61500 57.11600 42.01800
H  5.83000 50.33500 39.21800
H  7.42600 51.76200 37.26300
H  8.62100 51.52500 39.96300
H  9.26800 50.95900 38.48000
H  8.06500 49.89200 39.28500
H  5.58500 51.27700 36.48800
H  4.12900 51.61400 37.48100
H  3.62300 49.41000 36.95800
H  5.01500 48.84700 37.88800
H  11.62900 56.05700 38.66200
H  10.52000 56.39300 37.23300
H  10.85000 54.79700 37.90900
H  8.56000 60.36200 39.90000
H  10.13600 60.85800 39.39500
H  9.94200 60.29300 41.01400
H  5.01500 60.22600 40.98900
H  3.44400 59.02400 43.11800
H  5.00600 60.38600 43.89700
H  6.07200 61.18400 42.80500
H  6.42900 59.59500 43.54300
H  2.34500 59.25500 40.28500
H  2.84400 60.77600 41.00500
H  1.25900 61.04800 42.40200
H  1.11100 59.37700 42.75400
H  0.42200 59.80100 41.22800
H  -0.20000 55.59100 42.60700
H  -0.65800 53.92500 42.16600
H  -0.61400 55.13800 40.91600
H  3.56000 50.79800 41.51900
H  2.46400 47.66800 38.94200
H  2.42000 46.85400 40.60300
H  3.90000 47.20300 39.61100

