158

Mg 8.35400 3.99900 28.18400
C  9.73700 2.37300 31.09400
C  6.58600 6.01000 30.34700
C  6.79900 5.13200 25.53700
C  9.90500 1.43400 26.25000
N  8.15200 4.05900 30.49100
C  8.77100 3.34800 31.44600
C  8.62100 4.02100 32.80600
C  7.48800 5.06800 32.52400
C  7.36500 4.97900 31.00100
C  6.12000 4.94900 33.30800
C  9.94400 4.56200 33.33600
C  10.58100 3.97600 34.65100
H  10.66300 4.87600 35.90200
N  6.92000 5.47300 27.96200
C  6.33200 6.28100 28.95700
C  5.49700 7.26500 28.31500
C  5.63800 7.08900 26.90600
C  6.38700 5.83400 26.71200
C  4.72500 8.39000 29.06200
C  5.12100 7.92100 25.84800
O  4.99000 7.42600 24.67500
C  4.72600 9.38200 26.01800
N  8.13100 3.23900 26.26100
C  7.62600 4.01000 25.28000
C  8.05100 3.63000 23.86100
C  9.15400 2.61400 24.04500
C  9.06100 2.37600 25.59900
C  6.94300 3.24800 22.82500
C  10.57300 3.00200 23.51700
C  11.44700 3.88800 24.45400
N  9.58400 2.17800 28.51000
C  10.10800 1.25300 27.62500
C  11.03000 0.42500 28.30500
C  10.86200 0.84100 29.65400
C  9.92700 1.81200 29.73600
C  11.92400 -0.55900 27.69200
C  11.30300 0.56200 30.95900
O  12.08500 -0.25900 31.31000
C  10.62400 1.48300 31.94400
C  9.92300 0.76700 32.93500
O  8.79600 0.28300 32.78500
O  10.61900 0.70500 34.14300
C  9.69700 0.32000 35.22200
H  6.26900 6.76300 31.07100
H  6.46000 5.50800 24.56900
H  10.30700 0.69900 25.54900
H  8.20400 3.28700 33.49500
H  7.75800 6.10700 32.71400
H  5.57000 5.88800 33.37200
H  6.47900 4.62700 34.28500
H  5.58100 4.06400 32.97100
H  9.71200 5.61200 33.51300
H  10.68700 4.57800 32.53800
H  11.60200 3.68100 34.40800
H  9.98300 3.12100 34.96700
H  5.05000 9.39200 28.78400
H  4.95800 8.21000 30.11100
H  3.64200 8.31500 28.95800
H  3.83100 9.32200 26.63800
H  4.48500 9.77700 25.03100
H  5.51600 9.95100 26.50900
H  8.56800 4.49200 23.44000
H  8.81900 1.68200 23.59200
H  5.98300 3.07500 23.31100
H  7.21300 2.37500 22.23100
H  6.82800 4.07700 22.12700
H  10.47700 3.57300 22.59300
H  11.07900 2.05100 23.35300
H  10.96100 4.28800 25.34300
H  11.76500 4.72600 23.83200
H  12.34100 3.34100 24.75500
H  12.10300 -0.23400 26.66700
H  11.63900 -1.61000 27.73600
H  12.85400 -0.41900 28.24300
H  11.31500 2.05700 32.56300
H  9.37100 -0.71800 35.16000
H  8.89200 1.05300 35.16300
H  10.17900 0.38900 36.19700
Mg 6.51700 53.78100 40.71300
C  6.31100 50.30700 40.32900
C  9.83700 53.66500 39.93200
C  6.45200 57.13900 40.45400
C  2.98900 53.88200 41.27500
N  7.85900 52.14500 40.15200
C  7.62300 50.78700 40.05400
C  8.86700 50.03300 39.62800
C  9.96000 51.08700 39.97000
C  9.16100 52.42200 40.00700
C  10.82000 50.85000 41.25000
C  8.72500 49.56700 38.13500
C  8.69900 50.61700 37.03200
H  7.37900 50.82400 36.26500
N  7.96000 55.18400 40.26500
C  9.28500 54.97200 39.98500
C  9.98100 56.24300 39.82100
C  9.04600 57.28300 40.19700
C  7.75000 56.56700 40.36000
C  11.40200 56.46000 39.40400
C  9.31400 58.77400 40.47000
O  10.43600 59.14500 40.24100
C  8.37100 59.74800 41.03200
N  4.90200 55.26100 40.73700
C  5.19200 56.60500 40.68400
C  3.91800 57.38800 40.63900
C  2.81800 56.42300 41.22900
C  3.59200 55.08600 41.00900
C  4.06100 58.70400 41.50300
C  1.35900 56.44700 40.68100
C  0.31300 56.41200 41.73800
N  4.94800 52.43600 40.89000
C  3.64100 52.58500 41.21100
C  3.06400 51.25500 41.51900
C  4.02000 50.33800 41.09200
C  5.18300 51.09500 40.76300
C  1.71100 50.89600 42.17900
C  4.31900 48.93600 40.94300
O  3.66200 47.92500 41.09000
C  5.82700 48.85800 40.53400
C  5.78500 47.91100 39.37200
O  5.33900 48.23500 38.28400
O  6.08300 46.62200 39.74100
C  5.94600 45.60200 38.75500
H  10.91200 53.56800 39.77000
H  6.37400 58.21300 40.27000
H  1.95200 53.77800 41.60100
H  9.01000 49.17900 40.29000
H  10.60200 51.23900 39.10200
H  11.32500 49.90700 41.04200
H  10.20600 51.03500 42.13100
H  11.53000 51.66300 41.40900
H  7.89900 48.86400 38.03000
H  9.59800 48.92100 38.04200
H  9.52800 50.35900 36.37300
H  9.01200 51.63400 37.27100
H  11.56300 57.25200 38.67300
H  11.71700 55.62400 38.78100
H  12.17600 56.51300 40.17000
H  8.98100 60.45600 41.59400
H  7.76900 59.20100 41.75800
H  7.79200 60.26300 40.26600
H  3.73400 57.57600 39.58100
H  2.68200 56.59500 42.29600
H  5.06200 58.81200 41.92100
H  3.38500 58.59200 42.35100
H  3.75800 59.59900 40.96000
H  1.25200 55.52700 40.10600
H  1.22800 57.25000 39.95600
H  0.54900 56.72900 42.75400
H  -0.24000 55.47300 41.73800
H  -0.48900 57.10900 41.49500
H  1.21500 50.11200 41.60600
H  1.00200 51.72400 42.16100
H  1.88800 50.63100 43.22200
H  6.49400 48.36600 41.24200
H  6.07700 44.69400 39.34400
H  6.63300 45.62300 37.90900
H  4.92700 45.60400 38.36900

