158

Mg -1.78600 17.39900 26.25400
C  -1.91100 15.17600 28.97100
C  -2.27900 20.04900 28.56700
C  -2.41300 19.62300 23.69300
C  -2.02100 14.71500 24.17500
N  -1.99200 17.59200 28.53100
C  -2.01400 16.49200 29.37800
C  -2.11300 16.98100 30.83900
C  -2.20700 18.58300 30.76600
C  -2.15500 18.78600 29.21800
C  -3.55500 19.19900 31.41800
C  -1.01400 16.40200 31.82300
C  -0.73200 17.24400 32.95700
H  -0.28700 16.63800 34.30600
N  -2.15900 19.51000 26.13300
C  -2.20900 20.41800 27.20300
C  -2.23100 21.78700 26.66800
C  -2.08100 21.64500 25.28000
C  -2.32800 20.20200 24.94000
C  -2.21500 23.06200 27.53100
C  -1.89100 22.71700 24.26200
O  -2.01300 22.56100 23.03500
C  -1.39200 24.02700 24.76600
N  -2.16300 17.13300 24.27600
C  -2.33900 18.18500 23.39800
C  -2.66400 17.68700 22.00800
C  -2.28500 16.20600 22.04300
C  -2.09500 15.98200 23.60600
C  -4.08000 18.02400 21.58700
C  -0.97100 15.83100 21.22600
C  0.47500 16.03300 21.69200
N  -1.86200 15.34300 26.49000
C  -1.89900 14.32800 25.54000
C  -1.88300 13.04400 26.14400
C  -2.03700 13.35900 27.51900
C  -1.89600 14.74900 27.66700
C  -1.91300 11.72600 25.56800
C  -2.19900 12.70400 28.78000
O  -2.38400 11.50700 29.08000
C  -2.07200 13.84000 29.80300
C  -0.86100 13.47600 30.77400
O  0.26500 13.75700 30.60600
O  -1.36700 12.77000 31.80300
C  -0.50300 12.46000 32.93400
H  -2.41200 20.90100 29.23700
H  -2.48200 20.26100 22.80900
H  -2.10000 13.87800 23.47900
H  -3.05500 16.62900 31.25900
H  -1.40300 19.19600 31.17400
H  -3.35000 20.18100 31.84400
H  -3.93600 18.67600 32.29600
H  -4.32800 19.29900 30.65700
H  -0.10700 16.12700 31.28600
H  -1.41700 15.54800 32.36800
H  -1.52200 17.96700 33.15900
H  0.14800 17.76800 32.58400
H  -2.77000 23.86500 27.04500
H  -1.21600 23.45200 27.72800
H  -2.84600 22.95600 28.41400
H  -1.22100 24.57600 23.84100
H  -0.47600 23.87500 25.33700
H  -2.19100 24.54900 25.29300
H  -2.02200 18.17400 21.27300
H  -3.04400 15.50500 21.69800
H  -4.54300 18.53300 22.43200
H  -4.55500 17.05900 21.41000
H  -3.92000 18.69800 20.74600
H  -1.01800 16.20300 20.20200
H  -0.99000 14.74800 21.10000
H  0.48200 16.32700 22.74200
H  1.16300 16.65600 21.12100
H  1.03800 15.10000 21.66800
H  -1.23100 11.20900 26.24200
H  -1.49700 11.87500 24.57100
H  -2.96800 11.45600 25.59800
H  -2.91200 14.02100 30.47300
H  -0.85200 11.48300 33.26900
H  -0.77800 13.30300 33.56800
H  0.58400 12.44800 32.84500
Mg 8.60600 47.52400 27.76900
C  6.85400 47.21000 30.98800
C  11.45200 47.84300 29.49000
C  9.93400 48.45500 24.89700
C  5.36700 47.95000 26.29500
N  9.05600 47.64600 29.98500
C  8.27700 47.36100 31.16000
C  9.06000 47.55800 32.46400
C  10.46700 48.04900 31.88400
C  10.32100 47.79800 30.36500
C  10.85200 49.49100 32.42000
C  9.13700 46.39500 33.52500
C  9.09100 46.82200 35.02900
H  9.66300 45.89600 36.06700
N  10.48900 47.78800 27.14200
C  11.54700 47.82000 28.04700
C  12.76500 47.99200 27.29300
C  12.37900 48.19200 25.89200
C  10.86000 48.13600 25.87600
C  14.17300 48.18200 27.97600
C  13.29800 48.47100 24.69800
O  12.89500 49.07400 23.68200
C  14.75900 48.21800 24.85500
N  7.76800 48.28300 25.85900
C  8.57300 48.44500 24.83000
C  7.81400 48.58800 23.48000
C  6.32800 48.51000 23.97500
C  6.42900 48.15900 25.44300
C  8.09900 49.89600 22.69400
C  5.44200 47.47900 23.17100
C  5.47100 47.65900 21.69600
N  6.52700 47.50500 28.44400
C  5.32600 47.73200 27.71200
C  4.12600 47.44900 28.51900
C  4.68000 47.27300 29.79400
C  6.14300 47.36300 29.73700
C  2.70500 47.40100 27.99400
C  4.38000 47.05700 31.19600
O  3.32100 46.81700 31.77500
C  5.73500 47.09500 32.04200
C  5.84800 45.88800 32.85900
O  5.75900 44.78400 32.34500
O  5.90500 46.16500 34.21600
C  5.85800 44.99100 35.06400
H  12.39000 47.93800 30.04200
H  10.42500 48.77200 23.97500
H  4.38800 47.93600 25.81100
H  8.75800 48.39700 33.09200
H  11.25700 47.33300 32.11300
H  11.66200 49.20600 33.09100
H  10.13200 50.12200 32.94200
H  11.22300 50.17900 31.66000
H  10.00300 45.75300 33.36700
H  8.42500 45.59400 33.32700
H  8.01300 46.74300 35.17000
H  9.45100 47.84300 35.16200
H  14.84600 47.32500 27.96300
H  14.13400 48.51100 29.01500
H  14.49200 49.08100 27.44900
H  15.34500 49.03300 25.28100
H  15.12800 48.01300 23.85000
H  15.04100 47.34100 25.43700
H  8.12300 47.80500 22.78700
H  5.82900 49.47100 23.84700
H  8.90300 49.71800 21.97900
H  8.40500 50.76600 23.27500
H  7.27000 50.16700 22.04000
H  4.37300 47.53600 23.37700
H  5.84700 46.48600 23.36800
H  6.15200 46.96800 21.20000
H  5.68500 48.69100 21.41800
H  4.45400 47.39900 21.40000
H  2.59400 48.36200 27.49300
H  2.11400 47.31500 28.90600
H  2.42900 46.57400 27.34100
H  5.74200 47.95600 32.71200
H  6.92000 44.74400 35.06800
H  5.35600 44.08700 34.71800
H  5.48200 45.22900 36.05900

