158

Mg 53.85100 24.83000 44.89400
C  51.02100 26.92000 44.07700
C  51.95800 22.05300 43.48600
C  56.54900 22.89700 44.78400
C  55.62800 27.68700 45.61200
N  51.96000 24.62700 43.71600
C  50.96300 25.60400 43.64000
C  49.71400 24.98100 42.96300
C  49.94700 23.53900 43.29700
C  51.41800 23.34600 43.48200
C  49.10400 22.77900 44.33900
C  49.38000 25.28200 41.52800
C  50.25000 24.78100 40.38500
H  50.88500 25.69900 39.33300
N  54.22200 22.72700 44.25900
C  53.29300 21.81100 43.79000
C  53.93700 20.48400 43.78900
C  55.28200 20.64500 44.19300
C  55.42700 22.12800 44.45300
C  53.27100 19.15000 43.53900
C  56.34900 19.50200 44.23300
O  56.06300 18.29500 43.98800
C  57.68500 19.81400 44.84500
N  55.82100 25.33800 44.89500
C  56.76000 24.33000 45.06200
C  58.14300 24.84800 45.37900
C  57.84900 26.39900 45.59800
C  56.34000 26.56300 45.28900
C  59.00000 24.08600 46.46200
C  58.69700 27.39900 44.80100
C  59.28500 28.53400 45.58700
N  53.38800 26.84300 45.08800
C  54.25800 27.91500 45.37100
C  53.46100 29.16300 45.51400
C  52.11800 28.81800 45.08500
C  52.18600 27.36900 44.76800
C  53.97900 30.51700 46.04000
C  50.77200 29.29700 44.82000
O  50.33100 30.41900 44.77300
C  50.02600 28.15300 44.12200
C  49.65200 28.68200 42.79400
O  50.38000 28.73200 41.78100
O  48.38400 29.27800 42.76800
C  47.92600 29.68200 41.44000
H  51.37400 21.16200 43.24600
H  57.56300 22.49300 44.76200
H  56.19900 28.48200 46.09500
H  48.89400 25.35900 43.57400
H  49.78600 22.98000 42.37600
H  49.75700 22.12800 44.92100
H  48.42600 22.11800 43.79900
H  48.60800 23.54300 44.93600
H  49.21000 26.34800 41.37800
H  48.35400 24.94600 41.37300
H  49.67200 24.07300 39.79200
H  51.12300 24.28300 40.80600
H  53.59700 18.67500 42.61300
H  52.19800 19.21000 43.35700
H  53.46700 18.36500 44.27000
H  57.51100 20.42500 45.73100
H  58.37400 20.33500 44.18000
H  58.16200 18.88700 45.16300
H  58.59800 24.73000 44.39500
H  57.96900 26.64100 46.65400
H  58.52500 23.16700 46.80500
H  59.19600 24.71900 47.32800
H  59.95900 23.70900 46.10600
H  58.08000 27.78200 43.98900
H  59.58300 26.88500 44.42900
H  60.34900 28.31900 45.68100
H  58.73900 28.72300 46.51100
H  59.26400 29.40600 44.93400
H  53.19800 31.10800 46.51900
H  54.45600 31.09700 45.25100
H  54.72700 30.38600 46.82200
H  49.10400 27.89000 44.64000
H  47.07700 30.36500 41.46500
H  47.55200 28.86300 40.82600
H  48.74000 30.19300 40.92600
Mg 47.96600 34.70600 26.95500
C  46.51800 33.34500 29.70200
C  48.01500 37.82300 28.60800
C  49.09300 36.05100 24.19800
C  47.33000 31.61900 25.21500
N  47.37800 35.43200 28.97300
C  46.84900 34.67400 29.94700
C  46.76500 35.40600 31.29700
C  46.98300 36.83800 30.81900
C  47.46400 36.72800 29.34500
C  45.87800 37.76000 31.02200
C  47.81400 34.88700 32.35900
C  47.41000 34.84200 33.83300
H  46.33200 35.89000 34.35900
N  48.66600 36.61800 26.48600
C  48.63100 37.74500 27.31600
C  49.35700 38.80600 26.59800
C  49.64000 38.31900 25.25000
C  49.11400 36.94700 25.24900
C  49.63400 40.09700 27.38900
C  50.32500 38.89700 24.06600
O  50.64100 38.27000 23.06000
C  50.71300 40.28800 24.13400
N  47.95700 34.02100 24.95300
C  48.61100 34.80300 24.02900
C  48.80200 34.05700 22.72000
C  48.30400 32.62700 23.05600
C  47.79300 32.74900 24.47400
C  48.13400 34.74900 21.42100
C  49.40300 31.56100 22.99200
C  50.64000 31.72200 24.01500
N  47.13300 32.86100 27.37200
C  46.90600 31.67500 26.53400
C  46.29600 30.67800 27.40400
C  46.00500 31.33400 28.61700
C  46.58900 32.60300 28.53900
C  45.94700 29.20700 27.11400
C  45.29600 31.19800 29.83700
O  44.62200 30.27500 30.28400
C  45.49700 32.52100 30.58300
C  45.65700 32.26700 32.01100
O  46.51200 31.48300 32.47300
O  44.57100 32.74700 32.70700
C  44.21000 32.35900 34.16000
H  48.20500 38.77000 29.11800
H  49.45800 36.36900 23.21900
H  47.30800 30.71200 24.60700
H  45.76300 35.32400 31.71700
H  47.85500 37.28300 31.29900
H  46.20600 38.72900 31.39600
H  45.07400 37.40400 31.66600
H  45.30900 37.94200 30.11000
H  48.78600 35.32700 32.13800
H  47.99900 33.85700 32.05500
H  48.34800 34.85600 34.38700
H  47.04000 33.87800 34.18300
H  50.24000 39.69100 28.19900
H  48.69400 40.53800 27.72000
H  50.21700 40.82600 26.82500
H  51.55400 40.30100 24.82800
H  49.86500 40.85600 24.51800
H  50.98000 40.68500 23.15500
H  49.87700 33.93700 22.59100
H  47.46900 32.38700 22.39800
H  48.86000 35.22600 20.76200
H  47.46200 35.57000 21.66900
H  47.54900 33.98400 20.91100
H  49.73200 31.52900 21.95300
H  48.92800 30.58900 23.11800
H  51.54900 31.67600 23.41600
H  50.96900 30.83100 24.55000
H  50.66700 32.58700 24.67800
H  46.19900 28.55300 27.94900
H  46.52400 28.92400 26.23300
H  44.94400 29.12100 26.69600
H  44.58300 33.11000 30.51400
H  43.17100 32.03200 34.10400
H  44.29700 33.27000 34.75200
H  44.92700 31.71700 34.67200

