158

Mg -2.50200 18.36800 27.28900
C  -2.65400 15.95300 29.72600
C  -2.86400 20.82600 29.83100
C  -2.60300 20.70000 24.82200
C  -2.84000 15.83000 24.74900
N  -2.53900 18.30400 29.56800
C  -2.61000 17.15300 30.35600
C  -2.68200 17.56400 31.85200
C  -3.03400 19.12800 31.84100
C  -2.79900 19.46100 30.32400
C  -4.46300 19.43300 32.25100
C  -1.43900 17.10800 32.65800
C  -1.13200 17.87800 33.99100
H  -0.54600 16.96000 35.08700
N  -2.58200 20.41200 27.33300
C  -2.69600 21.24900 28.46500
C  -2.56000 22.64700 27.98600
C  -2.48600 22.64500 26.57900
C  -2.57000 21.20500 26.20700
C  -2.60900 23.78600 28.98500
C  -2.40300 23.79800 25.57600
O  -2.28100 23.67000 24.37000
C  -2.48600 25.19900 26.09500
N  -2.86600 18.22000 24.99700
C  -2.79600 19.37700 24.27100
C  -2.80100 19.03500 22.76000
C  -2.86600 17.47600 22.73900
C  -2.78800 17.17200 24.22500
C  -3.84900 19.67200 21.82500
C  -1.88500 16.66300 21.86700
C  -0.53500 16.51600 22.57500
N  -2.59200 16.31900 27.16600
C  -2.70400 15.44100 26.11900
C  -2.82600 14.07700 26.68000
C  -2.83000 14.23600 28.04400
C  -2.75200 15.64400 28.32600
C  -2.87300 12.82600 25.84900
C  -2.87700 13.48900 29.27100
O  -3.04900 12.28800 29.57600
C  -2.76500 14.60800 30.36700
C  -1.63100 14.18700 31.18900
O  -0.41200 14.27500 30.92900
O  -2.13600 13.52000 32.25300
C  -1.12600 12.82100 33.08800
H  -2.98600 21.62000 30.57000
H  -2.67100 21.50900 24.09100
H  -2.86000 15.11000 23.92800
H  -3.46400 16.96900 32.32300
H  -2.40600 19.72900 32.49800
H  -4.86700 20.03400 31.43600
H  -4.50600 20.11900 33.09800
H  -5.12500 18.57900 32.39300
H  -0.59900 17.26200 31.98200
H  -1.70000 16.07000 32.86400
H  -2.06900 18.29400 34.36000
H  -0.30800 18.57400 33.83400
H  -1.77100 24.37300 28.61100
H  -2.34600 23.41800 29.97600
H  -3.47100 24.44700 28.89200
H  -1.71200 25.49100 26.80400
H  -3.43000 25.15000 26.63800
H  -2.61200 25.94600 25.31100
H  -1.77600 19.27800 22.47900
H  -3.89000 17.23100 22.46000
H  -4.43800 20.30800 22.48600
H  -4.52000 18.98500 21.31000
H  -3.35400 20.24900 21.04300
H  -1.80700 17.16100 20.90000
H  -2.37500 15.73200 21.58400
H  -0.47200 15.64300 23.22500
H  -0.31500 17.33900 23.25500
H  0.25400 16.42000 21.83000
H  -3.28000 12.97500 24.84900
H  -3.46700 12.12600 26.43700
H  -1.86400 12.42400 25.75100
H  -3.68400 14.56100 30.95000
H  -0.30600 13.50600 33.30400
H  -0.82300 11.83000 32.74900
H  -1.57400 12.78200 34.08100
Mg 46.27300 5.93700 49.12800
C  43.91300 8.36300 48.44600
C  44.10300 3.51000 47.97600
C  48.85400 3.70300 49.15500
C  48.51600 8.51100 49.85900
N  44.29000 5.96700 48.11600
C  43.50800 7.10900 48.00900
C  42.12900 6.75500 47.38900
C  42.11100 5.17600 47.41000
C  43.58000 4.86900 47.88000
C  41.05500 4.54200 48.44800
C  42.09100 7.37200 45.90700
C  41.06500 8.48600 45.55000
H  40.29200 8.02300 44.28100
N  46.40800 3.80700 48.63900
C  45.37800 2.96200 48.36400
C  45.89200 1.66000 48.13800
C  47.31200 1.64400 48.45300
C  47.62800 3.05400 48.74300
C  45.10300 0.52600 47.63700
C  48.17500 0.43900 48.41100
O  47.73500 -0.66000 48.04600
C  49.66600 0.60100 48.63100
N  48.36700 6.09300 49.39000
C  49.23500 5.00600 49.39000
C  50.70200 5.37500 49.71000
C  50.53200 6.82300 50.11800
C  49.03600 7.19400 49.76900
C  51.27000 4.49200 50.84800
C  51.52500 7.88300 49.51100
C  52.16600 8.92900 50.42000
N  46.21800 8.03000 49.20900
C  47.20000 8.93700 49.59300
C  46.70900 10.28700 49.51400
C  45.37000 10.08500 49.15900
C  45.15300 8.69300 48.86500
C  47.63000 11.45200 49.51100
C  44.19100 10.76200 48.81500
O  43.89500 11.93200 48.72000
C  43.15600 9.63700 48.38000
C  41.92500 9.75400 49.27700
O  41.83300 9.40100 50.45300
O  40.90700 10.25100 48.56200
C  39.53200 10.48200 49.17400
H  43.39200 2.75800 47.62700
H  49.61300 2.95400 49.39000
H  49.27700 9.25300 50.11000
H  41.26400 7.17900 47.89900
H  41.89700 4.82400 46.40100
H  40.36200 5.31600 48.77800
H  41.61200 4.11200 49.28000
H  40.51200 3.82700 47.83000
H  42.06700 6.65400 45.08700
H  43.02400 7.87900 45.66400
H  41.59400 9.42800 45.40700
H  40.36600 8.70000 46.35900
H  44.84600 -0.21300 48.39600
H  45.58300 -0.05800 46.85300
H  44.13300 0.82500 47.24000
H  50.07500 1.37000 47.97600
H  50.15900 -0.34400 48.40300
H  49.89000 0.81500 49.67600
H  51.26300 5.29400 48.77900
H  50.49900 6.93200 51.20200
H  50.50700 3.84700 51.28600
H  51.60300 5.12500 51.67000
H  52.12000 3.84500 50.63100
H  50.94100 8.45200 48.78700
H  52.38100 7.32800 49.12900
H  52.06600 9.97900 50.14600
H  53.24400 8.77200 50.43400
H  51.78100 8.63700 51.39800
H  48.09300 11.42900 50.49800
H  47.04800 12.34600 49.29000
H  48.43200 11.22100 48.80900
H  42.86800 9.79300 47.34000
H  39.59700 11.22300 49.97100
H  39.08100 9.57900 49.58700
H  38.77000 10.86300 48.49400

