158

Mg 9.04300 47.23000 26.61500
C  7.13700 47.26600 29.61000
C  11.86900 47.89500 28.53500
C  10.69200 48.04800 23.85900
C  5.98400 47.14300 24.82100
N  9.42300 47.57300 28.84300
C  8.49200 47.41100 29.85900
C  9.22900 47.49400 31.24300
C  10.76000 47.84500 30.81800
C  10.70500 47.74200 29.28800
C  11.20700 49.20200 31.36000
C  9.08200 46.27400 32.22600
C  10.15000 46.11500 33.27300
H  9.50400 45.58800 34.60600
N  11.00700 47.71200 26.21300
C  12.00300 47.90900 27.13800
C  13.27900 47.98200 26.40800
C  12.93300 47.88500 24.98900
C  11.48000 47.85500 25.00900
C  14.65800 48.01100 27.06500
C  13.82800 47.98200 23.77000
O  13.50500 47.75700 22.58600
C  15.20600 48.38600 24.02400
N  8.40800 47.63100 24.61500
C  9.33700 48.08700 23.69700
C  8.66000 48.40400 22.38100
C  7.21800 47.79300 22.57200
C  7.20800 47.51900 24.11500
C  8.59900 49.91500 22.02400
C  6.99400 46.48500 21.74000
C  6.22500 46.55200 20.36600
N  6.99400 47.14800 27.08700
C  5.88200 47.14900 26.20900
C  4.73100 47.12000 27.06700
C  5.13400 47.11000 28.41100
C  6.54500 47.08700 28.37000
C  3.27900 47.02700 26.63400
C  4.71100 47.13600 29.76400
O  3.59400 47.03400 30.30000
C  6.02300 47.14100 30.63200
C  6.11900 45.81900 31.34100
O  6.64000 44.81200 30.88000
O  5.44300 45.89700 32.55200
C  5.65600 44.78600 33.49200
H  12.71200 47.86900 29.22800
H  11.18400 48.52300 23.00800
H  5.12400 47.10900 24.14800
H  8.65200 48.32400 31.65200
H  11.51600 47.11900 31.11900
H  10.62900 49.44900 32.25000
H  10.92600 50.03600 30.71700
H  12.25600 49.18100 31.65500
H  8.99600 45.31600 31.71400
H  8.17300 46.57500 32.74700
H  10.53200 47.09700 33.55400
H  10.93800 45.43900 32.94200
H  15.06300 48.97600 26.76100
H  15.25000 47.12900 26.81700
H  14.50700 48.01900 28.14400
H  15.79500 48.45300 23.10900
H  15.70800 47.64300 24.64300
H  15.32000 49.32600 24.56500
H  9.31600 47.95800 21.63400
H  6.44400 48.50300 22.28000
H  7.60500 50.34400 22.14900
H  8.94500 50.03300 20.99700
H  9.38900 50.42400 22.57500
H  6.56800 45.72700 22.39800
H  7.96600 46.06600 21.48100
H  7.00600 46.57900 19.60600
H  5.55900 47.41200 20.43600
H  5.58400 45.68600 20.19800
H  3.30000 47.34500 25.59200
H  2.71000 47.80600 27.14300
H  2.79100 46.06400 26.78400
H  6.00900 47.94200 31.37000
H  4.66100 44.55600 33.87500
H  6.11100 45.15800 34.41000
H  6.10200 43.87600 33.09100
Mg -2.02800 34.64100 26.89200
C  -3.48400 32.80000 29.57900
C  -0.83400 36.86000 29.26400
C  -1.16700 36.55800 24.35400
C  -3.90400 32.57600 24.67700
N  -2.26600 34.79700 29.21700
C  -2.78600 33.90000 30.10700
C  -2.33100 34.27300 31.55000
C  -1.62600 35.62300 31.40500
C  -1.58700 35.82600 29.90100
C  -2.32700 36.79900 32.18400
C  -1.49000 33.07700 32.23100
C  -2.30500 32.37600 33.37400
H  -1.71700 32.13300 34.78500
N  -1.08700 36.34400 26.80100
C  -0.64800 37.10000 27.91500
C  0.23200 38.14100 27.43400
C  0.16900 38.13300 26.01400
C  -0.68800 36.98800 25.63900
C  1.07400 39.07600 28.27800
C  0.76500 39.06900 24.99800
O  0.67200 38.90000 23.76800
C  1.53400 40.31000 25.50500
N  -2.60500 34.65200 24.77600
C  -1.91800 35.45700 24.01100
C  -2.29300 35.14800 22.53100
C  -2.89900 33.71100 22.59500
C  -3.11200 33.60300 24.13100
C  -3.21800 36.16200 21.93100
C  -2.14000 32.62300 21.97200
C  -0.85900 32.18100 22.66600
N  -3.35700 32.95600 26.93900
C  -4.01500 32.24100 26.02800
C  -4.65300 31.13100 26.68700
C  -4.50100 31.35500 28.07400
C  -3.68200 32.51400 28.17600
C  -5.36400 30.02600 25.96600
C  -4.85700 30.82400 29.36400
O  -5.53700 29.83700 29.58700
C  -4.27600 31.75300 30.38600
C  -5.39400 32.35800 31.22700
O  -6.14000 33.28600 30.97300
O  -5.41900 31.57300 32.37900
C  -6.53200 31.72100 33.36800
H  -0.31300 37.42400 30.04100
H  -0.95400 37.14400 23.45700
H  -4.04800 31.74500 23.98200
H  -3.34200 34.38600 31.94400
H  -0.68700 35.61500 31.95900
H  -3.04900 36.24300 32.78200
H  -2.74400 37.46600 31.43000
H  -1.57200 37.35700 32.73800
H  -0.56100 33.42800 32.68100
H  -1.25600 32.30900 31.49400
H  -2.51300 31.34900 33.07400
H  -3.25800 32.89100 33.49500
H  2.13300 39.07900 28.01700
H  1.07900 38.74100 29.31500
H  0.73900 40.11100 28.33200
H  0.77200 40.90200 26.01300
H  1.81200 40.69400 24.52400
H  2.34600 40.05200 26.18500
H  -1.35700 35.14500 21.97400
H  -3.89600 33.62900 22.16200
H  -4.20100 35.73900 21.72400
H  -2.66900 36.57900 21.08600
H  -3.41800 37.00000 22.59900
H  -1.87200 32.90800 20.95500
H  -2.82300 31.77800 22.06000
H  -0.71000 32.73400 23.59300
H  0.09200 32.39200 22.17600
H  -0.92700 31.10200 22.80100
H  -6.44000 30.17400 25.87500
H  -5.45600 29.24500 26.72100
H  -4.88400 29.79400 25.01500
H  -3.50700 31.19900 30.92400
H  -7.21100 32.57300 33.34900
H  -6.08000 31.78300 34.35800
H  -7.18300 30.85500 33.24600

