158

Mg -1.89800 17.09900 25.72600
C  -2.34300 14.80200 28.28100
C  -2.63100 19.67000 27.85600
C  -1.88900 19.23800 23.03900
C  -1.87500 14.28200 23.46200
N  -2.41000 17.21800 27.81400
C  -2.45800 16.17900 28.71300
C  -2.82600 16.65600 30.12700
C  -3.51300 17.99300 29.77200
C  -2.85000 18.42100 28.38400
C  -5.11100 17.88300 29.78400
C  -1.62300 16.78800 31.14800
C  -1.74000 15.97400 32.44100
H  -2.41500 16.67000 33.65300
N  -2.12200 19.20600 25.53200
C  -2.23000 20.08000 26.56000
C  -2.20700 21.38900 26.04900
C  -2.00600 21.30000 24.65500
C  -2.00800 19.87800 24.34600
C  -2.33900 22.61000 26.88100
C  -1.91700 22.35400 23.54900
O  -1.87600 22.09600 22.35900
C  -1.71700 23.79800 23.86300
N  -1.97300 16.73700 23.57500
C  -1.78700 17.85300 22.75100
C  -1.50500 17.34900 21.29600
C  -1.24500 15.84600 21.48500
C  -1.77300 15.58200 22.91900
C  -2.69200 17.67200 20.34500
C  0.24300 15.49400 21.12500
C  1.21200 16.17000 22.17800
N  -1.96200 14.96000 25.85500
C  -1.98600 13.95200 24.87200
C  -2.02400 12.70000 25.48600
C  -2.22000 12.98900 26.86700
C  -2.09100 14.34800 27.01700
C  -1.96600 11.43900 24.77500
C  -2.52900 12.39800 28.13300
O  -2.63900 11.24700 28.43800
C  -2.63800 13.60300 29.12800
C  -1.69900 13.39600 30.19000
O  -0.53300 13.64600 30.20200
O  -2.32800 12.69700 31.17600
C  -1.43000 12.25600 32.24200
H  -2.86900 20.50400 28.51900
H  -1.86200 19.77300 22.08800
H  -1.78100 13.60400 22.61100
H  -3.57800 15.98500 30.54300
H  -3.24200 18.79700 30.45600
H  -5.55300 17.69500 28.80500
H  -5.46400 18.80600 30.24400
H  -5.37800 17.07500 30.46500
H  -1.45600 17.83000 31.41800
H  -0.70700 16.53400 30.61400
H  -0.69600 15.80600 32.70700
H  -2.25900 15.03600 32.24400
H  -2.16100 22.46500 27.94700
H  -3.38000 22.91700 26.77500
H  -1.67500 23.41300 26.56100
H  -0.69400 23.77800 24.23800
H  -2.58800 23.99500 24.48800
H  -1.75600 24.39400 22.95200
H  -0.59900 17.89700 21.03700
H  -1.94200 15.37400 20.79200
H  -3.29500 16.77300 20.21200
H  -2.38000 18.10900 19.39600
H  -3.43500 18.36800 20.73400
H  0.54100 15.84900 20.13800
H  0.30200 14.40800 21.18600
H  1.84600 16.94300 21.74400
H  1.85100 15.41000 22.62600
H  0.72800 16.75500 22.96000
H  -2.97400 11.04400 24.65500
H  -1.33500 10.81600 25.40900
H  -1.47900 11.54000 23.80500
H  -3.69400 13.47900 29.36700
H  -0.71300 11.58700 31.76500
H  -1.96000 11.63700 32.96500
H  -0.85000 13.06300 32.69000
Mg 46.28000 25.42800 28.47000
C  46.96600 27.57800 31.13200
C  45.16700 23.08100 30.61200
C  46.50500 23.15200 25.96600
C  47.59400 27.82900 26.35700
N  46.18900 25.32300 30.53900
C  46.41200 26.33400 31.43500
C  45.88500 25.93800 32.84000
C  45.47200 24.49800 32.68100
C  45.56800 24.32000 31.18300
C  46.39700 23.57300 33.49100
C  44.75800 26.95200 33.35500
C  45.09000 27.72800 34.65200
H  44.03100 27.73000 35.68600
N  45.79500 23.42200 28.31200
C  45.38700 22.56400 29.33500
C  45.10000 21.25500 28.85900
C  45.61900 21.22700 27.55100
C  46.04200 22.58500 27.23900
C  44.38500 20.23600 29.67600
C  45.71600 20.02600 26.59200
O  46.19700 20.12200 25.45900
C  45.31700 18.60300 27.05300
N  46.90100 25.48900 26.58400
C  46.92700 24.41200 25.69400
C  47.32300 24.78500 24.26000
C  47.41500 26.32800 24.32100
C  47.27500 26.58900 25.79500
C  48.73600 24.26700 23.71500
C  46.29800 27.10900 23.58700
C  44.79900 27.08400 24.11800
N  47.12500 27.30200 28.66100
C  47.57100 28.21200 27.69800
C  47.97200 29.39900 28.26400
C  47.86200 29.17300 29.68900
C  47.28500 27.87000 29.85100
C  48.38000 30.63000 27.54100
C  47.92900 29.88000 30.92900
O  48.21700 31.00600 31.28400
C  47.45100 28.75700 32.00900
C  48.57500 28.44100 32.87500
O  49.58700 27.85500 32.54500
O  48.33200 28.94700 34.13400
C  49.27300 28.39900 35.08300
H  44.66500 22.45700 31.35500
H  46.57300 22.45100 25.13200
H  47.88900 28.50600 25.55200
H  46.74500 26.08800 33.49300
H  44.43800 24.35400 32.99200
H  46.85300 24.08600 34.33700
H  47.03100 23.08200 32.75200
H  45.80100 22.83200 34.02400
H  43.93900 26.30400 33.66800
H  44.37500 27.60400 32.57000
H  45.09800 28.77600 34.35300
H  46.05500 27.33100 34.96600
H  43.41100 19.90300 29.31700
H  44.19200 20.52400 30.71000
H  45.03100 19.37100 29.82400
H  44.23000 18.57500 27.13100
H  45.82400 18.33800 27.98100
H  45.41900 17.75300 26.37800
H  46.63900 24.47300 23.47000
H  48.31900 26.83400 23.98300
H  49.53900 25.00300 23.73600
H  48.73400 23.92700 22.67900
H  49.00600 23.41300 24.33700
H  46.27600 26.67300 22.58800
H  46.63600 28.13900 23.47900
H  44.32100 26.45800 23.36500
H  44.26000 28.02000 24.26600
H  44.72700 26.57900 25.08200
H  48.30200 31.51500 28.17300
H  47.71500 30.66000 26.67800
H  49.43400 30.47200 27.31200
H  46.58400 29.17300 32.52100
H  49.01100 28.72900 36.08800
H  50.28600 28.76500 34.91800
H  49.28700 27.30900 35.08400

