158

Mg 46.81200 17.42300 28.44500
C  44.89300 17.06700 31.40600
C  49.00500 19.31300 30.32300
C  48.40300 17.92100 25.59300
C  44.07900 15.78400 26.81900
N  46.84400 18.22600 30.51800
C  46.08400 17.76800 31.58900
C  46.57600 18.18300 32.94500
C  47.71600 19.19600 32.55600
C  47.94200 18.84000 31.04100
C  47.30900 20.78100 32.60200
C  47.06500 16.95500 33.85700
C  46.66900 17.09400 35.34200
H  46.39200 18.46700 35.84100
N  48.51900 18.43300 28.03200
C  49.30300 19.16300 28.92100
C  50.30100 19.91800 28.19100
C  50.05600 19.55000 26.83000
C  48.99400 18.53200 26.76300
C  51.34500 20.71000 28.90500
C  50.79200 20.07900 25.70000
O  50.72400 19.58900 24.56900
C  51.56700 21.44100 25.77300
N  46.37400 16.85100 26.51800
C  47.20200 17.16300 25.50000
C  46.57200 16.65100 24.21700
C  45.31300 15.83600 24.62400
C  45.28800 16.12300 26.10900
C  46.35800 17.74600 23.10600
C  45.39600 14.34700 24.28600
C  44.78100 13.80900 22.97400
N  44.86600 16.59800 28.97000
C  43.88000 15.93000 28.21000
C  42.69200 15.53400 29.03200
C  43.08700 15.89400 30.28200
C  44.34800 16.63600 30.17900
C  41.35300 14.89300 28.63100
C  42.57500 15.92200 31.66700
O  41.56500 15.48800 32.11700
C  43.78200 16.70200 32.45800
C  43.04700 17.95200 32.95000
O  42.75800 18.94600 32.27900
O  42.76500 17.89000 34.28200
C  42.13900 19.06000 34.91600
H  49.75100 19.89900 30.86500
H  48.78400 18.13100 24.59100
H  43.17200 15.52200 26.26900
H  45.72900 18.63800 33.45800
H  48.68500 18.90300 32.96100
H  47.18100 21.09300 31.56600
H  48.16500 21.27600 33.06200
H  46.39200 20.80600 33.19000
H  48.15200 16.87700 33.86100
H  46.61600 16.00700 33.56100
H  47.27500 16.45600 35.98500
H  45.69300 16.63300 35.49500
H  52.29700 20.50200 28.41800
H  51.41500 20.27200 29.90100
H  51.06600 21.76400 28.90800
H  51.15900 22.09300 26.54600
H  51.64100 21.89000 24.78300
H  52.57700 21.27300 26.14800
H  47.33600 15.98700 23.81200
H  44.38600 16.24000 24.21800
H  46.80300 18.67700 23.45500
H  45.29000 17.89700 22.94800
H  46.87600 17.43600 22.19900
H  44.96400 13.76000 25.09600
H  46.36500 13.85300 24.21900
H  45.56000 13.67400 22.22300
H  44.08900 14.48100 22.46600
H  44.25900 12.89500 23.25700
H  41.14900 15.19700 27.60500
H  40.52900 15.13900 29.30100
H  41.34400 13.81400 28.47300
H  44.11900 16.23900 33.38500
H  41.29200 19.50600 34.39400
H  42.89900 19.80900 35.13900
H  41.67800 18.59600 35.78800
Mg -2.62800 33.78200 25.80300
C  -4.31200 32.46800 28.58700
C  -1.02600 36.08000 27.80800
C  -1.11200 34.94700 23.04000
C  -4.56300 31.54600 23.72800
N  -2.84900 34.39200 27.91700
C  -3.48500 33.55800 28.91300
C  -2.96700 33.86000 30.32000
C  -2.15500 35.28500 30.08400
C  -2.01200 35.30900 28.49800
C  -3.01100 36.52100 30.50200
C  -2.12600 32.79900 31.15600
C  -1.71200 33.24500 32.59000
H  -2.04300 32.36000 33.82300
N  -1.33900 35.33600 25.46900
C  -0.68800 36.11200 26.44500
C  0.34400 36.80700 25.85400
C  0.42300 36.48200 24.49500
C  -0.64800 35.50900 24.30200
C  1.13100 37.88700 26.47400
C  1.39000 36.97600 23.41500
O  1.21000 36.70900 22.21800
C  2.62900 37.76800 23.73900
N  -2.95500 33.37700 23.67800
C  -2.16000 34.00100 22.77900
C  -2.41400 33.55400 21.33900
C  -3.43700 32.42700 21.57700
C  -3.58100 32.31100 23.05300
C  -2.96100 34.74600 20.54500
C  -3.19200 31.02300 20.84700
C  -2.40700 29.88400 21.57900
N  -4.03100 32.18300 26.05000
C  -4.76900 31.41000 25.11900
C  -5.66700 30.49600 25.91800
C  -5.45700 30.85900 27.24800
C  -4.48100 31.88900 27.30300
C  -6.70000 29.53500 25.37800
C  -5.88100 30.52300 28.56900
O  -6.66200 29.67300 29.00600
C  -5.05600 31.58200 29.53000
C  -6.02800 32.16000 30.44900
O  -6.84300 33.08000 30.31000
O  -6.00700 31.37600 31.60200
C  -6.95200 31.69400 32.62700
H  -0.33500 36.55900 28.50400
H  -0.56600 35.21000 22.13100
H  -5.18000 30.93800 23.06300
H  -3.74900 34.09700 31.04100
H  -1.20500 35.35700 30.61400
H  -2.41500 37.00100 31.27800
H  -4.02400 36.20000 30.74400
H  -3.24100 37.37600 29.86700
H  -1.25600 32.47000 30.58900
H  -2.76900 31.93200 31.30600
H  -2.08600 34.23300 32.86000
H  -0.62500 33.30200 32.52600
H  0.78900 38.06800 27.49300
H  1.01000 38.83300 25.94800
H  2.17100 37.57600 26.57300
H  2.47300 38.79700 24.06400
H  3.24800 37.83900 22.84500
H  3.28100 37.18300 24.38800
H  -1.52200 33.17900 20.83800
H  -4.46300 32.64400 21.28200
H  -3.49900 35.44500 21.18500
H  -3.72600 34.39800 19.85100
H  -2.12600 35.17200 19.98800
H  -2.81300 31.18700 19.83800
H  -4.15500 30.59200 20.57300
H  -1.75000 30.16800 22.40100
H  -1.63200 29.55700 20.88600
H  -3.03600 29.06600 21.93100
H  -7.64100 30.02600 25.62700
H  -6.54900 28.54200 25.80300
H  -6.71400 29.47700 24.29000
H  -4.38600 30.89300 30.04400
H  -6.92800 32.77000 32.80200
H  -6.69100 31.31400 33.61500
H  -7.93900 31.29800 32.38900

