158

Mg 54.95900 24.44400 44.41400
C  52.33200 26.58800 43.44800
C  53.00000 21.89100 43.30900
C  57.68100 22.62600 44.31700
C  56.77700 27.30800 45.31900
N  52.97200 24.31400 43.52700
C  51.98700 25.27300 43.22900
C  50.61000 24.69000 42.81600
C  50.84500 23.16900 43.26600
C  52.32700 23.10800 43.45500
C  50.24200 22.74700 44.61200
C  50.39900 24.81900 41.24700
C  48.95900 24.52900 40.82400
H  48.83000 24.47700 39.25600
N  55.27000 22.45800 44.06300
C  54.35500 21.54400 43.57100
C  54.96200 20.28300 43.49400
C  56.33300 20.48300 43.90500
C  56.48400 21.88100 44.09900
C  54.19800 19.08700 43.07700
C  57.27800 19.33800 44.03300
O  56.90700 18.17600 43.71500
C  58.70600 19.47400 44.42600
N  57.02400 24.98200 44.60100
C  57.91700 23.94300 44.60500
C  59.28800 24.59500 44.78300
C  58.98100 26.00600 45.39400
C  57.48300 26.11900 45.10200
C  60.28500 23.71200 45.63200
C  59.91800 27.20600 45.01700
C  60.84100 27.60500 46.29600
N  54.65100 26.53900 44.46900
C  55.42200 27.52300 45.07600
C  54.73000 28.71100 45.07800
C  53.47900 28.42200 44.48100
C  53.55000 27.12100 44.08800
C  55.23800 30.03100 45.63300
C  52.18700 28.94300 44.10900
O  51.65600 30.02300 44.22900
C  51.45000 27.73400 43.37300
C  51.09200 28.19000 41.92100
O  51.89500 28.16400 41.03000
O  49.71200 28.23700 41.82400
C  49.27300 28.61400 40.47500
H  52.32800 21.03500 43.21900
H  58.58300 22.03900 44.13800
H  57.35100 28.08600 45.82700
H  49.71900 25.11100 43.28200
H  50.46500 22.50700 42.48800
H  51.00400 22.46200 45.33700
H  49.66800 21.83800 44.42800
H  49.65000 23.54700 45.05700
H  51.09300 24.11800 40.78300
H  50.83500 25.76000 40.90900
H  48.32100 25.31700 41.22500
H  48.71100 23.60900 41.35300
H  54.77100 18.57300 42.30500
H  53.25300 19.38600 42.62500
H  54.00400 18.46100 43.94900
H  59.21900 19.98400 43.61100
H  59.19000 18.51600 44.61700
H  58.75400 20.13800 45.29000
H  59.75900 24.71800 43.80800
H  58.97000 25.91500 46.48000
H  59.89200 22.69900 45.71800
H  60.35400 24.19400 46.60700
H  61.28200 23.60200 45.20600
H  59.28600 28.04700 44.73000
H  60.48100 26.95000 44.11900
H  61.75300 27.93500 45.79800
H  60.95400 26.79100 47.01200
H  60.40100 28.46400 46.80200
H  55.56000 30.75400 44.88400
H  56.21100 29.86200 46.09400
H  54.59900 30.49900 46.38100
H  50.56600 27.52400 43.97600
H  49.58400 29.63100 40.23700
H  48.21200 28.39500 40.35400
H  49.81400 27.87200 39.89000
Mg 46.23700 25.29700 28.30900
C  47.45700 27.34900 30.90000
C  45.46800 22.90500 30.74100
C  45.70200 22.98300 25.83200
C  47.56900 27.40400 25.94800
N  46.44400 25.15400 30.60800
C  46.92600 26.20700 31.40000
C  46.79200 25.80500 32.87000
C  46.16900 24.34000 32.86000
C  46.03100 24.08800 31.35700
C  46.98400 23.23100 33.57900
C  46.09900 26.92300 33.73300
C  45.42400 26.40000 35.02200
H  45.63200 27.36300 36.20300
N  45.60600 23.22100 28.22400
C  45.35200 22.46600 29.36700
C  44.97400 21.08900 28.91200
C  45.12400 20.98300 27.50000
C  45.41200 22.44900 27.06100
C  44.60400 19.91800 29.86600
C  44.88700 19.79800 26.56200
O  45.00900 19.95200 25.36600
C  44.52400 18.42700 27.20000
N  46.67900 25.13200 26.24000
C  46.23700 24.18500 25.41400
C  46.31600 24.60100 23.91900
C  46.79800 26.08600 24.00600
C  47.04000 26.23800 25.46900
C  47.36400 23.78100 23.12100
C  45.82800 27.15600 23.42900
C  45.81100 27.40400 21.95100
N  47.29100 27.08600 28.35600
C  47.74600 27.84400 27.26100
C  48.41100 29.03300 27.78600
C  48.28200 28.92000 29.22400
C  47.63800 27.69600 29.48600
C  49.02600 30.17200 27.16200
C  48.54200 29.57600 30.47500
O  49.07300 30.65000 30.64200
C  48.10200 28.58300 31.61100
C  49.37200 28.30100 32.41900
O  50.11500 27.32500 32.28800
O  49.40900 29.08500 33.49900
C  50.27800 28.48300 34.60900
H  45.10900 22.21200 31.50500
H  45.47900 22.38800 24.94400
H  47.88400 28.16000 25.22400
H  47.81900 25.80200 33.23700
H  45.21700 24.32500 33.39000
H  47.40000 22.46100 32.92900
H  46.35800 22.92200 34.41600
H  47.81100 23.75700 34.05500
H  45.32600 27.40600 33.13500
H  46.88400 27.64800 33.94500
H  45.90300 25.48400 35.36600
H  44.35700 26.33800 34.81100
H  45.36300 19.13600 29.87700
H  43.64000 19.57200 29.49200
H  44.38000 20.21100 30.89200
H  44.24000 17.79100 26.36100
H  43.65500 18.67100 27.81100
H  45.27900 18.03100 27.87800
H  45.33900 24.49500 23.44800
H  47.74200 26.14100 23.46300
H  47.46300 24.34900 22.19700
H  46.95100 22.79700 22.89700
H  48.32800 23.68000 23.61900
H  46.02400 28.10300 23.93100
H  44.89600 26.69900 23.75900
H  46.62800 28.07000 21.67400
H  44.85700 27.90000 21.77200
H  45.75100 26.45500 21.41800
H  50.02500 30.30900 27.57700
H  48.56100 31.13300 27.38200
H  49.12400 30.03400 26.08500
H  47.34300 29.06800 32.22500
H  50.16900 29.29100 35.33300
H  51.32100 28.39300 34.30500
H  49.93600 27.47500 34.84200

