158

Mg -0.24800 7.42500 26.74800
C  0.53900 9.57000 29.51300
C  -0.27400 4.88600 28.94300
C  -0.66000 5.49500 24.14600
C  0.58800 10.17700 24.58800
N  0.11800 7.20500 28.99700
C  0.32100 8.21900 29.90000
C  0.40900 7.77500 31.32900
C  0.49900 6.24800 31.10200
C  0.03700 6.05500 29.64600
C  1.87600 5.60500 31.21600
C  -0.87200 8.26300 32.06700
C  -0.75000 8.94500 33.44100
H  -0.23900 8.04700 34.66600
N  -0.56400 5.55700 26.59900
C  -0.56000 4.57500 27.59500
C  -0.93000 3.34300 27.06800
C  -1.12700 3.51200 25.69300
C  -0.83600 4.90000 25.40000
C  -1.14200 2.11500 27.92000
C  -1.49000 2.45000 24.70000
O  -1.90000 2.72300 23.55100
C  -1.26200 0.95400 25.02700
N  0.01900 7.80900 24.63200
C  -0.34500 6.78500 23.82700
C  -0.15000 7.16100 22.40400
C  -0.07200 8.73700 22.43100
C  0.30500 8.99800 23.95100
C  1.13400 6.49500 21.73300
C  -1.43700 9.42300 22.11100
C  -1.47900 10.75600 21.48300
N  0.36000 9.45800 26.91300
C  0.63000 10.37800 25.93000
C  0.99300 11.61700 26.57900
C  1.05200 11.32000 27.97900
C  0.59500 9.98100 28.13500
C  1.38300 12.81200 25.85600
C  1.35300 11.87200 29.32200
O  1.84200 12.87000 29.71900
C  0.95000 10.73300 30.36900
C  1.99000 10.59200 31.42400
O  3.09400 9.99900 31.30500
O  1.58300 11.17600 32.63300
C  2.41100 11.00000 33.83600
H  -0.25500 3.98300 29.55700
H  -0.73200 4.84900 23.26800
H  0.65900 11.06400 23.95500
H  1.31600 8.16800 31.78800
H  -0.23700 5.64600 31.63400
H  2.59000 6.09000 31.88200
H  2.35200 5.37100 30.26400
H  1.72100 4.59300 31.58800
H  -1.49900 7.40000 32.29300
H  -1.41900 8.94600 31.41600
H  -1.71100 9.26000 33.84700
H  -0.05600 9.77800 33.33100
H  -2.07600 1.55800 27.84600
H  -0.95000 2.27200 28.98200
H  -0.38100 1.35000 27.77000
H  -1.93800 0.46200 25.72500
H  -0.21700 0.71200 25.21800
H  -1.49200 0.40300 24.11500
H  -0.99300 6.83400 21.79500
H  0.72800 9.12000 21.79700
H  1.73500 7.22300 21.18800
H  0.72000 5.75200 21.05200
H  1.76100 6.12300 22.54400
H  -1.98400 9.54500 23.04500
H  -2.01200 8.73500 21.49100
H  -0.53600 11.09700 21.05600
H  -1.81900 11.49300 22.21000
H  -2.28800 10.73000 20.75400
H  2.16500 13.38500 26.35400
H  0.45500 13.38400 25.85500
H  1.62000 12.62800 24.80800
H  0.09200 11.25900 30.78800
H  2.67400 11.88700 34.41200
H  3.32900 10.52300 33.49500
H  1.72200 10.42500 34.45500
Mg 1.51500 41.30200 26.61300
C  3.44500 41.59800 29.59300
C  -0.99500 40.04500 28.56300
C  0.05000 40.56400 23.72100
C  4.51400 42.04500 24.77700
N  1.22400 40.90900 28.84300
C  2.12000 41.23700 29.91000
C  1.41900 41.25100 31.22400
C  0.00100 40.66700 30.89800
C  0.06900 40.44200 29.36900
C  -0.50300 39.42300 31.69500
C  1.36900 42.67700 31.85400
C  0.91900 42.79700 33.34100
H  0.57900 41.46100 34.17000
N  -0.35900 40.56100 26.25700
C  -1.22400 40.01800 27.11600
C  -2.42400 39.58400 26.39700
C  -2.08600 39.77200 25.01200
C  -0.71600 40.28700 24.95300
C  -3.63600 38.96900 27.18700
C  -2.94600 39.36700 23.80600
O  -2.51600 39.46300 22.65700
C  -4.26000 38.76100 23.96500
N  2.14600 41.45300 24.54000
C  1.32700 41.13100 23.49300
C  1.97500 41.52300 22.17100
C  3.38500 42.07600 22.51000
C  3.36700 41.83900 24.00500
C  1.93600 40.47000 20.95700
C  3.68900 43.50900 22.03300
C  4.88200 43.70000 21.17000
N  3.50200 41.81800 27.01600
C  4.57800 42.04800 26.18300
C  5.74600 42.30200 26.91900
C  5.30000 42.06600 28.23100
C  3.94400 41.78100 28.25600
C  7.13900 42.76900 26.41100
C  5.80800 42.02100 29.62600
O  6.97500 42.11400 30.01500
C  4.63000 41.78100 30.51500
C  4.83800 40.59000 31.33800
O  5.15400 39.53800 30.86000
O  4.96200 40.86500 32.67300
C  5.54300 39.76200 33.46600
H  -1.93800 39.83400 29.07100
H  -0.53300 40.56800 22.79800
H  5.41400 42.27500 24.20100
H  1.90900 40.50400 31.84800
H  -0.73700 41.46100 31.00800
H  0.22700 39.21900 32.47800
H  -0.58900 38.53900 31.06300
H  -1.49700 39.75100 31.99800
H  0.67200 43.29800 31.29200
H  2.34300 43.13900 31.68800
H  -0.00200 43.36100 33.48600
H  1.74300 43.29600 33.85000
H  -3.47400 37.96200 27.57200
H  -4.55000 38.88100 26.60000
H  -3.99300 39.52200 28.05600
H  -4.64900 38.65100 22.95300
H  -4.90400 39.44300 24.52200
H  -4.20000 37.76700 24.40800
H  1.25600 42.28800 21.87700
H  4.09200 41.37000 22.07400
H  1.65300 39.55300 21.47500
H  2.87300 40.22400 20.45800
H  1.15600 40.71100 20.23400
H  3.61800 44.16300 22.90300
H  2.83300 43.80100 21.42300
H  4.50500 43.64100 20.14900
H  5.68600 42.97500 21.29500
H  5.35500 44.67700 21.26800
H  7.30900 42.90100 25.34200
H  7.92600 42.10600 26.76800
H  7.41200 43.75100 26.79700
H  4.46300 42.69300 31.08900
H  4.80900 38.95900 33.39700
H  5.82700 40.13500 34.45000
H  6.41300 39.39000 32.92400

