158

Mg 46.85900 24.64900 28.71500
C  47.86600 26.74000 31.19500
C  45.95100 22.31500 31.06800
C  46.53700 22.32900 26.14000
C  48.11500 26.92800 26.32300
N  47.01800 24.51400 30.84100
C  47.33200 25.53200 31.68300
C  46.89600 25.33700 33.14900
C  46.36900 23.82200 33.06000
C  46.47900 23.52600 31.55200
C  47.06000 22.85500 34.00400
C  45.73400 26.23200 33.64700
C  45.48200 26.13400 35.12400
H  45.72100 27.34400 36.10100
N  46.17700 22.63100 28.58400
C  46.02500 21.84200 29.72500
C  45.61100 20.54300 29.23800
C  45.68700 20.52000 27.79600
C  46.13700 21.86100 27.41900
C  45.11400 19.41800 30.29400
C  45.44400 19.32800 26.83300
O  45.44700 19.50800 25.63600
C  45.07100 17.96800 27.37300
N  47.45600 24.59400 26.49600
C  47.04700 23.59500 25.69200
C  47.11400 23.97100 24.25500
C  47.45900 25.52200 24.30600
C  47.74500 25.67400 25.76300
C  48.05800 23.09100 23.36900
C  46.32600 26.39500 23.89800
C  46.63400 27.69600 23.19600
N  47.84600 26.45100 28.70600
C  48.21600 27.31800 27.73100
C  48.69500 28.59000 28.27300
C  48.59300 28.35700 29.61200
C  48.08900 27.10200 29.84600
C  49.39900 29.68300 27.51700
C  48.85500 28.99800 30.87100
O  49.23200 30.14200 31.14600
C  48.27700 27.99400 31.97600
C  49.37700 27.76400 32.93800
O  50.51700 27.50900 32.59000
O  48.90700 28.08000 34.18000
C  49.82100 28.30700 35.31000
H  45.58900 21.67700 31.87700
H  46.56500 21.61300 25.31600
H  48.36900 27.70200 25.59700
H  47.71300 25.34100 33.87000
H  45.30300 23.78300 33.28400
H  47.73500 23.38900 34.67300
H  47.69400 22.20900 33.39600
H  46.36400 22.32700 34.65700
H  44.86900 25.86400 33.09400
H  45.81100 27.25400 33.27800
H  46.13200 25.35300 35.51900
H  44.44900 25.81400 35.25600
H  44.07500 19.14900 30.10800
H  45.35300 19.80100 31.28600
H  45.63500 18.46300 30.22700
H  45.68700 17.85200 28.26500
H  45.40900 17.25500 26.62200
H  43.99000 18.02000 27.50500
H  46.09900 23.71100 23.95500
H  48.36100 25.79500 23.75800
H  48.91900 23.66800 23.03300
H  47.43800 22.59400 22.62300
H  48.40900 22.29500 24.02700
H  45.57800 26.43200 24.69000
H  45.75300 25.85100 23.14700
H  46.33200 27.57600 22.15600
H  47.70100 27.91500 23.24500
H  45.97500 28.51400 23.48700
H  48.81900 29.90900 26.62300
H  50.39000 29.31200 27.25400
H  49.35000 30.65600 28.00600
H  47.38700 28.49000 32.36400
H  50.85100 28.16500 34.98300
H  49.68800 27.58000 36.11200
H  49.76600 29.35900 35.59100
Mg 0.05400 43.58100 26.20500
C  2.68200 43.30400 28.64700
C  -2.19900 43.26000 28.88600
C  -2.32600 43.32800 23.96600
C  2.52600 43.88500 23.77400
N  0.26800 43.37700 28.49600
C  1.42300 43.32500 29.23100
C  1.07900 43.19400 30.67700
C  -0.44900 42.90800 30.72100
C  -0.86300 43.28600 29.32600
C  -0.77900 41.50600 31.06600
C  1.55700 44.59000 31.34800
C  1.82800 44.59200 32.80100
H  1.24400 43.52000 33.66200
N  -1.93100 43.30600 26.40300
C  -2.67800 43.34300 27.54300
C  -4.10600 43.35300 27.20600
C  -4.11800 43.27200 25.76500
C  -2.73500 43.27800 25.32300
C  -5.18300 43.26300 28.25200
C  -5.29700 43.17500 24.79800
O  -5.26600 43.08000 23.55100
C  -6.69400 43.20000 25.37000
N  0.17300 43.13100 24.15000
C  -1.01900 43.36900 23.48800
C  -0.66600 43.56200 21.98500
C  0.78100 44.10000 21.99500
C  1.24700 43.61700 23.37400
C  -0.87900 42.18300 21.27500
C  0.92600 45.63800 21.84000
C  1.88200 46.10600 20.71000
N  2.15900 43.50000 26.13500
C  3.03400 43.70900 25.08800
C  4.38900 43.66800 25.61300
C  4.30900 43.49800 26.99300
C  2.92900 43.37200 27.24400
C  5.58200 43.97400 24.69100
C  5.13100 43.42900 28.16200
O  6.32100 43.41000 28.36600
C  4.04300 43.25800 29.31100
C  4.23100 42.02900 30.16300
O  4.03300 40.85200 29.87800
O  4.61800 42.50900 31.38700
C  4.89000 41.50900 32.39300
H  -2.97600 43.17600 29.64800
H  -3.04600 43.49200 23.16200
H  3.26500 44.17000 23.02200
H  1.64100 42.43700 31.22400
H  -0.87600 43.54400 31.49600
H  0.06700 41.01900 31.55200
H  -1.01300 40.89800 30.19200
H  -1.62400 41.37700 31.74200
H  0.76600 45.30400 31.11800
H  2.40000 45.09900 30.88000
H  1.52900 45.55300 33.21900
H  2.91100 44.62800 32.92300
H  -4.72400 42.67900 29.05000
H  -6.06800 42.83300 27.78300
H  -5.50000 44.23500 28.62800
H  -6.76300 44.14500 25.91100
H  -6.76900 42.27800 25.94700
H  -7.41400 43.06200 24.56300
H  -1.24500 44.31700 21.45200
H  1.21900 43.65700 21.10100
H  -0.02000 41.62300 20.90400
H  -1.48900 42.22500 20.37200
H  -1.38400 41.52700 21.98300
H  1.32400 46.03300 22.77500
H  -0.05900 46.06700 21.65400
H  1.50500 46.97300 20.16600
H  2.07400 45.39800 19.90300
H  2.75400 46.63500 21.09400
H  5.29400 43.62600 23.69900
H  6.49000 43.51900 25.08800
H  5.83400 45.03400 24.67200
H  4.17300 44.11800 29.96800
H  4.87700 42.03000 33.35000
H  5.78200 40.88800 32.30900
H  4.04900 40.82200 32.49100

