158

Mg 8.97300 2.86800 27.65500
C  9.88100 1.12100 30.60600
C  7.51500 5.22800 29.69200
C  7.57500 4.12500 24.90500
C  10.16900 0.17000 25.85800
N  8.89100 3.19800 29.89200
C  9.32500 2.34800 30.90100
C  9.16400 3.09200 32.25700
C  8.32300 4.36800 31.97800
C  8.24100 4.25200 30.42600
C  7.00900 4.59900 32.69900
C  10.42600 3.20300 33.10900
C  10.39600 4.29300 34.28500
H  11.21400 3.92800 35.50200
N  7.65700 4.45300 27.31400
C  7.24000 5.36400 28.28600
C  6.52300 6.37000 27.59600
C  6.42900 6.08200 26.20300
C  7.19500 4.81300 26.07200
C  6.01600 7.49800 28.39700
C  5.80000 6.86700 25.10100
O  5.87900 6.60700 23.90500
C  4.84700 7.96600 25.47400
N  8.61000 2.05700 25.68700
C  8.29400 2.87800 24.72200
C  8.51500 2.32700 23.28400
C  9.55100 1.24400 23.63600
C  9.43700 1.13400 25.18200
C  7.21300 1.81500 22.66100
C  11.02300 1.57200 23.20500
C  11.79900 0.46000 22.44100
N  9.90000 1.07300 28.07300
C  10.38800 0.10900 27.24800
C  11.05400 -0.93300 28.05800
C  10.91800 -0.55300 29.38600
C  10.12800 0.65700 29.35400
C  11.76100 -2.05200 27.60100
C  11.26900 -0.82600 30.72900
O  12.04800 -1.67200 31.18400
C  10.66200 0.22600 31.57800
C  9.88900 -0.26200 32.72300
O  8.70900 -0.42400 32.68300
O  10.77000 -0.51300 33.74800
C  10.11400 -1.00600 34.94500
H  7.17900 6.05100 30.32500
H  7.23500 4.64900 24.01000
H  10.68100 -0.51600 25.18000
H  8.64200 2.32100 32.82400
H  8.96100 5.24200 32.10700
H  7.16600 4.30100 33.73500
H  6.26100 4.04000 32.13600
H  6.73900 5.65100 32.78600
H  11.15100 3.67000 32.44200
H  10.63000 2.18900 33.45400
H  9.37100 4.54900 34.55100
H  10.92900 5.13600 33.84700
H  6.13600 8.47300 27.92400
H  6.43100 7.64000 29.39500
H  4.93700 7.38400 28.50900
H  5.40200 8.81500 25.87200
H  4.24600 7.60500 26.30900
H  4.10000 8.19000 24.71300
H  8.95500 3.16200 22.73900
H  9.32100 0.27000 23.20400
H  7.27700 0.72700 22.64700
H  7.17800 2.16000 21.62700
H  6.30700 2.19500 23.13200
H  11.59300 2.08600 23.97900
H  10.99600 2.37200 22.46500
H  11.53600 0.69500 21.41000
H  11.42800 -0.54100 22.66000
H  12.85200 0.61400 22.67600
H  12.61100 -1.58700 27.10300
H  11.27000 -2.77500 26.95000
H  11.90400 -2.63200 28.51300
H  11.54900 0.78900 31.87000
H  10.55900 -1.95200 35.25300
H  9.02700 -1.04700 35.00600
H  10.42100 -0.23600 35.65300
Mg 35.92100 48.53600 25.00100
C  36.08100 46.78600 28.00500
C  34.76900 51.27900 26.72300
C  35.37300 50.00900 22.02500
C  37.09600 45.75900 23.34400
N  35.50600 48.97300 27.05300
C  35.57400 48.08100 28.12800
C  35.29000 48.71900 29.47400
C  34.68300 50.08200 28.96900
C  35.12700 50.17600 27.49700
C  33.17000 50.26100 29.23200
C  36.60800 48.94100 30.32700
C  36.42500 49.02100 31.88500
H  35.09300 49.27300 32.50900
N  35.21500 50.37500 24.47900
C  34.76100 51.37900 25.32600
C  34.30600 52.48900 24.55200
C  34.45200 52.09400 23.21400
C  35.07600 50.76500 23.20000
C  33.77000 53.78700 25.21700
C  34.12000 52.89100 22.00000
O  34.33100 52.60600 20.84300
C  33.45700 54.22500 22.19300
N  36.20000 48.01500 22.99800
C  35.95700 48.82100 21.93400
C  36.09200 48.04200 20.63000
C  36.88900 46.85900 21.11800
C  36.75400 46.93000 22.64400
C  34.74100 47.85800 19.70000
C  38.40700 46.88300 20.77800
C  39.13400 45.64100 20.41000
N  36.51000 46.58200 25.44400
C  36.98800 45.59300 24.74500
C  37.22100 44.42900 25.58800
C  36.85400 44.85300 26.83900
C  36.46100 46.13600 26.75600
C  37.49500 43.01900 25.13500
C  36.81600 44.46900 28.27000
O  37.09900 43.41000 28.79900
C  36.35700 45.73100 29.13900
C  35.10900 45.42600 29.84300
O  34.07900 44.99600 29.33300
O  35.15800 45.61300 31.21000
C  33.87100 45.25000 31.91700
H  34.10700 51.99100 27.22100
H  35.08700 50.38700 21.04100
H  37.36100 44.82700 22.83900
H  34.53500 48.17200 30.03900
H  35.20900 50.76900 29.63200
H  32.63600 49.38300 29.59500
H  32.71900 50.45900 28.26000
H  32.92800 51.12600 29.85000
H  37.14100 49.82300 29.97200
H  37.23700 48.08000 30.10400
H  37.22400 49.59700 32.35200
H  36.78300 48.04600 32.21400
H  32.70800 53.85200 24.97800
H  34.24900 54.66900 24.79100
H  33.79000 53.76300 26.30700
H  34.18600 54.96100 22.53200
H  32.54600 54.11700 22.78100
H  33.12500 54.56800 21.21300
H  36.78000 48.61900 20.01200
H  36.49400 45.98200 20.60500
H  33.99300 48.06500 20.46500
H  34.48400 46.87200 19.31200
H  34.65700 48.64600 18.95200
H  38.87900 47.32800 21.65300
H  38.50400 47.51700 19.89700
H  38.46900 44.82000 20.68000
H  40.04000 45.35900 20.94700
H  39.34000 45.53300 19.34500
H  37.23200 42.98800 24.07800
H  36.80600 42.27800 25.54300
H  38.55100 42.78700 25.27300
H  37.08600 45.99300 29.90600
H  33.49700 44.23200 31.80700
H  33.13600 46.02100 31.68300
H  34.07200 45.34000 32.98400

