158

Mg 40.38600 9.54900 29.64100
C  42.61300 10.67300 32.10900
C  38.25700 8.36000 32.08600
C  38.63800 8.00800 27.19600
C  42.94800 9.98600 27.28300
N  40.51400 9.48200 31.87800
C  41.47700 10.06400 32.65300
C  41.01500 10.07800 34.13200
C  39.72900 9.13800 34.10500
C  39.46600 8.90800 32.57900
C  39.80700 7.81900 34.87100
C  40.80700 11.59300 34.62900
C  40.13200 11.80000 36.02800
H  41.06400 12.27000 37.09800
N  38.62400 8.52600 29.62000
C  37.88800 8.11200 30.73200
C  36.64600 7.48000 30.29100
C  36.67100 7.46800 28.84900
C  38.01900 8.04300 28.50100
C  35.61700 6.89800 31.30000
C  35.70300 6.90100 27.93800
O  35.88000 6.81900 26.70800
C  34.42300 6.21900 28.31000
N  40.71800 9.04100 27.53800
C  39.83300 8.36600 26.77200
C  40.32800 8.09000 25.28100
C  41.70500 8.90800 25.36100
C  41.80500 9.29300 26.82900
C  40.55500 6.61400 24.85600
C  41.75200 10.07500 24.36600
C  41.11000 11.46000 24.80800
N  42.29000 10.21600 29.60700
C  43.20500 10.33500 28.59500
C  44.42800 10.87500 29.10500
C  44.18500 11.18800 30.42400
C  42.94400 10.68400 30.73900
C  45.73100 11.29100 28.30300
C  44.73300 11.81700 31.59600
O  45.76700 12.49500 31.72700
C  43.75200 11.61200 32.69600
C  44.33700 10.98600 33.90800
O  44.48300 9.75900 33.97400
O  44.69100 11.84700 34.91800
C  45.23700 11.30300 36.15600
H  37.45000 8.07300 32.76300
H  38.08900 7.41400 26.46200
H  43.63300 10.25100 26.47500
H  41.72200 9.66800 34.85300
H  38.85000 9.65200 34.49500
H  40.38500 8.01600 35.77400
H  40.30300 7.10800 34.21000
H  38.78200 7.49900 35.06200
H  40.33700 12.16400 33.82800
H  41.80000 12.03500 34.71400
H  39.86400 10.76800 36.25400
H  39.25800 12.45000 35.98200
H  35.28100 5.91300 30.97800
H  34.73200 7.52500 31.18800
H  35.96000 6.77200 32.32700
H  33.58000 6.46900 27.66600
H  34.03100 6.61100 29.24900
H  34.58600 5.17000 28.55800
H  39.64000 8.58500 24.59600
H  42.57600 8.27700 25.18100
H  41.60300 6.33400 24.96500
H  40.23500 6.43100 23.83000
H  40.04200 5.93100 25.53300
H  41.21100 9.84100 23.44900
H  42.81400 10.18700 24.14700
H  41.84800 12.22900 25.03600
H  40.35300 11.30000 25.57600
H  40.54800 11.86000 23.96400
H  45.38000 11.65800 27.33800
H  46.30000 10.37700 28.12800
H  46.22300 12.11900 28.81300
H  43.32800 12.56500 33.01600
H  46.18800 10.77000 36.14500
H  44.50700 10.65200 36.63600
H  45.29500 12.05100 36.94700
Mg 17.16900 52.85500 25.75200
C  18.95500 51.37100 28.52600
C  14.72400 53.70100 27.97800
C  15.37900 53.95600 23.17900
C  19.56800 51.51600 23.61000
N  16.85600 52.47500 27.95300
C  17.81400 52.10100 28.89500
C  17.30800 52.41600 30.29900
C  15.84800 52.89300 30.01200
C  15.75100 52.98000 28.54000
C  14.76800 51.94300 30.66600
C  18.19800 53.59500 31.02100
C  18.03600 53.87600 32.55800
H  17.12100 53.09300 33.42400
N  15.31900 53.80600 25.64800
C  14.44000 54.02500 26.67400
C  13.22400 54.66200 26.08200
C  13.39800 54.79100 24.68000
C  14.73800 54.13500 24.45000
C  12.00700 55.01900 26.84700
C  12.48100 55.34000 23.60500
O  12.81500 55.37200 22.41000
C  11.21600 55.92600 23.97200
N  17.37900 52.51000 23.67500
C  16.52000 53.23100 22.86100
C  17.02600 53.06100 21.41200
C  18.43700 52.27400 21.53700
C  18.42700 51.99000 22.98800
C  16.03100 52.30700 20.52000
C  19.63000 52.99300 20.92800
C  20.42700 52.36600 19.78100
N  18.91000 51.63800 25.91100
C  19.82500 51.32100 24.98900
C  20.98100 50.58600 25.59000
C  20.70600 50.64400 27.03300
C  19.40600 51.20600 27.13400
C  22.10200 50.03300 24.79800
C  21.09700 50.28200 28.41100
O  22.12000 49.73500 28.76500
C  20.03500 50.77000 29.35500
C  19.56100 49.51500 30.11700
O  19.25000 48.45200 29.52500
O  19.45300 49.74800 31.45900
C  18.83800 48.58600 32.20700
H  13.98500 54.08300 28.68600
H  14.73000 54.31000 22.37500
H  20.35600 51.22900 22.91000
H  17.42800 51.53400 30.92900
H  15.83100 53.81300 30.59600
H  15.16300 51.04400 31.13800
H  14.04500 51.76700 29.87000
H  14.27500 52.52700 31.44300
H  18.03600 54.53000 30.48300
H  19.25000 53.38400 30.83000
H  17.81700 54.93500 32.69600
H  18.98800 53.70200 33.05900
H  11.67200 56.02900 26.61100
H  12.27200 55.09200 27.90100
H  11.15200 54.34500 26.78300
H  11.42500 56.76700 24.63300
H  10.59500 55.16800 24.45100
H  10.78100 56.24600 23.02500
H  17.26800 54.09000 21.14400
H  18.38400 51.33100 20.99200
H  15.49900 52.92800 19.79900
H  15.27000 51.78200 21.09700
H  16.52000 51.61900 19.83000
H  20.35500 53.16200 21.72400
H  19.44500 54.02700 20.63600
H  20.49300 53.10200 18.97900
H  19.94200 51.45600 19.42900
H  21.42700 52.09900 20.12400
H  21.82200 50.02400 23.74500
H  22.18600 48.98100 25.07100
H  23.06500 50.54400 24.79800
H  20.51500 51.47400 30.03400
H  18.94300 48.88500 33.25000
H  19.34400 47.63800 32.02500
H  17.77100 48.47100 32.01600

