158

Mg -2.44200 17.20100 25.89100
C  -2.66600 14.86200 28.53900
C  -3.45700 19.59400 28.17200
C  -2.70300 19.46800 23.43000
C  -1.75800 14.78600 23.74900
N  -2.77300 17.17800 28.28600
C  -2.89200 16.10500 29.11000
C  -3.35300 16.51700 30.49100
C  -3.65700 18.08300 30.26300
C  -3.28200 18.30500 28.80300
C  -5.10300 18.44800 30.68100
C  -2.48200 16.07100 31.65700
C  -2.44400 16.99300 32.81700
H  -2.09600 16.30100 34.09900
N  -2.66500 19.28000 25.87900
C  -3.10300 20.09800 26.93400
C  -3.17000 21.54400 26.48500
C  -2.85200 21.48600 25.09700
C  -2.75000 20.09400 24.76600
C  -3.54700 22.73500 27.36400
C  -2.67200 22.62200 24.05700
O  -2.42000 22.44000 22.86100
C  -2.65900 23.97600 24.56100
N  -2.33300 17.16000 23.90500
C  -2.57100 18.16500 23.03200
C  -2.52900 17.73800 21.59400
C  -1.94100 16.26700 21.76800
C  -1.99600 16.01700 23.24500
C  -3.87900 17.72800 20.77000
C  -0.54800 16.09100 21.02500
C  0.75200 16.15400 21.91700
N  -2.36500 15.20800 25.99800
C  -1.88900 14.38200 25.06400
C  -1.84900 13.02900 25.56300
C  -2.10800 13.19500 26.92900
C  -2.37400 14.55300 27.19300
C  -1.59800 11.74100 24.75500
C  -2.16000 12.45800 28.16400
O  -1.98000 11.30600 28.41800
C  -2.47500 13.55200 29.27700
C  -1.27700 13.57300 30.13300
O  -0.17600 13.99800 29.89800
O  -1.63900 13.06200 31.33800
C  -0.58300 12.88900 32.35400
H  -3.81400 20.31800 28.90700
H  -2.90100 20.15200 22.60200
H  -1.47900 14.07500 22.96800
H  -4.33400 16.04700 30.57100
H  -2.87700 18.69100 30.72200
H  -5.55200 17.85800 31.48000
H  -5.76400 18.40600 29.81500
H  -5.05100 19.49000 30.99900
H  -1.45000 15.93100 31.33700
H  -2.92100 15.10700 31.91700
H  -3.34900 17.60100 32.84500
H  -1.62000 17.68200 32.63100
H  -2.63400 23.32900 27.36900
H  -3.80900 22.43900 28.38000
H  -4.33900 23.31800 26.89400
H  -3.64900 24.26800 24.90800
H  -2.40400 24.69100 23.77900
H  -1.97500 23.98400 25.41000
H  -1.81600 18.37200 21.06700
H  -2.62200 15.58500 21.26000
H  -4.53900 18.32800 21.39600
H  -4.42400 16.80500 20.57300
H  -3.84300 18.42000 19.92800
H  -0.48400 16.99300 20.41500
H  -0.51700 15.22200 20.36800
H  1.48600 16.80100 21.43600
H  1.13500 15.18300 22.23200
H  0.63300 16.76400 22.81200
H  -1.00600 11.14900 25.45300
H  -1.09800 11.78000 23.78700
H  -2.57000 11.32900 24.48500
H  -3.34900 13.21200 29.83100
H  -0.78600 12.28500 33.23800
H  -0.33000 13.84100 32.82000
H  0.29900 12.48000 31.86200
Mg 42.22500 7.88000 29.51600
C  43.81700 9.58800 32.15000
C  40.20500 6.37000 31.77300
C  40.81400 6.37900 26.80900
C  44.69500 9.13900 27.32500
N  42.07500 7.98300 31.70500
C  42.76800 8.80900 32.63700
C  42.05100 8.92500 33.96300
C  41.13500 7.54500 33.86000
C  41.04700 7.36400 32.30600
C  41.81000 6.23700 34.54700
C  41.38500 10.32000 34.33300
C  40.69400 10.31300 35.69100
H  41.25600 11.21300 36.78400
N  40.69400 6.58100 29.26000
C  39.97900 6.02800 30.38600
C  39.01100 5.03800 29.84400
C  39.05100 5.26400 28.43200
C  40.18900 6.15500 28.06000
C  38.18800 4.25200 30.75000
C  38.15800 4.62600 27.31200
O  38.35200 4.91900 26.09500
C  36.93400 3.76000 27.58300
N  42.67300 7.75000 27.38100
C  41.98100 7.01800 26.49200
C  42.58800 7.20000 25.07600
C  43.52700 8.33300 25.25900
C  43.68700 8.41900 26.78000
C  43.34600 5.87400 24.73900
C  42.96300 9.75700 24.75200
C  41.68400 10.41100 25.36300
N  43.92500 9.08700 29.62100
C  44.84800 9.49800 28.67400
C  45.80200 10.42100 29.24100
C  45.43100 10.47900 30.59600
C  44.27700 9.73300 30.79900
C  46.96500 11.17500 28.61600
C  45.71200 11.07200 31.90800
O  46.48800 11.97600 32.16600
C  44.68300 10.53000 32.95900
C  45.30200 9.98200 34.19500
O  46.08900 9.03200 34.26200
O  44.57000 10.42100 35.26100
C  44.61300 9.72500 36.56700
H  39.66400 5.76300 32.50300
H  40.39500 5.73800 26.03100
H  45.40100 9.60400 26.63400
H  42.81500 8.61500 34.67600
H  40.15500 7.76400 34.28300
H  41.96600 5.30800 33.99700
H  41.03500 5.99400 35.27500
H  42.72300 6.42400 35.11200
H  40.58900 10.53800 33.62200
H  42.21000 11.02600 34.23800
H  40.65400 9.28600 36.05300
H  39.66700 10.66100 35.57100
H  37.16600 4.50900 30.47300
H  38.44800 4.30700 31.80800
H  38.38700 3.19200 30.59000
H  36.41800 3.45900 26.67100
H  36.35000 4.47500 28.16300
H  37.32600 2.91300 28.14500
H  41.79900 7.58400 24.43000
H  44.52300 8.27700 24.81900
H  43.11800 5.01700 25.37300
H  44.41500 6.07200 24.65900
H  43.09700 5.64500 23.70300
H  42.75700 9.81700 23.68300
H  43.76700 10.49100 24.80000
H  41.37800 9.82900 26.23300
H  40.86500 10.27300 24.65800
H  41.78700 11.45800 25.64700
H  46.91700 12.22100 28.92100
H  47.06000 10.92700 27.55900
H  47.80400 10.68800 29.11200
H  44.22600 11.47300 33.25800
H  45.01500 8.72400 36.41200
H  43.63500 9.65700 37.04400
H  45.35000 10.26000 37.16500

