158

Mg -1.31700 17.35000 26.76900
C  -1.99800 15.15000 29.41400
C  -2.03900 19.94400 29.02000
C  -1.23100 19.55000 24.18200
C  -1.33400 14.63700 24.65000
N  -2.00100 17.50300 28.98400
C  -2.18700 16.49800 29.79700
C  -2.51000 16.92000 31.27100
C  -2.66500 18.46400 31.06500
C  -2.20700 18.66600 29.56600
C  -4.01200 19.13700 31.47000
C  -1.53200 16.53500 32.44200
C  -1.50900 17.26200 33.77200
H  -0.27800 17.04500 34.60700
N  -1.52000 19.42900 26.60600
C  -1.79600 20.34900 27.64300
C  -1.77500 21.66500 27.14000
C  -1.64900 21.57300 25.74200
C  -1.43200 20.15300 25.44800
C  -2.05600 22.82800 28.03900
C  -1.75600 22.65300 24.67200
O  -1.74900 22.48400 23.47200
C  -1.91000 24.07200 25.09500
N  -1.39900 17.17700 24.79100
C  -1.22600 18.16800 23.87500
C  -0.88800 17.65400 22.42900
C  -0.73700 16.16900 22.75800
C  -1.17900 15.97400 24.18600
C  -1.98700 18.05600 21.44100
C  0.60200 15.55600 22.46100
C  1.76500 16.19700 23.26400
N  -1.54900 15.30900 26.97700
C  -1.54400 14.33700 26.03700
C  -1.81700 13.06500 26.53300
C  -1.88000 13.29200 27.93900
C  -1.73200 14.70900 28.11200
C  -1.96200 11.75700 25.71300
C  -2.14200 12.65100 29.18000
O  -2.26900 11.47100 29.51700
C  -2.24000 13.83600 30.20200
C  -1.19000 13.53400 31.16400
O  -0.08900 13.93300 31.10100
O  -1.85100 12.95600 32.21200
C  -0.99300 12.66500 33.37200
H  -2.23500 20.72100 29.76200
H  -1.14400 20.16200 23.28100
H  -1.35900 13.87400 23.87000
H  -3.42400 16.36000 31.46900
H  -1.84700 19.01100 31.53400
H  -4.70000 18.30300 31.60900
H  -4.34300 19.73700 30.62200
H  -3.92100 19.86300 32.27800
H  -0.55900 16.42800 31.96300
H  -1.76500 15.51100 32.73600
H  -2.36300 16.94100 34.36900
H  -1.58200 18.34800 33.72000
H  -3.11900 22.99900 27.87300
H  -1.48000 23.71500 27.77400
H  -1.93500 22.67800 29.11200
H  -1.09100 24.36300 25.75200
H  -2.89900 24.17100 25.54300
H  -1.72600 24.73500 24.25000
H  0.04000 18.10900 22.08300
H  -1.45200 15.65700 22.11400
H  -2.72100 18.79300 21.76500
H  -2.49000 17.12100 21.19200
H  -1.45300 18.59000 20.65500
H  0.71300 15.67700 21.38300
H  0.60000 14.48400 22.65900
H  1.43500 16.79700 24.11200
H  2.22200 16.77400 22.46100
H  2.47500 15.41900 23.54500
H  -0.94900 11.53100 25.37700
H  -2.60300 11.79000 24.83200
H  -2.36200 11.03200 26.42100
H  -3.20900 13.91400 30.69500
H  -0.55800 11.66700 33.33100
H  -1.64100 12.75100 34.24400
H  -0.18900 13.39000 33.49600
Mg 24.15800 -5.34500 45.63200
C  26.34400 -3.07400 44.31100
C  21.66000 -4.25900 43.48700
C  22.13900 -7.86000 46.68500
C  26.72300 -6.82700 47.44100
N  24.10100 -3.83000 44.13800
C  25.10900 -3.00900 43.74600
C  24.75200 -2.25800 42.40800
C  23.11500 -2.41000 42.36200
C  22.92100 -3.57600 43.37200
C  22.28800 -1.15000 42.71200
C  25.51600 -2.85900 41.21100
C  26.26700 -1.89200 40.24700
H  25.71000 -1.66300 38.84000
N  22.12500 -5.94600 45.24100
C  21.28500 -5.36000 44.30600
C  19.99000 -6.02800 44.33500
C  20.04500 -7.01400 45.39100
C  21.48500 -6.94300 45.84400
C  18.88400 -5.71900 43.37000
C  18.91800 -7.93600 45.71400
O  17.84100 -7.73000 45.18800
C  19.14000 -9.07000 46.68700
N  24.54200 -7.16900 46.71000
C  23.43300 -7.93400 47.11800
C  23.92600 -9.21200 47.91500
C  25.49100 -8.84900 48.15500
C  25.58100 -7.52100 47.42800
C  23.10100 -9.57700 49.19400
C  26.57100 -9.90300 47.63900
C  27.72800 -10.21700 48.54700
N  26.13100 -4.98000 45.96500
C  27.01000 -5.61100 46.79700
C  28.31700 -4.89900 46.74900
C  28.09700 -3.93500 45.73800
C  26.71000 -3.99300 45.33600
C  29.51800 -5.10800 47.63500
C  28.73500 -2.89700 44.90900
O  29.91600 -2.59200 44.78900
C  27.69300 -2.24400 44.01900
C  27.40500 -0.84300 44.51600
O  26.91500 -0.65500 45.59100
O  28.04800 0.07800 43.77700
C  28.42900 1.33800 44.43700
H  20.97000 -3.79100 42.78200
H  21.53700 -8.60400 47.21000
H  27.47000 -7.19200 48.14900
H  25.00600 -1.22500 42.64600
H  22.73500 -2.72900 41.39200
H  22.02600 -1.08000 43.76800
H  21.36200 -1.17300 42.13800
H  22.88100 -0.27600 42.44300
H  24.69600 -3.30200 40.64700
H  26.23500 -3.61300 41.53000
H  27.28000 -2.28600 40.16600
H  26.48200 -0.94700 40.74500
H  18.34900 -6.63400 43.11400
H  19.22800 -5.25500 42.44600
H  18.18300 -5.07000 43.89400
H  18.19700 -9.59100 46.85200
H  19.53600 -8.67600 47.62300
H  19.87400 -9.77600 46.29700
H  23.95600 -10.10300 47.28900
H  25.60300 -8.70500 49.22900
H  23.74800 -9.43400 50.05900
H  22.60800 -10.54900 49.18100
H  22.32500 -8.81600 49.28400
H  26.98300 -9.69200 46.65300
H  26.08000 -10.82900 47.34000
H  27.33200 -10.34400 49.55400
H  28.55500 -9.51500 48.44200
H  28.00900 -11.20300 48.17700
H  29.67200 -6.12300 47.99900
H  29.33100 -4.59700 48.58000
H  30.49500 -4.85700 47.22100
H  27.93400 -2.33200 42.95900
H  28.86600 1.25500 45.43200
H  27.63700 2.08600 44.39100
H  29.17900 1.81500 43.80700

