158

Mg 8.92600 3.85700 27.94100
C  10.45500 2.34600 30.91600
C  7.14800 5.74600 30.03800
C  7.39500 5.11200 25.14900
C  10.41800 1.31400 26.04400
N  8.81700 3.98900 30.29500
C  9.43900 3.32900 31.27400
C  9.10800 3.93600 32.64800
C  7.96400 5.00000 32.29000
C  7.92900 4.88700 30.77900
C  6.56000 4.74000 33.00800
C  10.28100 4.57300 33.38100
C  10.38700 4.42200 34.91400
H  11.01600 5.61300 35.57800
N  7.40200 5.17300 27.62300
C  6.86500 5.96600 28.58400
C  6.04900 6.96500 28.06300
C  6.17000 6.83000 26.62600
C  7.05100 5.63400 26.38400
C  5.16500 7.86700 28.79900
C  5.47400 7.56900 25.53200
O  5.70300 7.37200 24.35800
C  4.60000 8.68500 25.87300
N  8.92800 3.35700 25.82200
C  8.23400 4.02200 24.86700
C  8.31200 3.28800 23.51500
C  9.41400 2.15500 23.78000
C  9.72300 2.36500 25.30000
C  7.00800 2.77200 22.93900
C  10.74800 2.15000 23.00100
C  11.22300 0.82800 22.35800
N  10.28200 2.33000 28.25600
C  10.71100 1.35100 27.38300
C  11.60000 0.45400 28.10900
C  11.59800 0.86000 29.41400
C  10.68800 1.95200 29.52900
C  12.38600 -0.69500 27.63400
C  12.20400 0.52100 30.72200
O  13.07800 -0.23200 31.04400
C  11.44900 1.49000 31.70300
C  10.78200 0.71500 32.77900
O  9.68300 0.21100 32.73800
O  11.62100 0.70200 33.79300
C  11.05100 0.27400 35.13000
H  6.63400 6.39600 30.74900
H  7.15300 5.59600 24.20100
H  10.98100 0.62700 25.41000
H  8.76300 3.08500 33.23500
H  8.16800 6.02400 32.60100
H  6.40700 3.69200 33.26900
H  5.75700 4.99200 32.31600
H  6.52200 5.32600 33.92600
H  10.16400 5.62900 33.14000
H  11.18200 4.23800 32.86600
H  10.96000 3.50900 35.07500
H  9.41500 4.25800 35.38000
H  5.25800 7.70700 29.87300
H  4.15200 7.71500 28.42700
H  5.43000 8.91300 28.64200
H  3.78600 8.16900 26.38200
H  4.09500 9.12600 25.01400
H  5.05100 9.41700 26.54200
H  8.63100 4.02000 22.77200
H  8.90400 1.19900 23.65600
H  7.03300 1.69900 22.74800
H  6.73000 3.30400 22.02900
H  6.12800 3.03100 23.52900
H  11.55400 2.29800 23.72000
H  10.77800 2.98400 22.30100
H  12.23100 0.61800 22.71500
H  11.36900 0.99900 21.29100
H  10.49900 0.09100 22.70700
H  12.65200 -0.68900 26.57700
H  11.77700 -1.59800 27.66200
H  13.32400 -0.76200 28.18600
H  12.28100 2.05700 32.12000
H  10.04900 0.70400 35.14300
H  11.51100 0.63900 36.04800
H  10.90700 -0.80600 35.16800
Mg 40.75900 8.37200 28.96800
C  42.73700 9.42400 31.67900
C  38.51300 7.06600 31.16100
C  39.12900 7.26900 26.33200
C  43.37200 9.50300 26.83700
N  40.70100 8.24900 31.13200
C  41.54000 8.78800 32.05600
C  40.99500 8.56800 33.47900
C  39.75200 7.55800 33.25700
C  39.61700 7.65600 31.75700
C  40.06500 6.10200 33.70000
C  40.67500 9.88500 34.19900
C  40.04900 9.77700 35.51100
H  40.84600 10.01900 36.81800
N  39.02800 7.48400 28.78400
C  38.23000 6.97600 29.79500
C  37.06300 6.33900 29.18800
C  37.21200 6.34900 27.79500
C  38.52300 6.97200 27.58400
C  35.90700 5.75300 30.01800
C  36.37200 5.70300 26.76700
O  36.58100 5.76600 25.55900
C  35.07400 5.05600 27.23700
N  41.17900 8.45400 26.91200
C  40.36100 7.89700 26.02700
C  40.98900 7.84000 24.57100
C  42.17300 8.86400 24.74700
C  42.26400 8.96700 26.27500
C  41.42200 6.42500 24.12800
C  42.08200 10.23800 24.09300
C  40.95200 11.26200 24.51200
N  42.75500 9.11100 29.14800
C  43.63100 9.64900 28.18200
C  44.77700 10.18400 28.82800
C  44.46700 10.08100 30.19800
C  43.17100 9.54800 30.37300
C  45.85500 10.78900 28.18200
C  45.03200 10.39900 31.49300
O  46.08500 10.92700 31.77300
C  43.91700 9.99500 32.53900
C  44.54200 8.95900 33.37400
O  44.60300 7.77000 33.07300
O  44.97000 9.44600 34.56500
C  44.77200 8.47800 35.66600
H  37.76900 6.54000 31.76200
H  38.70200 6.70600 25.49900
H  43.99600 10.05900 26.13400
H  41.75200 7.99500 34.01400
H  38.80800 7.82800 33.72900
H  41.10800 6.06700 34.01600
H  39.97600 5.45900 32.82500
H  39.35300 5.74100 34.44200
H  40.25000 10.62300 33.51700
H  41.68900 10.25900 34.34200
H  39.57800 8.79400 35.49600
H  39.16000 10.40100 35.60400
H  34.95000 6.15500 29.68600
H  36.00500 5.78900 31.10200
H  35.84500 4.68100 29.82900
H  34.48800 4.85600 26.34000
H  34.60000 5.91900 27.70400
H  35.09200 4.17700 27.88300
H  40.29400 8.28200 23.85600
H  43.17100 8.50300 24.49600
H  40.66400 6.00900 23.46500
H  41.62700 5.81400 25.00700
H  42.35100 6.53000 23.56700
H  41.80800 9.97600 23.07100
H  43.03700 10.76400 24.09100
H  40.51200 11.71400 23.62300
H  41.41500 12.05800 25.09500
H  40.10500 10.72600 24.94200
H  45.51600 11.53200 27.46000
H  46.68900 10.15600 27.88000
H  46.21100 11.47100 28.95300
H  43.60700 10.85100 33.13900
H  43.70100 8.27400 35.63800
H  45.02000 8.80400 36.67600
H  45.25700 7.51200 35.52600

