158

Mg 41.44800 41.66000 26.63900
C  40.70000 43.93700 29.27500
C  42.88400 39.54800 29.05600
C  42.30800 39.69200 24.22300
C  40.44400 44.19400 24.33400
N  41.57200 41.72600 28.85300
C  41.12500 42.64100 29.76100
C  41.21900 42.14700 31.18300
C  41.92700 40.75200 31.04300
C  42.21500 40.67500 29.49400
C  43.21300 40.57100 31.97700
C  39.90300 42.17200 32.01300
C  39.89100 43.36700 33.10800
H  39.47300 43.03400 34.54500
N  42.41600 39.86200 26.63900
C  42.96500 39.11700 27.69100
C  43.43000 37.82200 27.19400
C  43.13400 37.79300 25.81100
C  42.62700 39.12700 25.48000
C  44.00300 36.82900 28.15900
C  43.30900 36.73600 24.75600
O  43.05400 36.88600 23.59200
C  43.85800 35.47600 25.25800
N  41.49900 42.00400 24.51600
C  41.79600 40.95500 23.81900
C  41.53300 41.18200 22.32200
C  40.60800 42.39600 22.38000
C  40.90300 42.98300 23.79800
C  42.82300 41.40800 21.49800
C  39.05900 42.13000 22.13600
C  38.45800 40.85100 22.72700
N  40.72800 43.69500 26.70100
C  40.46100 44.52700 25.69400
C  40.04900 45.81800 26.28900
C  40.18200 45.68700 27.65800
C  40.54400 44.28000 27.89400
C  39.43500 46.91200 25.53900
C  39.95400 46.28200 28.95700
O  39.57800 47.39100 29.15000
C  40.30300 45.23200 30.03900
C  41.46100 45.78600 30.71600
O  42.59700 45.60800 30.40200
O  41.10100 46.34200 31.91000
C  42.12700 46.59700 32.92900
H  43.19700 38.71500 29.69000
H  42.49500 39.18000 23.27700
H  40.04900 44.91300 23.61400
H  41.93900 42.85800 31.58700
H  41.33900 39.87700 31.32100
H  43.39800 41.41100 32.64600
H  44.03800 40.57500 31.26500
H  43.16200 39.65400 32.56400
H  39.81500 41.18200 32.46000
H  39.07500 42.43000 31.35300
H  39.11600 44.07300 32.81200
H  40.83500 43.91200 33.10800
H  44.55600 36.03500 27.65700
H  43.24700 36.43800 28.83800
H  44.74500 37.33600 28.77600
H  43.90400 34.79800 24.40600
H  43.20700 35.05200 26.02300
H  44.85800 35.67200 25.64300
H  41.12700 40.27200 21.88000
H  40.86400 43.23100 21.72800
H  42.88000 40.76100 20.62200
H  43.76600 41.28900 22.03200
H  42.91600 42.44200 21.16600
H  38.83900 42.01900 21.07500
H  38.59500 42.98600 22.62600
H  38.66300 40.02300 22.04800
H  37.40300 41.12300 22.75900
H  38.85400 40.72900 23.73500
H  38.70600 47.39700 26.18800
H  38.96000 46.57900 24.61600
H  40.23700 47.59600 25.26100
H  39.58100 44.89700 30.78300
H  42.24800 47.67900 32.98300
H  43.11700 46.17900 32.74500
H  41.71100 46.28000 33.88600
Mg -4.89600 25.35400 26.26300
C  -3.40400 27.14000 28.90800
C  -6.45100 23.41300 28.60300
C  -6.40300 23.85200 23.68300
C  -3.05700 27.39500 24.11700
N  -4.95400 25.36900 28.46300
C  -4.25500 26.14600 29.33400
C  -4.67500 25.93000 30.77400
C  -5.43700 24.52400 30.64100
C  -5.67500 24.42000 29.12500
C  -4.83700 23.25200 31.29700
C  -5.60200 27.10000 31.29500
C  -5.39400 27.33900 32.78500
H  -4.98600 26.18500 33.64800
N  -6.25200 23.79100 26.14300
C  -6.78300 23.15200 27.22000
C  -7.57600 22.07500 26.65400
C  -7.60700 22.14800 25.25500
C  -6.80400 23.36700 24.94600
C  -8.15800 20.94500 27.48000
C  -8.24500 21.21800 24.17700
O  -8.18400 21.37800 23.00200
C  -9.07800 20.06000 24.61700
N  -4.73900 25.56700 24.36500
C  -5.52300 24.92700 23.44100
C  -5.12100 25.15200 21.87100
C  -4.02000 26.25300 22.15500
C  -4.00600 26.48500 23.68400
C  -4.48600 23.92200 21.13800
C  -4.40900 27.52500 21.27900
C  -3.20300 28.36100 20.76600
N  -3.40300 26.90700 26.38900
C  -2.77800 27.60200 25.46200
C  -1.86100 28.55000 26.08400
C  -2.12600 28.39900 27.45700
C  -3.02300 27.38200 27.59500
C  -0.88800 29.49300 25.38800
C  -1.71100 28.81100 28.78000
O  -0.89300 29.69000 29.11800
C  -2.64900 28.04600 29.81300
C  -1.66100 27.33700 30.74200
O  -1.28500 26.22600 30.57200
O  -1.46600 28.07800 31.91600
C  -1.02700 27.45900 33.10900
H  -7.00500 22.78700 29.30600
H  -6.87700 23.33000 22.85000
H  -2.59600 28.05600 23.38000
H  -3.79100 25.70000 31.36900
H  -6.46200 24.60100 31.00500
H  -4.05900 22.82900 30.66100
H  -5.62200 22.51600 31.47000
H  -4.36100 23.45500 32.25600
H  -6.65200 26.82400 31.19700
H  -5.51200 28.02400 30.72500
H  -6.33200 27.71500 33.19400
H  -4.59200 28.07300 32.86900
H  -7.86200 21.04500 28.52400
H  -7.80400 20.00200 27.06300
H  -9.24300 20.93700 27.58000
H  -9.69400 20.33000 25.47400
H  -8.41600 19.27900 24.99200
H  -9.61900 19.61400 23.78200
H  -5.91900 25.47900 21.20600
H  -3.01700 25.96800 21.83700
H  -5.08500 23.73800 20.24600
H  -4.43300 23.01000 21.73300
H  -3.47100 24.08000 20.77400
H  -5.09400 28.21800 21.76800
H  -4.97800 27.27900 20.38200
H  -3.41700 28.52600 19.71000
H  -2.33000 27.73200 20.94000
H  -3.18100 29.33800 21.25100
H  -0.52200 30.19500 26.13800
H  -1.40600 30.08000 24.63000
H  -0.06900 28.95800 24.90800
H  -3.20900 28.78600 30.38500
H  -0.03200 27.86200 33.29900
H  -1.11100 26.37300 33.15000
H  -1.59800 27.86900 33.94300

