158

Mg 8.85100 47.68900 27.20700
C  7.29000 46.99300 30.13100
C  11.87100 47.99200 28.97000
C  10.45000 48.56400 24.29700
C  5.93400 47.74500 25.43700
N  9.61600 47.17400 29.34400
C  8.69200 47.07900 30.34800
C  9.42700 47.37000 31.74600
C  10.91500 47.62000 31.38900
C  10.84800 47.59300 29.85600
C  11.35900 48.99300 31.99500
C  9.36100 46.18100 32.73300
C  9.28000 46.59400 34.23800
H  9.96800 45.64700 35.26900
N  10.89900 48.11600 26.67400
C  11.97000 48.17700 27.57800
C  13.20500 48.60800 26.81200
C  12.82400 48.74500 25.48700
C  11.33600 48.40300 25.41500
C  14.47100 48.86700 27.46800
C  13.65800 49.16500 24.29300
O  13.15500 49.16400 23.16800
C  15.04900 49.79000 24.49900
N  8.24900 48.03300 25.17200
C  9.15300 48.36600 24.19900
C  8.46800 48.59000 22.80400
C  6.99700 48.21600 23.16700
C  7.02500 48.09800 24.70100
C  8.71900 50.01200 22.24800
C  6.55600 46.78800 22.51200
C  5.13100 46.66600 21.99800
N  6.92000 47.48700 27.66000
C  5.81400 47.44100 26.84300
C  4.69000 47.13200 27.71700
C  5.23400 47.02000 29.01700
C  6.58200 47.20600 28.90500
C  3.24200 47.06700 27.29700
C  4.78000 46.78900 30.38200
O  3.65300 46.65300 30.88300
C  6.16300 46.78000 31.18800
C  6.21400 45.43500 31.82700
O  6.36300 44.37400 31.23700
O  6.03300 45.55100 33.25100
C  6.50700 44.35100 33.96700
H  12.74800 48.24800 29.56800
H  10.85900 48.98000 23.37300
H  5.08100 47.67600 24.75800
H  8.90500 48.27400 32.05900
H  11.68500 46.93800 31.74800
H  12.39400 48.71400 32.19600
H  10.87300 49.17900 32.95300
H  11.19200 49.77300 31.25200
H  10.27700 45.59100 32.72300
H  8.49600 45.57100 32.47100
H  8.22200 46.58200 34.50300
H  9.56300 47.64500 34.28400
H  14.60000 49.94900 27.42100
H  15.23700 48.32300 26.91500
H  14.58300 48.69000 28.53700
H  14.90000 50.50100 25.31200
H  15.30600 50.29300 23.56700
H  15.81500 49.04000 24.69300
H  8.96900 47.92400 22.10100
H  6.32600 49.01300 22.84600
H  9.17100 50.50100 23.11100
H  7.82900 50.48000 21.82800
H  9.38900 50.01800 21.38900
H  6.56300 45.99300 23.25800
H  7.29300 46.62300 21.72600
H  5.05000 46.39300 20.94600
H  4.76200 47.69000 22.04500
H  4.41200 46.05600 22.54500
H  2.76800 46.20600 27.76800
H  3.12000 47.05800 26.21300
H  2.69000 47.86800 27.79000
H  6.22400 47.45700 32.04000
H  6.42700 44.55200 35.03500
H  7.55700 44.08300 33.85100
H  5.90800 43.50300 33.63300
Mg -0.58000 43.62000 25.88300
C  1.82000 43.25500 28.59100
C  -3.03200 42.79700 28.20500
C  -2.66800 43.73100 23.39700
C  2.20600 43.72900 23.73600
N  -0.55400 42.96800 28.11600
C  0.47300 42.93200 28.99600
C  -0.10500 42.81000 30.44300
C  -1.58000 42.28800 30.21100
C  -1.72400 42.58900 28.70400
C  -1.81900 40.79600 30.65200
C  0.01200 44.14300 31.23600
C  0.50800 43.93800 32.69500
H  0.04800 42.68700 33.53700
N  -2.59400 43.47100 25.82400
C  -3.45900 43.15300 26.86400
C  -4.84400 43.28600 26.45900
C  -4.78500 43.57700 25.04800
C  -3.31800 43.60500 24.66500
C  -6.02800 42.85900 27.31200
C  -5.90000 43.75800 23.98500
O  -5.66200 43.99400 22.81800
C  -7.27600 43.54200 24.44000
N  -0.27900 43.76900 23.85700
C  -1.32300 43.72700 22.99000
C  -0.82400 43.85300 21.55100
C  0.68400 44.11800 21.67700
C  0.92300 43.82700 23.16700
C  -1.07000 42.56800 20.76800
C  1.27800 45.53700 21.23100
C  1.05800 46.70800 22.17600
N  1.50600 43.61400 26.07000
C  2.44000 43.64100 25.11300
C  3.79100 43.63300 25.73900
C  3.58000 43.49600 27.06400
C  2.20900 43.47500 27.24200
C  5.14300 43.64400 25.00600
C  4.31700 43.32500 28.37200
O  5.49300 43.20900 28.63300
C  3.11100 43.31500 29.41400
C  3.31600 42.08600 30.28700
O  2.84300 40.92200 30.12300
O  3.85400 42.44900 31.51100
C  3.98000 41.31300 32.34900
H  -3.78300 42.59000 28.97000
H  -3.36200 43.99900 22.59800
H  3.06700 43.63200 23.07200
H  0.48300 42.09600 31.02100
H  -2.14000 42.95400 30.86800
H  -2.47300 40.81800 31.52400
H  -0.85500 40.35000 30.89700
H  -2.22000 40.14700 29.87400
H  -0.93600 44.66400 31.10000
H  0.83300 44.70800 30.79400
H  0.26200 44.81400 33.29500
H  1.59600 44.00400 32.70000
H  -5.75300 42.43700 28.27800
H  -6.51800 42.04700 26.77300
H  -6.77800 43.64900 27.32800
H  -8.04500 43.68800 23.68000
H  -7.58100 44.22800 25.23000
H  -7.36100 42.50500 24.76300
H  -1.21300 44.76300 21.09300
H  1.25900 43.31600 21.21400
H  -0.29400 41.82000 20.92900
H  -1.19600 42.85500 19.72400
H  -1.96000 42.00400 21.05000
H  0.86300 45.82000 20.26400
H  2.36000 45.41100 21.22200
H  0.41800 46.26900 22.94100
H  0.45900 47.51300 21.75200
H  1.96900 47.15200 22.57700
H  5.04200 43.85700 23.94100
H  5.47700 42.61900 25.16400
H  5.83900 44.30700 25.52000
H  3.15700 44.23800 29.99300
H  4.70200 40.63400 31.89700
H  3.08600 40.78100 32.67500
H  4.47400 41.53200 33.29600

