158

Mg 42.03100 40.92100 26.76100
C  40.85600 43.10700 29.14200
C  43.33400 38.97500 29.26600
C  42.85600 38.59100 24.43800
C  41.37300 43.25900 24.36500
N  41.84400 40.95300 28.95400
C  41.36000 41.89600 29.71700
C  41.56900 41.60400 31.22500
C  42.57100 40.38600 31.25500
C  42.56700 40.10600 29.70300
C  43.99100 40.70400 31.80900
C  40.27100 41.26800 31.93000
C  39.80000 42.22700 33.00600
H  39.43200 41.69600 34.38600
N  42.91200 38.99300 26.91700
C  43.33500 38.40000 28.03300
C  43.86400 37.08800 27.67700
C  43.65600 36.84500 26.26500
C  43.11200 38.16300 25.73700
C  44.49000 36.21400 28.70000
C  43.86900 35.62900 25.46500
O  43.61300 35.58200 24.29000
C  44.34400 34.36600 26.17500
N  42.27000 40.99700 24.74900
C  42.50500 39.86300 24.00900
C  42.48300 40.18700 22.52500
C  41.89500 41.62700 22.41500
C  41.75100 42.02900 23.92200
C  43.84900 39.99800 21.86400
C  40.53400 41.82800 21.71900
C  40.50300 43.05100 20.78100
N  41.23300 42.83200 26.67900
C  41.12100 43.67100 25.67800
C  40.51500 44.91100 26.14100
C  40.38000 44.75600 27.52000
C  40.82600 43.46400 27.75700
C  40.13900 46.06300 25.29800
C  40.01700 45.33000 28.74300
O  39.37600 46.32800 28.98800
C  40.30800 44.32500 29.87200
C  41.27000 45.06400 30.73000
O  42.46400 45.31800 30.44000
O  40.63100 45.46000 31.84100
C  41.48200 46.16400 32.82200
H  43.84000 38.43000 30.06600
H  43.10100 37.92700 23.60700
H  41.09900 44.10000 23.72500
H  41.99200 42.47100 31.73200
H  42.22200 39.48600 31.76200
H  44.68800 40.48800 31.00000
H  44.15500 40.01300 32.63500
H  44.02000 41.74500 32.13200
H  40.34600 40.25600 32.32600
H  39.46900 41.32200 31.19400
H  38.82700 42.54900 32.63400
H  40.39400 43.13200 33.12700
H  44.02600 35.23100 28.77600
H  44.45700 36.56100 29.73300
H  45.54200 36.06800 28.45200
H  44.40600 33.52600 25.48300
H  43.63200 34.08100 26.95000
H  45.33000 34.52000 26.61300
H  41.79100 39.53800 21.98800
H  42.67600 42.19100 21.90400
H  44.15300 40.79200 21.18200
H  43.64600 39.08800 21.30000
H  44.58700 39.69700 22.60800
H  39.74500 41.83500 22.47100
H  40.28300 40.95700 21.11500
H  41.43400 43.13700 20.22200
H  40.28200 44.03700 21.19200
H  39.70600 42.82400 20.07300
H  39.08300 45.95500 25.05100
H  40.86500 46.13400 24.48700
H  40.37400 46.90400 25.95100
H  39.38900 44.13500 30.42600
H  41.75800 45.39700 33.54500
H  40.83800 46.90800 33.29200
H  42.40900 46.53200 32.38400
Mg -6.35100 25.48500 26.82200
C  -5.30000 27.37800 29.59300
C  -8.00100 23.45400 28.95900
C  -7.26500 23.61600 24.13100
C  -4.37900 27.49600 24.68000
N  -6.41000 25.34700 29.11300
C  -6.04100 26.25500 30.03200
C  -6.70300 26.01200 31.37300
C  -7.32000 24.61500 31.16500
C  -7.29600 24.48200 29.62200
C  -6.51700 23.46600 31.92000
C  -7.58100 27.15600 31.84200
C  -7.88300 27.19700 33.38000
H  -7.27100 26.01500 34.31600
N  -7.55900 23.77700 26.59000
C  -8.17900 23.08800 27.59700
C  -9.00400 22.10200 26.92900
C  -8.70900 22.07200 25.51300
C  -7.76100 23.15200 25.36200
C  -9.88600 21.26500 27.67200
C  -9.27900 21.15300 24.44100
O  -8.92000 21.07400 23.25700
C  -10.48400 20.31500 24.79800
N  -5.82300 25.42000 24.72500
C  -6.33700 24.57300 23.75300
C  -5.73700 24.80700 22.38800
C  -5.15300 26.23300 22.57300
C  -5.07000 26.41700 24.12800
C  -4.66400 23.72700 21.86800
C  -5.98700 27.38500 21.87000
C  -5.28000 28.00600 20.64700
N  -5.09200 27.10100 26.99200
C  -4.36100 27.87600 26.06400
C  -3.69300 28.97800 26.87300
C  -3.99800 28.80000 28.14200
C  -4.87400 27.67000 28.22300
C  -2.78900 30.11500 26.28100
C  -3.85600 29.42400 29.45700
O  -3.27700 30.46300 29.77300
C  -4.65700 28.47200 30.41300
C  -3.77000 27.98700 31.49900
O  -3.00200 27.03600 31.50800
O  -4.00000 28.78500 32.57200
C  -3.11500 28.59400 33.69000
H  -8.42000 22.68000 29.60500
H  -7.58500 22.93000 23.34400
H  -3.82500 28.11900 23.97400
H  -5.81400 25.86100 31.98500
H  -8.33800 24.49900 31.53600
H  -5.89400 23.02600 31.14100
H  -7.23600 22.69400 32.19400
H  -5.96700 23.76900 32.81100
H  -8.47700 27.09200 31.22500
H  -7.18300 28.08800 31.44200
H  -8.96400 27.06700 33.40800
H  -7.78200 28.21300 33.76400
H  -9.83000 20.24300 27.29900
H  -10.94000 21.54400 27.64400
H  -9.58000 21.19800 28.71600
H  -11.11400 20.81700 25.53300
H  -10.34200 19.29300 25.15100
H  -11.11600 20.19800 23.91800
H  -6.51400 24.84600 21.62500
H  -4.14500 26.27000 22.16200
H  -3.81400 24.30400 21.50500
H  -5.20300 23.20600 21.07600
H  -4.35300 23.00700 22.62500
H  -6.30200 28.15300 22.57600
H  -6.84000 26.89100 21.40500
H  -5.89400 27.87900 19.75500
H  -4.27600 27.64000 20.43200
H  -5.24400 29.07500 20.85600
H  -1.82900 29.70200 25.97200
H  -2.59700 30.83300 27.07800
H  -3.38800 30.48700 25.45000
H  -5.51000 29.04700 30.77300
H  -3.23700 29.46900 34.32800
H  -2.06400 28.53600 33.40700
H  -3.45600 27.73600 34.26900

