158

Mg 8.21400 3.33000 28.75300
C  9.94900 1.92900 31.63700
C  6.55400 5.23400 30.80100
C  6.55700 4.39100 26.07100
C  9.46400 0.52500 26.88800
N  8.13200 3.30900 31.00600
C  8.98300 2.84600 31.95800
C  8.69100 3.51600 33.30200
C  7.42300 4.36600 33.02900
C  7.36600 4.30400 31.47500
C  6.16700 3.90200 33.86800
C  9.98400 4.08600 33.94600
C  9.72800 4.96100 35.18400
H  10.59200 4.49800 36.40900
N  6.73400 4.64200 28.48000
C  6.21500 5.34200 29.49000
C  5.14700 6.15100 28.89200
C  5.09700 5.85900 27.46300
C  6.19600 4.93300 27.27500
C  4.21000 7.03300 29.69100
C  4.14200 6.30300 26.41700
O  4.22600 5.94400 25.27900
C  2.97900 7.14100 26.84600
N  8.01400 2.61400 26.79700
C  7.35100 3.28800 25.81900
C  7.55900 2.60600 24.43200
C  8.36900 1.34300 24.76200
C  8.56200 1.41900 26.28100
C  6.44600 2.26500 23.41600
C  9.72600 1.25000 24.03700
C  10.07600 -0.11200 23.39100
N  9.47000 1.64800 29.11900
C  9.96900 0.69100 28.21800
C  10.88700 -0.18400 28.88300
C  10.98100 0.39300 30.18400
C  10.05200 1.40000 30.32200
C  11.69500 -1.28700 28.33100
C  11.58800 0.15600 31.45300
O  12.42900 -0.69500 31.73400
C  11.00700 1.23900 32.52400
C  10.45600 0.37700 33.54200
O  9.74600 -0.62900 33.39800
O  10.92100 0.79300 34.73400
C  10.50500 -0.05600 35.82500
H  6.13100 5.95000 31.50800
H  6.01500 4.76200 25.19800
H  9.87000 -0.29600 26.29300
H  8.47100 2.64300 33.91800
H  7.79300 5.35300 33.30900
H  5.50400 3.47800 33.11300
H  5.73000 4.83900 34.21400
H  6.56000 3.23100 34.63200
H  10.63800 4.63000 33.26400
H  10.66100 3.30000 34.27900
H  8.70600 4.94000 35.56200
H  9.91000 5.98800 34.86600
H  3.20300 6.63600 29.56300
H  4.14100 8.02500 29.24500
H  4.44200 7.21400 30.74000
H  2.24100 6.53100 27.36700
H  2.58200 7.60300 25.94200
H  3.34900 8.01700 27.37900
H  8.20500 3.34500 23.95800
H  7.71400 0.49000 24.58500
H  5.56100 2.70000 23.88000
H  6.31700 1.24900 23.04100
H  6.61000 2.86300 22.52000
H  10.53600 1.55400 24.70000
H  9.89600 2.10400 23.38100
H  9.36700 -0.90100 23.64200
H  11.04700 -0.47000 23.73300
H  10.19200 0.06900 22.32200
H  12.70900 -1.27800 28.73300
H  11.55400 -1.41100 27.25700
H  11.32200 -2.21500 28.76300
H  11.84100 1.90400 32.74900
H  10.88700 -1.07500 35.75100
H  9.42100 -0.16300 35.85900
H  10.66900 0.41200 36.79600
Mg 36.92600 49.29400 25.44200
C  37.01200 47.10500 28.25700
C  34.87100 51.32000 27.40100
C  36.06900 50.91000 22.67100
C  38.15000 46.61100 23.48100
N  36.13700 49.18400 27.60400
C  36.43200 48.33000 28.62400
C  36.03300 48.74800 30.02100
C  35.07300 49.91100 29.61700
C  35.37100 50.20400 28.15200
C  33.54300 49.76400 30.04000
C  37.35300 49.16200 30.63500
C  37.63200 48.63000 32.01900
H  36.38600 48.51200 32.93200
N  35.83200 50.96100 25.14400
C  35.16600 51.67600 26.06500
C  34.77600 53.02100 25.49300
C  35.05400 52.92500 24.07100
C  35.67800 51.55000 23.90800
C  34.42400 54.23200 26.38300
C  34.84100 53.88900 23.00300
O  35.04500 53.54600 21.84700
C  34.45900 55.31600 23.27000
N  37.17100 48.80500 23.44700
C  36.68200 49.67000 22.45900
C  36.96800 49.17700 21.04600
C  37.83700 47.88600 21.36600
C  37.69100 47.71800 22.80900
C  35.75400 48.99800 20.13700
C  39.34200 48.06100 20.89900
C  40.44700 48.60600 21.84500
N  37.52300 47.30800 25.74800
C  38.09400 46.41500 24.87700
C  38.35900 45.18700 25.60000
C  38.04000 45.48800 26.96700
C  37.47200 46.67500 26.98300
C  38.68500 43.86200 25.03300
C  37.94700 44.87400 28.25500
O  38.16300 43.73200 28.55900
C  37.51700 45.99800 29.20300
C  36.41300 45.39400 30.04300
O  35.26200 45.28800 29.67800
O  36.89400 45.08100 31.30200
C  35.89100 44.78400 32.32000
H  34.24600 51.96400 28.02300
H  35.88500 51.42100 21.72300
H  38.73500 45.87000 22.93200
H  35.45600 47.99400 30.55600
H  35.39200 50.80600 30.15200
H  32.87400 49.78000 29.17900
H  33.39900 50.72200 30.54000
H  33.29200 48.94600 30.71400
H  37.49000 50.23900 30.73400
H  38.17700 48.81000 30.01400
H  38.19000 49.38200 32.57700
H  38.31000 47.77900 32.07900
H  33.82300 54.97300 25.85500
H  35.27900 54.72900 26.84100
H  33.79700 53.93000 27.22200
H  35.18300 55.74700 23.96200
H  33.44400 55.32800 23.66800
H  34.47600 55.81500 22.30100
H  37.57000 49.96200 20.58900
H  37.56100 47.00500 20.78800
H  35.83400 48.19400 19.40600
H  35.51600 49.90500 19.58100
H  34.86600 48.80100 20.73800
H  39.38100 48.61400 19.96100
H  39.70800 47.06900 20.63600
H  39.96300 48.96800 22.75200
H  41.08000 49.33900 21.34400
H  40.96600 47.66400 22.02200
H  39.07300 43.22900 25.83100
H  39.50600 43.92400 24.31900
H  37.85800 43.41200 24.48300
H  38.38900 46.38400 29.73200
H  35.54500 43.75400 32.24500
H  34.97800 45.37400 32.24300
H  36.36100 45.12500 33.24300

