158

Mg 30.46900 57.86500 40.56000
C  27.47100 56.30300 39.69600
C  32.18300 55.37800 38.95800
C  33.11600 59.89600 40.51900
C  28.43900 60.70000 41.47800
N  29.82300 56.08700 39.45300
C  28.57400 55.49400 39.35300
C  28.68300 54.15800 38.65400
C  30.18000 53.84200 38.68200
C  30.83000 55.18300 39.07000
C  30.54600 52.60600 39.54200
C  28.13600 53.99200 37.24600
C  28.15900 55.20100 36.34700
H  28.23600 54.88600 34.81500
N  32.43500 57.55400 39.98400
C  33.01300 56.49900 39.35000
C  34.41000 56.74900 39.17100
C  34.74500 58.05800 39.60800
C  33.41000 58.54900 40.07700
C  35.30400 55.70400 38.39600
C  36.15000 58.69100 39.54300
O  37.09000 58.01400 39.08200
C  36.41700 60.07500 40.10100
N  30.78800 59.98000 41.00600
C  32.00400 60.45200 41.03200
C  31.95500 61.96000 41.47000
C  30.46800 62.19900 41.88300
C  29.84900 60.86500 41.46100
C  33.04200 62.39100 42.56000
C  29.75500 63.41000 41.19900
C  30.50000 64.70300 40.81800
N  28.32500 58.48700 40.58000
C  27.68500 59.56000 41.06000
C  26.27400 59.34600 40.83800
C  26.19400 58.03900 40.37200
C  27.44300 57.57000 40.19700
C  25.24700 60.37300 41.03200
C  25.22500 57.10500 39.88600
O  24.02300 57.23100 39.73400
C  26.08800 55.90400 39.31100
C  25.52700 54.69300 39.97900
O  25.25400 54.55600 41.16700
O  25.28000 53.73100 39.02300
C  24.44800 52.58800 39.50500
H  32.74300 54.48500 38.67200
H  33.88000 60.66100 40.36100
H  27.84400 61.54500 41.83300
H  28.00000 53.56400 39.26100
H  30.41100 53.80800 37.61800
H  30.47800 51.80000 38.81100
H  29.68200 52.37200 40.16500
H  31.47400 52.70900 40.10400
H  27.09300 53.74000 37.43700
H  28.47200 53.06000 36.79300
H  28.86300 55.99600 36.59500
H  27.16600 55.64500 36.42100
H  36.19100 56.08600 37.89100
H  34.68500 55.09700 37.73600
H  35.76800 55.12100 39.19200
H  36.36200 59.95300 41.18200
H  35.76000 60.89000 39.79700
H  37.39500 60.48500 39.84600
H  32.08600 62.46400 40.51300
H  30.27700 62.25200 42.95500
H  32.62000 62.94800 43.39600
H  33.78400 63.08000 42.15600
H  33.53500 61.44900 42.80200
H  29.01400 63.76700 41.91500
H  29.30000 63.09500 40.26000
H  30.11800 64.83000 39.80500
H  31.57600 64.56900 40.92600
H  30.11700 65.53700 41.40600
H  24.92900 60.74400 40.05700
H  25.69700 61.14500 41.65600
H  24.42200 59.81200 41.47100
H  25.82300 55.82200 38.25700
H  24.94500 51.81500 40.09100
H  24.23600 52.02300 38.59800
H  23.55800 52.96900 40.00600
Mg 6.66000 53.67200 41.30100
C  6.32100 50.06200 41.16500
C  9.61000 53.33600 39.63500
C  6.73600 57.02000 40.89100
C  3.39000 53.86800 42.41700
N  7.71200 51.85100 40.55800
C  7.53200 50.49900 40.61800
C  8.79500 49.67500 40.06600
C  9.85400 50.81600 39.84000
C  8.95100 52.11600 39.96900
C  11.07300 50.85700 40.77900
C  8.50200 48.77300 38.85000
C  8.54800 49.39400 37.35700
H  7.39000 48.99700 36.40800
N  8.03500 55.03200 40.37000
C  9.23500 54.66700 39.82400
C  9.89100 55.83800 39.44600
C  9.05500 56.96500 39.71900
C  7.88000 56.38300 40.39800
C  11.27000 55.85400 38.68200
C  9.45000 58.39400 39.37400
O  10.42600 58.66100 38.76500
C  8.52300 59.52000 39.85900
N  5.27400 55.22900 41.43800
C  5.54600 56.51900 41.37900
C  4.35100 57.45300 41.79400
C  3.19800 56.39900 41.99700
C  3.98300 55.12100 41.93000
C  4.66200 58.45400 42.92500
C  2.03200 56.37800 40.93500
C  0.59600 56.61800 41.40500
N  5.27000 52.30200 41.87900
C  3.94700 52.56800 42.35400
C  3.27800 51.33600 42.67900
C  4.24400 50.32300 42.25600
C  5.35000 50.93700 41.67400
C  1.97200 51.04200 43.34500
C  4.38200 48.83700 42.09100
O  3.63100 47.94900 42.46400
C  5.75300 48.63100 41.39600
C  5.38200 47.97200 40.18400
O  4.69700 48.45100 39.27500
O  5.87200 46.67700 40.08100
C  5.47600 45.92200 38.86400
H  10.63200 53.30900 39.25300
H  6.71300 58.10900 40.96800
H  2.31200 53.87600 42.59200
H  9.15200 49.06500 40.89500
H  10.37300 50.73100 38.88600
H  11.38500 49.82900 40.96900
H  10.83500 51.44700 41.66300
H  11.90900 51.32500 40.25900
H  7.48500 48.41000 38.99400
H  9.11300 47.87100 38.87000
H  9.42600 49.08800 36.78800
H  8.63200 50.46700 37.53200
H  11.07700 55.78800 37.61200
H  11.93500 55.06200 39.02600
H  11.85900 56.74800 38.88900
H  7.51400 59.49600 39.44800
H  9.01800 60.48100 39.72300
H  8.54500 59.37600 40.93900
H  4.04900 58.13100 40.99600
H  2.85700 56.39200 43.03200
H  5.69200 58.54200 43.26900
H  4.01500 58.30800 43.79000
H  4.44600 59.43200 42.49500
H  2.08700 55.38500 40.48800
H  2.33700 57.09800 40.17500
H  0.68600 56.50800 42.48600
H  -0.20700 55.95800 41.07600
H  0.39000 57.66000 41.16000
H  1.67400 50.05500 42.99200
H  1.21100 51.68400 42.90200
H  2.17200 51.08300 44.41600
H  6.45700 47.94900 41.87400
H  6.22400 45.16200 38.63700
H  5.55500 46.59700 38.01200
H  4.45500 45.54600 38.93400

