158

Mg 47.41600 24.98100 28.68400
C  48.34000 27.43700 31.14300
C  46.06000 23.17700 31.33000
C  46.97800 22.56700 26.69200
C  49.09000 26.98500 26.27600
N  47.40700 25.26200 31.04000
C  47.59200 26.37000 31.70500
C  47.19600 26.30000 33.19300
C  46.51200 24.89800 33.23800
C  46.75200 24.30500 31.79200
C  47.04500 23.85700 34.36100
C  46.25100 27.39600 33.84200
C  46.85300 28.09900 35.09800
H  47.22000 27.23500 36.31300
N  46.52900 23.15500 28.94100
C  45.97600 22.56500 30.08400
C  45.37300 21.35700 29.70200
C  45.66000 21.16400 28.33400
C  46.51400 22.21600 27.95200
C  44.60100 20.53500 30.72200
C  45.29000 19.89700 27.50800
O  45.80000 19.75600 26.36100
C  44.37100 18.84600 28.10400
N  48.19800 24.75200 26.89700
C  47.67900 23.70700 26.15700
C  48.10900 23.73100 24.67200
C  48.56800 25.17600 24.52500
C  48.66800 25.69000 26.00200
C  49.18400 22.68400 24.34400
C  47.64700 26.00000 23.55200
C  48.26400 26.33200 22.16800
N  48.49900 26.86300 28.64200
C  49.12000 27.50100 27.57400
C  49.62200 28.78300 28.09700
C  49.39200 28.78900 29.47300
C  48.69800 27.62300 29.76800
C  50.33500 29.82700 27.20000
C  49.52000 29.50400 30.71000
O  50.00000 30.58900 31.01400
C  49.00100 28.58700 31.84300
C  50.08800 28.13700 32.85300
O  50.79400 27.15300 32.81300
O  50.13000 29.09500 33.93000
C  51.00500 28.70000 35.08900
H  45.55200 22.73100 32.18800
H  46.82500 21.86100 25.87300
H  49.44500 27.57000 25.42500
H  48.14100 26.25300 33.73400
H  45.42300 24.93400 33.26100
H  47.32300 22.90200 33.91600
H  46.36500 23.60200 35.17500
H  48.02600 24.14800 34.73800
H  45.37000 26.92300 34.27800
H  45.90100 28.17800 33.16800
H  46.19900 28.91600 35.40200
H  47.76700 28.63600 34.84200
H  43.55300 20.39100 30.46100
H  44.60600 21.05100 31.68200
H  44.99200 19.53300 30.89400
H  44.84100 18.37200 28.96600
H  44.05500 18.15000 27.32700
H  43.52900 19.43700 28.46400
H  47.20000 23.55300 24.09700
H  49.62000 25.14700 24.24100
H  50.14200 23.19600 24.24900
H  49.01500 22.28800 23.34300
H  49.14400 21.81300 24.99800
H  47.32200 26.89000 24.09000
H  46.71800 25.45900 23.37100
H  47.62400 26.03900 21.33600
H  49.20300 25.78900 22.06000
H  48.47900 27.39400 22.05000
H  51.40400 29.83300 27.41500
H  49.85400 30.80200 27.27300
H  50.27400 29.53500 26.15200
H  48.23600 29.23700 32.26800
H  51.95400 28.29000 34.74300
H  50.43300 27.94200 35.62500
H  51.13000 29.53700 35.77600
Mg 10.27400 47.67900 26.66100
C  8.11300 47.95900 29.49300
C  12.89700 48.61300 28.47900
C  12.01900 47.43600 23.88300
C  7.21900 47.19900 24.79500
N  10.40800 48.31600 28.66800
C  9.48000 48.31100 29.69200
C  10.14600 48.55300 31.03700
C  11.50300 49.22100 30.60900
C  11.62800 48.70800 29.17000
C  11.70700 50.76500 30.72400
C  10.32200 47.26800 31.85600
C  10.27000 47.47800 33.36700
H  10.20700 46.22500 34.31500
N  12.24500 47.96400 26.24600
C  13.22600 48.26100 27.16800
C  14.50900 48.08300 26.46800
C  14.22200 47.78200 25.13900
C  12.76300 47.72900 25.02200
C  15.77100 48.27500 27.10700
C  15.14600 47.55400 24.05400
O  14.73300 47.40700 22.88300
C  16.65600 47.63100 24.18200
N  9.64400 47.55700 24.55200
C  10.61000 47.32500 23.62500
C  9.95000 47.03100 22.32000
C  8.44300 46.86500 22.60600
C  8.37100 47.14000 24.09500
C  10.29100 48.01600 21.16000
C  7.81100 45.52300 22.26700
C  6.30800 45.64100 21.92400
N  8.05400 47.58300 26.98800
C  6.99900 47.33800 26.19100
C  5.71700 47.32600 26.97500
C  6.13300 47.59800 28.23700
C  7.57000 47.62100 28.22000
C  4.30900 47.02500 26.39500
C  5.67600 47.87600 29.62800
O  4.56900 47.92900 30.17700
C  6.99700 47.82900 30.44000
C  7.15000 46.50800 31.10800
O  7.59300 45.48800 30.58700
O  6.72300 46.63500 32.38700
C  6.63700 45.39400 32.97700
H  13.76500 48.87600 29.08700
H  12.60800 47.18000 23.00000
H  6.32000 47.25500 24.17700
H  9.63300 49.24800 31.70300
H  12.30500 48.92900 31.28700
H  11.58800 51.22100 29.74100
H  12.65400 50.91700 31.24400
H  10.88300 51.17100 31.31100
H  11.32800 46.88600 31.68100
H  9.63100 46.48300 31.54800
H  9.31600 47.97500 33.54700
H  11.15100 48.07200 33.60900
H  15.81800 48.24400 28.19600
H  15.98500 49.33000 26.93800
H  16.59100 47.61800 26.81700
H  17.07100 47.66500 23.17400
H  16.84400 46.70800 24.73100
H  16.86300 48.55600 24.71800
H  10.36500 46.05700 22.06100
H  7.99700 47.77100 22.19700
H  10.75400 48.92600 21.53900
H  9.36900 48.32500 20.66600
H  10.91300 47.43300 20.48100
H  7.84300 44.74700 23.03100
H  8.32900 45.08500 21.41400
H  6.00900 46.66300 22.15700
H  5.70300 44.92900 22.48500
H  6.15500 45.54500 20.84900
H  3.87200 47.95700 26.03500
H  3.73300 46.49000 27.15000
H  4.47400 46.34700 25.55800
H  6.85000 48.51400 31.27500
H  6.27600 45.57700 33.98800
H  7.58800 44.86100 32.98300
H  5.82300 44.88200 32.46300

