158

Mg 17.49700 -1.33200 28.47300
C  16.59400 0.81800 31.24800
C  19.81700 -2.86200 30.52100
C  18.83800 -2.87400 25.81600
C  16.03800 1.11300 26.45300
N  18.16000 -1.01600 30.60100
C  17.44400 -0.27600 31.56600
C  18.00600 -0.60700 32.96900
C  19.13800 -1.62300 32.66500
C  19.04800 -1.93700 31.20600
C  20.54800 -1.15800 33.19600
C  16.94200 -1.19600 33.94000
C  16.82700 -0.55300 35.29200
H  17.94700 0.07100 36.00600
N  18.91900 -2.82400 28.23900
C  19.71400 -3.31800 29.21000
C  20.51000 -4.35200 28.61600
C  20.21200 -4.47200 27.25800
C  19.28700 -3.36600 27.06700
C  21.58600 -5.06900 29.42100
C  20.65000 -5.46000 26.26500
O  20.32900 -5.36300 25.12800
C  21.55900 -6.66300 26.59700
N  17.35900 -0.93900 26.39900
C  17.97200 -1.79400 25.48100
C  17.66600 -1.25200 24.02700
C  16.67300 -0.06100 24.32300
C  16.66300 0.06900 25.81300
C  18.99100 -0.70300 23.34000
C  15.26100 -0.16100 23.58000
C  14.16900 -1.05000 24.22200
N  16.43900 0.63600 28.73900
C  15.90200 1.42500 27.79500
C  15.16600 2.52800 28.46700
C  15.35800 2.22300 29.81500
C  16.22800 1.15800 29.88700
C  14.20400 3.43700 27.75900
C  14.92900 2.50200 31.22000
O  13.97800 3.18400 31.59600
C  15.85400 1.71900 32.16400
C  16.68000 2.70700 32.75500
O  17.48700 3.36600 32.17200
O  16.33700 2.82400 34.11000
C  16.99400 3.88900 34.88900
H  20.49500 -3.45300 31.14100
H  19.33000 -3.36000 24.97100
H  15.40400 1.65200 25.74600
H  18.52100 0.21600 33.46600
H  19.05500 -2.53400 33.25800
H  20.43000 -0.25800 33.80000
H  21.15400 -0.99700 32.30400
H  20.90900 -1.96800 33.82800
H  17.20200 -2.25100 34.03000
H  15.95300 -1.25000 33.48500
H  16.38000 -1.21900 36.03000
H  16.05900 0.21400 35.19800
H  22.32500 -5.60200 28.82200
H  21.22300 -5.82700 30.11600
H  22.10400 -4.31400 30.01200
H  21.16200 -7.46300 25.97200
H  21.33100 -7.00300 27.60700
H  22.63600 -6.50300 26.55100
H  17.23800 -1.95500 23.31200
H  17.17200 0.77700 23.83700
H  19.71400 -0.48600 24.12600
H  18.91900 0.35700 23.10000
H  19.27400 -1.36000 22.51700
H  15.48900 -0.51500 22.57400
H  14.86600 0.84700 23.45600
H  13.36500 -0.48800 24.69700
H  14.62100 -1.70700 24.96500
H  13.69600 -1.65300 23.44700
H  13.95000 3.19400 26.72800
H  14.68300 4.40700 27.62300
H  13.33300 3.58900 28.39700
H  15.32100 1.11200 32.89600
H  18.02400 3.65500 35.15900
H  16.35200 4.13200 35.73600
H  17.25100 4.75200 34.27400
Mg 41.74600 40.80600 26.45500
C  41.13100 43.06400 29.02500
C  43.10400 38.58700 28.81800
C  42.38800 38.37700 24.04200
C  41.10000 43.20700 24.14300
N  42.09400 40.83800 28.62400
C  41.58200 41.80100 29.43700
C  41.56700 41.31500 30.90500
C  42.48300 39.99900 30.85100
C  42.58300 39.79700 29.34600
C  43.83600 40.20700 31.62400
C  40.20600 41.09400 31.58400
C  40.02400 41.94100 32.90300
H  39.45000 41.24200 34.18100
N  42.59000 38.77400 26.40200
C  43.02400 38.04000 27.52000
C  43.53800 36.74400 27.13000
C  43.32400 36.70100 25.74500
C  42.65400 37.94700 25.34200
C  44.12000 35.72500 28.05600
C  43.76100 35.61500 24.79500
O  43.35100 35.55600 23.61500
C  44.50800 34.50100 25.28900
N  41.88300 40.85500 24.37600
C  42.06100 39.70900 23.55300
C  42.09000 40.14700 22.07500
C  41.44700 41.58300 22.15500
C  41.45900 41.97600 23.64700
C  43.50800 40.12000 21.49300
C  39.97500 41.69500 21.70600
C  38.95100 40.75400 22.40000
N  41.25800 42.78900 26.59200
C  41.01100 43.63400 25.48600
C  40.55800 44.88300 25.99900
C  40.53900 44.71000 27.41500
C  41.07300 43.38800 27.70300
C  40.28100 46.13700 25.19600
C  40.17600 45.29500 28.68500
O  39.79700 46.42400 28.93500
C  40.50800 44.24300 29.86500
C  41.41300 44.86600 30.88100
O  42.64600 44.77100 30.82000
O  40.68000 45.51100 31.87300
C  41.40900 46.09600 33.02500
H  43.61200 38.05500 29.62500
H  42.68600 37.63800 23.29600
H  40.83500 43.96700 23.40500
H  42.03000 42.17200 31.39400
H  41.91000 39.23200 31.37200
H  44.65200 39.78900 31.03300
H  43.64000 39.59100 32.50100
H  44.18400 41.21700 31.84100
H  40.08300 40.03300 31.80100
H  39.47600 41.31000 30.80400
H  39.29000 42.73900 32.78600
H  40.89800 42.56800 33.07700
H  43.50200 34.83500 27.93300
H  44.15600 36.16400 29.05300
H  45.18400 35.54400 27.89700
H  44.12100 33.79200 26.02100
H  45.51500 34.82100 25.55600
H  44.72600 33.90500 24.40300
H  41.52900 39.34300 21.59900
H  42.15400 42.30100 21.73900
H  43.62700 39.79600 20.45900
H  44.16600 39.67600 22.23900
H  43.86600 41.14900 21.47100
H  39.99300 41.44200 20.64600
H  39.68600 42.73600 21.85400
H  39.41400 40.21200 23.22500
H  38.60800 39.99400 21.69900
H  38.06400 41.23800 22.80800
H  39.59600 45.82200 24.41000
H  41.24300 46.39100 24.75100
H  39.89700 46.87400 25.90200
H  39.52600 44.02600 30.28600
H  42.12200 46.76200 32.53900
H  41.87500 45.24000 33.51200
H  40.79300 46.56000 33.79500

