158

Mg 48.67800 35.69300 27.97800
C  46.28300 34.37400 30.18300
C  49.08400 38.20700 30.21100
C  50.63800 37.00600 25.65900
C  47.49100 33.31300 25.66900
N  47.98600 36.07200 30.00500
C  47.17400 35.26900 30.70600
C  47.33300 35.58100 32.21900
C  47.79700 37.06300 32.16000
C  48.27400 37.14600 30.69400
C  46.65900 38.09400 32.46200
C  48.39400 34.61300 32.99000
C  48.87500 35.00000 34.46700
H  48.28900 36.20200 35.23300
N  49.83100 37.29100 28.05100
C  49.81000 38.31600 29.01400
C  50.77000 39.37000 28.61300
C  51.26600 38.91200 27.34600
C  50.66600 37.63500 26.97000
C  51.00200 40.61300 29.44200
C  52.23400 39.69300 26.43100
O  52.55800 39.34900 25.30100
C  52.86700 40.95800 26.95800
N  48.91200 35.25700 25.80300
C  49.89000 35.94000 25.09900
C  50.09700 35.29800 23.68000
C  49.00700 34.15700 23.66100
C  48.48600 34.12900 25.13600
C  50.02500 36.47900 22.56500
C  49.48100 32.73900 23.13600
C  48.80500 32.15700 21.92600
N  47.21000 34.15200 27.93000
C  46.90600 33.27900 26.89500
C  45.80400 32.45100 27.34400
C  45.51500 32.86000 28.60000
C  46.42600 33.86200 28.89700
C  45.23200 31.33200 26.46500
C  44.68100 32.51000 29.75700
O  43.78700 31.67100 29.93000
C  45.12800 33.56600 30.83700
C  45.41700 32.82500 32.10100
O  46.02000 31.72400 32.15000
O  44.86700 33.47600 33.20200
C  44.83500 32.68700 34.47700
H  49.29900 39.07500 30.83800
H  51.44100 37.32600 24.99100
H  47.07600 32.63400 24.92100
H  46.36900 35.58200 32.72700
H  48.58600 37.29700 32.87600
H  46.88800 38.60100 33.39900
H  45.76700 37.51200 32.69200
H  46.49700 38.80800 31.65400
H  49.26900 34.57700 32.34200
H  47.91600 33.63500 33.05000
H  49.94600 35.10100 34.29000
H  48.73500 34.12500 35.10300
H  50.79600 41.53500 28.89700
H  52.05500 40.64800 29.72400
H  50.40000 40.53000 30.34700
H  52.14000 41.77000 26.98500
H  53.77400 41.14800 26.38600
H  53.24500 40.81200 27.97000
H  51.06500 34.80800 23.57600
H  48.20900 34.45100 22.97900
H  49.07800 36.26300 22.07100
H  50.86400 36.48000 21.86900
H  49.89700 37.46700 23.00800
H  49.30700 32.02800 23.94400
H  50.54700 32.71300 22.91100
H  48.39200 32.91400 21.25900
H  48.02200 31.44000 22.17300
H  49.56500 31.60000 21.38000
H  44.91500 31.75500 25.51200
H  44.43000 30.68600 26.82200
H  46.12300 30.75600 26.21400
H  44.26100 34.20700 30.99700
H  43.81300 32.63500 34.85400
H  45.38500 33.29500 35.19500
H  45.11400 31.63500 34.41300
Mg 17.51600 52.36300 26.77100
C  19.40800 50.82800 29.45900
C  15.04000 53.01700 29.02900
C  15.62900 53.49100 24.21500
C  19.86100 51.20100 24.56600
N  17.20300 51.74400 28.99600
C  18.16000 51.36200 29.88100
C  17.62400 51.57900 31.30600
C  16.13100 52.01500 31.08000
C  16.12800 52.33100 29.58300
C  15.06100 51.00100 31.58900
C  18.47900 52.70400 31.90600
C  18.80700 52.55500 33.39200
H  17.75400 53.10800 34.38000
N  15.61700 53.16600 26.66200
C  14.75700 53.45500 27.71900
C  13.64600 54.28100 27.30600
C  13.75400 54.38000 25.86900
C  15.03600 53.68900 25.48500
C  12.54900 54.70500 28.28000
C  12.77100 54.91800 24.89700
O  13.09600 55.05300 23.76100
C  11.42400 55.39500 25.45700
N  17.75300 52.41600 24.65000
C  16.75100 52.79800 23.84300
C  17.14400 52.66200 22.36800
C  18.63400 52.12300 22.51000
C  18.78500 51.83900 24.00600
C  16.13900 51.70300 21.63300
C  19.70200 53.17100 22.13300
C  21.06500 52.64200 21.72300
N  19.33000 51.27500 26.97000
C  20.16900 50.93800 25.96200
C  21.40300 50.32400 26.55000
C  21.12600 50.20700 27.92500
C  19.88300 50.80500 28.11600
C  22.52300 49.72800 25.74700
C  21.62500 49.74400 29.17800
O  22.62600 49.14100 29.48300
C  20.53000 50.21100 30.27400
C  20.05000 49.00300 31.02700
O  19.66600 47.94400 30.53500
O  20.12900 49.30100 32.32600
C  19.69900 48.30100 33.36900
H  14.30200 53.38200 29.74600
H  15.01100 53.91100 23.41900
H  20.62200 50.82200 23.88100
H  17.72300 50.56600 31.69500
H  15.96900 52.95800 31.60200
H  15.60100 50.31000 32.23600
H  14.73900 50.51000 30.67000
H  14.24500 51.47400 32.13500
H  17.97400 53.64300 31.68100
H  19.39000 52.90100 31.34200
H  19.77600 53.03800 33.51700
H  19.02800 51.51600 33.63500
H  11.83200 53.88600 28.22200
H  12.21900 55.70100 27.98600
H  12.91300 54.70400 29.30800
H  10.68500 55.71600 24.72300
H  11.84100 56.28300 25.93300
H  11.00900 54.73000 26.21300
H  17.05000 53.61600 21.85000
H  18.84800 51.21600 21.94400
H  15.28600 51.56600 22.29700
H  16.52100 50.68900 21.51700
H  15.82800 51.95400 20.61900
H  19.89100 53.66900 23.08400
H  19.30800 53.77300 21.31500
H  21.86800 52.94600 22.39500
H  21.28700 52.89600 20.68700
H  21.09300 51.56600 21.54700
H  23.44000 49.70500 26.33600
H  22.61000 50.38100 24.87800
H  22.35700 48.72200 25.36100
H  20.95900 50.94400 30.95700
H  20.48600 47.54900 33.42800
H  18.80400 47.80800 32.99100
H  19.41400 48.73600 34.32600

