158

Mg 25.93100 1.17800 29.84000
C  27.94600 0.88200 32.83400
C  23.23700 1.38600 31.85000
C  24.08600 1.05000 27.09400
C  28.73400 0.36100 28.00500
N  25.71200 1.24500 32.13500
C  26.62700 1.05100 33.14800
C  25.97100 1.14200 34.57500
C  24.47000 1.23900 34.15600
C  24.38700 1.17200 32.62100
C  23.55300 0.17200 34.84200
C  26.56000 2.31400 35.44800
C  26.74600 1.93500 36.94700
H  26.49700 3.10600 37.84200
N  23.89100 1.32100 29.54800
C  22.93300 1.37600 30.52500
C  21.61300 1.53800 29.93600
C  21.84300 1.37100 28.54200
C  23.33500 1.24600 28.32900
C  20.44900 1.74400 30.83000
C  20.82400 1.29100 27.42600
O  21.26500 1.02300 26.27700
C  19.41600 1.61100 27.66400
N  26.28100 0.65700 27.89900
C  25.37500 0.84600 26.88400
C  25.99700 0.62700 25.48600
C  27.52100 0.55500 25.85200
C  27.50500 0.53900 27.39500
C  25.51400 -0.73200 24.84600
C  28.41200 1.76600 25.39200
C  29.82900 1.32800 25.02700
N  27.92200 0.76200 30.28700
C  28.94400 0.45200 29.41900
C  30.15800 0.18500 30.13000
C  29.77500 0.38000 31.44300
C  28.43000 0.73300 31.51800
C  31.47500 -0.24700 29.67100
C  30.28000 0.30600 32.79500
O  31.43100 -0.04700 33.17500
C  29.08800 0.76400 33.70700
C  28.94700 -0.35000 34.68700
O  28.47200 -1.44800 34.47300
O  29.39000 0.07400 35.94200
C  29.25400 -1.02400 36.94600
H  22.34600 1.32300 32.47900
H  23.52900 0.98500 26.15700
H  29.58900 0.12500 27.36900
H  26.20200 0.21000 35.09100
H  24.06700 2.22900 34.37100
H  22.86500 -0.29300 34.13600
H  22.93100 0.65700 35.59400
H  24.17800 -0.60000 35.28900
H  25.74200 3.03400 35.49100
H  27.37700 2.86900 34.98800
H  27.79500 1.69300 37.11400
H  26.18100 1.02900 37.16900
H  20.64000 2.53300 31.55700
H  20.17500 0.87500 31.42900
H  19.52200 2.00800 30.32100
H  19.02900 0.85500 28.34700
H  18.94400 1.53200 26.68500
H  19.23200 2.61800 28.03900
H  25.86700 1.45800 24.79300
H  27.94700 -0.41800 25.60900
H  24.77200 -1.22300 25.47600
H  26.26800 -1.50700 24.70800
H  25.15400 -0.60600 23.82500
H  28.64400 2.49900 26.16600
H  27.85600 2.35100 24.65900
H  29.97800 1.48200 23.95900
H  30.05500 0.30200 25.31700
H  30.49800 1.98500 25.58500
H  32.07500 -0.18600 30.57900
H  31.90000 0.41100 28.91300
H  31.42500 -1.28900 29.35600
H  29.13400 1.72300 34.22200
H  29.75800 -0.62700 37.82700
H  29.73500 -1.92200 36.55800
H  28.22700 -1.27600 37.21100
Mg -11.66400 38.91700 41.92800
C  -9.65700 36.08200 40.69100
C  -9.34800 40.92400 40.25900
C  -13.83200 41.41100 42.24600
C  -13.88800 36.53000 43.17100
N  -9.79800 38.50500 40.55100
C  -9.16600 37.33100 40.18900
C  -7.96900 37.56800 39.30200
C  -7.84100 39.19500 39.24000
C  -9.01700 39.55800 40.10700
C  -6.43900 39.60800 39.69700
C  -8.09300 36.85600 37.91400
C  -6.83700 35.88300 37.65100
H  -5.76900 36.43100 36.60300
N  -11.55400 40.96800 41.39300
C  -10.50100 41.61200 40.78400
C  -10.77400 42.99400 40.80500
C  -12.14300 43.17500 41.26200
C  -12.58800 41.83600 41.69200
C  -9.86700 44.00900 40.34300
C  -12.95600 44.50900 41.20800
O  -12.41100 45.55100 40.74400
C  -14.36900 44.62400 41.76600
N  -13.68500 38.97500 42.36700
C  -14.29400 40.14200 42.65400
C  -15.56700 39.92100 43.50400
C  -15.47500 38.38100 43.79500
C  -14.28800 37.89900 43.05900
C  -15.61300 40.74300 44.79400
C  -16.79200 37.56800 43.52600
C  -17.99300 37.91800 44.43400
N  -11.72700 36.83700 41.99100
C  -12.62700 35.99800 42.66300
C  -12.21700 34.66600 42.55100
C  -11.02800 34.69700 41.80000
C  -10.80900 36.01300 41.43300
C  -12.90700 33.49800 43.32600
C  -10.02600 33.82700 41.18600
O  -9.92800 32.55500 41.19000
C  -8.92000 34.78200 40.68000
C  -7.92000 34.76700 41.75400
O  -8.01600 35.29500 42.85700
O  -6.89800 33.85700 41.51500
C  -5.96500 33.37300 42.54600
H  -8.69500 41.61000 39.71600
H  -14.49700 42.24500 42.47900
H  -14.47700 35.82300 43.75800
H  -7.13600 37.21100 39.90700
H  -7.97000 39.63700 38.25200
H  -6.38800 39.53900 40.78400
H  -6.18400 40.55800 39.22800
H  -5.71300 38.93900 39.23500
H  -7.99100 37.55300 37.08300
H  -9.01600 36.27900 37.95900
H  -7.22500 34.98400 37.17200
H  -6.24000 35.71900 38.54900
H  -9.76000 44.86100 41.01500
H  -10.32300 44.30800 39.40000
H  -8.88600 43.59000 40.12200
H  -15.04400 43.97900 41.20300
H  -14.66300 45.66700 41.65300
H  -14.48400 44.25000 42.78300
H  -16.36200 40.17400 42.80200
H  -15.08300 38.16000 44.78800
H  -16.41600 41.47700 44.73900
H  -14.70000 41.32300 44.93100
H  -15.55900 40.09700 45.66900
H  -16.66800 36.49800 43.69400
H  -17.12200 37.67700 42.49300
H  -18.91000 37.99700 43.85100
H  -17.89600 38.83600 45.01300
H  -18.02500 37.02700 45.06100
H  -13.75900 33.71200 43.97100
H  -12.12000 33.13800 43.98800
H  -13.20700 32.85700 42.49700
H  -8.51100 34.39300 39.74700
H  -5.71300 32.32400 42.39100
H  -6.38300 33.34800 43.55200
H  -5.07900 34.00800 42.55900

