158

Mg -0.14500 7.90000 26.58600
C  0.62300 9.81900 29.30500
C  -0.60200 5.23500 28.71000
C  -0.84800 6.07800 23.80900
C  0.48200 10.72900 24.56200
N  -0.19900 7.66100 28.82400
C  0.18200 8.57500 29.79800
C  -0.05400 8.05500 31.19800
C  -0.35100 6.50300 31.02200
C  -0.37500 6.41200 29.43000
C  0.62500 5.48000 31.59800
C  -1.19900 8.78900 31.99500
C  -0.86400 8.93200 33.40100
H  -1.00100 7.67500 34.24200
N  -0.62200 5.90400 26.32300
C  -0.80100 4.99000 27.27900
C  -1.15400 3.76700 26.67400
C  -1.14000 3.87300 25.25400
C  -0.92300 5.35600 25.06800
C  -1.58300 2.47300 27.45600
C  -1.20500 2.88100 24.12400
O  -1.10300 3.20800 22.96300
C  -1.26800 1.37300 24.38100
N  -0.40300 8.39800 24.52700
C  -0.41000 7.41400 23.58200
C  -0.04500 7.95300 22.18900
C  -0.07700 9.46700 22.43800
C  0.01100 9.56700 23.98200
C  1.26800 7.41700 21.65500
C  -1.37300 10.14800 21.92000
C  -1.31600 11.64300 21.44900
N  0.44900 9.89000 26.82000
C  0.70600 10.90500 25.89900
C  1.20000 12.09200 26.55000
C  1.26000 11.68700 27.95100
C  0.70800 10.35100 28.04100
C  1.56100 13.39300 25.95900
C  1.60900 12.16100 29.24300
O  2.04100 13.22300 29.67900
C  1.08100 11.03300 30.18400
C  2.18800 10.72700 31.12500
O  3.05300 9.93200 30.95400
O  1.98200 11.49900 32.28500
C  2.97700 11.45200 33.31800
H  -0.78800 4.42300 29.41600
H  -0.76700 5.39900 22.95800
H  0.81500 11.46800 23.83000
H  0.91300 8.14800 31.69400
H  -1.38300 6.31400 31.32000
H  1.51400 5.89400 32.07300
H  0.95500 4.82200 30.79500
H  0.12800 4.90900 32.38300
H  -2.09800 8.21200 31.77700
H  -1.39500 9.71800 31.46100
H  -1.47600 9.70900 33.85800
H  0.15800 9.30900 33.36200
H  -2.58600 2.13300 27.19700
H  -1.63500 2.69200 28.52200
H  -0.78100 1.73700 27.39600
H  -0.55400 1.09500 25.15600
H  -1.05300 0.94200 23.40400
H  -2.29900 1.18800 24.68300
H  -0.80600 7.58200 21.50300
H  0.73800 10.06900 22.03600
H  1.77000 8.24900 21.16100
H  1.24200 6.55200 20.99200
H  1.86200 7.09000 22.50800
H  -2.09800 10.16500 22.73400
H  -1.77400 9.51800 21.12600
H  -1.55500 11.78500 20.39500
H  -0.34300 12.09400 21.64300
H  -2.04700 12.27500 21.95200
H  2.34300 13.93500 26.49200
H  0.65900 13.99300 26.08200
H  1.85700 13.25300 24.92000
H  0.20900 11.40100 30.72500
H  3.46200 12.42800 33.35300
H  3.70600 10.66700 33.11800
H  2.54500 11.18800 34.28300
Mg 6.57000 54.35700 41.67600
C  5.15300 51.27600 41.03100
C  9.48400 53.27900 40.23800
C  7.81500 57.53700 41.71900
C  3.42400 55.56200 42.47600
N  7.07600 52.54900 40.51100
C  6.40700 51.39300 40.47900
C  7.11700 50.36700 39.65800
C  8.66400 50.93300 39.74400
C  8.40400 52.34100 40.20300
C  9.70200 50.06600 40.52500
C  6.58600 50.30600 38.19100
C  6.41500 48.91400 37.53200
H  7.02500 48.79400 36.15900
N  8.43900 55.23100 41.17800
C  9.44900 54.63300 40.56100
C  10.49800 55.50800 40.31800
C  10.08100 56.72900 40.65300
C  8.74100 56.56400 41.27200
C  11.84700 55.09200 39.58300
C  10.94000 57.94500 40.40900
O  12.01000 57.91500 39.84100
C  10.45500 59.40000 40.74200
N  5.68400 56.29100 41.94500
C  6.46000 57.42200 42.12600
C  5.58300 58.62200 42.62600
C  4.23100 57.91600 42.95300
C  4.45300 56.54700 42.41000
C  6.28300 59.30700 43.89000
C  2.96900 58.73200 42.60600
C  1.89600 58.76600 43.70300
N  4.65300 53.58900 41.80400
C  3.48100 54.24700 42.15900
C  2.40400 53.20100 42.17300
C  2.99100 52.00400 41.84900
C  4.39300 52.34900 41.59100
C  1.01000 53.56200 42.74300
C  2.96600 50.51200 41.70900
O  2.02400 49.76200 41.94400
C  4.27000 50.08100 41.22500
C  3.91900 49.24300 40.05200
O  3.23400 49.48200 39.03800
O  4.33600 47.97600 40.38200
C  3.67600 46.83900 39.81800
H  10.45900 53.05300 39.80100
H  8.20400 58.55600 41.66600
H  2.52500 56.05900 42.84800
H  6.95300 49.40000 40.13400
H  9.04700 51.15800 38.74900
H  9.08200 49.25300 40.90300
H  10.13900 50.56500 41.39100
H  10.38200 49.56800 39.83400
H  7.22100 50.91100 37.54300
H  5.60200 50.76300 38.29000
H  5.43400 48.43800 37.50500
H  6.99200 48.17500 38.08800
H  11.68900 55.11300 38.50500
H  12.23100 54.09000 39.77300
H  12.71500 55.66500 39.91000
H  11.22900 60.13600 40.52900
H  10.14800 59.50300 41.78200
H  9.65400 59.73500 40.08300
H  5.59200 59.38900 41.85200
H  4.32200 57.72700 44.02300
H  7.33100 59.00800 43.92400
H  5.80600 59.10500 44.84900
H  6.19600 60.35400 43.60200
H  2.59700 58.23000 41.71300
H  3.15600 59.77000 42.33200
H  2.20600 58.42300 44.69000
H  1.06400 58.14600 43.36800
H  1.46300 59.76600 43.69400
H  0.35300 52.82500 42.28200
H  0.71500 54.52600 42.32900
H  0.82400 53.37300 43.80100
H  4.75600 49.36600 41.88900
H  2.83100 47.25100 39.26600
H  3.48100 46.16900 40.65600
H  4.38600 46.32500 39.17000

