158

Mg 1.99900 -1.61600 43.91200
C  5.32500 -1.39100 42.97900
C  1.25300 0.98500 41.71600
C  -1.29600 -2.52500 43.75900
C  2.79600 -4.61400 45.58500
N  3.18400 -0.30600 42.51900
C  4.57500 -0.33000 42.41800
C  5.04200 0.79300 41.53700
C  3.69900 1.59800 41.29700
C  2.62400 0.69100 41.87500
C  3.62300 2.94000 41.99400
C  5.75300 0.40300 40.15800
C  6.88900 1.36700 39.68300
H  6.69000 2.17800 38.35900
N  0.18800 -0.78000 43.01100
C  0.08100 0.25800 42.14700
C  -1.23200 0.65500 42.01100
C  -2.05400 -0.26900 42.68300
C  -1.08800 -1.32100 43.17700
C  -1.64600 1.98000 41.33900
C  -3.59600 -0.18000 42.80800
O  -4.21500 0.68400 42.20700
C  -4.28700 -1.17900 43.86500
N  0.95800 -3.23000 44.59800
C  -0.35900 -3.44900 44.27200
C  -0.79700 -4.90100 44.61200
C  0.40000 -5.53600 45.31200
C  1.45800 -4.40400 45.17300
C  -2.12600 -5.10600 45.28000
C  0.87600 -6.91300 44.77900
C  -0.05100 -8.07100 45.07400
N  3.75100 -2.65600 44.48500
C  3.96000 -3.86400 45.17600
C  5.37200 -4.13100 45.24900
C  5.93500 -3.17200 44.41100
C  4.94500 -2.35200 43.89000
C  6.02600 -5.30200 45.83500
C  7.18500 -2.73400 43.86000
O  8.37000 -2.99100 44.08700
C  6.77700 -1.64000 42.84900
C  7.56000 -0.49200 43.22400
O  7.57200 0.14900 44.25600
O  8.38200 -0.16200 42.20100
C  9.19100 1.03700 42.38500
H  1.06700 1.90400 41.15600
H  -2.33100 -2.86400 43.68200
H  3.08900 -5.58700 45.98600
H  5.73900 1.40400 42.11100
H  3.46400 1.69500 40.23700
H  4.37200 2.84900 42.78000
H  2.63200 3.01700 42.44200
H  3.93600 3.68300 41.26000
H  4.94700 0.36600 39.42500
H  6.29000 -0.54400 40.19600
H  7.85100 0.89200 39.48900
H  7.20800 2.06300 40.45900
H  -2.67100 2.24600 41.59500
H  -1.57100 1.98100 40.25200
H  -1.11300 2.77400 41.86300
H  -5.17800 -0.69600 44.26500
H  -3.59200 -1.32800 44.69200
H  -4.51800 -2.16600 43.46500
H  -0.86800 -5.43200 43.66300
H  0.26600 -5.62100 46.39000
H  -2.84900 -5.47400 44.55300
H  -2.56100 -4.17200 45.63700
H  -2.03100 -5.81100 46.10600
H  1.85700 -7.17400 45.17600
H  1.06700 -6.79000 43.71300
H  -0.96700 -7.87100 45.63000
H  0.45400 -8.77000 45.74000
H  -0.23100 -8.58100 44.12700
H  6.25100 -6.15200 45.19100
H  5.55800 -5.70000 46.73600
H  6.90400 -4.86800 46.31400
H  6.98400 -2.00600 41.84400
H  9.79900 0.85100 43.27000
H  8.55800 1.91300 42.24800
H  9.95900 1.06900 41.61200
Mg 40.85700 7.44100 28.79700
C  42.64500 9.18400 31.48200
C  38.75300 6.47500 31.35300
C  39.16600 5.87400 26.42900
C  43.30500 8.36200 26.61300
N  40.77800 7.74200 31.15300
C  41.52800 8.54800 31.94600
C  41.00400 8.56500 33.38300
C  39.96200 7.41900 33.34300
C  39.87400 7.09200 31.88800
C  40.20900 6.24400 34.21300
C  40.37400 9.95800 33.89300
C  39.84600 9.84200 35.32700
H  40.39600 10.77100 36.41600
N  39.18100 6.35800 28.83500
C  38.40600 6.11200 29.95000
C  37.21300 5.45000 29.56400
C  37.26600 5.35300 28.11600
C  38.59300 5.80300 27.76300
C  36.17700 4.91800 30.55300
C  36.19000 4.97000 27.11800
O  36.27600 4.88800 25.91100
C  34.85300 4.57400 27.67500
N  41.29600 7.01500 26.84000
C  40.38800 6.41700 25.99300
C  40.95300 6.40900 24.56200
C  42.17500 7.30600 24.69400
C  42.23300 7.58100 26.11900
C  41.31200 5.06600 23.93300
C  41.97700 8.57500 23.82800
C  41.08800 9.76200 24.25200
N  42.62300 8.43200 29.01500
C  43.52200 8.70700 28.03100
C  44.66900 9.44000 28.52000
C  44.35200 9.68500 29.88000
C  43.09900 9.07600 30.15600
C  45.78000 9.95000 27.70600
C  44.74400 10.42500 31.13100
O  45.70500 11.15900 31.34300
C  43.65000 10.05800 32.25700
C  44.37100 9.47100 33.37300
O  45.28600 8.65100 33.26800
O  43.86100 10.09300 34.48600
C  44.28200 9.38800 35.70900
H  38.00800 6.28600 32.12900
H  38.63500 5.35600 25.62800
H  44.04200 8.77200 25.92000
H  41.83500 8.39100 34.06700
H  39.00200 7.90300 33.52300
H  39.25700 5.76100 34.43100
H  40.73900 6.51800 35.12500
H  40.79500 5.45100 33.74700
H  39.55700 10.35100 33.28800
H  41.21700 10.64100 34.00400
H  39.94500 8.82500 35.70600
H  38.77200 10.02400 35.32200
H  35.95300 3.89900 30.23800
H  35.26800 5.51100 30.45200
H  36.46600 4.94400 31.60400
H  34.07400 4.25500 26.98200
H  34.47300 5.46800 28.16900
H  34.90900 3.79500 28.43500
H  40.25000 6.89900 23.88800
H  43.12100 6.93900 24.29500
H  41.00700 4.27300 24.61500
H  42.36600 4.83100 23.79000
H  40.82800 4.93000 22.96600
H  41.67100 8.32300 22.81300
H  42.93700 9.07100 23.68500
H  40.38200 9.94500 23.44200
H  41.81500 10.54100 24.48100
H  40.36600 9.61700 25.05500
H  45.36000 10.81200 27.18800
H  46.04800 9.23000 26.93200
H  46.52300 10.29600 28.42400
H  43.15500 10.99000 32.52900
H  44.31700 8.31200 35.53700
H  43.58500 9.50900 36.53900
H  45.25200 9.73200 36.06900

