158

Mg 30.33400 58.12000 40.23100
C  27.69300 56.03800 38.99100
C  32.41400 55.82400 38.55400
C  32.71200 60.30200 40.34200
C  27.87000 60.41600 41.07100
N  29.99600 56.27600 38.65800
C  28.89500 55.62900 38.41800
C  29.17400 54.22900 37.81900
C  30.69600 54.12800 37.89600
C  31.05000 55.47100 38.36000
C  31.18100 52.95800 38.88100
C  28.68400 54.10000 36.32700
C  29.16800 55.28600 35.48300
H  28.00200 55.91700 34.62100
N  32.32100 58.07700 39.72100
C  33.01600 57.00200 39.12700
C  34.40600 57.29700 39.16600
C  34.52100 58.64100 39.65500
C  33.16800 59.06600 39.91500
C  35.41500 56.31000 38.61600
C  35.80100 59.39500 39.79600
O  36.85800 58.89100 39.49700
C  35.94800 60.89100 40.19400
N  30.34900 59.94700 40.96400
C  31.46400 60.71300 40.78900
C  31.21900 62.23800 40.91500
C  29.67500 62.28800 41.07300
C  29.27400 60.82900 41.06200
C  31.99400 62.95400 42.08600
C  28.96000 63.10300 39.97300
C  28.48700 64.49600 40.44600
N  28.30500 58.20600 40.26100
C  27.46000 59.15700 40.66600
C  26.11400 58.72900 40.55400
C  26.17500 57.56100 39.91800
C  27.50800 57.22000 39.72700
C  24.89300 59.47700 41.08900
C  25.33400 56.50800 39.26000
O  24.12600 56.53700 39.04900
C  26.33000 55.45100 38.72600
C  25.96800 54.13000 39.39600
O  26.41400 53.65600 40.45300
O  24.99000 53.55300 38.63400
C  24.34800 52.41000 39.30800
H  33.14900 55.05300 38.31400
H  33.46600 61.07500 40.18200
H  27.19300 61.27300 41.08600
H  28.58600 53.56200 38.45000
H  31.17200 53.91900 36.93800
H  30.35100 52.30800 39.15500
H  31.76300 53.36800 39.70600
H  31.95900 52.32300 38.45600
H  27.59900 54.02400 36.39500
H  29.09800 53.25900 35.77000
H  30.00700 54.98300 34.85600
H  29.44700 56.14000 36.10000
H  36.37400 56.81400 38.49000
H  35.12900 56.08000 37.59000
H  35.49500 55.38200 39.18300
H  35.43400 61.57900 39.52200
H  36.98700 61.14800 39.98500
H  35.73900 61.10500 41.24200
H  31.53700 62.71000 39.98500
H  29.39100 62.61500 42.07300
H  32.34600 63.92600 41.74100
H  32.82800 62.32300 42.39300
H  31.36500 63.14500 42.95500
H  28.20900 62.47300 39.49800
H  29.65200 63.14800 39.13200
H  28.80100 64.73400 41.46200
H  27.41600 64.31900 40.34600
H  28.66900 65.30400 39.73700
H  24.11900 58.71000 41.11700
H  24.57300 60.27800 40.42300
H  25.01800 59.85900 42.10200
H  26.07600 55.51300 37.66800
H  23.50900 52.04300 38.71800
H  23.90700 52.67800 40.26800
H  25.08000 51.63000 39.52200
Mg 16.50000 53.02500 26.24700
C  18.59700 51.82200 28.83200
C  14.17100 53.73400 28.57800
C  14.59200 54.49400 23.77800
C  18.77900 51.99400 23.85500
N  16.41200 52.83600 28.43700
C  17.38000 52.37200 29.30700
C  16.95400 52.50700 30.81400
C  15.43400 52.82000 30.62300
C  15.27900 53.13900 29.10700
C  14.49400 51.63300 31.13600
C  17.90100 53.52600 31.57000
C  17.33100 54.13700 32.85100
H  16.45500 53.25100 33.72000
N  14.71100 54.08200 26.24900
C  13.80000 54.22000 27.29900
C  12.61200 54.91800 26.87600
C  12.75700 55.12500 25.49500
C  14.07800 54.56800 25.09200
C  11.41300 55.06300 27.77700
C  11.82900 55.90600 24.59700
O  12.15500 56.30300 23.46200
C  10.42600 56.38500 25.13700
N  16.79500 53.44700 24.16800
C  15.76200 53.93300 23.34900
C  16.13300 53.81500 21.89700
C  17.44800 53.00100 21.77900
C  17.70000 52.74000 23.35200
C  14.99800 53.38400 20.86600
C  18.56200 53.58700 20.95400
C  19.15800 54.92600 21.41900
N  18.19800 51.94000 26.29200
C  19.07200 51.61000 25.20600
C  20.25200 50.94100 25.75500
C  20.07200 50.99400 27.12300
C  18.88500 51.66700 27.41900
C  21.35100 50.28500 24.94600
C  20.69900 50.65700 28.43800
O  21.74600 50.00800 28.64500
C  19.77800 51.16000 29.62600
C  19.39700 50.02300 30.52700
O  18.91500 48.98200 30.18100
O  19.51400 50.47500 31.83300
C  19.13900 49.55600 32.92600
H  13.44600 53.95400 29.36500
H  14.04800 55.01400 22.98600
H  19.54500 51.61000 23.17800
H  17.02300 51.58000 31.38300
H  15.22600 53.74500 31.16000
H  15.11600 50.91800 31.67300
H  14.00800 51.12700 30.30100
H  13.75200 52.12800 31.76300
H  18.05100 54.26300 30.78100
H  18.87900 53.09600 31.78300
H  16.71900 55.00800 32.61500
H  18.15700 54.41300 33.50600
H  10.99700 56.07000 27.79300
H  11.56000 54.79400 28.82400
H  10.60500 54.47400 27.34300
H  9.87500 56.83100 24.30800
H  10.42300 57.17500 25.88800
H  9.75900 55.58600 25.45800
H  16.51100 54.83400 21.81200
H  17.15600 52.05700 21.31800
H  15.47900 52.95200 19.98800
H  14.52600 54.24400 20.39000
H  14.21000 52.78800 21.32600
H  18.11200 53.78200 19.98000
H  19.37500 52.86100 20.94100
H  18.84700 55.18000 22.43300
H  18.85000 55.71300 20.73100
H  20.22700 54.97400 21.21500
H  22.28600 50.33300 25.50500
H  21.56100 50.84600 24.03600
H  21.17400 49.21900 24.80300
H  20.29300 51.92000 30.21400
H  18.09500 49.24800 32.88100
H  19.13200 50.12700 33.85400
H  19.93500 48.82400 33.06200

