158

Mg 1.03700 8.28300 26.83400
C  1.80900 10.50900 29.35400
C  1.44500 5.70300 29.29700
C  0.72400 6.00900 24.44600
C  1.06800 10.88500 24.57000
N  1.52100 8.15600 29.05200
C  1.61900 9.23600 29.84000
C  1.38000 8.77100 31.32100
C  1.58400 7.26000 31.29000
C  1.47600 7.03200 29.81200
C  2.95700 6.77600 31.81700
C  -0.04400 9.31400 31.72600
C  -0.19100 9.31000 33.28500
H  0.98500 8.78300 34.18600
N  1.05600 6.16600 26.81500
C  1.17500 5.28900 27.87700
C  1.05300 3.91000 27.47100
C  1.01900 4.02700 26.01400
C  0.90900 5.46000 25.68500
C  1.09100 2.74600 28.41400
C  1.19000 2.93400 24.95900
O  1.26700 3.14100 23.76900
C  1.38400 1.50700 25.43700
N  1.10800 8.44500 24.74000
C  0.73900 7.34800 23.97500
C  0.39100 7.76500 22.52800
C  0.30800 9.36200 22.64300
C  0.86500 9.59600 24.05500
C  1.39000 7.31400 21.42400
C  -1.04400 10.03000 22.34000
C  -0.92500 11.16500 21.25800
N  1.48600 10.29500 26.92000
C  1.50600 11.19800 25.94900
C  1.93900 12.51600 26.47500
C  2.08200 12.32500 27.90400
C  1.79700 10.92100 28.03300
C  2.29200 13.78900 25.65900
C  2.49000 12.85700 29.16300
O  2.96300 13.93600 29.45400
C  2.16800 11.68400 30.18500
C  3.32300 11.51400 31.04900
O  4.35500 10.91700 30.80400
O  3.14700 12.24500 32.21300
C  4.18600 12.29600 33.28600
H  1.34600 4.91000 30.04100
H  0.39700 5.29500 23.68700
H  0.97000 11.67600 23.82300
H  2.10700 9.30600 31.93300
H  0.84800 6.70400 31.87100
H  2.80400 6.09500 32.65500
H  3.56800 7.65400 32.02900
H  3.47900 6.20300 31.05100
H  -0.72800 8.52300 31.41800
H  -0.41800 10.25900 31.33200
H  -1.03900 8.67900 33.55200
H  -0.42200 10.35900 33.47000
H  1.10100 3.08200 29.45100
H  2.03900 2.21900 28.31100
H  0.25900 2.06600 28.23200
H  0.43500 0.99400 25.59400
H  2.09200 1.58700 26.26100
H  1.92700 0.92700 24.69100
H  -0.58600 7.38600 22.22900
H  1.12700 9.74600 22.03500
H  2.34800 7.10400 21.89800
H  1.64500 8.00000 20.61700
H  0.90800 6.45900 20.95000
H  -1.25900 10.61400 23.23500
H  -1.85100 9.34900 22.06900
H  -0.88200 12.05900 21.88000
H  -1.71000 11.26200 20.50800
H  -0.02600 11.04200 20.65300
H  3.14000 14.33300 26.07700
H  1.51500 14.54900 25.57800
H  2.44000 13.51700 24.61400
H  1.31000 12.08200 30.72600
H  4.08400 13.20900 33.87200
H  5.17600 12.23600 32.83300
H  4.03600 11.49200 34.00600
Mg 28.28900 56.81100 39.66200
C  26.36900 53.84700 39.29900
C  31.08100 54.89800 38.70100
C  29.98800 59.65000 39.39600
C  25.35700 58.50100 40.25000
N  28.65000 54.64500 38.97400
C  27.71000 53.69500 38.93500
C  28.31600 52.41200 38.39900
C  29.84500 52.61100 38.45900
C  29.90300 54.13900 38.76400
C  30.47300 51.77300 39.57100
C  27.79600 51.95200 36.97700
C  27.21600 52.98800 35.93000
H  27.47900 52.76700 34.38000
N  30.29100 57.19700 39.27100
C  31.24400 56.29500 38.83900
C  32.48100 57.06700 38.64000
C  32.15500 58.43900 38.83700
C  30.74500 58.46600 39.21300
C  33.76700 56.38300 38.25800
C  33.22400 59.55500 38.70600
O  34.33400 59.34600 38.32300
C  33.02900 60.98100 39.24900
N  27.71800 58.75400 39.67500
C  28.61500 59.74800 39.72000
C  28.03400 61.02900 40.14800
C  26.49100 60.74200 40.03700
C  26.54200 59.21500 40.11200
C  28.50900 61.50500 41.56400
C  25.78300 61.24300 38.71900
C  24.74800 62.38000 38.86100
N  26.26300 56.34300 39.68400
C  25.15900 57.09300 39.95700
C  23.94200 56.28100 40.05700
C  24.39300 54.93700 39.83100
C  25.77400 55.08200 39.59400
C  22.60900 56.79300 40.47200
C  24.04400 53.58800 39.80600
O  22.94400 53.03900 39.87900
C  25.27600 52.79000 39.53300
C  25.40100 51.91200 40.67600
O  24.70100 50.93100 40.84700
O  26.44100 52.22500 41.47400
C  26.69600 51.38000 42.65300
H  31.93600 54.30600 38.36800
H  30.45700 60.63300 39.48500
H  24.44200 59.08100 40.38400
H  27.94500 51.73600 39.16900
H  30.33300 52.47400 37.49400
H  29.95700 50.85800 39.86200
H  30.47600 52.40600 40.45800
H  31.43700 51.39000 39.23400
H  27.03100 51.26100 37.33200
H  28.47000 51.23000 36.51600
H  27.81900 53.86200 36.17400
H  26.16700 53.26000 36.04600
H  33.98600 56.47800 37.19500
H  33.78500 55.29600 38.34400
H  34.61800 56.78500 38.80900
H  32.47600 60.86100 40.18100
H  32.44800 61.61200 38.57600
H  34.03500 61.36500 39.42200
H  28.35700 61.86400 39.52600
H  25.91900 61.05500 40.91100
H  27.70000 61.44200 42.29100
H  28.85500 62.52900 41.42500
H  29.41200 60.92500 41.75300
H  25.23100 60.42500 38.25600
H  26.51200 61.51700 37.95700
H  24.71400 62.80100 37.85600
H  25.25000 63.10000 39.50700
H  23.80300 62.03900 39.28600
H  22.05900 57.25900 39.65400
H  22.79800 57.54300 41.23900
H  22.07200 55.94900 40.90400
H  25.07700 52.22700 38.62100
H  27.49900 51.95800 43.11100
H  27.17100 50.47100 42.28400
H  25.78800 51.13400 43.20300

