158

Mg 25.52900 0.08700 29.27100
C  27.28900 -0.12400 32.26300
C  22.68600 0.14900 31.09500
C  23.86900 0.54400 26.26900
C  28.46800 -0.06400 27.47500
N  25.08600 -0.05500 31.42700
C  25.94600 0.00600 32.50000
C  25.24400 0.06900 33.88100
C  23.72600 -0.14400 33.43500
C  23.81500 0.00700 31.91600
C  23.03600 -1.43000 33.96100
C  25.57700 1.33900 34.77800
C  26.11900 1.06200 36.19600
H  25.07400 0.64200 37.27400
N  23.54100 0.25900 28.80000
C  22.50100 0.20300 29.68500
C  21.28700 0.24800 28.92500
C  21.60900 0.39600 27.49900
C  23.07000 0.45500 27.46200
C  19.85400 0.17200 29.60800
C  20.70700 0.46500 26.24100
O  21.15600 0.62400 25.08800
C  19.24300 0.36000 26.51300
N  26.08200 -0.07000 27.11800
C  25.25100 0.25300 26.10100
C  25.95400 0.37000 24.72000
C  27.46900 0.18700 25.16900
C  27.33400 0.06300 26.71200
C  25.38700 -0.55000 23.65200
C  28.45700 1.35100 24.80600
C  29.87100 0.95100 24.28800
N  27.49400 -0.09500 29.74000
C  28.61100 -0.13300 28.88700
C  29.79700 -0.40300 29.70600
C  29.33700 -0.38800 31.04000
C  27.92100 -0.24100 31.04000
C  31.16600 -0.59300 29.17300
C  29.80300 -0.49800 32.40300
O  30.92200 -0.66700 32.83100
C  28.51500 -0.17600 33.28300
C  28.42300 -1.29600 34.26900
O  27.69900 -2.28400 34.15500
O  29.22600 -1.11200 35.33500
C  28.99900 -2.02500 36.41700
H  21.88900 0.18500 31.84100
H  23.27400 0.80500 25.39200
H  29.32200 -0.14400 26.79900
H  25.43400 -0.81400 34.49100
H  23.02800 0.62100 33.77800
H  23.64400 -2.07200 34.59900
H  22.62800 -2.08500 33.19200
H  22.24600 -1.09600 34.63300
H  24.70600 1.98900 34.86900
H  26.29800 1.93300 34.21800
H  26.65800 1.89700 36.64300
H  26.72200 0.15500 36.15700
H  19.92300 0.10700 30.69400
H  19.41700 -0.79600 29.36600
H  19.18300 0.96300 29.27200
H  18.80200 1.27900 26.89900
H  19.15300 -0.46900 27.21500
H  18.78000 0.08300 25.56600
H  25.80900 1.34500 24.25500
H  27.83700 -0.80300 24.90300
H  25.52500 -0.14100 22.65100
H  24.31500 -0.42700 23.80900
H  25.69200 -1.59500 23.69900
H  28.61100 1.92000 25.72300
H  28.03500 2.06100 24.09600
H  29.84900 -0.10600 24.02500
H  30.52500 1.11100 25.14500
H  30.12300 1.55700 23.41800
H  31.79400 -0.56300 30.06300
H  31.31700 0.09400 28.34000
H  31.24500 -1.64100 28.88400
H  28.64700 0.73800 33.86100
H  28.02900 -1.61700 36.69800
H  29.78300 -1.86200 37.15600
H  28.71500 -3.05100 36.18000
Mg -2.65800 34.59900 27.05200
C  -3.60000 32.66300 30.05600
C  -0.99600 36.68300 29.18800
C  -2.08800 36.56800 24.39000
C  -4.60300 32.37800 25.16900
N  -2.30600 34.50600 29.36100
C  -2.69400 33.64000 30.35100
C  -2.22100 34.10200 31.76500
C  -1.57800 35.57700 31.41000
C  -1.64700 35.59500 29.87300
C  -2.26200 36.75800 32.15900
C  -1.32100 33.02900 32.42700
C  -1.82000 32.57800 33.76000
H  -0.78800 32.66600 34.88000
N  -1.64600 36.37200 26.80000
C  -0.96500 37.05200 27.77900
C  -0.35100 38.25400 27.21200
C  -0.62500 38.22100 25.77000
C  -1.46700 37.01400 25.57500
C  0.42200 39.22900 27.96200
C  -0.11900 39.11100 24.58900
O  -0.59000 39.09300 23.42700
C  0.88900 40.12600 24.93500
N  -3.29200 34.46400 25.09800
C  -2.97000 35.43200 24.16200
C  -3.45100 35.09700 22.82500
C  -4.19100 33.75400 22.98400
C  -4.08500 33.50500 24.52500
C  -4.30700 36.23400 22.14200
C  -3.62900 32.54900 22.21100
C  -2.40900 31.80900 22.89500
N  -3.77900 32.80200 27.48800
C  -4.47400 31.98700 26.57100
C  -5.18600 30.90900 27.28100
C  -4.91100 31.21200 28.64100
C  -4.04500 32.31900 28.70700
C  -6.06000 29.89900 26.64900
C  -5.18800 30.78700 29.96300
O  -5.86300 29.86800 30.39300
C  -4.44000 31.78800 30.95000
C  -5.48300 32.53400 31.68800
O  -6.31400 33.37300 31.21600
O  -5.34100 32.23500 32.97700
C  -6.15000 33.07700 33.84200
H  -0.36800 37.29400 29.84000
H  -2.04200 37.18600 23.49100
H  -5.21500 31.69700 24.57300
H  -3.20000 34.22000 32.23100
H  -0.51700 35.58600 31.65900
H  -2.61400 37.59000 31.54900
H  -1.68100 37.18200 32.97800
H  -3.12300 36.37900 32.71100
H  -0.27300 33.32100 32.49400
H  -1.33100 32.21800 31.69900
H  -2.04700 31.52000 33.62700
H  -2.75000 33.08500 34.01700
H  0.28200 40.23600 27.57100
H  1.48100 38.98100 28.03400
H  0.22400 39.21300 29.03400
H  0.33800 40.87800 25.50100
H  1.24400 40.63500 24.03900
H  1.78900 39.82400 25.47000
H  -2.56200 34.87800 22.23200
H  -5.24800 33.79900 22.72100
H  -3.62900 36.64700 21.39500
H  -4.45200 37.01500 22.88800
H  -5.23500 35.93400 21.65500
H  -3.27500 32.84500 21.22400
H  -4.39300 31.79500 22.02200
H  -1.62300 31.88500 22.14400
H  -2.83500 30.80800 22.96500
H  -2.02200 32.00800 23.89500
H  -5.70500 29.56700 25.67300
H  -7.06900 30.29700 26.53500
H  -6.26800 29.05500 27.30600
H  -3.79800 31.24300 31.64300
H  -7.10500 33.42400 33.44800
H  -5.69600 34.01500 34.16100
H  -6.46200 32.55600 34.74700

