158

Mg 30.18000 57.69300 40.51600
C  27.60800 55.77100 38.95000
C  32.48900 55.48600 39.23100
C  32.51900 60.07000 40.98800
C  27.66500 60.16900 41.06400
N  30.01700 55.95500 39.17800
C  28.89900 55.21800 38.95400
C  29.29400 53.87700 38.37900
C  30.81600 53.79200 38.67000
C  31.12300 55.20900 39.05200
C  31.20200 52.74200 39.80400
C  28.94900 53.64900 36.89000
C  29.28300 54.83900 35.94300
H  28.30800 55.34700 34.89000
N  32.29200 57.77700 40.21400
C  32.99700 56.72900 39.68100
C  34.37300 57.12700 39.91400
C  34.42700 58.44000 40.44200
C  33.09700 58.81400 40.62100
C  35.48300 56.26500 39.49400
C  35.75600 59.20700 40.80900
O  36.83600 58.89400 40.43400
C  35.63300 60.30300 41.74600
N  30.09800 59.91600 40.89900
C  31.25800 60.58500 41.22000
C  30.96500 62.01200 41.69100
C  29.42800 61.95400 41.83200
C  28.99600 60.57900 41.25800
C  31.64300 62.49100 43.00700
C  28.57500 63.23300 41.37000
C  27.82700 63.89200 42.54000
N  28.04200 57.95100 40.09700
C  27.22300 59.06600 40.36300
C  25.87800 58.81500 39.91000
C  26.01400 57.50500 39.37600
C  27.29600 57.05100 39.52000
C  24.61000 59.74900 40.01300
C  25.27400 56.36800 38.80300
O  24.11000 56.22300 38.52800
C  26.29800 55.23100 38.44600
C  25.89000 53.95400 39.11200
O  25.97200 53.71400 40.32600
O  25.22100 53.14600 38.26500
C  24.45900 51.98000 38.80100
H  33.14700 54.61600 39.17000
H  33.24100 60.85700 41.21500
H  26.86800 60.86300 41.33800
H  28.70000 53.19400 38.98500
H  31.46200 53.56400 37.82300
H  30.36100 52.06300 39.94100
H  31.46100 53.23200 40.74200
H  32.13800 52.26100 39.52000
H  27.86600 53.52400 36.92000
H  29.43700 52.78600 36.43600
H  30.30100 54.67300 35.59000
H  29.36200 55.75400 36.52900
H  35.80600 56.60300 38.51000
H  35.14300 55.24900 39.29200
H  36.32700 56.18600 40.17900
H  35.40200 61.22300 41.21000
H  36.63000 60.43600 42.16700
H  34.85300 60.11300 42.48300
H  31.19700 62.68100 40.86300
H  29.17400 61.88900 42.89000
H  30.96100 62.93900 43.72900
H  32.36400 63.19900 42.59900
H  32.24800 61.68700 43.42600
H  27.89000 63.03400 40.54600
H  29.09100 64.09500 40.94700
H  27.05800 63.21800 42.91700
H  27.39900 64.85500 42.26200
H  28.43900 64.16400 43.40000
H  24.23100 59.66400 41.03100
H  23.75300 59.58500 39.35900
H  24.89800 60.77300 39.77300
H  26.27000 55.19300 37.35700
H  25.03800 51.53900 39.61200
H  24.42700 51.28400 37.96200
H  23.44900 52.22200 39.13100
Mg 6.27300 54.43700 40.21100
C  5.44800 51.00600 39.94200
C  9.42200 53.68300 39.11000
C  7.00400 57.72200 39.75100
C  2.89200 55.14400 40.74800
N  7.32700 52.56200 39.39300
C  6.85600 51.26300 39.45400
C  7.77800 50.28400 38.75200
C  9.11800 51.04600 38.94500
C  8.62100 52.52900 39.12500
C  10.01500 50.70200 40.08900
C  7.30400 50.09500 37.23400
C  7.56200 48.71400 36.57000
H  6.51600 48.10500 35.67000
N  8.05600 55.53800 39.68100
C  9.30500 55.01800 39.40400
C  10.29900 56.10400 39.36800
C  9.58500 57.31800 39.52400
C  8.13800 56.86600 39.61600
C  11.81000 55.90100 39.25100
C  10.20200 58.76200 39.45600
O  11.42900 58.92500 39.28900
C  9.42200 60.00500 39.86300
N  5.07000 56.14100 40.20000
C  5.63900 57.40200 40.05200
C  4.54100 58.48500 40.23900
C  3.24000 57.63700 40.44600
C  3.70400 56.21300 40.50000
C  4.83000 59.60500 41.32300
C  2.10200 57.81500 39.30500
C  0.71600 57.93200 39.89800
N  4.57500 53.38700 40.37800
C  3.28800 53.73100 40.75500
C  2.46200 52.56000 40.99300
C  3.24100 51.45800 40.73000
C  4.51700 52.02800 40.37200
C  1.02900 52.64900 41.32300
C  3.26100 50.06100 40.58300
O  2.32400 49.24700 40.63800
C  4.76800 49.66200 40.14500
C  4.66200 48.70700 39.03600
O  4.16600 48.83100 37.91600
O  5.02400 47.47500 39.57800
C  4.85200 46.24000 38.80900
H  10.46200 53.47800 38.84600
H  7.21700 58.79300 39.77300
H  1.82200 55.28200 40.91700
H  7.84100 49.34100 39.29500
H  9.69200 50.92700 38.02600
H  9.49200 50.25000 40.93200
H  10.48600 51.61000 40.46500
H  10.84800 50.09600 39.73300
H  7.88700 50.69900 36.54000
H  6.31000 50.44900 36.96200
H  7.78000 48.04700 37.40400
H  8.52800 48.90200 36.10200
H  12.01800 54.98900 38.69200
H  12.31500 55.67500 40.19000
H  12.35600 56.73900 38.81900
H  8.63600 60.41900 39.23100
H  10.15700 60.80600 39.93200
H  9.11800 59.86100 40.90000
H  4.52500 59.00600 39.28100
H  2.78900 57.84000 41.41700
H  4.08200 59.63200 42.11500
H  4.86400 60.54800 40.77800
H  5.84000 59.41800 41.68700
H  2.15700 56.96400 38.62700
H  2.30100 58.65500 38.63900
H  0.07800 57.19200 39.41400
H  0.36700 58.96000 39.99300
H  0.81000 57.65300 40.94700
H  0.57500 53.03700 40.41100
H  0.78700 53.20700 42.22800
H  0.58500 51.67000 41.50500
H  5.08600 49.04200 40.98300
H  3.89200 45.74600 38.95800
H  5.65300 45.50800 38.92200
H  4.83300 46.47300 37.74400

