158

Mg 1.53000 8.50800 26.57900
C  2.02600 10.35400 29.42600
C  1.67200 5.64700 28.45500
C  1.09600 6.77800 23.75000
C  1.85700 11.48200 24.69300
N  1.64400 8.03600 28.75200
C  1.80600 8.99000 29.68000
C  1.67000 8.33200 31.05300
C  1.96700 6.84600 30.76400
C  1.70900 6.84100 29.22300
C  3.42200 6.47000 31.05900
C  0.29800 8.54300 31.67100
C  0.12900 8.72200 33.16900
H  1.31500 8.43800 34.13200
N  1.42800 6.46800 26.16200
C  1.36500 5.42300 27.08100
C  1.00800 4.21400 26.42600
C  1.02600 4.52200 25.06000
C  1.16800 5.98700 24.92600
C  0.85600 2.86400 27.11300
C  0.81800 3.62400 23.89100
O  0.67900 4.06500 22.74900
C  0.68100 2.16700 24.11900
N  1.39600 9.12300 24.58000
C  1.22400 8.16700 23.60700
C  1.28000 8.83400 22.18900
C  1.03800 10.30400 22.55800
C  1.53200 10.34500 24.01500
C  2.52400 8.73900 21.30400
C  -0.44200 10.71300 22.52300
C  -0.99500 11.44500 21.29500
N  2.02700 10.52200 26.95600
C  2.16800 11.61300 26.09300
C  2.39800 12.82200 26.86700
C  2.40700 12.30800 28.20200
C  2.13000 10.95900 28.18800
C  2.45700 14.15400 26.45200
C  2.53000 12.72700 29.60900
O  2.85100 13.79900 30.07400
C  2.21200 11.48000 30.43800
C  3.46100 11.28900 31.20800
O  4.44900 10.66000 30.91400
O  3.37200 12.06300 32.30000
C  4.51900 11.94400 33.28600
H  1.72300 4.68200 28.96400
H  0.97600 6.35400 22.75100
H  1.57400 12.36100 24.11100
H  2.41100 8.78400 31.71100
H  1.27000 6.16300 31.25100
H  3.40200 5.69300 31.82300
H  4.08700 7.32000 31.21100
H  3.92700 5.92100 30.26400
H  -0.31500 7.69100 31.37600
H  -0.15500 9.35000 31.09500
H  -0.68000 8.03700 33.42200
H  -0.15000 9.74800 33.41000
H  0.56400 3.03500 28.14900
H  1.84900 2.41500 27.07600
H  0.14700 2.15200 26.69100
H  1.61200 1.80900 24.55900
H  0.46800 1.51000 23.27600
H  -0.24900 2.06000 24.67600
H  0.41800 8.62000 21.55800
H  1.63500 11.02900 22.00500
H  3.09100 7.80800 21.33400
H  3.21700 9.51800 21.61800
H  2.21100 8.95500 20.28200
H  -0.59600 11.37800 23.37200
H  -1.11600 9.89700 22.78400
H  -1.70200 10.84400 20.72100
H  -0.16300 11.61700 20.61200
H  -1.38100 12.44800 21.47200
H  1.85700 14.80700 27.08600
H  2.09700 14.30700 25.43400
H  3.46300 14.57300 26.48100
H  1.30300 11.62800 31.02200
H  4.55700 11.01200 33.85000
H  4.50300 12.82400 33.93000
H  5.40300 11.92800 32.64800
Mg 26.12300 0.88000 29.26300
C  28.06200 0.00300 32.10700
C  23.36900 1.11400 31.11800
C  24.31500 0.97200 26.30100
C  28.95000 -0.05800 27.31000
N  25.83000 0.64100 31.32400
C  26.76800 0.42900 32.35500
C  26.18600 0.59200 33.73900
C  24.71100 0.82100 33.41700
C  24.60000 0.82500 31.85000
C  23.70200 -0.14400 34.15000
C  26.85400 1.75300 34.57300
C  26.06200 2.25200 35.83700
H  26.91900 2.52000 37.11700
N  24.09000 1.02500 28.76500
C  23.08800 1.14900 29.69700
C  21.83400 1.30600 28.95600
C  22.15100 1.42100 27.55300
C  23.57700 1.10400 27.45900
C  20.50500 1.38000 29.50900
C  21.23800 1.75700 26.43300
O  21.70700 1.86400 25.28100
C  19.89700 2.14800 26.63900
N  26.56000 0.57900 27.17300
C  25.66500 0.81800 26.15900
C  26.26200 0.67900 24.77000
C  27.74400 0.56600 25.08400
C  27.81100 0.39700 26.64500
C  25.76900 -0.54200 24.04300
C  28.48800 1.93900 24.69400
C  27.95500 3.18200 25.48800
N  28.11200 0.19100 29.59400
C  29.15300 -0.12900 28.68300
C  30.33500 -0.54400 29.39200
C  29.93700 -0.54400 30.74200
C  28.61800 -0.10700 30.81800
C  31.60500 -0.91500 28.73500
C  30.37300 -0.78800 32.13100
O  31.43900 -1.13300 32.57200
C  29.16900 -0.30500 33.02000
C  28.93400 -1.46700 33.96600
O  28.46000 -2.61000 33.66600
O  29.25700 -1.08300 35.24000
C  29.20300 -2.15900 36.22800
H  22.49800 1.46800 31.67400
H  23.83700 1.09400 25.32600
H  29.81000 -0.39200 26.72600
H  26.51500 -0.36100 34.15300
H  24.36900 1.83700 33.61700
H  23.09200 -0.76500 33.49400
H  23.07900 0.53800 34.72800
H  24.23600 -0.82800 34.81000
H  26.87100 2.61400 33.90500
H  27.89000 1.50800 34.80800
H  25.18300 1.64600 36.05300
H  25.54100 3.15300 35.51300
H  20.03700 2.36200 29.58600
H  20.58100 1.00600 30.53000
H  19.86600 0.76800 28.87300
H  19.89900 2.85900 27.46500
H  19.39700 1.21800 26.91100
H  19.41400 2.53500 25.74200
H  25.90200 1.54400 24.21200
H  28.18300 -0.33200 24.65000
H  24.71600 -0.31900 23.87200
H  25.80800 -1.51000 24.54100
H  26.22900 -0.58000 23.05500
H  28.60000 2.13100 23.62700
H  29.52100 1.80700 25.01500
H  27.46000 2.87000 26.40700
H  27.24000 3.70400 24.85100
H  28.85500 3.74200 25.73900
H  32.22800 -0.02100 28.74800
H  31.47100 -1.15800 27.68100
H  31.95900 -1.71200 29.38900
H  29.54600 0.41400 33.74700
H  28.23900 -2.13800 36.73600
H  29.88600 -1.79000 36.99400
H  29.36700 -3.17100 35.85900

