158

Mg 48.69300 35.74200 26.46200
C  46.90400 34.17000 28.87200
C  48.66300 38.68800 28.34800
C  50.60900 37.26900 24.08300
C  48.29700 33.07700 24.36300
N  47.99600 36.30600 28.39600
C  47.39900 35.43200 29.30200
C  47.35700 36.12900 30.64800
C  47.49700 37.64200 30.33200
C  48.00900 37.58900 28.88700
C  46.22800 38.60300 30.56900
C  48.46100 35.69400 31.63200
C  47.99000 35.31900 33.10800
H  46.92700 36.19600 33.77300
N  49.54600 37.64600 26.25400
C  49.39400 38.71100 27.08800
C  50.23600 39.78600 26.72800
C  50.94900 39.35500 25.59700
C  50.33800 38.04200 25.23500
C  50.37000 41.07600 27.50200
C  52.03200 40.06000 24.74700
O  52.51300 39.46300 23.78600
C  52.52700 41.40800 25.19100
N  49.15200 35.27600 24.40400
C  50.06500 36.05500 23.67700
C  50.28300 35.44600 22.30700
C  49.52800 34.08600 22.38700
C  48.96900 34.09100 23.77800
C  49.72800 36.40600 21.16700
C  50.56400 32.89200 22.15600
C  51.03100 32.74100 20.66700
N  47.72200 34.02300 26.50600
C  47.64100 33.02800 25.60200
C  46.91900 31.91300 26.15300
C  46.54400 32.31900 27.43800
C  47.00800 33.65600 27.55100
C  46.70900 30.61000 25.51000
C  45.93200 31.87200 28.69400
O  45.42600 30.82400 29.10100
C  46.03100 33.14900 29.59900
C  46.61900 32.68600 30.86700
O  47.83600 32.44300 31.06300
O  45.60300 32.37700 31.79500
C  46.07000 31.57700 32.97200
H  48.58300 39.47900 29.09600
H  51.28900 37.68200 23.33500
H  48.37200 32.14200 23.80400
H  46.41500 35.95300 31.16700
H  48.23700 38.10500 30.98400
H  45.38000 38.06600 30.99400
H  46.08300 39.11700 29.61900
H  46.48600 39.39600 31.27000
H  49.17600 36.49800 31.80500
H  48.99000 34.80600 31.28500
H  48.83500 35.39200 33.79300
H  47.68700 34.27300 33.13300
H  51.35500 41.53000 27.61300
H  49.93600 40.97400 28.49700
H  49.70000 41.86600 27.16100
H  51.83100 42.24200 25.09900
H  53.37800 41.62900 24.54700
H  52.88000 41.30800 26.21700
H  51.33900 35.20100 22.18600
H  48.71100 33.97500 21.67400
H  49.75300 37.49300 21.23400
H  48.72400 36.08700 20.88800
H  50.47500 36.28600 20.38200
H  50.20800 31.88100 22.35600
H  51.40100 33.06900 22.83200
H  50.98000 31.72300 20.28100
H  52.08400 33.00000 20.55300
H  50.45900 33.39500 20.01000
H  45.75300 30.18100 25.81100
H  47.44800 29.89100 25.86300
H  46.61800 30.63900 24.42400
H  45.10800 33.69600 29.79300
H  46.79600 32.15300 33.54500
H  46.67500 30.68200 32.83000
H  45.17800 31.24300 33.50100
Mg 41.39000 41.28100 26.90700
C  40.48000 43.62200 29.44600
C  42.54600 39.12800 29.38300
C  42.61000 39.30200 24.45100
C  40.48200 43.56100 24.67100
N  41.57800 41.39600 29.13900
C  41.02700 42.42400 29.95000
C  41.20100 42.14900 31.47400
C  42.05000 40.78200 31.42200
C  42.14200 40.37600 29.90700
C  43.50600 40.88600 31.99400
C  39.74900 42.03500 32.24300
C  39.70000 42.80400 33.54500
H  39.03600 42.11800 34.76400
N  42.38300 39.39100 26.94500
C  42.75100 38.68600 28.06400
C  43.45300 37.51200 27.59900
C  43.36500 37.47700 26.19700
C  42.81000 38.76300 25.76300
C  43.98800 36.46800 28.56500
C  43.72400 36.29000 25.20600
O  43.40200 36.28700 24.03900
C  44.49100 35.08800 25.78100
N  41.67600 41.52100 24.76300
C  42.01800 40.50800 23.92700
C  41.76000 40.82100 22.43600
C  40.73700 41.99100 22.63700
C  40.98100 42.37200 24.11700
C  43.01500 41.25100 21.63400
C  39.25300 41.45700 22.38900
C  38.40900 40.76300 23.41200
N  40.68700 43.13600 26.96500
C  40.39700 44.01100 25.96700
C  39.98000 45.35500 26.51000
C  40.00100 45.17000 27.89200
C  40.39700 43.83400 28.08400
C  39.65500 46.56800 25.62400
C  39.75100 45.88800 29.05200
O  39.29200 46.98400 29.30100
C  40.03100 44.88300 30.17000
C  41.02200 45.42400 31.05900
O  42.24000 45.34200 30.87000
O  40.42400 45.81100 32.26200
C  41.40100 46.05500 33.38000
H  42.84900 38.46800 30.19900
H  42.90200 38.58900 23.67700
H  40.09700 44.13600 23.82600
H  41.82000 42.93000 31.91500
H  41.48200 40.01400 31.94700
H  44.26700 40.90500 31.21400
H  43.71600 40.11700 32.73800
H  43.58100 41.81100 32.56600
H  39.59500 40.97300 32.43900
H  38.91500 42.38800 31.63600
H  39.29200 43.81100 33.45300
H  40.68400 42.97300 33.98300
H  44.91800 36.05800 28.17200
H  43.28900 35.65100 28.74600
H  44.30600 36.89800 29.51400
H  44.01200 34.57400 26.61400
H  45.51300 35.40900 25.98300
H  44.69200 34.35100 25.00400
H  41.25300 40.04700 21.86000
H  40.86600 42.84000 21.96600
H  43.84800 40.97800 22.28100
H  42.85100 42.31600 21.47200
H  43.10300 40.66500 20.71800
H  39.31200 40.83200 21.49800
H  38.57500 42.28900 22.19700
H  38.89300 40.79200 24.38800
H  38.27000 39.71700 23.13600
H  37.47100 41.31600 23.45700
H  40.07900 46.36200 24.64100
H  40.12700 47.51500 25.88300
H  38.58300 46.65200 25.44500
H  39.05900 44.79000 30.65400
H  42.17000 46.72800 33.00000
H  41.86300 45.17000 33.81700
H  40.84600 46.53000 34.18900

