158

Mg 42.56800 41.55600 25.94600
C  41.70400 43.94800 28.34100
C  43.43400 39.39400 28.41400
C  43.76000 39.39500 23.54700
C  41.96400 43.91700 23.48400
N  42.78000 41.76200 28.09600
C  42.22600 42.77600 28.88800
C  42.26000 42.38600 30.36100
C  42.77900 40.91500 30.37900
C  43.07000 40.63000 28.85000
C  43.92700 40.70700 31.33100
C  40.93600 42.61500 31.09400
C  40.73800 42.02400 32.51400
H  40.27700 42.84700 33.68400
N  43.54600 39.62400 26.00100
C  43.62500 38.88200 27.11600
C  44.09600 37.52900 26.73900
C  44.20500 37.51700 25.29500
C  43.81000 38.89600 24.90300
C  44.26500 36.32300 27.70300
C  44.55500 36.37000 24.32200
O  44.65700 36.45500 23.13900
C  44.88600 35.04200 24.93200
N  42.91600 41.64000 23.84700
C  43.33600 40.64500 23.08300
C  43.29400 40.94000 21.59300
C  42.71600 42.38600 21.60400
C  42.51600 42.74700 23.10700
C  44.70700 40.79400 20.85300
C  41.36500 42.51400 20.82900
C  40.13800 41.87600 21.37000
N  41.99600 43.59000 25.82200
C  41.69200 44.37400 24.75600
C  41.36500 45.68800 25.25700
C  41.26700 45.59700 26.61600
C  41.63300 44.24000 26.93500
C  40.99400 46.87300 24.36000
C  40.84100 46.20600 27.87400
O  40.41500 47.30400 28.17700
C  41.14900 45.19600 29.00900
C  42.11400 45.76000 29.95400
O  43.27500 45.96500 29.77600
O  41.47100 46.08400 31.08100
C  42.27100 46.80800 32.14400
H  43.56200 38.73000 29.27100
H  44.05100 38.77200 22.69900
H  41.86200 44.60700 22.64400
H  42.83900 43.14200 30.89200
H  41.98600 40.23300 30.68700
H  44.81700 40.82800 30.71300
H  43.91600 39.68000 31.69600
H  43.86900 41.39500 32.17300
H  40.06500 42.38800 30.47800
H  40.84500 43.65300 31.41300
H  41.67600 41.55200 32.80600
H  39.92400 41.30300 32.43700
H  44.15200 36.71100 28.71500
H  45.26100 35.93400 27.49200
H  43.54300 35.50700 27.65800
H  44.07100 34.62300 25.52300
H  45.70000 35.28900 25.61300
H  45.33100 34.28900 24.28100
H  42.64200 40.25300 21.05300
H  43.39100 43.16300 21.24400
H  44.90700 41.70200 20.28300
H  44.49000 39.98000 20.16200
H  45.47500 40.41400 21.52700
H  41.52500 42.17500 19.80500
H  41.20700 43.59100 20.76100
H  39.26300 42.50800 21.21900
H  40.25100 41.59100 22.41600
H  40.14700 40.96400 20.77300
H  40.01400 47.32000 24.52600
H  41.11600 46.54800 23.32600
H  41.78600 47.60300 24.52800
H  40.26000 44.85600 29.54000
H  42.97000 47.49700 31.67200
H  42.70600 46.18300 32.92500
H  41.72600 47.60400 32.65100
Mg 27.07200 49.47100 26.00100
C  25.23900 50.91600 28.79200
C  29.64500 48.89400 28.25200
C  28.89500 48.71900 23.28900
C  24.54000 50.74400 23.94300
N  27.38500 49.91000 28.32500
C  26.43000 50.33300 29.22000
C  26.90800 50.04100 30.68200
C  28.43300 49.64700 30.50800
C  28.53200 49.46000 28.92500
C  29.52800 50.61100 31.01000
C  26.00500 49.04600 31.52000
C  25.57700 49.63100 32.83400
H  26.57800 49.98200 33.91900
N  28.96400 48.83400 25.82700
C  29.85800 48.49100 26.85500
C  31.15100 48.13000 26.21100
C  31.00500 48.18700 24.78300
C  29.56800 48.59000 24.57200
C  32.37000 47.74600 26.99700
C  32.09700 48.00200 23.76000
O  31.84000 48.02400 22.57400
C  33.50000 47.72600 24.09000
N  26.72200 49.67400 23.84100
C  27.65200 49.19800 22.93500
C  27.01700 49.41600 21.51300
C  25.52000 49.89600 21.82900
C  25.53500 49.98700 23.32400
C  27.74600 50.38600 20.55600
C  24.46000 48.98800 21.16500
C  24.01700 47.64000 22.01600
N  25.25600 50.53000 26.25000
C  24.30100 50.94600 25.30900
C  23.16200 51.62900 25.95900
C  23.54300 51.60700 27.31700
C  24.81800 50.97000 27.47400
C  22.00800 52.21700 25.20400
C  23.06500 51.87400 28.69400
O  22.03000 52.42700 29.06200
C  24.12600 51.43100 29.63400
C  24.34200 52.49600 30.62100
O  25.29900 53.27100 30.60800
O  23.40300 52.45300 31.58700
C  23.65600 53.32600 32.76000
H  30.54800 48.67700 28.82500
H  29.53400 48.51300 22.42800
H  23.74100 51.04200 23.26200
H  26.90800 50.99900 31.20300
H  28.54900 48.67300 30.98500
H  30.16100 50.90300 30.17100
H  30.17100 50.32500 31.84200
H  29.06700 51.51700 31.40300
H  26.48700 48.07100 31.59500
H  25.06200 48.86800 31.00400
H  24.78300 48.97600 33.19200
H  25.10900 50.60900 32.72200
H  32.14700 47.89500 28.05300
H  33.21900 48.40200 26.80400
H  32.58800 46.74200 26.63300
H  34.05700 47.57600 23.16400
H  33.70300 46.83400 24.68200
H  33.78000 48.65000 24.59700
H  27.01100 48.44200 21.02400
H  25.38000 50.89600 21.42100
H  28.75600 50.46700 20.95700
H  27.14900 51.29700 20.54600
H  27.69900 50.06500 19.51500
H  24.84600 48.57800 20.23200
H  23.58400 49.60900 20.97700
H  24.27400 46.76800 21.41400
H  22.94700 47.64200 22.22300
H  24.51000 47.50800 22.97900
H  21.79200 51.54600 24.37300
H  22.16400 53.18400 24.72600
H  21.15900 52.29700 25.88300
H  23.86700 50.52400 30.17900
H  23.59600 54.36500 32.43900
H  24.65000 53.10000 33.14700
H  22.99200 53.13300 33.60200

