158

Mg 1.16600 8.47700 26.78500
C  1.17700 10.40900 29.66000
C  1.63200 5.73000 28.73000
C  1.11900 6.61900 23.89400
C  1.17900 11.37500 24.91400
N  1.35400 8.16800 28.97100
C  1.13400 9.03900 29.93500
C  0.95800 8.39500 31.25600
C  1.42100 6.93400 31.00100
C  1.47400 6.91300 29.41700
C  2.77900 6.59800 31.56900
C  -0.47800 8.63700 31.81200
C  -0.53600 8.92000 33.33000
H  0.54200 8.26100 34.20600
N  1.31000 6.42400 26.37600
C  1.48100 5.49200 27.31100
C  1.49000 4.16900 26.65000
C  1.33100 4.41900 25.24800
C  1.20800 5.86100 25.10800
C  1.60300 2.90600 27.37600
C  1.36100 3.42400 24.10800
O  1.43200 3.79700 22.97200
C  1.49600 1.93000 24.37700
N  0.91700 8.92200 24.75200
C  0.95700 8.00200 23.74700
C  1.01900 8.64300 22.35100
C  0.74500 10.22800 22.70300
C  1.04300 10.16800 24.20400
C  2.31600 8.41900 21.58300
C  -0.73300 10.73900 22.44200
C  -0.96200 11.89800 21.29300
N  1.24500 10.49300 27.15100
C  1.33400 11.56400 26.29500
C  1.55800 12.83000 26.98800
C  1.54100 12.35200 28.30900
C  1.22500 11.00100 28.35500
C  1.92400 14.22000 26.52300
C  1.79700 12.76300 29.66700
O  2.18500 13.85600 30.06800
C  1.33900 11.59200 30.55600
C  2.28600 11.42500 31.67800
O  3.49600 11.31100 31.55500
O  1.63600 11.59000 32.91100
C  2.52700 11.69800 34.13100
H  1.61100 4.89300 29.43000
H  1.54100 6.10300 23.02800
H  1.05700 12.29800 24.34300
H  1.70500 8.91200 31.85800
H  0.64800 6.23900 31.32700
H  3.52700 6.19500 30.88700
H  2.51200 5.86300 32.32800
H  3.26900 7.40200 32.11800
H  -1.17100 7.83300 31.56500
H  -0.85700 9.58600 31.43200
H  -1.48300 8.60400 33.76800
H  -0.60500 9.98900 33.53400
H  2.66500 2.69500 27.25100
H  1.02600 2.04700 27.03400
H  1.19800 3.00900 28.38300
H  0.61700 1.49000 24.84900
H  2.42600 1.75800 24.91800
H  1.66600 1.46000 23.40900
H  0.17700 8.33500 21.73200
H  1.47200 10.85600 22.18800
H  1.99500 8.07800 20.59900
H  2.90800 7.70700 22.15800
H  2.78300 9.40000 21.49700
H  -1.14900 11.04300 23.40200
H  -1.34400 9.89100 22.13400
H  -1.36700 12.81600 21.72000
H  -1.68900 11.42000 20.63700
H  -0.11500 12.28900 20.72900
H  2.12900 14.13200 25.45600
H  2.77500 14.68800 27.01900
H  1.05800 14.84700 26.73300
H  0.46000 11.78400 31.17200
H  3.28500 10.92000 34.22300
H  1.92400 11.52100 35.02100
H  2.90300 12.72100 34.16000
Mg 8.78300 3.67600 27.32900
C  9.75000 2.06000 30.08400
C  6.42100 5.57300 29.07000
C  7.80100 5.26200 24.36400
C  10.26500 1.21500 25.29700
N  7.97600 3.53700 29.31700
C  8.65700 2.98600 30.34800
C  8.02800 3.41200 31.71100
C  6.81700 4.31000 31.25700
C  7.01700 4.51600 29.72700
C  5.37100 3.80700 31.50000
C  9.10400 4.12100 32.56800
C  8.99400 3.80100 34.12300
H  10.18800 4.00200 35.05500
N  7.55400 5.23600 26.87300
C  6.61100 5.83500 27.67700
C  5.83800 6.88400 27.01700
C  6.39300 6.87100 25.64700
C  7.39200 5.77600 25.60800
C  4.78300 7.78800 27.67300
C  5.99500 7.81300 24.53000
O  6.44100 7.89000 23.35800
C  4.92400 8.90800 24.77100
N  8.97600 3.32800 25.14300
C  8.50500 4.10100 24.14400
C  8.94100 3.59800 22.73500
C  9.84100 2.37800 23.08800
C  9.74900 2.31600 24.61600
C  7.71900 3.18500 21.83800
C  11.35600 2.45900 22.57300
C  11.64900 1.47900 21.42000
N  9.91200 2.08300 27.58600
C  10.44100 1.09700 26.74400
C  11.20600 0.19100 27.54900
C  11.01800 0.51700 28.88900
C  10.23200 1.68400 28.85100
C  12.13800 -0.81600 27.03100
C  11.38400 0.29100 30.26100
O  12.13700 -0.56200 30.72600
C  10.67500 1.31700 31.10900
C  9.92800 0.61500 32.23500
O  8.93400 -0.09000 32.11600
O  10.57000 0.85400 33.41300
C  10.07900 0.18000 34.66100
H  5.78700 6.17000 29.72900
H  7.45800 5.84000 23.50300
H  10.73300 0.38800 24.75900
H  7.54700 2.60100 32.25700
H  6.90400 5.24700 31.80700
H  4.90500 4.41200 32.27800
H  5.24500 2.72500 31.50400
H  4.83500 4.06200 30.58500
H  8.94900 5.19100 32.43400
H  10.07800 3.90000 32.13100
H  8.83900 2.72800 34.23600
H  8.19000 4.43600 34.49400
H  4.69900 7.59900 28.74300
H  3.82200 7.63200 27.18300
H  5.20000 8.79500 27.70300
H  4.02800 8.34600 25.03100
H  4.79200 9.39600 23.80500
H  5.25100 9.65300 25.49700
H  9.42700 4.42000 22.21000
H  9.30700 1.47400 22.79500
H  7.59000 3.99800 21.12400
H  6.77400 3.06900 22.36900
H  7.89100 2.20500 21.39200
H  11.95100 2.24400 23.46000
H  11.65900 3.43500 22.19500
H  12.13200 1.92000 20.54800
H  10.73200 1.01300 21.05700
H  12.14900 0.60400 21.83500
H  12.67700 -1.24500 27.87500
H  12.86600 -0.27700 26.42400
H  11.62400 -1.59000 26.46000
H  11.47500 1.97200 31.45600
H  9.21500 -0.48300 34.63100
H  9.87700 0.87000 35.48000
H  10.84700 -0.35900 35.21500

