158

Mg 27.00500 50.56000 25.52600
C  24.84800 51.35600 28.18500
C  29.35700 49.47000 27.82800
C  28.95700 49.79600 22.93600
C  24.47200 51.55600 23.37100
N  27.11100 50.55300 27.79600
C  26.07300 50.74300 28.67000
C  26.53500 50.55500 30.18100
C  27.99900 49.99700 29.95700
C  28.18200 50.00600 28.41000
C  29.11600 50.80400 30.72000
C  25.54000 49.58100 30.84600
C  25.09400 49.82000 32.33100
H  26.02600 50.55100 33.31900
N  28.81500 49.68900 25.35200
C  29.65800 49.39600 26.40900
C  30.77200 48.77800 25.90700
C  30.81100 48.92600 24.53200
C  29.48600 49.54200 24.23200
C  31.79200 48.12000 26.77000
C  31.91100 48.67200 23.59300
O  31.86000 48.97500 22.39600
C  33.15600 47.92400 24.05600
N  26.70100 50.70500 23.48900
C  27.68900 50.25800 22.61600
C  27.18200 50.45500 21.14200
C  25.78200 50.98200 21.29900
C  25.62300 51.05800 22.79600
C  28.14700 51.28300 20.18800
C  24.66000 50.16100 20.48500
C  23.99100 48.95900 21.13600
N  25.14900 51.44700 25.70200
C  24.23900 51.72700 24.73300
C  23.03600 52.28600 25.26900
C  23.24400 52.24400 26.66600
C  24.52100 51.62200 26.89600
C  21.90500 52.91300 24.49300
C  22.65400 52.54400 27.93200
O  21.58800 53.03200 28.22500
C  23.69700 51.95300 29.01600
C  24.16900 52.95600 29.99800
O  25.02500 53.80700 29.82900
O  23.44300 52.76200 31.18200
C  23.68800 53.75600 32.22900
H  30.12300 49.17400 28.54700
H  29.53900 49.54900 22.04600
H  23.66700 51.87200 22.70300
H  26.60200 51.53400 30.65600
H  28.08000 48.92900 30.15900
H  28.83500 51.80300 31.05400
H  30.04900 50.87200 30.16100
H  29.35600 50.27100 31.64000
H  25.96300 48.57700 30.80000
H  24.60700 49.61600 30.28400
H  24.94600 48.81600 32.73000
H  24.05900 50.16100 32.32400
H  31.44900 47.81300 27.75800
H  32.68900 48.73300 26.86300
H  32.12200 47.16600 26.36100
H  33.70400 48.30200 24.91900
H  33.81100 47.88400 23.18600
H  32.77400 46.90900 24.16900
H  27.12100 49.44600 20.73600
H  25.78700 51.96900 20.83800
H  29.15200 50.98000 20.48300
H  27.94600 52.35300 20.24100
H  28.03900 51.00400 19.14000
H  25.14400 49.99300 19.52300
H  23.84800 50.86000 20.28300
H  24.03900 48.11900 20.44300
H  22.95900 49.20900 21.38200
H  24.51100 48.64900 22.04300
H  22.05700 53.97800 24.31500
H  21.00700 52.75400 25.08900
H  21.69900 52.39500 23.55600
H  23.17800 51.18000 29.58300
H  24.64800 53.63800 32.73000
H  22.77300 53.74700 32.82100
H  23.81900 54.75700 31.81700
Mg -1.73000 33.76300 27.53800
C  -3.32800 32.17700 30.03800
C  -0.15700 35.77100 29.87100
C  -0.33500 35.62700 25.01200
C  -3.50100 31.83700 25.23000
N  -1.98300 34.16600 29.73900
C  -2.52200 33.23600 30.55200
C  -2.09400 33.50200 31.97700
C  -1.20600 34.82000 31.94000
C  -1.10100 34.97500 30.44300
C  -1.77000 36.11300 32.72200
C  -1.35200 32.24000 32.56500
C  -1.81500 31.64600 33.86600
H  -1.02900 31.86200 35.16700
N  -0.42000 35.51500 27.51600
C  0.21200 36.09900 28.56100
C  1.18800 37.01400 28.08900
C  1.06200 37.11100 26.69100
C  0.11600 36.00200 26.33400
C  1.98100 37.89500 29.05000
C  1.74700 38.10400 25.73800
O  1.47000 38.11100 24.57000
C  2.88400 38.95700 26.30400
N  -1.82100 33.75900 25.47700
C  -1.17300 34.61600 24.67900
C  -1.41700 34.19400 23.21200
C  -2.42500 33.02400 23.23400
C  -2.59200 32.81800 24.75700
C  -1.88300 35.39100 22.20000
C  -1.86400 31.72700 22.51700
C  -0.67000 31.07800 23.16600
N  -3.14900 32.27000 27.57500
C  -3.72000 31.51400 26.61000
C  -4.58500 30.42400 27.24300
C  -4.47100 30.68900 28.57900
C  -3.63200 31.84900 28.74900
C  -5.41500 29.33600 26.45500
C  -4.99700 30.32800 29.81600
O  -5.82200 29.44300 30.08400
C  -4.28400 31.18500 30.79700
C  -5.28800 31.87700 31.65800
O  -5.80700 32.93200 31.34500
O  -5.50800 31.20800 32.80200
C  -6.60200 31.64700 33.61100
H  0.31100 36.31200 30.69500
H  0.15200 36.14200 24.18100
H  -4.00000 31.27600 24.43700
H  -2.87500 33.75800 32.69400
H  -0.20400 34.51400 32.24100
H  -2.38900 36.82000 32.17000
H  -0.95300 36.76500 33.03300
H  -2.27200 35.73300 33.61200
H  -0.32300 32.49400 32.82000
H  -1.34600 31.42600 31.84000
H  -1.96000 30.56900 33.78300
H  -2.82100 31.97000 34.13200
H  2.14600 37.46200 30.03700
H  1.56800 38.88600 29.24000
H  2.99400 38.02400 28.66700
H  2.64500 39.66600 27.09600
H  3.20300 39.48100 25.40300
H  3.59100 38.17500 26.58400
H  -0.44700 33.84700 22.85700
H  -3.37100 33.21400 22.72600
H  -2.97200 35.37100 22.24700
H  -1.42700 35.36000 21.21100
H  -1.65100 36.39700 22.55000
H  -1.50800 32.00700 21.52600
H  -2.64300 30.97500 22.39700
H  -0.35300 31.57500 24.08300
H  0.15900 31.13300 22.46000
H  -0.83400 30.02400 23.39100
H  -5.32500 28.46100 27.09900
H  -5.06100 29.19600 25.43400
H  -6.47000 29.60600 26.42400
H  -3.60900 30.48200 31.28600
H  -6.97100 32.61300 33.26500
H  -6.24800 31.85100 34.62100
H  -7.45900 30.98100 33.51300

