158

Mg 41.44900 40.51400 26.13600
C  40.79700 43.15200 28.50000
C  42.59600 38.65400 28.73500
C  42.39200 38.24200 23.90200
C  41.05600 42.88400 23.59000
N  41.69000 41.00000 28.41900
C  41.12900 41.95600 29.09500
C  41.15500 41.65800 30.56600
C  42.01800 40.34600 30.67300
C  42.13300 39.93000 29.20500
C  43.39700 40.44800 31.39800
C  39.72400 41.81500 31.33400
C  39.55800 40.99900 32.66200
H  38.74600 41.68000 33.80200
N  42.25600 38.68900 26.35500
C  42.74600 38.09100 27.48300
C  43.20700 36.71600 27.17800
C  43.17200 36.56900 25.75000
C  42.52400 37.88500 25.28000
C  43.54800 35.75000 28.23800
C  43.75800 35.45100 24.96300
O  43.94400 35.59000 23.81700
C  44.26500 34.25400 25.60700
N  41.91400 40.66600 23.98600
C  42.16800 39.49200 23.34100
C  42.20800 39.75000 21.80000
C  41.56500 41.20500 21.68800
C  41.43300 41.58800 23.12900
C  43.63100 39.45200 21.15000
C  40.29800 41.36100 20.81300
C  38.96100 41.16600 21.53500
N  40.96100 42.56600 26.04600
C  40.91200 43.41200 24.90900
C  40.52900 44.71900 25.31100
C  40.51000 44.68700 26.73500
C  40.76600 43.34600 27.06600
C  40.13900 45.80800 24.34400
C  40.30600 45.47400 27.92900
O  39.95300 46.64700 28.00800
C  40.39800 44.53900 29.14000
C  41.25800 45.14500 30.17100
O  42.45200 45.26600 30.24000
O  40.45800 45.52600 31.22800
C  41.06700 46.33800 32.36100
H  42.89400 38.03000 29.58000
H  42.52600 37.38500 23.23900
H  41.05500 43.51500 22.69900
H  41.79700 42.36200 31.09600
H  41.38400 39.64300 31.21300
H  43.29500 40.27400 32.46900
H  43.69500 41.48300 31.23300
H  44.15800 39.90800 30.83400
H  39.01400 41.50600 30.56700
H  39.45900 42.85600 31.51500
H  40.50600 40.67600 33.09300
H  39.12100 40.04200 32.37600
H  43.14400 34.80300 27.88100
H  43.07400 35.98100 29.19200
H  44.63500 35.70400 28.29100
H  45.07800 34.60700 26.24100
H  44.49400 33.51500 24.84000
H  43.49300 33.73800 26.17800
H  41.41900 39.09500 21.43000
H  42.29500 41.93400 21.33700
H  44.13000 40.38200 20.87700
H  43.52300 38.79300 20.28900
H  44.21500 39.05400 21.98000
H  40.34600 40.66000 19.98000
H  40.44100 42.34700 20.37300
H  39.00300 40.79800 22.56000
H  38.36600 40.41500 21.01400
H  38.48300 42.14500 21.51500
H  40.85800 45.66500 23.53800
H  40.28800 46.87400 24.51800
H  39.15400 45.54400 23.95900
H  39.34100 44.52200 29.40600
H  41.34700 45.85000 33.29400
H  40.38100 47.11100 32.70800
H  41.92000 46.93400 32.03400
Mg 30.52600 58.93000 39.74200
C  27.51000 57.16800 38.97400
C  32.26300 56.19000 38.42000
C  33.25300 60.68900 39.76000
C  28.56000 61.73900 40.50300
N  29.91700 56.95900 38.78300
C  28.67300 56.42900 38.63700
C  28.74100 55.05500 37.95500
C  30.14400 54.59400 38.34600
C  30.85700 56.00300 38.49800
C  30.35200 53.55200 39.54600
C  28.37600 55.15800 36.44600
C  26.98400 54.68400 35.94200
H  26.34800 55.52400 34.82300
N  32.45000 58.50400 39.10200
C  33.02100 57.29900 38.60200
C  34.43100 57.47400 38.46800
C  34.79000 58.73200 38.92700
C  33.51600 59.38700 39.28200
C  35.28600 56.39500 37.79700
C  36.19700 59.21700 39.09400
O  37.13900 58.51000 38.75900
C  36.43800 60.53200 39.61000
N  30.84000 60.96500 39.86000
C  32.12500 61.42600 39.92700
C  32.15000 62.86200 40.53800
C  30.65500 63.21900 40.64300
C  29.99000 61.90900 40.38300
C  32.85000 63.01400 41.87600
C  30.10100 64.46000 39.86500
C  29.14600 65.36200 40.63700
N  28.46600 59.39200 39.81800
C  27.76200 60.59400 40.22800
C  26.32800 60.39100 40.18000
C  26.21000 59.04000 39.77500
C  27.51500 58.55800 39.47800
C  25.31700 61.49700 40.54300
C  25.22900 58.05100 39.40700
O  23.99200 58.06500 39.36500
C  26.04600 56.77000 38.80400
C  25.55700 55.63500 39.63700
O  26.00500 55.31900 40.73300
O  24.58300 54.94700 39.00400
C  23.94100 53.85900 39.82100
H  32.71700 55.23300 38.15700
H  34.10400 61.32800 40.00400
H  28.16100 62.62100 41.00900
H  28.04300 54.36500 38.42900
H  30.58800 54.06400 37.50400
H  29.45400 53.19500 40.05000
H  30.88700 54.23800 40.20300
H  31.04800 52.76900 39.24500
H  29.09600 54.48400 35.98200
H  28.52900 56.18800 36.12300
H  26.33800 54.58300 36.81400
H  27.16900 53.69300 35.52500
H  35.75200 55.66200 38.45600
H  36.11900 56.85800 37.26800
H  34.77600 55.85000 37.00300
H  36.06300 60.65900 40.62500
H  35.95000 61.22700 38.92600
H  37.49800 60.77200 39.52300
H  32.57100 63.45600 39.72600
H  30.25500 63.32600 41.65100
H  32.23800 63.52900 42.61600
H  33.76900 63.50900 41.56000
H  33.07200 62.00200 42.21200
H  29.45000 64.07500 39.08000
H  30.90100 65.03400 39.39800
H  29.68300 66.20100 41.08100
H  28.63500 64.86000 41.45900
H  28.34400 65.74300 40.00600
H  24.40300 61.36400 39.96400
H  25.59300 62.53600 40.36600
H  25.06900 61.39300 41.59900
H  25.64900 56.75600 37.78900
H  24.35600 52.86400 39.66000
H  22.91000 53.95000 39.48000
H  24.01100 54.07300 40.88800

