158

Mg -1.98900 18.15900 27.44800
C  -2.55900 16.02400 30.22000
C  -2.71500 20.88800 29.44300
C  -2.36900 20.02000 24.68100
C  -1.98100 15.32300 25.50300
N  -2.56900 18.40700 29.55600
C  -2.61400 17.37000 30.57100
C  -2.71900 17.91200 31.97800
C  -3.11200 19.43700 31.63700
C  -2.75900 19.62100 30.12200
C  -4.57500 19.79700 32.00200
C  -1.43000 17.87800 32.88600
C  -1.57300 17.10400 34.26000
H  -0.43200 17.15800 35.19000
N  -2.22200 20.22500 27.09900
C  -2.55600 21.16800 28.08100
C  -2.66300 22.49000 27.40800
C  -2.37800 22.23000 26.03600
C  -2.29100 20.76300 25.83000
C  -2.98600 23.74600 28.20300
C  -2.29000 23.27800 24.88900
O  -1.98000 22.94500 23.79500
C  -2.30200 24.74300 25.15900
N  -2.10100 17.69600 25.37200
C  -2.31200 18.68700 24.44700
C  -2.32600 18.08600 22.99000
C  -2.29400 16.59000 23.32600
C  -1.97600 16.49800 24.80800
C  -3.51100 18.46100 22.09600
C  -1.31400 15.71400 22.45000
C  0.15200 15.55200 22.88500
N  -2.11300 16.11800 27.72700
C  -2.06900 15.10400 26.87700
C  -2.06800 13.78800 27.50900
C  -2.30000 14.13700 28.83100
C  -2.27700 15.55700 28.92700
C  -1.92900 12.39400 26.99900
C  -2.53700 13.58000 30.09100
O  -2.65100 12.43900 30.35800
C  -2.70200 14.77700 31.16500
C  -1.73300 14.59000 32.23800
O  -0.62500 15.02600 32.27600
O  -2.26500 13.74000 33.14500
C  -1.28300 13.08000 34.08000
H  -2.90800 21.62900 30.22200
H  -2.54500 20.58500 23.76300
H  -2.19600 14.39000 24.97700
H  -3.55800 17.44100 32.49100
H  -2.48300 20.09500 32.23600
H  -4.63700 20.60300 32.73300
H  -5.11500 18.92000 32.35800
H  -5.01500 20.26700 31.12200
H  -1.11500 18.85300 33.25900
H  -0.59300 17.45900 32.32700
H  -1.99200 16.09900 34.21000
H  -2.29100 17.63600 34.88400
H  -4.00700 23.88600 27.84700
H  -2.33400 24.57400 27.92500
H  -2.97100 23.56900 29.27800
H  -2.48600 25.43600 24.33700
H  -1.35000 24.96500 25.64100
H  -3.11600 25.04200 25.82000
H  -1.33000 18.32400 22.61800
H  -3.26900 16.10800 23.25200
H  -4.27800 17.69100 22.01700
H  -3.20200 18.77000 21.09700
H  -4.11300 19.30600 22.43200
H  -1.24200 16.12200 21.44100
H  -1.79600 14.73800 22.39000
H  0.31100 14.48900 23.06700
H  0.23800 15.92400 23.90700
H  0.90200 15.99000 22.22600
H  -1.02600 12.15600 26.43700
H  -2.85100 12.19400 26.45200
H  -1.96900 11.73400 27.86600
H  -3.71100 14.94700 31.54200
H  -0.77000 12.30300 33.51400
H  -1.83600 12.65000 34.91500
H  -0.50800 13.66500 34.57600
Mg -10.70400 17.66700 41.22800
C  -7.11100 17.52600 41.07600
C  -10.43000 21.05400 40.53900
C  -13.96300 17.84600 40.35100
C  -10.73000 14.21900 40.95900
N  -8.92100 19.05100 40.77200
C  -7.58300 18.77800 40.87000
C  -6.82200 20.05200 40.64000
C  -7.87800 21.15700 41.08400
C  -9.17100 20.38500 40.77100
C  -7.74000 21.59600 42.52400
C  -6.36200 20.24600 39.11900
C  -4.83600 20.16100 38.80100
H  -4.41700 19.25500 37.75800
N  -11.98500 19.22800 40.63900
C  -11.69600 20.50100 40.43100
C  -12.85200 21.28300 40.00500
C  -13.98100 20.39500 40.01200
C  -13.33800 19.07500 40.36500
C  -12.90400 22.78100 39.72100
C  -15.34300 20.82100 39.79100
O  -15.59600 22.03700 39.66900
C  -16.38900 19.81100 39.82000
N  -12.09000 16.31300 40.61900
C  -13.41200 16.59600 40.48700
C  -14.30500 15.38000 40.63200
C  -13.27800 14.24900 40.63200
C  -11.93500 14.95200 40.72900
C  -15.13400 15.55700 41.87900
C  -13.33000 13.39100 39.23500
C  -13.65700 11.88100 39.27800
N  -9.20500 16.14100 41.19200
C  -9.40100 14.71100 41.10400
C  -8.15600 14.10600 41.29200
C  -7.24100 15.11700 41.34800
C  -7.95500 16.33500 41.15200
C  -7.91300 12.64700 41.32500
C  -5.83600 15.54600 41.38600
O  -4.82900 14.87400 41.66900
C  -5.67800 17.12000 41.21300
C  -5.06900 17.65600 42.44200
O  -5.68300 17.98800 43.44900
O  -3.76400 17.88500 42.17200
C  -3.02900 18.57800 43.22600
H  -10.33600 22.13900 40.46200
H  -15.00600 17.77100 40.03400
H  -10.93300 13.14600 40.97100
H  -6.02700 20.07800 41.38500
H  -7.78500 22.13200 40.60600
H  -6.71300 21.55800 42.88700
H  -8.44300 21.07800 43.17700
H  -7.98600 22.64900 42.65900
H  -6.67700 21.16800 38.63000
H  -6.85700 19.40400 38.63600
H  -4.22400 19.91100 39.66800
H  -4.58900 21.17800 38.49500
H  -13.34600 23.00800 38.75100
H  -11.91400 23.23700 39.73600
H  -13.50600 23.38600 40.39800
H  -16.29100 19.21200 38.91400
H  -17.27600 20.44200 39.77700
H  -16.45100 19.22700 40.73800
H  -14.94000 15.28800 39.75100
H  -13.55600 13.55100 41.42200
H  -15.65700 14.63500 42.13700
H  -15.88400 16.34600 41.82600
H  -14.54100 15.84800 42.74700
H  -12.36800 13.50700 38.73500
H  -14.01600 13.78400 38.48400
H  -14.61400 11.65300 38.80900
H  -13.72000 11.57100 40.32100
H  -12.79600 11.40800 38.80800
H  -7.36900 12.23400 40.47500
H  -8.88800 12.16000 41.30600
H  -7.49500 12.35700 42.28900
H  -5.04600 17.37200 40.36200
H  -1.98000 18.74700 42.98600
H  -2.90800 18.04500 44.16900
H  -3.70900 19.41400 43.39000

