158

Mg 35.95600 1.10800 29.61400
C  33.87100 2.14800 32.36200
C  38.67800 1.15800 31.62800
C  37.69000 0.49000 26.86700
C  33.10800 1.62400 27.57000
N  36.19100 1.33800 31.77400
C  35.19800 1.84600 32.73000
C  35.80400 1.79500 34.15900
C  37.41900 1.68200 33.83300
C  37.43800 1.29900 32.35700
C  38.37900 2.89000 34.18200
C  35.34200 0.66400 35.09800
C  35.10200 0.89500 36.58700
H  35.57200 2.19800 37.27900
N  37.83300 0.80200 29.28400
C  38.81300 0.92300 30.24300
C  40.11500 0.78800 29.58100
C  39.89000 0.43400 28.24900
C  38.38500 0.48900 28.07600
C  41.44300 0.75700 30.23100
C  40.85200 -0.07200 27.21000
O  40.46500 -0.41600 26.07200
C  42.36500 -0.23800 27.44600
N  35.43900 0.90100 27.52100
C  36.35200 0.74100 26.55900
C  35.74200 0.84100 25.14400
C  34.26500 0.84300 25.48000
C  34.24800 1.03400 26.95800
C  36.35600 2.05400 24.29800
C  33.53300 -0.50100 24.97600
C  32.73100 -0.44100 23.65100
N  33.96200 1.76500 29.89800
C  32.95200 1.95600 28.93100
C  31.76200 2.45800 29.57900
C  32.06300 2.51000 30.95200
C  33.39300 2.14800 31.04400
C  30.44200 2.74800 28.81100
C  31.55300 2.91500 32.29000
O  30.54400 3.35200 32.74900
C  32.74300 2.66300 33.23100
C  32.94200 3.96200 33.96000
O  33.25500 5.02300 33.46600
O  32.58500 3.82400 35.26300
C  32.28200 5.14100 35.98600
H  39.57900 1.21900 32.24300
H  38.35400 0.23500 26.03900
H  32.21300 1.65100 26.94500
H  35.52300 2.77900 34.53300
H  37.82900 0.76300 34.25200
H  38.70400 3.42900 33.29200
H  39.34800 2.64800 34.62000
H  37.69600 3.54600 34.72200
H  35.97800 -0.21700 35.01200
H  34.37000 0.40400 34.67900
H  35.44600 0.04400 37.17400
H  34.02400 0.99300 36.71800
H  41.61900 1.46700 31.03900
H  42.19600 1.05600 29.50100
H  41.73900 -0.24800 30.53200
H  42.84900 0.73800 27.41400
H  42.69100 -0.81500 26.58100
H  42.74000 -0.85900 28.26000
H  35.88500 -0.10200 24.61700
H  33.80100 1.71200 25.01200
H  36.63400 2.90700 24.91900
H  35.50700 2.26100 23.64700
H  37.19600 1.63100 23.74800
H  32.79300 -0.81900 25.71100
H  34.25000 -1.31200 24.85000
H  31.69600 -0.71100 23.86000
H  33.12300 -1.23500 23.01600
H  32.81900 0.53600 23.17600
H  30.24600 2.10700 27.95200
H  30.42900 3.80500 28.54600
H  29.74500 2.61300 29.63800
H  32.50200 1.91300 33.98500
H  31.39000 5.64000 35.60800
H  33.10300 5.83900 36.14900
H  31.99900 4.82600 36.99100
Mg -1.16100 34.78100 26.35200
C  -2.89600 32.97600 28.85900
C  -0.37100 37.14400 28.73200
C  0.16100 36.68900 23.88500
C  -2.68600 32.75600 23.90600
N  -1.68800 35.06600 28.51200
C  -2.27800 34.15300 29.31700
C  -2.17200 34.63400 30.78600
C  -1.73600 36.06200 30.74500
C  -1.20000 36.13900 29.23500
C  -2.81600 37.10400 31.05500
C  -1.28900 33.67400 31.66700
C  -2.01000 33.04100 32.93900
H  -1.07000 32.90600 34.22100
N  -0.18600 36.59200 26.33600
C  0.06200 37.38600 27.42200
C  0.74200 38.59800 26.90900
C  0.96200 38.42200 25.54100
C  0.35800 37.18500 25.21500
C  1.11900 39.75200 27.76200
C  1.75200 39.28400 24.52900
O  1.93500 39.04200 23.34700
C  2.23500 40.53000 24.93500
N  -1.43500 34.85000 24.16800
C  -0.58000 35.63400 23.37700
C  -0.73500 35.30200 21.93600
C  -1.50500 33.88700 22.06200
C  -1.90800 33.84400 23.48700
C  -1.45900 36.41300 21.05300
C  -0.58700 32.68200 21.66400
C  0.54100 32.28400 22.63000
N  -2.48300 33.15300 26.28000
C  -3.01600 32.47400 25.22100
C  -3.80700 31.37400 25.81500
C  -3.83600 31.50300 27.24500
C  -2.94200 32.61300 27.49100
C  -4.45500 30.36400 24.91400
C  -4.28000 31.02100 28.45700
O  -5.02200 30.11400 28.68700
C  -3.69500 31.99300 29.59000
C  -4.81200 32.60900 30.32700
O  -5.28100 33.61400 29.96300
O  -5.22600 31.84000 31.40100
C  -6.18700 32.57000 32.20600
H  -0.15100 37.86200 29.52500
H  0.48900 37.29500 23.03800
H  -2.99500 31.95100 23.23500
H  -3.15300 34.64600 31.26100
H  -0.95100 36.24800 31.47700
H  -2.82200 37.22400 32.13900
H  -3.75800 36.85200 30.57000
H  -2.45100 38.01600 30.58400
H  -0.47000 34.20800 32.15000
H  -0.89100 32.86100 31.06000
H  -2.54200 32.09600 32.82700
H  -2.76000 33.79300 33.18600
H  0.55500 39.86600 28.68700
H  1.02200 40.65200 27.15400
H  2.15900 39.58800 28.04200
H  2.78400 40.50300 25.87600
H  1.32400 41.11300 25.07300
H  2.84800 41.03900 24.19100
H  0.21000 35.02500 21.46900
H  -2.43200 33.81600 21.49200
H  -0.70100 36.73900 20.34100
H  -1.56500 37.33900 21.61800
H  -2.43400 36.10600 20.67300
H  -0.08900 32.95900 20.73400
H  -1.10700 31.73900 21.49900
H  0.50300 31.21700 22.85100
H  0.66400 33.01100 23.43300
H  1.36400 32.49900 21.94900
H  -5.38100 30.85200 24.60800
H  -4.72800 29.39300 25.32800
H  -3.78800 30.32100 24.05300
H  -3.02300 31.37900 30.19000
H  -5.68600 33.45700 32.59300
H  -6.44900 31.90200 33.02700
H  -7.10200 32.77200 31.64900

