158

Mg 16.56700 -1.40900 28.18900
C  15.46300 0.46300 30.93800
C  18.64500 -3.08500 30.27600
C  17.56400 -3.06600 25.62000
C  14.65000 0.72800 26.21600
N  17.05600 -1.24400 30.38800
C  16.38900 -0.48400 31.33300
C  16.83500 -0.82200 32.79500
C  18.17700 -1.66400 32.52900
C  18.05600 -2.00100 30.96900
C  19.54600 -0.84800 32.89900
C  15.72700 -1.67200 33.42700
C  15.39900 -1.34300 34.87900
H  16.43900 -0.63200 35.72800
N  17.81500 -3.00400 27.99500
C  18.53000 -3.63800 28.98700
C  19.18400 -4.87300 28.41100
C  18.88700 -4.78300 27.03700
C  18.02500 -3.61100 26.83800
C  20.13900 -5.73800 29.24700
C  19.50700 -5.56700 25.91800
O  19.12100 -5.45500 24.76000
C  20.48300 -6.55500 26.19000
N  16.12100 -1.17700 26.14800
C  16.75900 -1.99900 25.24600
C  16.36000 -1.59600 23.81600
C  15.39400 -0.35500 24.13000
C  15.31700 -0.29000 25.57700
C  17.63800 -1.32900 22.92500
C  13.99500 -0.47300 23.49000
C  12.85300 -1.24100 24.10700
N  15.33100 0.26200 28.46100
C  14.56700 1.04200 27.59000
C  13.83700 2.08400 28.25400
C  14.10400 1.84500 29.57200
C  15.07200 0.81700 29.60700
C  12.83100 3.00900 27.70900
C  13.61700 2.16200 30.94500
O  12.75100 2.95800 31.30000
C  14.67300 1.39000 31.93200
C  15.32300 2.56200 32.63000
O  16.03700 3.33800 32.03400
O  15.11800 2.63600 33.98700
C  15.65200 3.69400 34.86000
H  19.20100 -3.73700 30.95200
H  17.76600 -3.73900 24.78400
H  14.08700 1.44500 25.61500
H  16.99600 0.07400 33.39400
H  18.22700 -2.56600 33.13800
H  19.33300 0.16700 33.23400
H  20.10200 -0.91500 31.96400
H  20.03400 -1.49400 33.63000
H  15.93400 -2.74100 33.45100
H  14.82500 -1.50600 32.83800
H  15.18800 -2.29300 35.37000
H  14.51200 -0.71500 34.96100
H  19.94500 -5.55600 30.30400
H  21.20900 -5.53600 29.22300
H  19.93600 -6.76000 28.92500
H  20.21100 -7.55700 26.52100
H  21.24700 -6.03300 26.76600
H  20.96500 -6.76400 25.23500
H  15.67700 -2.39300 23.52200
H  15.89700 0.55100 23.79400
H  18.28500 -0.58400 23.38800
H  17.15100 -0.80900 22.10000
H  18.16500 -2.20500 22.54500
H  14.12800 -0.85300 22.47800
H  13.70000 0.56900 23.36700
H  12.50200 -1.89800 23.31100
H  12.05700 -0.52900 24.32600
H  13.14700 -1.93100 24.89800
H  13.27500 4.00500 27.72700
H  11.96000 3.15900 28.34700
H  12.51300 2.74400 26.70000
H  14.20500 0.83800 32.74700
H  16.09500 3.03700 35.60900
H  14.90200 4.16300 35.49700
H  16.24600 4.50600 34.44200
Mg 54.42900 24.45100 44.39800
C  51.70000 26.46500 43.40900
C  52.76900 21.70600 43.24400
C  57.32300 22.64400 44.55400
C  56.14900 27.45100 44.98400
N  52.43200 24.14100 43.46000
C  51.50100 25.07800 43.17200
C  50.31400 24.41200 42.40600
C  50.49700 22.91600 42.82500
C  51.96000 22.89700 43.26900
C  49.55300 22.39000 43.98900
C  50.32200 24.65800 40.90000
C  48.86700 24.51700 40.28300
H  48.80400 24.24200 38.74000
N  54.94300 22.43000 44.09800
C  54.08500 21.47000 43.65500
C  54.77400 20.20400 43.62600
C  56.12500 20.49000 44.00900
C  56.17300 21.89200 44.22800
C  54.09000 18.82800 43.20600
C  57.31200 19.50900 43.87300
O  57.10500 18.34100 43.71300
C  58.71200 19.87500 43.59100
N  56.48600 24.96800 44.44700
C  57.47100 24.01600 44.58900
C  58.83100 24.74000 44.80800
C  58.43300 26.19300 45.10700
C  56.90100 26.19000 44.86300
C  59.85500 24.21800 45.82300
C  59.35000 27.25500 44.44500
C  59.83300 28.43300 45.32000
N  54.03800 26.56500 44.39500
C  54.77000 27.62400 44.73000
C  54.01400 28.83200 44.64900
C  52.75600 28.41200 44.17000
C  52.83900 27.04200 43.97800
C  54.44800 30.24900 45.18000
C  51.47300 28.88000 43.92300
O  50.89000 29.87800 44.17300
C  50.83000 27.71600 43.12000
C  50.74800 28.07400 41.67800
O  51.66500 28.46800 40.92100
O  49.44400 27.99700 41.26300
C  49.17000 28.21700 39.77700
H  52.17500 20.82800 42.98300
H  58.25600 22.08300 44.63200
H  56.79800 28.30400 45.18700
H  49.35800 24.80600 42.75300
H  50.42600 22.29300 41.93300
H  48.59000 22.89200 44.07900
H  50.09200 22.60100 44.91300
H  49.36800 21.32100 43.87600
H  50.87100 23.90300 40.33800
H  50.64300 25.69500 40.79400
H  48.45800 25.52500 40.34600
H  48.25400 23.85600 40.89600
H  54.42300 18.43100 42.24700
H  53.00200 18.83700 43.13800
H  54.44100 18.07900 43.91500
H  58.84800 20.68700 42.87700
H  59.08100 18.95200 43.14300
H  59.25500 20.09500 44.51000
H  59.35400 24.74200 43.85200
H  58.49000 26.43100 46.16900
H  59.33900 24.06400 46.77100
H  60.48400 25.07300 46.07200
H  60.41200 23.35400 45.46100
H  58.70700 27.61500 43.64200
H  60.22100 26.74100 44.03900
H  60.92000 28.49200 45.37500
H  59.45400 28.27900 46.33000
H  59.46600 29.36500 44.89200
H  53.84200 31.07800 44.81300
H  55.47100 30.54200 44.94400
H  54.43200 30.28300 46.26900
H  49.82200 27.54200 43.49500
H  48.93700 29.27300 39.91100
H  48.31400 27.62900 39.44600
H  50.06900 28.15200 39.16400

