158

Mg 49.22000 46.10200 43.72800
C  45.78400 46.63900 42.87100
C  48.94400 43.03500 42.13200
C  52.48000 45.98400 43.82300
C  49.32500 49.55100 44.66900
N  47.64900 45.05400 42.55400
C  46.30100 45.44300 42.35100
C  45.59900 44.54500 41.33300
C  46.49100 43.31300 41.32800
C  47.77500 43.80800 42.12400
C  45.96400 41.90200 41.75200
C  45.22400 45.27100 39.97700
C  43.80300 44.97700 39.40600
H  43.78600 44.76700 37.87700
N  50.51000 44.62500 43.27500
C  50.22300 43.38900 42.66900
C  51.36800 42.58200 42.51200
C  52.43300 43.44300 42.99100
C  51.87000 44.70900 43.48500
C  51.40300 41.12600 41.97500
C  53.91200 42.98200 42.96300
O  54.29500 41.96900 42.38700
C  54.98000 43.84700 43.60600
N  50.71000 47.58300 44.18400
C  52.00500 47.27500 44.11100
C  52.87900 48.46100 44.36700
C  51.85300 49.47900 44.92600
C  50.55400 48.82100 44.58700
C  54.12700 48.27300 45.16600
C  51.97700 51.03400 44.45200
C  51.72700 52.14900 45.53200
N  47.89500 47.80600 43.77900
C  48.06600 49.04400 44.30800
C  46.78700 49.69900 44.28200
C  45.87000 48.79300 43.77400
C  46.52900 47.68000 43.42900
C  46.54100 51.04100 44.84800
C  44.48300 48.67200 43.38600
O  43.47100 49.39200 43.56500
C  44.41000 47.22100 42.83300
C  43.36300 46.45300 43.56700
O  43.14500 46.59300 44.77400
O  42.75100 45.53100 42.76100
C  41.73000 44.75000 43.37700
H  48.88400 42.11100 41.55300
H  53.55700 45.96200 43.64300
H  49.39900 50.61400 44.90900
H  44.68600 44.14500 41.77500
H  46.92500 43.09500 40.35200
H  46.67100 41.48500 42.46900
H  45.77600 41.16100 40.97500
H  44.96600 42.00100 42.17900
H  45.91800 44.95000 39.19900
H  45.35900 46.33400 40.17400
H  43.19700 45.86600 39.58300
H  43.28400 44.16200 39.90900
H  51.02300 40.52000 42.79700
H  52.36300 40.73900 41.63200
H  50.73400 41.06000 41.11700
H  55.90100 43.26700 43.67400
H  54.75800 44.26300 44.58900
H  55.07300 44.72500 42.96700
H  53.21500 48.98000 43.47000
H  51.93800 49.33900 46.00300
H  54.92600 48.43300 44.44400
H  54.23400 47.28700 45.61900
H  54.22900 49.09100 45.88000
H  51.31100 51.15900 43.59800
H  52.94100 51.12300 43.95200
H  51.06400 52.78600 44.94700
H  52.58400 52.68500 45.94000
H  51.00300 51.80200 46.26900
H  46.66200 51.85300 44.13100
H  47.32600 51.20500 45.58700
H  45.62800 51.09700 45.44100
H  44.03500 47.41400 41.82800
H  42.06700 44.18400 44.24600
H  41.65100 43.90800 42.69000
H  40.76500 45.24800 43.47000
Mg -12.39100 17.58900 41.29200
C  -9.02700 16.36200 40.76200
C  -11.20700 20.83700 40.58600
C  -15.48600 18.60400 40.66300
C  -13.43800 14.17000 41.18200
N  -10.37900 18.39700 40.72500
C  -9.10800 17.76700 40.59800
C  -7.91900 18.82400 40.32800
C  -8.74900 20.18700 40.35700
C  -10.25900 19.79400 40.59000
C  -8.23600 21.33800 41.34800
C  -7.15000 18.62600 39.01000
C  -5.75100 18.06800 39.21400
H  -5.40200 16.93000 38.16400
N  -13.18700 19.43700 40.71900
C  -12.59700 20.65000 40.52400
C  -13.55500 21.64000 40.01800
C  -14.85500 20.98600 40.03600
C  -14.56800 19.62200 40.46800
C  -13.22900 23.02100 39.59700
C  -16.17500 21.60900 39.59200
O  -16.18300 22.77200 39.15500
C  -17.52300 21.01100 39.81200
N  -14.21500 16.51000 40.97000
C  -15.34700 17.21600 40.83800
C  -16.54300 16.27200 40.77800
C  -15.90800 14.87100 41.23600
C  -14.44000 15.16500 41.04500
C  -17.85600 16.62600 41.53300
C  -16.54700 13.67100 40.40500
C  -17.57800 12.76300 41.15800
N  -11.46600 15.61600 41.16000
C  -12.06900 14.32400 41.11800
C  -11.02100 13.36800 40.95800
C  -9.82600 14.17600 40.92200
C  -10.14500 15.53000 41.01000
C  -11.15300 11.89300 40.88000
C  -8.38400 13.99100 40.67600
O  -7.75500 12.95300 40.53700
C  -7.78900 15.45300 40.54900
C  -6.67100 15.60100 41.61900
O  -6.78100 16.27800 42.63500
O  -5.58700 14.84400 41.28200
C  -4.64900 14.67400 42.42600
H  -10.73900 21.80500 40.39100
H  -16.54000 18.81700 40.47300
H  -13.80200 13.14100 41.22100
H  -7.24000 18.68100 41.16800
H  -8.87100 20.61000 39.36000
H  -7.23900 21.23100 41.77600
H  -9.02000 21.33000 42.10500
H  -8.29100 22.24300 40.74400
H  -7.05900 19.60500 38.54100
H  -7.74300 17.95200 38.39100
H  -5.56600 17.66300 40.20900
H  -5.06800 18.87200 38.94100
H  -13.51300 23.27100 38.57500
H  -12.16500 23.22100 39.72100
H  -13.76200 23.66300 40.29800
H  -17.63600 20.04900 39.31200
H  -18.25500 21.67100 39.34700
H  -17.67600 20.92900 40.88900
H  -16.79200 16.00500 39.75100
H  -15.99800 14.63000 42.29500
H  -18.49100 17.12900 40.80400
H  -17.80100 17.20200 42.45700
H  -18.35700 15.67700 41.72600
H  -15.69100 13.03100 40.19200
H  -17.14000 13.86100 39.51000
H  -17.35600 12.37700 42.15300
H  -17.65200 11.93800 40.44900
H  -18.54000 13.27400 41.18000
H  -11.07400 11.52200 41.90100
H  -10.45000 11.27700 40.32000
H  -12.13800 11.60000 40.51600
H  -7.38400 15.62700 39.55200
H  -4.13100 15.62300 42.57000
H  -3.96300 13.82900 42.47300
H  -5.18900 14.50800 43.35800

