158

Mg 48.19300 16.28700 28.88000
C  45.85200 16.29300 31.50600
C  50.29100 18.07600 30.86000
C  50.30600 16.57700 26.20300
C  45.64100 15.17500 26.80400
N  48.07600 16.97200 30.95400
C  47.10200 16.71400 31.87100
C  47.58500 17.10000 33.25500
C  48.87300 18.02100 32.95400
C  49.10000 17.64300 31.48800
C  48.60000 19.53000 33.22500
C  47.93400 15.80200 34.06500
C  47.78600 15.83400 35.57500
H  47.75200 17.26100 36.14900
N  50.09000 17.11100 28.60900
C  50.71500 17.85300 29.60600
C  52.00800 18.25300 29.04500
C  52.06400 17.80100 27.71200
C  50.71200 17.16500 27.42500
C  52.99100 19.09900 29.78300
C  53.21900 17.82300 26.68900
O  53.15600 17.43000 25.52900
C  54.47600 18.57000 27.03200
N  47.90800 16.17400 26.76100
C  48.96600 16.04400 25.95100
C  48.55400 15.43400 24.64800
C  47.03500 15.06100 24.76400
C  46.80100 15.58600 26.24800
C  48.89500 16.23400 23.40100
C  46.71000 13.57900 24.49900
C  46.87000 13.16800 23.08100
N  46.14600 15.87500 29.04900
C  45.24000 15.35700 28.12100
C  44.02700 14.94900 28.72700
C  44.24100 15.26200 30.11400
C  45.48200 15.91400 30.17900
C  42.94800 14.14600 28.26300
C  43.58000 15.24700 31.41700
O  42.40200 14.89400 31.70700
C  44.66000 15.88700 32.43400
C  44.08800 17.03300 33.11000
O  43.98900 18.16200 32.66600
O  43.64400 16.60100 34.37000
C  43.15900 17.59700 35.28300
H  50.88700 18.67800 31.54900
H  50.99800 16.59800 25.35800
H  44.87800 14.82000 26.10700
H  46.83200 17.62000 33.84800
H  49.62000 17.69600 33.67800
H  47.57000 19.62700 33.56600
H  48.65400 19.90800 32.20500
H  49.42900 19.90600 33.82500
H  49.01500 15.66200 34.05200
H  47.47000 14.88100 33.71200
H  48.70300 15.39100 35.96400
H  46.93400 15.28400 35.97300
H  53.30300 19.94500 29.17100
H  53.92200 18.53200 29.79100
H  52.85800 19.42100 30.81600
H  54.29100 19.61800 27.26500
H  55.09100 18.68000 26.13900
H  54.92000 17.99200 27.84300
H  49.07700 14.49100 24.48200
H  46.33500 15.62600 24.14900
H  48.65100 15.62100 22.53400
H  49.96900 16.39000 23.29700
H  48.42200 17.21300 23.32600
H  45.66200 13.38200 24.72500
H  47.26700 12.91200 25.15700
H  46.96200 14.02800 22.41800
H  46.03900 12.57900 22.69300
H  47.72300 12.49200 23.03600
H  43.24500 13.15400 27.92300
H  42.35300 14.54900 27.44300
H  42.25200 13.79400 29.02500
H  44.87100 15.01700 33.05700
H  42.44400 18.24500 34.77600
H  43.95000 18.28900 35.57400
H  42.68100 17.10800 36.13100
Mg 6.38700 54.77500 40.79200
C  5.90300 51.30500 40.62900
C  9.56200 54.38400 39.55500
C  6.70800 58.13400 40.33800
C  3.04700 55.12100 41.92500
N  7.49000 53.04200 39.99400
C  7.15400 51.66700 40.13200
C  8.28600 50.80000 39.49300
C  9.46900 51.79900 39.29300
C  8.82700 53.16100 39.69000
C  10.77100 51.53500 40.09500
C  7.92200 50.00700 38.17900
C  6.84600 50.56000 37.17800
H  7.45000 50.79200 35.80500
N  7.96300 56.09800 40.06500
C  9.17400 55.70300 39.64700
C  10.05000 56.92400 39.52800
C  9.21500 58.05000 39.80200
C  7.85600 57.49300 40.06900
C  11.46600 56.85100 39.09200
C  9.65800 59.49200 39.80400
O  10.81200 59.68700 39.63400
C  8.68600 60.62200 39.93100
N  4.98600 56.39400 40.99200
C  5.40800 57.68200 40.74700
C  4.21200 58.65500 40.84200
C  3.13800 57.75100 41.45900
C  3.69100 56.31400 41.46400
C  4.62300 59.83000 41.78300
C  1.70000 58.06100 40.89700
C  1.15800 57.24000 39.56500
N  4.81000 53.56400 41.25100
C  3.55700 53.82500 41.77700
C  2.89900 52.55500 42.09900
C  3.74400 51.54100 41.75500
C  4.89700 52.21500 41.16100
C  1.46000 52.38700 42.53100
C  3.87900 50.10300 41.66000
O  3.11100 49.21500 42.02000
C  5.27000 49.94100 40.91200
C  4.98600 49.09500 39.73200
O  4.59500 49.60600 38.64000
O  5.44500 47.84500 39.88400
C  5.50700 46.96000 38.70300
H  10.53700 54.20500 39.09600
H  6.67400 59.19900 40.09900
H  2.08300 55.31100 42.40100
H  8.47600 50.05700 40.26700
H  9.77500 51.93200 38.25500
H  11.23900 50.63800 39.69000
H  10.44200 51.16000 41.06500
H  11.44600 52.38600 40.17900
H  7.64500 49.00100 38.49600
H  8.87000 49.79500 37.68600
H  6.38300 51.45100 37.60200
H  6.13000 49.78400 36.90800
H  11.66500 57.21400 38.08400
H  11.87400 55.84600 39.19700
H  12.09900 57.43600 39.75900
H  8.03900 60.41200 39.08000
H  9.28600 61.52900 39.84300
H  8.08100 60.52200 40.83200
H  3.81600 59.02600 39.89700
H  3.19200 58.00200 42.51800
H  3.74600 60.22400 42.29700
H  4.84700 60.66700 41.12200
H  5.45200 59.67200 42.47300
H  1.75500 59.12800 40.68300
H  0.99800 57.78100 41.68200
H  0.09200 57.04400 39.68300
H  1.81300 56.37200 39.48600
H  1.30500 57.84700 38.67100
H  1.22200 51.35400 42.78600
H  0.79900 52.70800 41.72600
H  1.24000 52.95200 43.43700
H  5.83000 49.34200 41.63000
H  6.24700 46.16100 38.74100
H  5.79500 47.48700 37.79300
H  4.52300 46.54300 38.49100

