158

Mg 0.83800 8.75900 26.83100
C  1.43500 11.01700 29.30600
C  0.65600 6.16600 29.17200
C  0.61000 6.47600 24.38700
C  1.14600 11.34100 24.47400
N  0.93300 8.60300 28.93000
C  1.19700 9.70300 29.78100
C  1.04700 9.27200 31.23100
C  1.19900 7.69300 31.14000
C  0.83900 7.48200 29.70200
C  2.61800 7.21200 31.66100
C  -0.34000 9.64300 31.84800
C  -0.55000 9.35400 33.32200
H  0.69800 9.05200 34.13700
N  0.61800 6.65400 26.75100
C  0.50800 5.76700 27.82200
C  0.19000 4.41100 27.33700
C  0.20900 4.46500 25.90500
C  0.51800 5.83100 25.62500
C  -0.02900 3.31500 28.24700
C  -0.17400 3.33100 24.86200
O  -0.25600 3.50100 23.61100
C  -0.55200 1.85900 25.30000
N  0.90400 8.91600 24.74200
C  0.70500 7.82100 23.97800
C  0.73300 8.25200 22.47600
C  0.44900 9.81300 22.56500
C  0.94200 10.06900 24.00400
C  1.99900 7.85100 21.73700
C  -1.10400 10.15900 22.50900
C  -1.52000 11.35100 21.56700
N  1.24500 10.78700 26.77600
C  1.38700 11.70600 25.80300
C  1.70300 12.97100 26.32400
C  1.82300 12.77800 27.68700
C  1.42400 11.43400 27.92100
C  1.90900 14.19000 25.41600
C  2.08700 13.38100 29.04200
O  2.42900 14.53800 29.31600
C  1.76600 12.27400 30.09700
C  2.92900 12.06000 30.97000
O  4.00200 11.46400 30.79600
O  2.61000 12.65200 32.21300
C  3.66900 12.50800 33.17900
H  0.62700 5.36500 29.91300
H  0.39400 5.92000 23.47200
H  1.08700 12.12700 23.71900
H  1.91100 9.72700 31.71500
H  0.49500 7.20000 31.81000
H  3.00800 7.69100 32.55900
H  3.36600 7.26600 30.87100
H  2.47400 6.20900 32.06400
H  -1.05000 8.96200 31.37900
H  -0.63400 10.63900 31.51700
H  -1.07900 8.40100 33.29300
H  -1.10000 10.17600 33.78000
H  -1.06600 3.23700 28.57400
H  0.57500 3.35000 29.15300
H  0.25300 2.42600 27.68200
H  0.33100 1.48600 25.81800
H  -0.71000 1.30700 24.37300
H  -1.44200 1.94200 25.92400
H  -0.14000 7.68400 22.15500
H  0.98800 10.42900 21.84400
H  2.75100 7.45500 22.41900
H  2.38900 8.71500 21.19900
H  1.69000 7.05600 21.05800
H  -1.33600 10.51000 23.51400
H  -1.68600 9.28100 22.23100
H  -2.14400 10.98900 20.75000
H  -0.70000 11.95000 21.17200
H  -2.02300 12.16300 22.09300
H  1.76200 15.12300 25.96000
H  1.12500 14.30700 24.66800
H  2.92200 14.18500 25.01300
H  0.86400 12.41000 30.69400
H  3.58400 13.15000 34.05600
H  4.59800 12.80100 32.68900
H  3.86600 11.48100 33.48600
Mg 0.45000 43.20800 26.15200
C  2.71300 43.72100 28.93400
C  -2.02000 42.31900 28.32400
C  -1.34400 42.00000 23.56100
C  3.38300 43.29900 24.07200
N  0.43800 42.91500 28.29000
C  1.38000 43.22300 29.26900
C  0.81800 43.03000 30.68700
C  -0.59000 42.39000 30.41500
C  -0.78200 42.57500 28.91000
C  -0.72800 40.88600 30.68900
C  0.71700 44.41100 31.44300
C  0.73900 44.32500 32.97100
H  0.66000 42.95500 33.68900
N  -1.49800 42.51000 25.96300
C  -2.39300 42.24900 26.95900
C  -3.71600 41.94000 26.34400
C  -3.54700 42.04900 24.95900
C  -2.08200 42.14600 24.78800
C  -4.92500 41.75200 27.21400
C  -4.55200 41.89700 23.82300
O  -4.22300 41.86500 22.66100
C  -6.03800 41.68500 24.22600
N  0.92800 42.68900 24.15200
C  -0.00300 42.11200 23.33000
C  0.67000 41.76500 21.94900
C  1.97900 42.66000 21.98100
C  2.13900 42.92200 23.48200
C  0.79400 40.21400 21.78700
C  1.88500 43.97700 21.28800
C  3.18600 44.37700 20.61100
N  2.60700 43.45400 26.42800
C  3.58000 43.64400 25.45300
C  4.75000 44.12700 26.06700
C  4.44100 44.18500 27.41600
C  3.17700 43.77500 27.63700
C  6.01700 44.40900 25.28400
C  5.01700 44.42400 28.72200
O  6.16900 44.74200 29.15700
C  3.86000 44.13200 29.75400
C  4.31000 43.05700 30.77900
O  4.25100 41.84900 30.55900
O  4.64700 43.70700 31.99200
C  4.97400 42.73300 33.07700
H  -2.85700 42.08900 28.98600
H  -1.94100 41.68600 22.70200
H  4.13300 43.48100 23.29900
H  1.51500 42.38900 31.22700
H  -1.38800 42.94000 30.91500
H  -1.66800 40.69600 31.20600
H  0.07900 40.55900 31.34500
H  -0.60900 40.23500 29.82200
H  -0.22000 44.94100 31.27000
H  1.56800 45.01100 31.12200
H  0.08300 45.08300 33.39800
H  1.71700 44.77000 33.15300
H  -5.81100 42.34400 26.98300
H  -4.73800 42.19300 28.19300
H  -5.02700 40.66900 27.15300
H  -6.70400 41.39300 23.41400
H  -6.36300 42.65500 24.60500
H  -5.98900 40.92300 25.00300
H  0.04300 42.11800 21.13100
H  2.84800 42.08200 21.66500
H  0.38700 39.79500 22.70800
H  1.80900 39.98300 21.46300
H  0.12100 40.02100 20.95200
H  1.53400 44.70400 22.02100
H  1.07200 43.89200 20.56700
H  3.96800 43.69700 20.94900
H  3.34900 45.42000 20.88200
H  3.07000 44.28300 19.53200
H  5.86400 45.35600 24.76800
H  6.05500 43.65800 24.49500
H  6.91400 44.35600 25.90100
H  3.73600 45.07200 30.29200
H  5.78300 42.04700 32.82500
H  4.04400 42.17300 33.18200
H  5.16700 43.28900 33.99400

