158

Mg 9.61400 47.65400 26.20800
C  7.58200 47.66800 29.12700
C  12.18800 48.44200 28.18600
C  11.24300 48.27100 23.47100
C  6.53600 47.51700 24.32500
N  9.80300 47.83800 28.42800
C  8.89900 47.81300 29.44700
C  9.52300 48.20200 30.85300
C  10.93000 48.71700 30.40300
C  10.99200 48.31900 28.93100
C  11.24900 50.22300 30.66200
C  9.70100 47.00600 31.85300
C  9.52600 47.29100 33.37400
H  9.71500 46.15700 34.33800
N  11.48700 47.88700 25.86800
C  12.40800 48.28200 26.82500
C  13.68800 48.39700 26.22500
C  13.49000 48.18300 24.83000
C  12.03600 48.16700 24.63200
C  14.99000 48.60500 26.93500
C  14.46200 48.07300 23.71200
O  14.22300 47.90800 22.56200
C  15.93900 48.10800 24.13000
N  8.97400 47.91100 24.18000
C  9.85800 48.11200 23.19000
C  9.22800 48.09400 21.75100
C  7.73700 47.72800 22.02800
C  7.71600 47.69700 23.59500
C  9.47600 49.41900 21.04200
C  7.42800 46.32700 21.34300
C  6.04600 46.24000 20.65700
N  7.44900 47.63300 26.59200
C  6.39100 47.53300 25.75100
C  5.14700 47.36100 26.49000
C  5.59900 47.37000 27.79100
C  6.98800 47.60300 27.82300
C  3.76600 47.46900 25.97300
C  5.05100 47.34000 29.11300
O  3.93000 47.15400 29.52800
C  6.36000 47.66800 30.04600
C  6.42300 46.81900 31.25800
O  6.67600 45.62800 31.30400
O  6.06600 47.59000 32.33300
C  5.89500 46.79500 33.59700
H  12.99600 48.91900 28.74500
H  11.75700 48.29400 22.50700
H  5.64800 47.31200 23.72300
H  8.89500 49.01600 31.21400
H  11.76200 48.19000 30.86900
H  10.44500 50.75900 31.16700
H  11.36500 50.75200 29.71600
H  12.15900 50.25400 31.26100
H  10.75200 46.71800 31.87900
H  9.20100 46.08900 31.54200
H  8.55600 47.78700 33.42000
H  10.27200 48.03200 33.66000
H  15.54900 47.67000 26.88900
H  14.93200 48.78900 28.00700
H  15.54700 49.38100 26.41000
H  16.19500 47.41700 24.93300
H  16.09000 49.11800 24.51300
H  16.52200 48.04300 23.21100
H  9.71500 47.28600 21.20500
H  6.98600 48.45200 21.71300
H  10.12400 49.35700 20.16800
H  9.89400 50.19600 21.68200
H  8.48700 49.73900 20.71200
H  7.44700 45.55200 22.10900
H  8.18800 45.96300 20.65200
H  5.35700 45.88000 21.42100
H  6.12600 45.60100 19.77700
H  5.79000 47.28100 20.46300
H  3.78600 47.67100 24.90200
H  3.28700 48.32900 26.44100
H  3.25000 46.60000 26.38000
H  6.33100 48.70700 30.37600
H  6.84500 46.27800 33.73300
H  5.24600 45.97700 33.28600
H  5.49800 47.48100 34.34500
Mg -5.93900 25.49300 26.23300
C  -4.04100 26.95500 28.82000
C  -7.23200 23.33300 28.51000
C  -7.15700 23.80500 23.59900
C  -4.21000 27.71500 24.06700
N  -5.58700 25.18100 28.41000
C  -5.06000 26.10500 29.27800
C  -5.52600 25.87500 30.72100
C  -6.29900 24.54700 30.55500
C  -6.42300 24.29600 29.07600
C  -5.89800 23.27900 31.31900
C  -6.26800 27.08200 31.35600
C  -6.82300 26.83800 32.72300
H  -6.14800 25.82200 33.62700
N  -7.13500 23.84900 26.05100
C  -7.56900 23.09600 27.12100
C  -8.36900 22.00800 26.60200
C  -8.40900 22.17300 25.18700
C  -7.53700 23.27600 24.84200
C  -9.06500 21.11500 27.53700
C  -9.25500 21.44600 24.15400
O  -9.36900 21.82700 22.97900
C  -10.18500 20.36600 24.61500
N  -5.67500 25.62300 24.13500
C  -6.22900 24.79900 23.23800
C  -5.98800 25.25300 21.77600
C  -5.21700 26.56600 21.91700
C  -5.00800 26.70900 23.50100
C  -5.39100 24.14800 20.86300
C  -5.77300 27.84400 21.24200
C  -5.05600 28.47800 20.06200
N  -4.42100 27.00600 26.36800
C  -3.80100 27.79100 25.38600
C  -2.81700 28.66500 25.94700
C  -2.84000 28.28400 27.32800
C  -3.79600 27.28500 27.49000
C  -1.98200 29.70300 25.23700
C  -2.30900 28.56100 28.63500
O  -1.45300 29.42200 28.92400
C  -3.06900 27.69700 29.65600
C  -2.15000 27.09800 30.72100
O  -1.47100 26.10800 30.55500
O  -2.27400 27.82800 31.88900
C  -1.87600 27.21600 33.11500
H  -7.68000 22.67200 29.25600
H  -7.31700 23.21100 22.69600
H  -3.75000 28.43500 23.38700
H  -4.68700 25.69400 31.39400
H  -7.31200 24.79800 30.87000
H  -5.04300 23.38700 31.98600
H  -5.57200 22.44600 30.69600
H  -6.73900 23.02600 31.96500
H  -7.10700 27.19200 30.67000
H  -5.60500 27.94800 31.37900
H  -7.86900 26.57700 32.56400
H  -6.76500 27.74400 33.32700
H  -10.07900 21.51400 27.56500
H  -8.64300 21.21700 28.53600
H  -9.09600 20.05800 27.27400
H  -10.74300 20.00800 23.75000
H  -10.98800 20.72400 25.25800
H  -9.54800 19.61600 25.08300
H  -6.95600 25.52700 21.35700
H  -4.17600 26.49500 21.60200
H  -5.53200 23.13300 21.23600
H  -4.31200 24.29800 20.84200
H  -5.86700 24.17400 19.88300
H  -5.84900 28.58200 22.04000
H  -6.77000 27.64600 20.84900
H  -4.44600 29.31700 20.39800
H  -5.82400 28.92600 19.43100
H  -4.48900 27.75700 19.47300
H  -2.03800 29.73400 24.14900
H  -0.94000 29.70300 25.55900
H  -2.33100 30.64000 25.67100
H  -3.69100 28.50300 30.04500
H  -1.27100 28.00200 33.56700
H  -1.35500 26.26300 33.03000
H  -2.74600 27.17900 33.77100

