158

Mg 17.52500 -2.98500 28.75600
C  16.38400 -0.59100 30.94600
C  19.24900 -4.52700 31.28900
C  18.98500 -5.14100 26.50800
C  16.15900 -1.17800 26.05700
N  17.78300 -2.48300 30.84800
C  17.23400 -1.48300 31.62800
C  17.49000 -1.62100 33.13300
C  18.61800 -2.74300 33.07800
C  18.53600 -3.34600 31.63000
C  20.00300 -2.07800 33.44900
C  16.25400 -1.99200 34.02400
C  16.33900 -1.30700 35.39200
H  17.71300 -0.60600 35.74600
N  18.86200 -4.71600 28.88600
C  19.46400 -5.10600 30.03600
C  20.26600 -6.34800 29.77700
C  20.19100 -6.50400 28.32900
C  19.32800 -5.41700 27.84700
C  20.81600 -7.22900 30.84300
C  20.75700 -7.57600 27.45200
O  20.48400 -7.77200 26.23400
C  21.74400 -8.57300 28.06700
N  17.66600 -3.07100 26.64400
C  18.31900 -4.04500 25.91100
C  18.02500 -3.92100 24.46800
C  17.25500 -2.58500 24.29200
C  16.89200 -2.33600 25.71500
C  19.29600 -4.05300 23.40800
C  16.05700 -2.58900 23.28700
C  16.26900 -1.60000 22.02100
N  16.41200 -1.29600 28.46600
C  15.91800 -0.67100 27.37200
C  15.08700 0.45400 27.77800
C  15.21400 0.54800 29.14700
C  16.04900 -0.53300 29.52400
C  14.17800 1.31500 26.92600
C  14.83400 1.28500 30.35100
O  14.09000 2.25900 30.50600
C  15.66300 0.60600 31.59600
C  16.64000 1.56200 32.05100
O  17.75100 1.71800 31.59600
O  15.95400 2.35100 32.92900
C  16.74800 3.58100 33.29700
H  19.83200 -4.98000 32.09300
H  19.28500 -5.81000 25.69800
H  15.79200 -0.57000 25.22700
H  17.92700 -0.65900 33.40100
H  18.43400 -3.57500 33.75700
H  19.99100 -1.20100 34.09700
H  20.34700 -1.61800 32.52200
H  20.68700 -2.80100 33.89400
H  16.11900 -3.06500 34.15700
H  15.44900 -1.57400 33.42000
H  15.97800 -1.86300 36.25700
H  15.60600 -0.51800 35.22100
H  20.60500 -8.25100 30.52700
H  20.44500 -7.03200 31.84900
H  21.87500 -7.05100 31.03000
H  21.23800 -9.40200 28.56200
H  22.37500 -7.94800 28.69800
H  22.27600 -8.91300 27.17800
H  17.30700 -4.72300 24.29500
H  18.07900 -1.91100 24.05400
H  19.56000 -3.11600 22.91800
H  19.22100 -4.80300 22.62000
H  20.20200 -4.42000 23.89000
H  15.09900 -2.42300 23.78100
H  15.94700 -3.57800 22.84300
H  15.86300 -2.07100 21.12600
H  17.32000 -1.32400 21.94200
H  15.64900 -0.70400 22.05900
H  14.42600 2.37600 26.94500
H  13.11700 1.22700 27.16100
H  14.25400 0.99700 25.88600
H  14.95800 0.18200 32.31100
H  17.00600 4.16300 32.41300
H  17.59600 3.32800 33.93500
H  16.26300 4.26400 33.99400
Mg 35.20600 1.82500 28.79500
C  33.43500 3.27100 31.45300
C  37.94100 1.63200 30.76000
C  36.85100 0.98800 26.00500
C  32.36700 2.57100 26.71900
N  35.56800 2.38700 30.80700
C  34.66800 2.78500 31.79700
C  35.37600 2.81600 33.18200
C  36.81800 2.67000 32.86900
C  36.82600 2.24200 31.40200
C  37.72900 3.92700 33.40200
C  34.80700 1.72000 34.10300
C  34.72000 1.98900 35.69200
H  35.24600 3.35300 36.24100
N  37.09200 1.28800 28.50700
C  38.08300 1.25100 29.39700
C  39.32000 0.84200 28.73000
C  38.94300 0.45500 27.39000
C  37.56800 0.83500 27.26900
C  40.65000 0.81100 29.48000
C  39.86000 -0.10000 26.26400
O  39.43600 -0.31400 25.09900
C  41.25800 -0.38100 26.58300
N  34.58600 1.78500 26.58900
C  35.52100 1.34300 25.75000
C  34.84600 1.17400 24.35300
C  33.31100 1.43600 24.64200
C  33.37800 1.89900 26.03100
C  35.48100 2.14500 23.31900
C  32.50900 0.08700 24.52900
C  32.07300 -0.34600 23.09800
N  33.27200 2.71600 29.02800
C  32.31300 2.94900 28.07200
C  31.13300 3.57900 28.78300
C  31.50000 3.62600 30.16200
C  32.81000 3.18000 30.19400
C  29.84300 4.01800 28.18000
C  31.01500 3.99500 31.44600
O  29.94600 4.41800 31.83900
C  32.32900 3.80900 32.35200
C  32.71700 4.95900 33.15900
O  33.42100 5.84200 32.78200
O  31.98500 4.98600 34.31500
C  32.18800 6.12500 35.33100
H  38.82300 1.53600 31.39700
H  37.29700 0.70600 25.04800
H  31.37500 2.60700 26.26300
H  35.17800 3.81400 33.57300
H  37.28200 1.85800 33.42900
H  37.20700 4.51900 34.15400
H  38.09000 4.55000 32.58300
H  38.69100 3.59000 33.78900
H  35.43200 0.83100 34.01400
H  33.78500 1.47900 33.81200
H  35.29600 1.30200 36.31200
H  33.68300 1.82500 35.98500
H  41.26900 -0.02200 29.14700
H  40.61300 0.63200 30.55400
H  41.09100 1.78100 29.24600
H  41.82100 -0.41300 25.65000
H  41.32700 -1.26100 27.22200
H  41.65800 0.43900 27.17900
H  35.13200 0.15400 24.09800
H  32.84800 2.09600 23.90900
H  36.31100 2.77100 23.64500
H  34.77400 2.85900 22.89800
H  35.70900 1.59500 22.40600
H  31.68500 0.18900 25.23400
H  33.11200 -0.68000 25.01500
H  30.98400 -0.34200 23.14900
H  32.40800 -1.36100 22.88600
H  32.44100 0.25700 22.26800
H  29.94600 4.42200 27.17300
H  29.40800 4.68100 28.92800
H  29.18700 3.16600 28.00100
H  31.98900 3.09500 33.10300
H  32.94000 6.86100 35.04800
H  32.62900 5.74400 36.25200
H  31.27300 6.67000 35.56600

