158

Mg -11.87500 38.95200 41.82200
C  -9.92100 35.98000 41.28600
C  -9.58900 40.59900 39.68300
C  -13.92900 41.43600 41.63800
C  -14.40200 36.88900 43.22200
N  -10.03800 38.27900 40.59900
C  -9.43900 37.08100 40.55300
C  -8.18300 37.02500 39.66100
C  -8.03600 38.54400 39.18800
C  -9.27700 39.19100 39.86700
C  -6.71900 39.44800 39.34800
C  -8.40300 35.99100 38.49600
C  -7.42900 34.75600 38.42400
H  -6.29200 34.83600 37.32900
N  -11.61800 40.93200 41.05200
C  -10.62900 41.42900 40.23500
C  -10.84000 42.88600 40.21000
C  -12.07900 43.14800 40.85000
C  -12.59400 41.79400 41.17700
C  -9.86800 43.88500 39.55600
C  -12.74200 44.49400 41.05000
O  -12.18000 45.48900 40.55100
C  -14.01100 44.73900 41.67800
N  -13.93100 39.10900 42.18800
C  -14.58000 40.31000 42.07400
C  -15.97800 40.33100 42.68700
C  -16.09500 38.92200 43.26900
C  -14.72000 38.21000 42.84100
C  -16.46600 41.54400 43.59200
C  -17.41300 38.09900 42.88200
C  -18.21400 37.35100 43.98100
N  -12.12900 36.88200 42.27500
C  -13.15500 36.24300 42.91900
C  -12.73300 34.90500 43.21800
C  -11.44700 34.78900 42.61200
C  -11.14300 35.98500 42.02400
C  -13.49500 33.94600 44.13600
C  -10.40200 33.84900 42.35500
O  -10.21700 32.67200 42.65300
C  -9.28600 34.59700 41.43800
C  -7.94900 34.60100 42.09800
O  -7.04500 33.77700 42.04100
O  -7.77400 35.75200 42.85100
C  -6.48600 36.05500 43.47200
H  -8.85600 41.07500 39.02900
H  -14.59400 42.30200 41.65400
H  -15.09300 36.32100 43.84900
H  -7.36000 36.81100 40.34200
H  -8.33400 38.70100 38.15200
H  -5.83300 38.82300 39.23900
H  -6.70100 39.90200 40.33800
H  -6.64000 40.24400 38.60800
H  -8.32500 36.45000 37.51000
H  -9.37100 35.51200 38.64500
H  -8.01400 33.86400 38.19900
H  -7.06000 34.51800 39.42100
H  -9.36300 44.52700 40.27700
H  -10.51800 44.48800 38.92300
H  -9.18400 43.37000 38.88100
H  -14.71400 44.44500 40.89900
H  -14.27700 45.78900 41.79900
H  -13.97400 44.18600 42.61700
H  -16.63600 40.39600 41.82000
H  -16.13400 39.04400 44.35100
H  -17.20700 41.10400 44.26000
H  -16.88800 42.36600 43.01400
H  -15.60700 41.84400 44.19200
H  -17.33000 37.34300 42.10200
H  -18.07400 38.85700 42.46000
H  -19.10000 37.98100 44.07000
H  -17.72800 37.42900 44.95400
H  -18.31500 36.30200 43.70300
H  -13.31300 32.93300 43.77700
H  -14.56900 34.08700 44.01300
H  -13.25700 34.06900 45.19300
H  -9.25900 34.16400 40.43800
H  -6.42900 36.95600 44.08300
H  -5.85400 36.01100 42.58500
H  -6.35300 35.12500 44.02500
Mg 0.97700 42.17600 25.97100
C  2.12000 42.31700 29.32000
C  -1.99600 41.18300 27.05000
C  0.19600 41.54700 22.78800
C  4.26300 42.98100 24.92400
N  0.24400 41.77100 27.98100
C  0.77400 42.01400 29.19900
C  -0.27300 41.88300 30.28200
C  -1.56100 41.34900 29.63500
C  -1.13100 41.45000 28.11800
C  -1.88200 39.87500 30.02900
C  -0.39700 43.27700 30.93500
C  -0.42900 43.29500 32.52800
H  -0.54400 41.90800 33.29900
N  -0.69200 41.43500 25.01000
C  -1.81100 41.04100 25.66100
C  -2.80700 40.66100 24.73100
C  -2.20200 40.87400 23.41700
C  -0.82800 41.35700 23.72400
C  -4.21800 40.22300 25.11200
C  -2.68800 40.57100 22.00800
O  -2.12600 40.93300 20.96900
C  -4.02900 39.79400 21.81400
N  2.13500 42.31300 24.15600
C  1.51600 42.03300 22.96400
C  2.46100 42.08700 21.76900
C  3.73200 42.74500 22.36000
C  3.38300 42.69900 23.88400
C  2.79800 40.70900 21.16500
C  3.90900 44.22100 21.95900
C  4.03200 44.57200 20.52200
N  2.82700 42.60500 26.90500
C  4.03800 42.99300 26.35400
C  5.00000 43.19000 27.42400
C  4.23300 43.03700 28.61600
C  2.98100 42.60100 28.22700
C  6.46600 43.54100 27.26000
C  4.29600 43.22900 30.04300
O  5.13900 43.64200 30.78400
C  2.92700 42.62000 30.54600
C  3.26700 41.35300 31.34600
O  3.16800 40.18300 30.98900
O  3.41000 41.67300 32.66900
C  3.25700 40.78400 33.83400
H  -3.01700 41.00900 27.39700
H  0.00500 41.25100 21.75400
H  5.28800 43.21900 24.63300
H  0.11800 41.13800 30.97500
H  -2.34300 42.05900 29.90800
H  -2.08100 39.35400 29.09200
H  -2.73500 39.82500 30.70500
H  -1.06500 39.33900 30.51300
H  -1.25500 43.79000 30.49900
H  0.45200 43.92300 30.71000
H  -1.31500 43.82400 32.87800
H  0.46800 43.76200 32.93400
H  -4.58800 39.34700 24.58000
H  -4.85100 41.08200 24.88900
H  -4.23200 39.95700 26.16900
H  -3.75700 38.75700 22.01300
H  -4.17500 40.05600 20.76600
H  -4.76900 40.31700 22.42000
H  2.09900 42.75200 20.98500
H  4.56600 42.07400 22.15300
H  2.25200 40.60900 20.22700
H  2.49600 39.83000 21.73500
H  3.85900 40.64900 20.92400
H  4.58100 44.74100 22.64100
H  2.94000 44.62100 22.25800
H  3.12800 45.12300 20.26100
H  4.28000 43.69900 19.91800
H  4.89900 45.22400 20.41000
H  7.03300 42.61100 27.22500
H  6.74500 44.11800 28.14200
H  6.52900 44.09100 26.32100
H  2.47700 43.42200 31.13200
H  2.73600 39.87200 33.54400
H  2.71800 41.26800 34.64800
H  4.20400 40.53000 34.31000

