158

Mg 47.46300 15.84800 27.78100
C  45.41800 16.13800 30.67500
C  49.78800 17.74300 29.45200
C  49.04500 16.03300 24.94200
C  44.63500 14.55400 26.13100
N  47.55400 16.87400 29.77900
C  46.73100 16.68200 30.82300
C  47.33700 17.26600 32.14200
C  48.54400 18.02800 31.60900
C  48.66500 17.56900 30.20900
C  48.57900 19.55300 31.89500
C  47.64100 16.24500 33.18100
C  47.34800 16.58100 34.61700
H  46.90400 18.02500 34.87100
N  49.28200 16.51800 27.34600
C  50.14900 17.27000 28.15100
C  51.37800 17.40100 27.45100
C  51.22300 16.90600 26.07900
C  49.82500 16.42400 26.06300
C  52.65400 17.96100 27.96200
C  52.20300 16.73100 24.89200
O  51.83100 16.20700 23.81900
C  53.52600 17.40600 24.85900
N  47.01300 15.11200 25.77200
C  47.82800 15.42700 24.79200
C  47.08900 15.27600 23.43200
C  45.84000 14.39600 23.80400
C  45.74800 14.69900 25.34600
C  46.52000 16.71800 22.89600
C  46.10100 12.89100 23.61600
C  45.17600 12.18200 22.56900
N  45.42300 15.35900 28.23800
C  44.44500 14.85600 27.45400
C  43.24200 14.62800 28.24300
C  43.62000 15.01600 29.53600
C  44.89900 15.56300 29.44900
C  41.97400 14.08200 27.70900
C  43.18100 15.10700 30.86900
O  42.23100 14.60600 31.47200
C  44.25700 15.91600 31.68700
C  43.67400 17.14600 32.19700
O  43.67300 18.27600 31.63000
O  43.19900 16.91700 33.44400
C  42.60900 18.06600 34.03600
H  50.57000 18.31600 29.95500
H  49.56900 16.09400 23.98600
H  43.93900 14.02400 25.47600
H  46.59900 17.96000 32.54600
H  49.46500 17.73000 32.11000
H  49.27100 19.68200 32.72700
H  47.60600 19.83700 32.29700
H  48.88700 20.10100 31.00600
H  48.67100 15.92500 33.02500
H  47.00100 15.40300 32.92100
H  48.11900 16.32400 35.34300
H  46.42100 16.05400 34.84300
H  53.47400 17.26600 27.77900
H  52.50200 18.00000 29.04100
H  52.79800 18.98600 27.62200
H  54.25500 16.91600 25.50500
H  53.39200 18.48500 24.92800
H  53.95500 17.30300 23.86300
H  47.77400 14.83100 22.71000
H  44.95900 14.70500 23.24000
H  46.87400 17.51700 23.54700
H  45.43600 16.79100 22.98500
H  46.85500 16.98400 21.89400
H  45.94000 12.36400 24.55700
H  47.11500 12.80700 23.22500
H  44.46300 12.88900 22.14500
H  44.71900 11.36500 23.12700
H  45.60800 11.75500 21.66400
H  41.83700 13.04600 28.01800
H  41.95800 14.05800 26.61900
H  41.21200 14.70200 28.18100
H  44.65700 15.34200 32.52300
H  41.57100 18.09700 33.70800
H  43.07700 19.01200 33.76400
H  42.59100 18.02700 35.12500
Mg 17.33700 52.97000 26.08400
C  19.36700 51.66700 28.68700
C  14.91800 53.68500 28.46700
C  15.38300 54.08500 23.65000
C  19.53400 51.55200 23.80200
N  17.15200 52.63000 28.30200
C  18.16000 52.20500 29.14100
C  17.72700 52.33400 30.67700
C  16.22000 52.60500 30.44700
C  16.06400 53.05200 28.96100
C  15.16900 51.49800 30.75000
C  18.56500 53.45900 31.41300
C  19.07700 53.13900 32.85200
H  18.10200 52.40400 33.71100
N  15.45400 53.74700 26.09900
C  14.68400 54.10800 27.15600
C  13.51200 54.90100 26.76400
C  13.52100 54.82200 25.34600
C  14.86900 54.31600 24.95500
C  12.50900 55.55900 27.77400
C  12.38600 55.26200 24.34200
O  12.41200 55.21500 23.13200
C  11.12400 55.69200 24.93100
N  17.38700 52.75600 24.00900
C  16.46400 53.34300 23.20900
C  16.85800 53.37800 21.75600
C  18.17700 52.45500 21.75300
C  18.39800 52.22300 23.31000
C  15.75600 52.75800 20.82100
C  19.36800 53.13900 20.97600
C  20.31400 53.92500 21.75300
N  19.18100 51.91400 26.11600
C  19.98800 51.42100 25.12100
C  21.14300 50.86500 25.65900
C  20.99700 50.89100 27.09000
C  19.79100 51.52700 27.29600
C  22.22300 50.41500 24.79400
C  21.56000 50.56800 28.38400
O  22.61900 50.10100 28.72500
C  20.50300 51.03100 29.43000
C  20.00400 49.82500 30.17700
O  19.26800 49.04400 29.75700
O  20.43900 49.76900 31.52500
C  19.63300 48.96500 32.36600
H  14.20300 53.99200 29.23300
H  14.80900 54.54100 22.84100
H  20.19700 51.21000 23.00400
H  17.97000 51.39500 31.17500
H  15.93900 53.40600 31.13000
H  14.20700 51.91400 31.05000
H  15.60400 50.83900 31.50100
H  14.92700 50.95400 29.83700
H  18.03200 54.40300 31.52500
H  19.48200 53.57200 30.83400
H  19.28800 54.07500 33.37100
H  20.01900 52.59100 32.82400
H  11.53700 55.90600 27.42400
H  13.10600 56.42400 28.06500
H  12.31800 55.02700 28.70600
H  10.80600 54.90700 25.61700
H  10.40300 55.89200 24.13900
H  11.17200 56.62100 25.49900
H  17.13600 54.36200 21.37700
H  17.95000 51.49200 21.29400
H  15.48000 53.51100 20.08300
H  14.93000 52.47000 21.47300
H  16.13300 51.90300 20.26100
H  19.03900 53.82500 20.19500
H  19.94200 52.31600 20.54900
H  20.44100 54.92800 21.34500
H  21.34600 53.61300 21.59500
H  20.09800 54.11300 22.80400
H  22.34000 50.97800 23.86800
H  21.97800 49.38800 24.52100
H  23.16200 50.44800 25.34500
H  20.89200 51.71400 30.18400
H  19.93100 47.97100 32.03300
H  18.56000 49.00900 32.17700
H  19.77700 49.10800 33.43700

