158

Mg 47.11900 34.98600 26.70500
C  45.43200 33.29100 29.38300
C  47.59800 37.52600 28.89100
C  48.90700 36.50400 24.28100
C  46.60100 32.19700 24.72900
N  46.62400 35.23400 28.90600
C  46.04900 34.41100 29.79600
C  46.05300 34.89000 31.22500
C  46.46600 36.35200 30.91100
C  46.90600 36.40600 29.44800
C  45.36300 37.40200 31.11700
C  47.13300 34.14500 32.14800
C  46.67500 33.93600 33.60000
H  47.52700 34.68700 34.68300
N  48.03500 36.79100 26.54200
C  48.03400 37.76300 27.56500
C  48.80000 38.91800 27.09400
C  49.25600 38.60000 25.79700
C  48.72900 37.24500 25.44600
C  49.14000 40.15100 27.97700
C  50.23800 39.33500 24.80500
O  50.52100 38.88800 23.68300
C  50.84700 40.70100 25.14400
N  47.55900 34.46500 24.84800
C  48.37400 35.22400 24.06200
C  48.49700 34.62500 22.60600
C  47.55800 33.32500 22.69500
C  47.29200 33.27700 24.16800
C  48.08000 35.52400 21.42600
C  48.12000 32.10500 21.98600
C  49.28900 31.33100 22.72300
N  46.18300 33.12500 26.94900
C  46.06700 32.12600 26.00700
C  45.29500 30.97400 26.59100
C  44.97100 31.45600 27.88100
C  45.56100 32.76800 28.08100
C  44.95600 29.67000 25.98600
C  44.26300 31.09900 29.11400
O  43.73900 30.03600 29.42800
C  44.43600 32.33700 30.06000
C  44.66400 31.86400 31.46800
O  45.64800 31.29100 31.89300
O  43.59700 32.25600 32.26700
C  43.67500 31.86500 33.65200
H  47.71200 38.43400 29.48600
H  49.41700 36.93200 23.41500
H  46.25300 31.40000 24.06900
H  45.03800 34.74600 31.59600
H  47.20200 36.62300 31.66900
H  44.52800 36.84500 31.54200
H  44.85000 37.74100 30.21700
H  45.66100 38.28300 31.68600
H  48.10600 34.63600 32.13500
H  47.24600 33.09500 31.87700
H  46.67900 32.87300 33.84300
H  45.65000 34.30500 33.58000
H  50.16000 39.95300 28.30700
H  48.48800 40.23700 28.84600
H  49.19300 41.04600 27.35700
H  50.16600 41.54400 25.03300
H  51.64500 40.92200 24.43500
H  51.40300 40.63000 26.08000
H  49.51900 34.29200 22.42200
H  46.53700 33.36900 22.31500
H  47.57100 36.30100 21.99600
H  47.32000 35.06200 20.79600
H  48.96400 35.81300 20.85900
H  48.57600 32.48000 21.07000
H  47.26600 31.46500 21.76600
H  50.00200 31.11900 21.92700
H  48.81400 30.41500 23.07600
H  49.70000 32.02300 23.45800
H  45.13300 28.85700 26.69000
H  45.51600 29.43500 25.08200
H  43.88100 29.64300 25.80600
H  43.48300 32.86000 30.13600
H  44.39600 31.07000 33.84300
H  42.70400 31.52700 34.01500
H  43.98300 32.72300 34.24900
Mg 6.79600 53.35600 40.86800
C  6.60800 49.76700 40.39400
C  10.09200 53.11700 40.35700
C  6.89900 56.77200 40.79400
C  3.30300 53.37100 41.05200
N  8.18400 51.60900 40.40600
C  7.92600 50.25600 40.29300
C  9.16400 49.49000 39.84700
C  10.30200 50.59800 40.16600
C  9.46500 51.86500 40.30600
C  11.09000 50.45800 41.47200
C  9.15500 48.82200 38.48500
C  8.73100 49.75200 37.30700
H  7.34100 49.54700 36.71500
N  8.26900 54.71700 40.57400
C  9.59500 54.38600 40.34700
C  10.39100 55.63000 40.10700
C  9.45100 56.75200 40.19500
C  8.12500 56.11300 40.54400
C  11.78900 55.56700 39.60400
C  9.77800 58.23300 39.98200
O  10.91900 58.51400 39.84500
C  8.74400 59.35000 40.13900
N  5.27100 54.86700 40.66700
C  5.56700 56.21700 40.84400
C  4.23700 57.02300 41.30700
C  3.14800 55.88800 41.19900
C  3.95400 54.58800 40.95600
C  4.37400 57.57800 42.73500
C  2.02600 56.24600 40.15900
C  1.08800 57.44800 40.55600
N  5.23200 51.88500 40.71900
C  3.90300 52.11700 40.89600
C  3.28800 50.85000 40.86900
C  4.27900 49.94600 40.84800
C  5.48600 50.56800 40.60500
C  1.85100 50.47300 41.19200
C  4.55000 48.49700 41.01900
O  3.84000 47.54600 41.24700
C  6.00600 48.34400 40.72700
C  6.07600 47.35800 39.59700
O  5.86800 47.62400 38.40900
O  6.43200 46.14600 40.06700
C  6.45400 45.03900 39.09200
H  11.18400 53.10800 40.36900
H  6.89300 57.84300 41.01200
H  2.21900 53.44500 41.16800
H  9.31100 48.69300 40.57500
H  10.86900 50.64000 39.23600
H  10.87400 51.24400 42.19700
H  12.08700 50.66500 41.08400
H  11.08400 49.47800 41.94800
H  8.39300 48.05000 38.58200
H  10.19300 48.52900 38.32500
H  9.46700 49.79200 36.50400
H  8.77700 50.79800 37.60900
H  12.35900 54.69900 39.93400
H  12.33800 56.47400 39.85800
H  11.78700 55.56100 38.51400
H  8.03500 59.17900 39.32900
H  9.33200 60.25300 39.97700
H  8.26800 59.33200 41.11900
H  4.02500 57.76900 40.54000
H  2.63700 55.79500 42.15800
H  5.39500 57.58800 43.11600
H  3.86900 56.97300 43.48700
H  4.03800 58.61200 42.80300
H  1.43600 55.33300 40.07900
H  2.49900 56.35800 39.18300
H  1.56600 57.75200 41.48700
H  0.11900 57.01400 40.80500
H  1.05800 58.25200 39.82100
H  1.36700 50.32800 40.22600
H  1.37000 51.28800 41.73400
H  1.70000 49.50500 41.66900
H  6.56900 47.85200 41.52000
H  5.41700 44.92200 38.77600
H  6.73800 44.12700 39.61700
H  7.22300 45.14500 38.32700

