158

Mg -2.36100 16.33900 26.86400
C  -2.96600 14.15800 29.45900
C  -2.35100 18.89500 29.07300
C  -2.05000 18.40400 24.21000
C  -2.76200 13.60700 24.58700
N  -2.57900 16.43800 29.04100
C  -2.69700 15.39200 29.91700
C  -2.62700 15.94800 31.37400
C  -2.83600 17.51600 31.18100
C  -2.59800 17.67800 29.66200
C  -4.15500 18.07600 31.61200
C  -1.35700 15.53000 32.11000
C  -0.88400 16.22400 33.39100
H  -0.50300 15.43100 34.58400
N  -2.20200 18.47800 26.70800
C  -2.24200 19.30300 27.73800
C  -1.96500 20.69200 27.22700
C  -1.70900 20.59400 25.86100
C  -1.99000 19.10200 25.52400
C  -1.99700 21.93100 28.10600
C  -1.31700 21.54500 24.79400
O  -1.23500 21.22200 23.62400
C  -0.85300 22.88800 25.18100
N  -2.52700 16.04800 24.71000
C  -2.21800 17.07200 23.81300
C  -2.25400 16.62900 22.38000
C  -2.29200 15.09400 22.56300
C  -2.55600 14.89000 24.03200
C  -3.43500 17.08600 21.49700
C  -1.16600 14.32000 21.87400
C  0.32300 14.43800 22.39400
N  -2.79100 14.31900 26.98600
C  -2.84500 13.36200 25.99500
C  -2.98000 12.06100 26.57000
C  -3.07500 12.30800 27.95000
C  -2.92800 13.73300 28.13100
C  -3.18000 10.77000 25.87800
C  -3.21800 11.63700 29.22300
O  -3.27300 10.44000 29.49300
C  -3.16700 12.90300 30.31000
C  -2.09500 12.42300 31.21800
O  -0.92700 12.72900 31.12300
O  -2.69800 11.66400 32.16800
C  -1.82400 11.24100 33.27100
H  -2.45300 19.69400 29.81100
H  -1.96500 19.04300 23.32900
H  -2.64300 12.78100 23.88200
H  -3.42600 15.54200 31.99400
H  -2.02100 18.17000 31.49300
H  -4.91000 17.29900 31.49100
H  -4.36000 19.03200 31.13000
H  -4.09200 18.32000 32.67200
H  -0.54800 15.40100 31.39100
H  -1.60100 14.52700 32.46100
H  -1.71800 16.77900 33.82100
H  -0.16600 16.96700 33.04300
H  -0.93900 22.18900 28.15900
H  -2.49300 21.70600 29.05000
H  -2.56700 22.65600 27.52500
H  -1.48600 23.53200 25.79100
H  -0.56700 23.52500 24.34500
H  0.04600 22.64900 25.74900
H  -1.38400 17.10400 21.92800
H  -3.14400 14.64800 22.05000
H  -4.27700 16.39400 21.47200
H  -3.22600 17.64200 20.58300
H  -3.83500 17.90600 22.09400
H  -1.03100 14.60000 20.82900
H  -1.48100 13.27900 21.94200
H  0.47600 15.41400 22.85400
H  0.81100 14.46800 21.42000
H  0.74700 13.64900 23.01500
H  -3.15400 10.92900 24.80000
H  -4.12300 10.49600 26.35100
H  -2.55000 10.03800 26.38400
H  -4.07000 12.97800 30.91600
H  -1.42100 10.25600 33.03500
H  -2.49700 11.15100 34.12400
H  -1.05700 11.98100 33.50000
Mg -11.35600 15.79900 42.09500
C  -8.30900 14.11000 41.39200
C  -10.07800 18.55700 40.22300
C  -14.54100 17.15400 41.98200
C  -12.67000 12.81400 43.03800
N  -9.39800 16.32200 41.03100
C  -8.30300 15.41900 40.91700
C  -7.07600 16.08500 40.16200
C  -7.63800 17.55300 39.94800
C  -9.11100 17.51800 40.43000
C  -6.91100 18.69900 40.69400
C  -6.72900 15.33700 38.81400
C  -5.40200 14.64000 38.69100
H  -4.46200 15.30700 37.68200
N  -12.11000 17.78100 41.46600
C  -11.38900 18.66500 40.62100
C  -12.31700 19.79400 40.33500
C  -13.59300 19.42100 40.96800
C  -13.44900 18.02500 41.47800
C  -11.96000 21.10400 39.63300
C  -14.75500 20.37300 40.99500
O  -14.80200 21.50600 40.36900
C  -15.97700 19.95300 41.72700
N  -13.27700 15.10500 42.22400
C  -14.44100 15.83800 42.34600
C  -15.62700 14.98000 42.52500
C  -15.03000 13.66700 43.01500
C  -13.50800 13.87800 42.75900
C  -16.92700 15.44800 43.32200
C  -15.56600 12.29700 42.28900
C  -16.29700 11.30900 43.25000
N  -10.62900 13.87100 42.42600
C  -11.29300 12.80400 42.90900
C  -10.38600 11.65100 43.06100
C  -9.15500 12.11500 42.52100
C  -9.42800 13.49400 42.13900
C  -10.69300 10.33300 43.63000
C  -7.86700 11.76800 42.06700
O  -7.41600 10.62700 41.83400
C  -7.22900 13.05100 41.47200
C  -6.21000 13.52000 42.46900
O  -6.35100 13.79600 43.63400
O  -4.95700 13.62400 41.83500
C  -3.75100 13.96800 42.65500
H  -9.64000 19.41800 39.71400
H  -15.55300 17.54500 41.85600
H  -13.12900 11.89300 43.40200
H  -6.20000 16.11500 40.81000
H  -7.61700 17.71200 38.87000
H  -6.89700 19.60300 40.08500
H  -5.86200 18.43100 40.82300
H  -7.37100 18.91400 41.65800
H  -6.66700 16.00300 37.95300
H  -7.56600 14.65200 38.68100
H  -5.60300 13.65300 38.27600
H  -5.01100 14.61000 39.70800
H  -11.17800 20.95300 38.88900
H  -11.77400 21.90300 40.35100
H  -12.79000 21.46000 39.02200
H  -15.78600 19.53200 42.71400
H  -16.54400 19.30700 41.05700
H  -16.53300 20.88600 41.81600
H  -16.01600 14.83900 41.51700
H  -15.10700 13.51900 44.09200
H  -16.94600 15.00300 44.31700
H  -17.81500 15.16000 42.76100
H  -16.99200 16.53300 43.40300
H  -14.71200 11.77400 41.85800
H  -16.31300 12.50800 41.52400
H  -17.28200 11.03900 42.86800
H  -16.38200 11.75400 44.24100
H  -15.67400 10.41500 43.26000
H  -9.83200 9.72600 43.91100
H  -11.28600 9.88900 42.83100
H  -11.25500 10.35100 44.56300
H  -6.63600 12.88000 40.57300
H  -4.00000 14.46300 43.59300
H  -3.17300 14.62700 42.00800
H  -3.14500 13.07900 42.83000

