158

Mg 43.06100 41.57500 27.34200
C  42.23000 43.81300 29.77400
C  43.71400 39.19100 29.80800
C  44.40100 39.44100 24.93400
C  42.78600 44.06700 24.97200
N  43.09500 41.50400 29.55900
C  42.55800 42.53000 30.29400
C  42.42600 42.05800 31.78200
C  43.26000 40.76200 31.81100
C  43.42300 40.46500 30.28900
C  44.72800 41.04100 32.46600
C  40.90400 41.86600 32.11600
C  40.33900 42.76400 33.27100
H  39.80500 42.26500 34.66100
N  43.87000 39.59600 27.36000
C  43.95300 38.81000 28.47100
C  44.43800 37.51800 27.99600
C  44.64700 37.49200 26.61000
C  44.29100 38.89300 26.24800
C  44.74700 36.38800 28.93300
C  45.08800 36.32300 25.73100
O  45.36400 36.53200 24.55200
C  45.16400 34.93600 26.15900
N  43.31000 41.69800 25.26100
C  43.96800 40.69700 24.44700
C  44.05800 41.14400 22.96300
C  43.30000 42.49600 23.02500
C  43.05500 42.79100 24.53700
C  45.49200 41.14400 22.32100
C  42.00600 42.49500 22.17000
C  40.75400 41.66600 22.56500
N  42.60400 43.53900 27.34100
C  42.48700 44.43400 26.28600
C  41.98700 45.72400 26.76800
C  41.81400 45.56200 28.15300
C  42.30500 44.22300 28.43200
C  41.78500 46.99700 25.94400
C  41.42900 46.09500 29.40800
O  40.99000 47.18200 29.73300
C  41.67000 44.98900 30.48300
C  42.64800 45.52300 31.57100
O  43.88200 45.75100 31.59700
O  41.92000 45.53900 32.76400
C  42.71700 46.14100 33.92800
H  44.01300 38.45200 30.55400
H  44.89500 38.75100 24.24600
H  42.60700 44.86800 24.25100
H  42.93700 42.78500 32.41200
H  42.69100 39.98800 32.32600
H  45.55900 40.65100 31.87800
H  44.82000 40.52800 33.42300
H  44.94200 42.11000 32.48100
H  40.67000 40.81500 32.28400
H  40.27500 42.03500 31.24200
H  39.60200 43.35700 32.73000
H  41.18300 43.33600 33.65500
H  43.94000 35.65600 28.97400
H  44.81000 36.82100 29.93100
H  45.72800 35.99500 28.66600
H  46.00400 34.38400 26.58000
H  44.78600 34.54700 25.21300
H  44.26100 34.83400 26.76000
H  43.44100 40.43400 22.41200
H  43.97500 43.22000 22.56900
H  45.39100 40.66000 21.34900
H  46.05800 40.57200 23.05600
H  46.01700 42.09900 22.29800
H  42.40100 42.18000 21.20500
H  41.70600 43.53800 22.07000
H  40.45400 40.93200 21.81700
H  39.95000 42.38400 22.72500
H  40.92800 41.01400 23.42100
H  42.02300 47.89600 26.51200
H  40.73500 47.01000 25.65000
H  42.29800 46.91300 24.98600
H  40.72700 44.69800 30.94600
H  42.73300 47.19200 33.64000
H  43.68700 45.69400 34.14400
H  42.17200 46.09800 34.87200
Mg 0.56000 41.73600 25.74400
C  1.55500 41.96800 29.10300
C  -2.54500 40.64300 26.88700
C  -0.42900 41.51300 22.64300
C  3.86400 42.50700 24.77400
N  -0.39200 41.40100 27.75000
C  0.19400 41.70400 28.97200
C  -0.82400 41.51000 30.18800
C  -1.98900 40.67600 29.41200
C  -1.63600 40.83300 27.88300
C  -2.17100 39.18700 29.89800
C  -1.18300 42.80400 31.00300
C  -0.72800 42.74900 32.43300
H  -1.27200 41.55900 33.31600
N  -1.23000 41.27000 24.92600
C  -2.40900 40.77700 25.49000
C  -3.39100 40.32100 24.47900
C  -2.77600 40.74200 23.22000
C  -1.40200 41.22700 23.54500
C  -4.64100 39.49500 24.82700
C  -3.49200 40.81400 21.83100
O  -2.94400 41.21300 20.75900
C  -4.87500 40.34700 21.74900
N  1.54200 41.89800 23.98700
C  0.92000 41.85200 22.76600
C  1.88200 41.87500 21.63900
C  3.20700 42.47300 22.33100
C  2.87600 42.20800 23.78500
C  2.11800 40.53500 20.88900
C  3.53000 43.91100 22.06600
C  3.93600 44.24700 20.63200
N  2.44800 41.99900 26.69200
C  3.68100 42.36400 26.15200
C  4.61900 42.50700 27.27800
C  3.78800 42.45400 28.40900
C  2.52600 42.10400 28.05200
C  6.03700 42.94100 27.10600
C  3.73600 42.58000 29.88100
O  4.61400 42.91600 30.65900
C  2.34200 42.20600 30.39000
C  2.44800 41.01400 31.17800
O  2.64200 39.86800 30.76500
O  2.28700 41.33000 32.51700
C  2.34800 40.20200 33.50800
H  -3.51000 40.38500 27.32900
H  -0.80400 41.29500 21.64100
H  4.85200 42.89700 24.52300
H  -0.26700 40.82500 30.82800
H  -2.91300 41.21100 29.63600
H  -1.89000 38.53500 29.07100
H  -3.13300 38.91600 30.33400
H  -1.38000 38.98400 30.62000
H  -2.24900 43.01800 31.08000
H  -0.73300 43.63000 30.45300
H  -1.00800 43.72000 32.84100
H  0.36100 42.76700 32.45500
H  -5.41600 40.05800 24.30600
H  -4.72300 39.53400 25.91300
H  -4.61600 38.53600 24.31000
H  -4.95900 39.31600 22.09300
H  -5.07700 40.36000 20.67800
H  -5.45400 41.15700 22.19200
H  1.60600 42.50800 20.79500
H  4.08600 41.87600 22.08600
H  1.86100 39.68100 21.51400
H  3.17000 40.40600 20.63500
H  1.56400 40.44100 19.95500
H  4.30300 44.40800 22.65200
H  2.67500 44.54400 22.30600
H  3.10300 44.69500 20.09000
H  4.16100 43.32500 20.09600
H  4.75500 44.96500 20.66600
H  6.12400 43.64000 26.27400
H  6.73100 42.11300 26.95900
H  6.45200 43.42600 27.98900
H  2.14400 43.12400 30.94400
H  2.13700 40.78200 34.40700
H  3.27900 39.67900 33.72400
H  1.63900 39.40800 33.27400

