158

Mg 17.80400 -2.04200 28.04700
C  16.93600 -0.08500 30.83200
C  19.97600 -3.77300 29.94100
C  19.25900 -3.09700 25.25000
C  15.81200 0.26000 26.26800
N  18.31600 -1.87600 30.13400
C  17.87800 -1.06400 31.15600
C  18.31500 -1.54800 32.50500
C  19.36700 -2.62300 32.13700
C  19.19500 -2.87600 30.66200
C  20.84600 -2.33900 32.60200
C  17.00600 -2.10100 33.33300
C  17.06900 -1.71600 34.87200
H  18.49200 -1.92200 35.44000
N  19.29400 -3.44000 27.64200
C  20.03400 -4.04600 28.54000
C  20.75700 -5.08800 27.89900
C  20.52200 -5.05200 26.50100
C  19.70100 -3.79700 26.41400
C  21.63000 -6.11600 28.60500
C  20.89000 -5.97900 25.38400
O  20.60100 -5.68200 24.24900
C  21.76100 -7.16900 25.64400
N  17.56600 -1.51500 26.08500
C  18.35100 -2.00200 25.08100
C  17.87800 -1.45900 23.69200
C  16.70200 -0.53500 24.05100
C  16.68100 -0.63100 25.55400
C  18.95300 -0.64900 22.90600
C  15.35900 -0.92400 23.34700
C  14.56400 0.22200 22.79000
N  16.43800 -0.33500 28.42900
C  15.67700 0.44200 27.61700
C  14.87700 1.42900 28.33900
C  15.40300 1.35700 29.62800
C  16.27800 0.24900 29.62800
C  13.92500 2.37300 27.71100
C  15.36200 1.92000 30.97400
O  14.81400 2.90100 31.45900
C  16.44400 0.98000 31.78300
C  17.58000 1.90900 32.30500
O  18.62200 2.15500 31.79400
O  17.03500 2.49200 33.42700
C  17.88900 3.38900 34.15900
H  20.66200 -4.47400 30.42100
H  19.78300 -3.46900 24.36700
H  15.24500 0.95000 25.63800
H  18.85400 -0.71900 32.96400
H  19.16800 -3.54400 32.68500
H  20.86700 -1.86600 33.58400
H  21.44900 -1.76600 31.89900
H  21.41900 -3.24700 32.79100
H  16.88500 -3.14800 33.05300
H  16.14800 -1.56900 32.92400
H  16.41500 -2.33500 35.48600
H  16.71300 -0.70400 35.06500
H  22.53200 -6.41200 28.07000
H  21.07000 -7.04100 28.74700
H  21.98500 -5.67900 29.53800
H  22.71800 -6.85100 26.05800
H  21.83200 -7.57700 24.63600
H  21.28900 -7.87000 26.33100
H  17.53700 -2.32800 23.12900
H  16.82600 0.49600 23.71700
H  19.90100 -0.82600 23.41600
H  18.76000 0.41800 22.79900
H  19.07100 -1.13900 21.94000
H  14.73900 -1.31100 24.15600
H  15.50400 -1.75100 22.65100
H  14.96500 1.18900 23.09300
H  13.56000 0.24700 23.21300
H  14.40200 0.08100 21.72100
H  14.49200 3.26900 27.45500
H  13.12300 2.54400 28.42800
H  13.59900 1.85700 26.80700
H  15.86900 0.57500 32.61600
H  18.92600 3.35800 33.82400
H  17.80500 3.08300 35.20200
H  17.30400 4.28100 33.93500
Mg 46.67000 16.73100 28.06000
C  44.70700 16.12100 30.85200
C  48.91800 18.36600 29.94500
C  48.12400 17.93700 25.25100
C  44.02200 15.41100 26.01600
N  46.68000 17.28100 30.11100
C  45.79200 16.93500 31.13500
C  46.36600 17.27500 32.49200
C  47.63700 18.10800 32.13200
C  47.79400 17.85200 30.61100
C  47.73100 19.52600 32.69700
C  46.57200 16.06300 33.51000
C  45.88500 16.16300 34.87200
H  45.43100 17.59500 35.43300
N  48.50000 17.78600 27.68500
C  49.23600 18.42000 28.57900
C  50.33600 19.12600 27.96000
C  50.18900 18.95400 26.55000
C  48.93500 18.15100 26.39500
C  51.30600 19.91100 28.79900
C  50.97200 19.48200 25.33300
O  50.65300 19.24000 24.18600
C  52.11100 20.32600 25.62300
N  46.12100 16.70800 25.94800
C  46.90600 17.27900 25.01900
C  46.33400 17.04700 23.60000
C  45.31700 15.96200 23.80300
C  45.11700 16.01300 25.32700
C  45.84900 18.33800 22.94600
C  45.77700 14.53600 23.33200
C  44.71700 13.94500 22.39200
N  44.84700 15.86200 28.33100
C  43.89300 15.33200 27.41500
C  42.73700 14.87800 28.16300
C  43.09300 15.13700 29.48200
C  44.30900 15.69100 29.52200
C  41.44500 14.27300 27.57200
C  42.54200 15.06000 30.83600
O  41.42400 14.61700 31.21100
C  43.61500 15.67000 31.90200
C  42.90900 16.74300 32.63600
O  42.63800 17.83300 32.11900
O  42.57800 16.37000 33.94000
C  41.50500 17.16200 34.56700
H  49.53900 18.98100 30.60000
H  48.54100 18.31200 24.31400
H  43.22500 15.14300 25.31900
H  45.59100 17.97600 32.80100
H  48.52300 17.60500 32.51900
H  47.90200 20.10900 31.79200
H  48.53000 19.61900 33.43200
H  46.80000 19.96700 33.05400
H  47.65000 15.90400 33.52700
H  46.11000 15.21200 33.01000
H  46.45300 15.70000 35.67800
H  44.94400 15.61400 34.84400
H  51.95000 20.62500 28.28600
H  51.84300 19.19900 29.42500
H  50.70900 20.51500 29.48200
H  51.63600 21.19700 26.07600
H  52.60500 20.70200 24.72700
H  52.78100 19.80100 26.30400
H  47.02700 16.61800 22.87500
H  44.32600 16.24300 23.44600
H  46.42500 19.16000 23.37200
H  44.78200 18.49200 23.10500
H  45.98500 18.16900 21.87800
H  45.94000 14.02300 24.28000
H  46.66200 14.55500 22.69500
H  43.74500 14.43800 22.41300
H  44.51700 12.95700 22.80700
H  45.16600 13.87000 21.40200
H  41.70200 13.21800 27.48000
H  41.34200 14.60200 26.53800
H  40.56800 14.42900 28.19900
H  43.98700 14.84600 32.51000
H  41.12000 18.03800 34.04500
H  41.93800 17.63300 35.45000
H  40.64300 16.58700 34.90600

