158

Mg 1.39300 -1.36400 44.07900
C  4.71400 -0.62900 43.45300
C  0.58900 1.32100 42.11500
C  -1.81300 -2.47300 44.29800
C  2.43200 -4.52500 45.47700
N  2.55400 0.23200 42.93800
C  3.88500 0.34900 42.89600
C  4.37600 1.73800 42.46400
C  2.98800 2.39300 42.05300
C  1.95900 1.28700 42.36300
C  2.53500 3.75800 42.59300
C  5.38300 1.86900 41.25900
C  5.75800 0.84000 40.20800
H  5.43900 1.08600 38.69800
N  -0.28500 -0.74200 43.30600
C  -0.44500 0.36900 42.45600
C  -1.84700 0.46600 42.10300
C  -2.57600 -0.39800 42.94300
C  -1.53400 -1.24300 43.57900
C  -2.36300 1.61700 41.28900
C  -4.04100 -0.37500 43.08300
O  -4.69400 0.56500 42.60900
C  -4.83900 -1.39900 43.75500
N  0.35800 -3.22000 44.89900
C  -0.97400 -3.38500 44.94200
C  -1.34200 -4.82200 45.41700
C  0.05300 -5.41900 45.84500
C  1.01400 -4.31900 45.35300
C  -2.52600 -4.92600 46.37800
C  0.34400 -6.76400 45.19000
C  1.12300 -7.72700 46.15900
N  3.20400 -2.37300 44.48900
C  3.43600 -3.63300 45.04700
C  4.87800 -3.76200 45.15700
C  5.45100 -2.68200 44.54100
C  4.38000 -1.84100 44.09900
C  5.58900 -5.00300 45.78000
C  6.68300 -2.08000 44.12400
O  7.84300 -2.41300 44.20100
C  6.24000 -0.66200 43.50300
C  6.85900 0.38900 44.31500
O  6.37300 0.90700 45.31600
O  8.06000 0.79100 43.78800
C  8.62800 2.00200 44.30000
H  0.23600 2.26100 41.68500
H  -2.85300 -2.78800 44.19100
H  2.75300 -5.53300 45.74600
H  4.78900 2.26300 43.32500
H  2.93600 2.53000 40.97300
H  3.11900 4.11100 43.44300
H  1.47300 3.81500 42.82900
H  2.55900 4.45000 41.75200
H  6.31700 2.35200 41.54700
H  4.83100 2.66100 40.75300
H  5.20300 -0.07300 40.42200
H  6.81400 0.57400 40.24400
H  -1.62200 2.15700 40.70000
H  -2.89400 2.26400 41.98600
H  -3.12800 1.27900 40.58900
H  -5.90200 -1.16400 43.69000
H  -4.55300 -1.42000 44.80700
H  -4.63800 -2.30100 43.17700
H  -1.73600 -5.33300 44.53800
H  0.08200 -5.57100 46.92400
H  -3.41700 -5.33900 45.90700
H  -2.74700 -3.88500 46.61100
H  -2.19400 -5.37100 47.31700
H  0.97300 -6.62700 44.31100
H  -0.58500 -7.28700 44.96100
H  0.47200 -8.57900 46.35900
H  1.54400 -7.32600 47.08100
H  1.98900 -8.11400 45.62300
H  5.20300 -5.10800 46.79300
H  6.65800 -4.81000 45.86900
H  5.40900 -5.91900 45.21700
H  6.68300 -0.64000 42.50700
H  9.22500 1.68100 45.15400
H  7.78900 2.57900 44.68800
H  9.22000 2.51500 43.54200
Mg 24.02900 -5.76300 46.16100
C  26.08700 -3.26800 44.38900
C  21.39500 -4.53600 44.34700
C  22.41800 -8.48200 46.88800
C  27.09900 -7.13200 47.34800
N  23.86600 -4.00800 44.49900
C  24.74200 -3.06600 44.06400
C  24.06300 -2.16700 43.09700
C  22.52900 -2.37700 43.28600
C  22.60000 -3.70800 44.10300
C  21.81700 -1.25700 44.14600
C  24.53500 -2.42700 41.65300
C  25.26900 -1.28900 40.82100
H  26.18700 -1.62000 39.58500
N  22.09400 -6.33800 45.81000
C  21.13300 -5.74100 45.06100
C  19.98800 -6.55000 45.06500
C  20.21900 -7.67600 45.88600
C  21.60900 -7.53800 46.26800
C  18.67300 -6.09000 44.36400
C  19.19800 -8.75300 46.35100
O  17.99600 -8.77400 45.97100
C  19.55000 -9.86300 47.27300
N  24.63200 -7.60200 46.93600
C  23.72100 -8.51200 47.17200
C  24.35400 -9.62400 48.03300
C  25.90200 -9.23600 48.15100
C  25.89400 -7.90600 47.47000
C  23.79000 -9.75900 49.42500
C  26.76700 -10.28300 47.50500
C  27.77100 -10.84300 48.43100
N  26.11500 -5.29300 46.08100
C  27.19300 -5.87000 46.70700
C  28.39200 -5.11400 46.41800
C  28.00600 -4.10300 45.55600
C  26.57200 -4.22500 45.31100
C  29.77300 -5.42700 46.98300
C  28.50000 -2.99100 44.69900
O  29.66600 -2.64300 44.39200
C  27.23900 -2.47000 43.85700
C  26.96800 -1.05800 44.19500
O  26.32700 -0.66100 45.13700
O  27.67400 -0.32100 43.32100
C  27.91900 1.07600 43.58000
H  20.58000 -4.02000 43.83400
H  21.90000 -9.43400 47.02600
H  28.02200 -7.64700 47.62200
H  24.40100 -1.18200 43.42000
H  21.95800 -2.53500 42.37100
H  22.08400 -1.35700 45.19800
H  20.73300 -1.17500 44.06400
H  22.16500 -0.26600 43.85500
H  23.72500 -2.60800 40.94700
H  25.22800 -3.26500 41.58600
H  25.77300 -0.67700 41.56900
H  24.52400 -0.56700 40.48600
H  18.00200 -6.03200 45.22200
H  18.20100 -6.80500 43.69100
H  18.72700 -5.12300 43.86400
H  18.73900 -10.24000 47.89600
H  20.22300 -9.44900 48.02300
H  20.11200 -10.67000 46.80200
H  24.16800 -10.54000 47.47200
H  26.21200 -9.10700 49.18700
H  22.75800 -10.11200 49.42100
H  23.93200 -8.82800 49.97400
H  24.34300 -10.62000 49.80000
H  27.22300 -9.88700 46.59700
H  26.11300 -11.14100 47.35000
H  28.02400 -10.13400 49.21900
H  28.72700 -11.12300 47.98800
H  27.32000 -11.65900 48.99600
H  30.03700 -6.45500 46.73200
H  29.64300 -5.46000 48.06500
H  30.57900 -4.78300 46.63300
H  27.59800 -2.58400 42.83400
H  28.32700 1.44900 42.64000
H  28.74600 1.09200 44.29000
H  27.08600 1.73000 43.83800

