158

Mg 34.55300 2.71800 28.61500
C  32.88500 3.51500 31.50700
C  37.52600 2.36300 30.51500
C  36.30400 2.54300 25.78500
C  31.61000 3.54200 26.73800
N  35.12000 2.85800 30.75600
C  34.24300 3.18600 31.80600
C  34.93700 3.13200 33.18800
C  36.43900 2.82400 32.79900
C  36.38400 2.65500 31.22800
C  37.56000 3.85600 33.15400
C  34.25600 2.12600 34.16700
C  33.79300 2.61600 35.51600
H  34.49400 3.84700 36.20000
N  36.62600 2.36100 28.24300
C  37.67900 2.28300 29.14900
C  38.85600 1.96300 28.42700
C  38.48000 2.01500 27.00300
C  37.11400 2.33500 26.94400
C  40.26000 1.83300 29.06500
C  39.40300 1.90700 25.73300
O  38.96100 1.93700 24.58700
C  40.82700 1.59900 25.84300
N  34.03700 3.06500 26.57000
C  34.98000 2.89500 25.60200
C  34.35400 2.99900 24.28400
C  32.83400 2.85000 24.52800
C  32.81500 3.23300 26.07200
C  34.83200 4.36400 23.62300
C  32.27700 1.42400 24.29400
C  30.73000 1.37700 24.15100
N  32.64900 3.41800 28.93500
C  31.52800 3.58100 28.14600
C  30.35300 3.76800 29.01200
C  30.87800 3.84300 30.30800
C  32.22700 3.56400 30.23700
C  28.91700 4.07600 28.56600
C  30.48900 3.98600 31.69300
O  29.43500 4.13500 32.24000
C  31.76100 3.93700 32.46300
C  32.07700 5.15300 33.26100
O  32.81900 6.07500 32.98500
O  31.29000 5.24600 34.43000
C  31.08200 6.59900 34.92300
H  38.38900 2.16200 31.15400
H  36.68500 2.34800 24.78000
H  30.65700 3.61100 26.20900
H  34.99100 4.07400 33.73400
H  36.64700 1.83800 33.21500
H  37.28700 4.50500 33.98700
H  37.78200 4.31400 32.19000
H  38.43400 3.32200 33.52900
H  34.90100 1.28000 34.40600
H  33.40800 1.74400 33.59800
H  33.89800 1.79900 36.23000
H  32.74100 2.86200 35.37000
H  40.96400 2.42200 28.47800
H  40.65000 0.81700 29.01200
H  40.29100 2.20400 30.08900
H  40.94100 0.59800 26.26000
H  41.37400 2.38600 26.36200
H  41.11500 1.41800 24.80800
H  34.82100 2.21200 23.69200
H  32.35200 3.65200 23.96900
H  34.01500 5.03000 23.34400
H  35.27900 4.07300 22.67200
H  35.55100 4.97700 24.16500
H  32.50800 0.91900 25.23200
H  32.81700 0.94300 23.47900
H  30.47900 0.84100 23.23600
H  30.28500 2.36400 24.02300
H  30.16400 0.85200 24.92000
H  28.40100 4.47300 29.44100
H  28.41000 3.18000 28.20900
H  28.90800 4.77300 27.72900
H  31.62300 3.13400 33.18700
H  31.00200 7.39100 34.17800
H  31.80700 6.93700 35.66300
H  30.10200 6.47200 35.38200
Mg -2.49100 34.48100 27.16800
C  -3.89000 32.40100 29.63100
C  -0.97300 36.19400 29.77000
C  -1.31300 36.49300 24.89800
C  -4.03300 32.52400 24.70800
N  -2.61700 34.43600 29.42300
C  -3.35900 33.57100 30.17200
C  -3.20000 33.86400 31.69900
C  -2.39600 35.18900 31.68300
C  -1.94800 35.30100 30.21000
C  -3.22200 36.52700 31.94800
C  -2.48400 32.65800 32.41300
C  -3.22400 32.24300 33.67800
H  -2.27700 32.22900 34.91500
N  -1.17000 36.03700 27.29400
C  -0.58500 36.59800 28.47400
C  0.33200 37.59200 28.16500
C  0.22800 37.74700 26.76800
C  -0.78200 36.76400 26.25100
C  1.24100 38.34700 29.21000
C  1.03500 38.62700 25.77900
O  0.78100 38.68400 24.56100
C  2.18000 39.38800 26.38000
N  -2.87500 34.66900 25.10800
C  -2.22500 35.61400 24.38700
C  -2.52200 35.56600 22.83300
C  -3.27700 34.18600 22.74200
C  -3.39500 33.73000 24.25000
C  -3.22100 36.80800 22.31800
C  -2.60800 33.18000 21.77000
C  -1.33600 32.51500 22.25500
N  -3.70800 32.80900 27.07400
C  -4.12500 32.00800 26.03600
C  -4.71300 30.78500 26.54500
C  -4.67600 30.92200 27.91900
C  -4.03700 32.14000 28.23300
C  -5.32200 29.76800 25.60600
C  -5.05300 30.27800 29.04500
O  -5.60100 29.21000 29.24900
C  -4.55400 31.23400 30.27100
C  -5.76400 31.66700 30.97800
O  -6.60500 32.40900 30.47200
O  -5.84900 31.10100 32.27100
C  -6.93300 31.47900 33.17800
H  -0.52500 36.79800 30.56100
H  -1.01300 37.22300 24.14300
H  -4.30500 31.90300 23.85200
H  -4.20800 34.11600 32.02700
H  -1.60500 34.98900 32.40700
H  -2.93800 37.36500 31.31200
H  -3.12900 36.75700 33.01000
H  -4.26400 36.28400 31.74400
H  -1.48400 32.91000 32.76500
H  -2.35500 31.82800 31.71900
H  -3.61600 31.23000 33.58200
H  -4.01400 32.92800 33.98400
H  2.32300 38.23200 29.15100
H  1.04700 38.10900 30.25600
H  1.10800 39.40700 28.99500
H  1.74400 40.24600 26.89100
H  2.86200 39.85700 25.67000
H  2.70200 38.64500 26.98200
H  -1.53600 35.55000 22.36900
H  -4.27000 34.33500 22.31800
H  -2.43100 37.23000 21.69700
H  -3.42600 37.41800 23.19900
H  -4.15200 36.56300 21.80700
H  -2.49100 33.67800 20.80700
H  -3.37600 32.40900 21.70900
H  -1.24400 31.44100 22.09000
H  -1.12100 32.68700 23.31000
H  -0.63500 33.16100 21.72700
H  -4.74600 29.40200 24.75600
H  -6.26600 30.26600 25.38200
H  -5.61900 28.87600 26.15700
H  -3.88100 30.59900 30.84900
H  -6.42300 31.76500 34.09700
H  -7.55100 30.59500 33.33400
H  -7.64400 32.23900 32.85400

