158

Mg 34.69600 3.38100 29.22600
C  32.39100 4.21300 31.78900
C  37.25700 4.01300 31.67400
C  37.03400 2.94700 26.94000
C  32.12900 3.59900 27.00900
N  34.77900 4.26200 31.45200
C  33.68800 4.40900 32.25000
C  34.04600 4.47200 33.77600
C  35.65400 4.56800 33.68100
C  35.92500 4.33800 32.18200
C  36.15500 5.93300 34.26300
C  33.60700 3.15000 34.52900
C  33.32000 3.28700 36.00900
H  33.99400 4.42600 36.78000
N  36.79100 3.32400 29.33100
C  37.60700 3.61500 30.37600
C  38.98300 3.30400 29.96100
C  38.99200 3.08400 28.51700
C  37.60500 3.12800 28.21200
C  40.12700 3.41600 30.95900
C  40.05000 2.68300 27.59600
O  39.82600 2.36600 26.41300
C  41.51900 2.52400 28.05400
N  34.55900 3.29400 27.23800
C  35.70200 2.98500 26.51600
C  35.26300 2.75900 25.03700
C  33.74100 3.14600 24.98600
C  33.41900 3.33600 26.46600
C  36.13300 3.55100 23.98900
C  32.74000 2.22200 24.20900
C  32.07600 1.04900 24.95300
N  32.67000 3.71900 29.34300
C  31.75600 3.75100 28.33300
C  30.38700 4.04600 28.84300
C  30.60500 4.20600 30.22400
C  32.00800 4.04900 30.47800
C  29.09600 4.10000 28.04000
C  29.91900 4.46800 31.43000
O  28.75600 4.64900 31.68200
C  31.07500 4.48300 32.50100
C  30.91600 5.69300 33.31400
O  31.30800 6.82700 33.04000
O  30.43500 5.34100 34.58100
C  30.20600 6.43200 35.47000
H  38.08900 4.12400 32.37200
H  37.70400 2.72100 26.10700
H  31.23100 3.60900 26.38700
H  33.59100 5.35300 34.22900
H  36.08000 3.72700 34.22900
H  36.88100 5.69600 35.04100
H  35.35100 6.58900 34.59400
H  36.63500 6.50000 33.46500
H  34.22900 2.27400 34.34500
H  32.70400 2.69900 34.11700
H  33.83700 2.39400 36.35900
H  32.23700 3.29800 36.13000
H  41.12400 3.25300 30.55000
H  40.08500 2.53200 31.59600
H  40.09300 4.37900 31.46800
H  42.10700 2.04200 27.27300
H  41.55900 1.88800 28.93800
H  41.97500 3.48000 28.31200
H  35.34900 1.68700 24.85800
H  33.67800 4.13300 24.52700
H  36.88300 4.14700 24.50900
H  35.51300 4.08500 23.26800
H  36.72700 2.79500 23.47600
H  33.26700 1.86000 23.32600
H  32.05300 3.00400 23.88400
H  31.06400 0.91600 24.57200
H  31.96500 1.18900 26.02800
H  32.50400 0.06600 24.75800
H  29.26800 4.89200 27.31100
H  28.27000 4.44700 28.66100
H  28.91700 3.22200 27.42000
H  30.81300 3.55600 33.01100
H  29.56800 7.22900 35.08800
H  31.13400 6.78500 35.91900
H  29.70300 5.93000 36.29700
Mg -1.84500 34.60100 27.51000
C  -3.56600 32.82600 29.75400
C  -0.68200 36.72200 29.87600
C  -0.67800 36.72500 25.01700
C  -3.41300 32.71900 24.86200
N  -2.31500 34.92400 29.49100
C  -2.83200 33.88000 30.28800
C  -2.80500 34.27700 31.79700
C  -2.03500 35.67100 31.72400
C  -1.65900 35.80900 30.26100
C  -3.01100 36.87200 32.25600
C  -2.08000 33.19600 32.61500
C  -2.79300 32.68000 33.92700
H  -1.87400 32.56400 35.16100
N  -0.71600 36.34000 27.49400
C  -0.23600 37.01200 28.57800
C  0.75400 38.02300 28.26500
C  0.69600 38.05800 26.81900
C  -0.28500 37.02400 26.37200
C  1.54800 38.89500 29.27300
C  1.40300 39.13400 25.95000
O  1.38400 39.08000 24.71300
C  2.26200 40.18500 26.60600
N  -2.24500 34.83100 25.29400
C  -1.54700 35.72900 24.52100
C  -1.69900 35.48600 23.09000
C  -2.34500 34.10500 23.04500
C  -2.71200 33.85600 24.45000
C  -2.43100 36.63000 22.27200
C  -1.66900 32.90900 22.35500
C  -0.38100 32.42300 22.95400
N  -3.22900 33.01700 27.31000
C  -3.66400 32.29400 26.18400
C  -4.59600 31.22300 26.63800
C  -4.48700 31.34400 28.07600
C  -3.69000 32.45700 28.36200
C  -5.39000 30.31400 25.84400
C  -4.84900 30.74600 29.37300
O  -5.54400 29.73000 29.64100
C  -4.19800 31.64000 30.47200
C  -5.24800 32.04500 31.47300
O  -5.87500 33.06800 31.44400
O  -5.55000 31.00400 32.31000
C  -6.29800 31.35600 33.53900
H  -0.17600 37.16400 30.73600
H  -0.26400 37.36700 24.23700
H  -3.84900 32.05400 24.11400
H  -3.81000 34.31200 32.21700
H  -1.09800 35.63000 32.28000
H  -3.62200 37.30300 31.46300
H  -2.44500 37.68100 32.71900
H  -3.61700 36.48200 33.07400
H  -1.08400 33.53000 32.90500
H  -1.84800 32.27600 32.07900
H  -3.21100 31.70800 33.66500
H  -3.65000 33.32700 34.11800
H  1.57300 38.50000 30.28900
H  1.13600 39.89400 29.41600
H  2.57000 38.98100 28.90500
H  1.83500 40.73100 27.44700
H  2.54600 40.87400 25.81000
H  3.18500 39.64700 26.82500
H  -0.69800 35.37300 22.67400
H  -3.34700 34.28500 22.65500
H  -3.45100 36.47200 21.92400
H  -1.89800 36.84100 21.34500
H  -2.32500 37.52900 22.88000
H  -1.57100 33.23200 21.31900
H  -2.41800 32.12100 22.27600
H  0.27300 32.56100 22.09200
H  -0.51100 31.38700 23.26800
H  -0.17200 32.96300 23.87700
H  -4.84900 29.44600 25.46700
H  -5.60500 30.73100 24.86100
H  -6.27500 30.18300 26.46700
H  -3.54100 31.09400 31.14900
H  -5.90900 32.20000 34.10900
H  -6.20700 30.43500 34.11400
H  -7.33000 31.67500 33.39200

