158

Mg 9.03100 2.68800 27.62900
C  9.97800 1.05300 30.61500
C  7.47800 5.02100 29.41200
C  7.70000 3.87500 24.65000
C  10.52000 0.04300 25.72500
N  8.80100 3.05300 29.73300
C  9.26600 2.24900 30.83300
C  8.94500 2.98100 32.18800
C  8.02000 4.22400 31.82200
C  8.08700 4.08700 30.22000
C  6.63900 4.11800 32.48100
C  10.22100 3.35800 32.91800
C  10.07000 4.02000 34.37700
H  11.01700 3.59800 35.49200
N  7.92500 4.33100 27.11200
C  7.30700 5.13400 27.99300
C  6.53400 6.15300 27.28500
C  6.51900 5.78600 25.90300
C  7.43800 4.63200 25.83800
C  5.87400 7.41700 27.95200
C  5.83200 6.50700 24.71700
O  6.04100 6.07400 23.56700
C  4.94400 7.69300 24.98200
N  9.09400 2.01300 25.54200
C  8.45400 2.67500 24.54200
C  8.64200 1.93300 23.16600
C  9.74300 0.85700 23.47900
C  9.78400 0.94200 25.05000
C  7.27000 1.36400 22.45600
C  11.08900 0.92500 22.69600
C  11.17200 0.14000 21.38800
N  9.94200 0.85700 27.99100
C  10.56700 -0.03900 27.15000
C  11.14800 -1.11200 27.93200
C  10.96700 -0.72200 29.29500
C  10.20500 0.47100 29.27000
C  12.00900 -2.27600 27.40100
C  11.25800 -1.07500 30.71400
O  11.91100 -2.03700 31.13800
C  10.68300 0.15600 31.59500
C  9.80500 -0.42600 32.58400
O  8.86900 -1.17400 32.38500
O  10.35900 -0.17700 33.85600
C  9.68300 -0.96300 34.89600
H  6.95600 5.76600 30.01700
H  7.30600 4.17700 23.67800
H  10.95800 -0.77000 25.14200
H  8.40300 2.19000 32.70600
H  8.47400 5.12900 32.22500
H  5.88300 3.90200 31.72500
H  6.40000 5.04000 33.01100
H  6.53600 3.20100 33.06100
H  10.69500 4.18000 32.38100
H  10.90300 2.50800 32.90800
H  9.01700 4.19200 34.60100
H  10.36500 5.06100 34.24500
H  6.08100 7.55300 29.01400
H  4.82000 7.18800 27.79300
H  6.19200 8.31400 27.42100
H  4.05000 7.31300 25.47600
H  4.55100 7.91700 23.99100
H  5.40300 8.58400 25.41000
H  9.01800 2.66300 22.45000
H  9.21300 -0.06900 23.25300
H  7.39400 0.30700 22.22300
H  7.07400 1.98200 21.58000
H  6.50400 1.51700 23.21700
H  11.94200 0.57200 23.27600
H  11.31500 1.97600 22.51500
H  10.89400 0.76100 20.53600
H  10.45500 -0.67600 21.47800
H  12.15400 -0.28000 21.17200
H  12.84600 -1.88200 26.82500
H  11.60900 -3.10300 26.81500
H  12.30300 -2.82000 28.29900
H  11.49300 0.67900 32.10400
H  9.72300 -0.50800 35.88600
H  10.10100 -1.96900 34.93800
H  8.61600 -1.02500 34.68600
Mg 24.31300 -8.33700 47.44000
C  26.84700 -6.31600 46.51800
C  22.39100 -7.14500 44.90300
C  22.16900 -11.11400 47.74100
C  26.62100 -10.27800 49.33600
N  24.58500 -6.91200 45.91000
C  25.67200 -6.11400 45.75800
C  25.52300 -5.07600 44.64000
C  24.08300 -5.41100 44.08400
C  23.60800 -6.55000 45.02400
C  23.15300 -4.19100 43.92800
C  26.62800 -5.27300 43.50600
C  27.12800 -3.93900 42.90700
H  26.95700 -3.61800 41.43900
N  22.42500 -8.88200 46.66800
C  21.79200 -8.17100 45.64500
C  20.47800 -8.74900 45.42900
C  20.36600 -9.93500 46.27100
C  21.69900 -9.98400 46.97800
C  19.63600 -8.29200 44.28800
C  19.15500 -10.86800 46.35200
O  18.12300 -10.51500 45.79100
C  19.10100 -11.98100 47.13600
N  24.27800 -10.46500 48.45800
C  23.31000 -11.38700 48.48700
C  23.66100 -12.70900 49.19400
C  25.13600 -12.24400 49.83200
C  25.37300 -10.87200 49.21000
C  22.67400 -13.10700 50.29200
C  26.27700 -13.29900 49.52200
C  27.30900 -13.59600 50.53000
N  26.34100 -8.40900 47.82000
C  27.09500 -9.13400 48.71600
C  28.27000 -8.44300 48.93900
C  28.27100 -7.29400 48.09400
C  27.07400 -7.35200 47.40300
C  29.44100 -8.82400 49.91200
C  28.99300 -6.13100 47.66000
O  30.12100 -5.71200 48.07100
C  28.08700 -5.40600 46.56300
C  27.74700 -4.04900 47.03900
O  27.45100 -3.71000 48.15300
O  27.92700 -3.19400 46.01400
C  27.65000 -1.74900 46.24600
H  21.79300 -6.74300 44.08300
H  21.50200 -11.97800 47.78500
H  27.39400 -10.65200 50.01000
H  25.61400 -4.10100 45.11900
H  24.19400 -5.86500 43.09900
H  22.34100 -4.44000 43.24500
H  23.84200 -3.48300 43.46800
H  22.78000 -3.77900 44.86600
H  26.29000 -5.89100 42.67500
H  27.45600 -5.89300 43.85100
H  28.21000 -4.00400 43.02800
H  26.71600 -3.10300 43.47200
H  18.59100 -8.58200 44.17300
H  20.16100 -8.62600 43.39300
H  19.82800 -7.23000 44.44400
H  19.83700 -12.69800 46.77200
H  18.10600 -12.41500 47.23600
H  19.37400 -11.65700 48.14000
H  23.80500 -13.56700 48.53700
H  24.98300 -12.03400 50.89000
H  22.64200 -14.17400 50.07200
H  21.70800 -12.60400 50.23600
H  23.09400 -13.06000 51.29600
H  26.84100 -13.09900 48.61100
H  25.80300 -14.27300 49.40400
H  27.23800 -14.66900 50.70900
H  27.11100 -13.00200 51.42300
H  28.31100 -13.44100 50.13100
H  29.90200 -9.74800 49.56400
H  29.04400 -9.05800 50.90000
H  30.10500 -7.96400 50.00400
H  28.76900 -5.22400 45.73200
H  26.71500 -1.63400 46.79300
H  27.58800 -1.19900 45.30700
H  28.51400 -1.45500 46.84300

