158

Mg 25.52800 -8.42100 47.28800
C  27.87500 -6.05800 46.54500
C  23.43600 -6.95700 44.92900
C  23.23200 -10.83700 47.95100
C  28.00500 -10.26900 48.98500
N  25.61200 -6.68200 45.91400
C  26.72200 -5.87200 45.77300
C  26.59000 -4.86900 44.66800
C  25.09200 -4.96900 44.34800
C  24.61400 -6.26200 45.12600
C  24.23400 -3.66200 44.77600
C  27.46500 -5.25900 43.46900
C  28.37400 -4.25300 42.77600
H  27.96500 -3.67700 41.41000
N  23.54800 -8.81200 46.62100
C  22.86900 -8.07700 45.57800
C  21.61600 -8.77000 45.33400
C  21.49400 -9.71800 46.33400
C  22.77200 -9.83200 47.02100
C  20.60900 -8.23200 44.31800
C  20.25800 -10.49600 46.61400
O  19.31900 -10.42400 45.83800
C  20.07500 -11.33500 47.89400
N  25.59700 -10.27200 48.27900
C  24.50700 -11.03900 48.55500
C  24.93100 -12.35600 49.25700
C  26.47500 -12.30600 49.23700
C  26.76800 -10.87400 48.77100
C  24.19300 -12.51300 50.60200
C  27.35000 -13.34100 48.49100
C  27.74500 -14.56000 49.30300
N  27.53100 -8.29400 47.71900
C  28.40000 -9.05900 48.42800
C  29.71300 -8.44300 48.43500
C  29.56500 -7.19700 47.81600
C  28.18800 -7.15300 47.39500
C  30.99100 -9.05500 48.90400
C  30.28000 -6.03900 47.30100
O  31.45300 -5.65600 47.45800
C  29.22800 -5.25300 46.46400
C  29.04600 -3.83300 46.93600
O  28.55500 -3.51200 48.00600
O  29.49400 -2.96200 45.94700
C  29.12500 -1.59000 46.02100
H  22.89600 -6.38600 44.17100
H  22.52900 -11.65900 48.10100
H  28.76700 -10.86700 49.48900
H  26.91100 -3.91000 45.07600
H  24.88500 -5.16400 43.29600
H  23.67400 -3.78100 45.70300
H  23.48100 -3.44400 44.01900
H  24.85400 -2.77400 44.90200
H  26.80500 -5.58400 42.66400
H  28.00000 -6.16600 43.74900
H  29.27400 -4.82600 42.55300
H  28.71800 -3.42700 43.39900
H  21.00200 -7.34400 43.82500
H  19.76500 -7.73700 44.79900
H  20.31200 -9.02200 43.62800
H  20.52200 -12.26600 47.54500
H  19.01400 -11.44600 48.11900
H  20.62500 -10.90600 48.73200
H  24.51700 -13.09900 48.57500
H  26.65800 -12.24800 50.31000
H  24.55400 -13.34400 51.20700
H  23.12500 -12.50200 50.38500
H  24.47600 -11.61700 51.15400
H  28.18600 -12.86700 47.97700
H  26.65500 -13.75200 47.75800
H  28.73800 -14.80600 48.92600
H  27.02300 -15.31100 48.98200
H  27.68200 -14.41100 50.38100
H  31.55300 -8.30100 49.45500
H  31.56500 -9.50100 48.09100
H  30.82600 -9.94600 49.50900
H  29.46000 -5.27400 45.39900
H  28.13200 -1.54600 45.57400
H  29.82800 -0.92400 45.52200
H  29.11200 -1.16700 47.02600
Mg 43.98900 2.77400 47.07600
C  43.40200 6.02700 46.18300
C  40.64200 1.90200 46.18300
C  44.66700 -0.53700 47.46400
C  47.43900 3.51600 47.14100
N  42.36400 3.83100 46.25300
C  42.28700 5.18200 45.92200
C  40.88600 5.53800 45.39600
C  40.01300 4.36000 45.93300
C  41.07600 3.27900 46.13900
C  39.22900 4.77400 47.21100
C  40.82100 5.71100 43.86500
C  40.15500 7.05700 43.45100
H  39.10100 6.95000 42.36400
N  42.78300 0.88400 46.83600
C  41.46600 0.77400 46.46500
C  41.11600 -0.59700 46.31600
C  42.29000 -1.34400 46.83200
C  43.27000 -0.33500 47.07700
C  39.79200 -1.20500 45.76900
C  42.39700 -2.85600 46.92500
O  41.50500 -3.53900 46.48300
C  43.58300 -3.51300 47.43900
N  45.78500 1.68400 47.31400
C  45.75800 0.32800 47.55300
C  47.24900 -0.21200 47.62000
C  48.07900 1.08900 47.49900
C  47.04700 2.21900 47.28800
C  47.46300 -0.98300 48.87600
C  49.12200 1.01300 46.29800
C  50.53800 1.53900 46.52800
N  45.25300 4.46000 46.86500
C  46.57300 4.58400 46.99700
C  46.89600 6.05000 47.04800
C  45.66100 6.64400 46.69800
C  44.74800 5.64700 46.57100
C  48.23300 6.56700 47.34200
C  44.91400 7.90800 46.48600
O  45.40900 9.03500 46.64500
C  43.44200 7.52300 46.03000
C  42.53000 8.39700 46.87300
O  42.27800 8.08100 47.97600
O  42.11000 9.55600 46.29500
C  41.03300 10.20000 47.05000
H  39.63300 1.69400 45.81900
H  45.01900 -1.54400 47.69400
H  48.51700 3.67800 47.06500
H  40.52900 6.43200 45.90800
H  39.34700 4.00500 45.14700
H  39.51700 5.74400 47.61800
H  39.41000 4.09600 48.04500
H  38.16200 4.84100 47.00100
H  40.29300 4.86000 43.43500
H  41.86400 5.69500 43.55000
H  40.94300 7.72700 43.10600
H  39.68500 7.54300 44.30600
H  39.17400 -1.35500 46.65400
H  39.94800 -2.15600 45.26000
H  39.50900 -0.45800 45.02800
H  43.75600 -3.11100 48.43700
H  44.36100 -3.31000 46.70200
H  43.40300 -4.57300 47.61700
H  47.37600 -0.88700 46.77400
H  48.49900 1.24200 48.49300
H  47.11100 -2.00500 48.73500
H  47.07100 -0.41100 49.71700
H  48.53100 -1.10600 49.05500
H  48.78000 1.55200 45.41400
H  49.19500 -0.01900 45.95400
H  50.61900 2.04300 47.49100
H  50.79000 2.17800 45.68200
H  51.17600 0.65500 46.52500
H  48.36700 7.24200 46.49800
H  49.06700 5.86600 47.35900
H  48.11400 7.16400 48.24600
H  43.32500 7.93900 45.03000
H  41.49500 10.87300 47.77300
H  40.41200 9.54300 47.65800
H  40.38000 10.78700 46.40500

