158

Mg 42.86100 41.27700 26.14200
C  42.08400 43.47400 28.66100
C  44.44500 39.26600 28.58500
C  43.85400 39.11300 23.68900
C  42.14500 43.70100 23.74100
N  43.25600 41.40800 28.38900
C  42.63200 42.31000 29.14900
C  42.75500 41.99200 30.65400
C  43.73800 40.72600 30.61800
C  43.79100 40.39700 29.12500
C  45.07900 40.99400 31.21800
C  41.41800 41.87700 31.37000
C  41.54300 42.00500 32.85500
H  40.47500 42.68400 33.62900
N  43.73300 39.32600 26.18200
C  44.38600 38.71600 27.22600
C  44.79500 37.38600 26.79000
C  44.50700 37.30100 25.34400
C  44.06100 38.65700 24.99200
C  45.33800 36.33800 27.74200
C  44.76200 36.18600 24.42500
O  44.48400 36.21200 23.25600
C  45.36600 34.82800 24.97100
N  43.03200 41.43300 23.89700
C  43.37400 40.36800 23.11300
C  43.04400 40.64200 21.67400
C  42.63100 42.16800 21.65800
C  42.60000 42.50200 23.19300
C  44.13800 40.25600 20.64800
C  41.26900 42.49300 20.96900
C  41.35800 43.60600 19.90100
N  42.28900 43.23500 26.08300
C  42.02200 44.08000 25.06900
C  41.49400 45.30900 25.66100
C  41.53800 45.14100 27.04000
C  42.04500 43.88600 27.29200
C  41.08800 46.50600 24.81900
C  41.24100 45.76000 28.35300
O  40.82700 46.86400 28.58500
C  41.63600 44.75500 29.42400
C  42.76800 45.37400 30.28900
O  43.80200 45.95000 29.85400
O  42.29600 45.35600 31.63200
C  43.18000 45.87900 32.62300
H  45.00000 38.57500 29.22300
H  43.89100 38.30900 22.95200
H  41.89600 44.42100 22.95800
H  43.22200 42.84900 31.13900
H  43.17400 39.91100 31.07200
H  45.81800 40.94800 30.41900
H  45.18300 40.20900 31.96700
H  45.14100 41.96600 31.70700
H  41.14600 40.89400 30.98700
H  40.61900 42.56900 31.10100
H  42.50000 42.33300 33.26100
H  41.48500 40.95300 33.13800
H  45.05400 36.58700 28.76500
H  46.42600 36.31200 27.79700
H  44.91700 35.39400 27.39500
H  45.86600 34.28600 24.16800
H  44.55400 34.20600 25.34800
H  46.21500 35.11000 25.59400
H  42.09100 40.14400 21.49300
H  43.40900 42.81700 21.25600
H  44.35100 41.02400 19.90500
H  43.73500 39.51000 19.96300
H  45.02600 39.80800 21.09500
H  40.47300 42.75600 21.66500
H  40.85200 41.57900 20.54500
H  42.04300 43.39100 19.08100
H  41.63600 44.56900 20.33100
H  40.36300 43.75500 19.48400
H  41.96600 46.87800 24.29100
H  40.71100 47.20900 25.56100
H  40.27900 46.30500 24.11600
H  40.77700 44.55300 30.06400
H  44.13000 45.34800 32.68700
H  42.68200 45.78600 33.58800
H  43.53200 46.88900 32.41300
Mg -11.21700 38.42900 41.10300
C  -10.12600 35.18200 40.74900
C  -8.41800 39.55100 39.54200
C  -12.77500 41.42800 40.64900
C  -14.43900 36.94800 41.93500
N  -9.52300 37.45800 40.19800
C  -9.20000 36.14400 40.29200
C  -7.91400 35.88700 39.44300
C  -7.20800 37.27900 39.48600
C  -8.42800 38.14600 39.74800
C  -6.08500 37.54000 40.56100
C  -8.14200 35.30700 37.97000
C  -6.95000 34.74100 37.17000
H  -6.52300 35.48600 35.88200
N  -10.63000 40.34000 40.36200
C  -9.36100 40.59800 39.82300
C  -9.21800 41.99600 39.65700
C  -10.50600 42.60700 39.94800
C  -11.39100 41.49900 40.34500
C  -7.90200 42.63900 39.21600
C  -10.81800 44.10400 39.87100
O  -9.95000 44.81400 39.34000
C  -12.11900 44.64800 40.36800
N  -13.32800 39.07300 41.07800
C  -13.61800 40.34800 40.93800
C  -15.13000 40.62700 41.35700
C  -15.69000 39.17400 41.60400
C  -14.40600 38.31800 41.51300
C  -15.29900 41.51700 42.68100
C  -16.88700 38.65600 40.70200
C  -18.23200 39.49700 40.70500
N  -12.10100 36.54200 41.65000
C  -13.36800 36.11400 42.02000
C  -13.35400 34.69600 42.22300
C  -12.11300 34.30300 41.73000
C  -11.37000 35.40500 41.36100
C  -14.50300 33.87900 42.77000
C  -11.28300 33.11200 41.52400
O  -11.48000 31.91100 41.69100
C  -9.96800 33.64600 40.88800
C  -8.72300 33.21900 41.51600
O  -7.70100 32.92300 40.99300
O  -8.93800 33.23600 42.89600
C  -7.66300 32.99900 43.57500
H  -7.45600 39.88400 39.14600
H  -13.15100 42.45300 40.66000
H  -15.41600 36.49300 42.11100
H  -7.32700 35.10800 39.93000
H  -6.82000 37.58500 38.51500
H  -6.20800 36.84800 41.39400
H  -6.14100 38.53600 41.00100
H  -5.12700 37.37700 40.06700
H  -8.72500 36.01200 37.37900
H  -8.87700 34.52800 38.17700
H  -7.17800 33.77000 36.72900
H  -6.10900 34.58700 37.84700
H  -8.00700 43.06400 38.21700
H  -7.10500 41.90000 39.30300
H  -7.54600 43.51600 39.75600
H  -12.94400 44.35100 39.72000
H  -12.04800 45.73600 40.37900
H  -12.11800 44.33800 41.41300
H  -15.66500 41.08000 40.52200
H  -16.03700 39.19900 42.63600
H  -14.80900 41.00700 43.51200
H  -16.37700 41.62800 42.79000
H  -14.75300 42.43400 42.45900
H  -17.09000 37.60600 40.91600
H  -16.45600 38.64100 39.70200
H  -18.96700 38.98200 41.32400
H  -18.62800 39.60900 39.69600
H  -18.14600 40.50700 41.10400
H  -14.74200 34.16900 43.79300
H  -14.23700 32.82200 42.80100
H  -15.43500 33.88400 42.20400
H  -9.98200 33.22200 39.88500
H  -7.85900 32.67600 44.59700
H  -7.14800 33.96000 43.59000
H  -7.10400 32.16600 43.14800

