158

Mg 52.73100 24.35600 44.48100
C  49.83200 26.34000 44.07700
C  51.03800 21.52200 43.73300
C  55.67200 22.63100 44.54900
C  54.39500 27.29200 45.61700
N  50.72700 23.96200 43.76900
C  49.69800 24.92500 43.79100
C  48.36300 24.23000 43.58300
C  48.71500 22.73000 43.78400
C  50.27500 22.67600 43.76100
C  48.16000 22.08000 44.98400
C  47.72100 24.57000 42.18300
C  48.46200 24.00800 40.94500
H  48.35700 24.73000 39.53800
N  53.28600 22.32000 44.00500
C  52.42400 21.31200 43.81200
C  53.18900 20.12600 43.55800
C  54.56300 20.45700 43.62500
C  54.58200 21.81700 44.11200
C  52.47300 18.78700 43.24600
C  55.71400 19.46100 43.52000
O  55.56100 18.26600 43.31700
C  57.17400 19.85300 43.60000
N  54.77300 24.84600 44.83500
C  55.77700 23.98900 44.91500
C  57.05700 24.56200 45.49900
C  56.70200 26.11100 45.81400
C  55.19500 26.07400 45.42000
C  57.76700 23.83500 46.70900
C  57.48600 27.28300 45.06100
C  57.99600 28.37100 45.91800
N  52.24600 26.45700 44.74000
C  53.04000 27.53400 45.24000
C  52.21100 28.76500 45.26200
C  50.94100 28.33300 44.77800
C  51.03200 26.90600 44.52700
C  52.59200 30.14200 45.80500
C  49.61800 28.75300 44.54600
O  49.08200 29.86700 44.65000
C  48.84300 27.47800 43.99700
C  48.46700 27.82400 42.61900
O  49.23500 27.93400 41.70400
O  47.13100 28.18500 42.67200
C  46.51000 28.72500 41.47600
H  50.47300 20.58700 43.72300
H  56.67000 22.18700 44.55200
H  54.84100 28.20400 46.01900
H  47.59700 24.50200 44.30900
H  48.41400 22.21700 42.87100
H  48.96100 21.86600 45.69000
H  47.67600 21.12500 44.77900
H  47.38300 22.68500 45.45200
H  47.50200 25.63200 42.07300
H  46.82500 23.95100 42.22200
H  48.08800 22.99800 40.78000
H  49.50200 24.02200 41.27300
H  52.87000 18.15700 42.45000
H  51.41400 18.82500 42.99100
H  52.48300 18.14200 44.12500
H  57.90600 19.13200 43.23500
H  57.37300 19.95300 44.66700
H  57.25200 20.81800 43.10000
H  57.81100 24.62500 44.71500
H  56.80300 26.17400 46.89800
H  57.16600 23.03900 47.14900
H  58.11500 24.49900 47.50000
H  58.67200 23.41500 46.27000
H  56.85600 27.72400 44.28900
H  58.33200 26.82800 44.54600
H  57.23100 28.67300 46.63400
H  58.36100 29.26100 45.40500
H  58.83600 27.93800 46.46100
H  53.63800 30.17200 46.11000
H  52.06200 30.19000 46.75600
H  52.47100 30.92200 45.05300
H  47.93600 27.26800 44.56500
H  47.05900 29.64000 41.25200
H  45.44100 28.86900 41.62800
H  46.52300 27.99500 40.66600
Mg -8.56900 41.35800 42.33900
C  -7.99300 37.86100 41.36400
C  -5.92500 42.05900 40.15500
C  -9.67000 44.51400 42.08700
C  -11.55800 40.34600 43.72300
N  -7.06600 40.08400 41.04700
C  -7.08900 38.69000 40.69900
C  -5.77000 38.18300 40.01000
C  -5.04400 39.61700 39.78100
C  -6.00100 40.68000 40.39800
C  -3.65700 39.68800 40.55600
C  -6.21600 37.43000 38.78400
C  -5.41800 36.11500 38.38900
H  -4.51300 36.44300 37.18400
N  -7.82100 42.99300 41.28900
C  -6.78700 43.08500 40.50700
C  -6.61700 44.39500 39.95800
C  -7.61600 45.16900 40.57700
C  -8.43900 44.26400 41.38800
C  -5.59400 44.85900 38.95500
C  -7.79400 46.74000 40.49600
O  -6.97500 47.34800 39.86500
C  -8.83200 47.50100 41.07400
N  -10.40800 42.32500 42.74600
C  -10.54300 43.65600 42.77100
C  -11.95200 44.05700 43.44600
C  -12.41600 42.72700 44.13600
C  -11.37900 41.71300 43.52700
C  -11.67100 45.17900 44.43900
C  -13.88800 42.42700 43.96300
C  -14.32100 41.52100 42.80900
N  -9.50600 39.49700 42.76500
C  -10.75200 39.27300 43.32200
C  -11.01800 37.83000 43.25500
C  -9.90200 37.24100 42.58900
C  -9.07400 38.28900 42.20800
C  -12.18900 37.10100 43.75200
C  -9.28400 35.97100 42.26300
O  -9.59000 34.84500 42.57600
C  -8.04300 36.28200 41.31500
C  -6.78200 35.76300 41.91900
O  -6.20700 36.27800 42.89000
O  -6.42800 34.60700 41.27600
C  -5.40800 33.77600 41.91400
H  -5.01400 42.22800 39.57600
H  -10.09300 45.51800 42.00800
H  -12.43900 39.98300 44.25600
H  -5.32500 37.57000 40.79400
H  -4.88000 39.81500 38.72200
H  -3.68600 39.06900 41.45300
H  -3.38300 40.69500 40.87000
H  -2.83000 39.49000 39.87400
H  -6.27300 38.11200 37.93600
H  -7.26500 37.13500 38.80400
H  -6.09600 35.31800 38.08300
H  -4.74000 35.82500 39.19200
H  -4.75000 45.40000 39.38200
H  -5.99300 45.62700 38.29300
H  -5.17700 44.08200 38.31300
H  -8.91400 48.49400 40.63300
H  -8.87600 47.53000 42.16300
H  -9.72600 47.07900 40.61500
H  -12.55200 44.52500 42.66600
H  -12.06700 42.78900 45.16700
H  -11.83700 46.16800 44.01200
H  -10.63500 45.16500 44.77700
H  -12.33600 45.01500 45.28600
H  -14.36100 43.37500 43.70500
H  -14.37400 42.10000 44.88300
H  -14.89700 42.20100 42.18100
H  -14.92400 40.65800 43.08900
H  -13.46300 41.18600 42.22600
H  -12.61700 36.56300 42.90600
H  -12.93100 37.71700 44.26000
H  -11.83400 36.27200 44.36400
H  -8.21600 35.87000 40.32000
H  -6.00500 33.23900 42.65100
H  -4.63300 34.28700 42.48600
H  -4.85600 33.12700 41.23400

