158

Mg 37.17600 50.14100 24.73200
C  36.86100 48.52400 27.91600
C  36.17000 53.08100 26.27300
C  37.29600 51.49600 21.72800
C  37.61600 46.96600 23.33600
N  36.53600 50.75500 26.89600
C  36.61400 49.93500 28.06100
C  36.24000 50.74000 29.34800
C  35.91400 52.19100 28.76300
C  36.19200 52.02700 27.21100
C  34.56000 52.75400 29.20200
C  37.34100 50.78800 30.39900
C  37.09500 50.01600 31.72100
H  35.80300 50.32900 32.36100
N  36.72200 52.02800 24.04100
C  36.41000 53.12400 24.80600
C  36.37700 54.27100 23.95500
C  36.76900 53.79600 22.67500
C  36.97900 52.38900 22.76500
C  36.02900 55.75200 24.40400
C  37.00300 54.61400 21.34300
O  37.58800 54.14700 20.35900
C  36.62300 56.04600 21.21000
N  37.34700 49.31700 22.87600
C  37.50900 50.10700 21.83400
C  37.78400 49.25200 20.51900
C  38.07300 47.88300 21.08400
C  37.64000 48.01500 22.51900
C  36.62100 49.29800 19.40700
C  39.61000 47.49600 21.06400
C  40.15700 46.24600 20.43400
N  37.25700 48.13300 25.37800
C  37.48500 46.90100 24.72300
C  37.60300 45.78900 25.65100
C  37.34500 46.42200 26.86900
C  37.14800 47.80400 26.68600
C  37.75300 44.40800 25.36500
C  37.34200 46.09600 28.29800
O  37.57100 45.01400 28.93500
C  36.95300 47.43200 28.98700
C  35.62600 47.27900 29.62100
O  34.52300 47.57400 29.13700
O  35.81200 46.47600 30.79600
C  34.60100 45.97200 31.46400
H  35.88500 54.06800 26.64200
H  37.43700 51.93700 20.73900
H  37.82700 46.03300 22.80800
H  35.38600 50.26500 29.83100
H  36.57700 52.99600 29.07800
H  33.89900 52.01900 29.66100
H  34.03000 52.90900 28.26200
H  34.64400 53.65100 29.81400
H  37.51900 51.80600 30.74600
H  38.28500 50.35700 30.06500
H  37.85400 50.25600 32.46500
H  37.20300 48.94100 31.57400
H  35.68300 55.92300 25.42300
H  35.33900 56.11500 23.64200
H  36.94400 56.34400 24.37400
H  36.77400 56.63800 22.11300
H  35.53800 56.01800 21.11600
H  37.18500 56.52300 20.40700
H  38.67500 49.76700 20.16200
H  37.45300 47.11800 20.61700
H  36.90600 49.81600 18.49100
H  35.78400 49.87500 19.79900
H  36.18500 48.31800 19.21300
H  39.97600 47.43500 22.08900
H  40.23500 48.28600 20.64600
H  40.00300 45.44700 21.15900
H  41.21900 46.30500 20.19600
H  39.64700 46.19100 19.47200
H  38.40000 44.25400 24.50100
H  36.81900 43.89000 25.14900
H  38.18400 43.88400 26.21800
H  37.64400 47.72100 29.77900
H  34.05200 46.71900 32.03700
H  34.63800 45.10000 32.11600
H  33.81600 45.73500 30.74500
Mg -9.56600 40.35700 42.46000
C  -8.29300 37.17900 41.48900
C  -6.79900 41.71700 41.01600
C  -11.03000 43.37900 42.73400
C  -12.59600 38.72500 43.39800
N  -7.77700 39.49900 41.24600
C  -7.47700 38.21100 41.01400
C  -5.98500 38.05100 40.54700
C  -5.47000 39.55000 40.42100
C  -6.69900 40.26400 40.83800
C  -4.23400 39.98200 41.25900
C  -5.53700 37.08400 39.33200
C  -4.03200 36.90500 39.15500
H  -3.48900 37.67800 37.99500
N  -8.94700 42.36600 42.07100
C  -7.80600 42.63900 41.46000
C  -7.66300 44.07500 41.47200
C  -8.84700 44.67000 42.02500
C  -9.73900 43.50300 42.29300
C  -6.39500 44.77200 40.93300
C  -9.10100 46.17200 42.19500
O  -8.25400 46.96700 41.87200
C  -10.38000 46.64900 42.80000
N  -11.53900 40.95100 43.00700
C  -11.88000 42.28800 43.05600
C  -13.36500 42.34100 43.30900
C  -13.79900 40.88000 43.59900
C  -12.52900 40.11200 43.35800
C  -13.79800 43.35200 44.41800
C  -15.01100 40.41100 42.67400
C  -15.95700 39.34600 43.17600
N  -10.32100 38.35000 42.59400
C  -11.54900 37.86600 42.98700
C  -11.50800 36.38200 42.94100
C  -10.26100 36.08400 42.39600
C  -9.56700 37.29400 42.19500
C  -12.59600 35.53200 43.32100
C  -9.36700 35.04900 41.89000
O  -9.60000 33.84900 41.82500
C  -8.10300 35.70600 41.35600
C  -6.94200 35.22600 42.18600
O  -6.77300 35.51600 43.34700
O  -6.10700 34.34100 41.51300
C  -4.93000 33.86000 42.22400
H  -5.86900 42.21200 40.73100
H  -11.61000 44.29800 42.62400
H  -13.52300 38.28200 43.76800
H  -5.38200 37.64400 41.35800
H  -5.26200 39.95900 39.43300
H  -4.29600 40.94900 41.75800
H  -3.38900 40.08100 40.57800
H  -4.01400 39.25200 42.03800
H  -5.80700 37.73900 38.50400
H  -6.09100 36.14700 39.27800
H  -3.93800 35.83500 38.97000
H  -3.42700 37.20800 40.00900
H  -6.32600 45.85600 41.02600
H  -6.04400 44.28500 40.02300
H  -5.67900 44.54100 41.72200
H  -10.35200 47.73700 42.84800
H  -10.60300 46.08100 43.70300
H  -11.17800 46.40100 42.09900
H  -13.76700 42.67700 42.35300
H  -14.01400 40.64000 44.64100
H  -12.92800 43.98500 44.59500
H  -14.20100 42.84700 45.29600
H  -14.63400 43.93200 44.02700
H  -14.64700 40.00200 41.73200
H  -15.69000 41.24500 42.50400
H  -15.58400 39.17200 44.18500
H  -15.83800 38.44600 42.57200
H  -17.00300 39.60500 43.01600
H  -12.75100 35.72300 44.38300
H  -12.41500 34.46800 43.16600
H  -13.44900 35.98900 42.81800
H  -7.98400 35.31900 40.34400
H  -4.37200 34.75600 42.49500
H  -4.33100 33.27400 41.52600
H  -5.30700 33.12800 42.93800

