158

Mg 23.90300 -7.50600 46.89700
C  26.66100 -5.66200 45.77600
C  22.00100 -6.06400 44.40300
C  21.55300 -9.76700 47.55900
C  26.28300 -9.45400 48.75400
N  24.40500 -6.16900 45.07100
C  25.55800 -5.47600 44.97400
C  25.41800 -4.43900 43.89400
C  23.91900 -4.62700 43.33100
C  23.37200 -5.62700 44.35400
C  23.19800 -3.24400 43.28600
C  26.46900 -4.73300 42.74300
C  27.07100 -3.51600 42.04500
H  26.85500 -3.32000 40.62200
N  21.99100 -7.87200 46.05000
C  21.35100 -7.10500 45.12900
C  19.93000 -7.54300 45.12900
C  19.78800 -8.57500 46.09800
C  21.11400 -8.79600 46.60200
C  18.91000 -6.94200 44.35100
C  18.50100 -9.30200 46.42700
O  17.44800 -9.04100 45.84600
C  18.56600 -10.61600 47.21600
N  23.93000 -9.32600 47.97200
C  22.75700 -10.12300 48.14000
C  23.10400 -11.43600 48.89800
C  24.49600 -11.10800 49.38800
C  24.94900 -9.84500 48.70500
C  22.11800 -11.87600 50.02100
C  25.38400 -12.37700 49.50200
C  25.84000 -13.02200 48.17400
N  26.01900 -7.45300 47.41500
C  26.84600 -8.39200 48.11000
C  28.20500 -7.96000 48.15400
C  28.18200 -6.81800 47.26400
C  26.83800 -6.66900 46.81100
C  29.27200 -8.43200 48.99600
C  28.93700 -5.71200 46.81200
O  30.13300 -5.38100 46.97900
C  28.00300 -4.95900 45.64000
C  27.95000 -3.56400 45.91800
O  27.20900 -2.91200 46.67100
O  28.82600 -2.95400 45.09400
C  28.90900 -1.50200 45.21300
H  21.41500 -5.49400 43.67900
H  20.88000 -10.56800 47.87100
H  26.99900 -10.14900 49.19700
H  25.56500 -3.50200 44.43000
H  23.91500 -5.07400 42.33700
H  22.76800 -3.13300 42.29100
H  24.01700 -2.53700 43.42200
H  22.43600 -3.18100 44.06200
H  26.04200 -5.37700 41.97400
H  27.17500 -5.42100 43.20800
H  28.16000 -3.55100 42.06800
H  26.82600 -2.62400 42.62300
H  18.52500 -7.69000 43.65800
H  19.23800 -6.01400 43.88300
H  18.10500 -6.55700 44.97800
H  18.82200 -10.38800 48.25000
H  19.26200 -11.29100 46.71900
H  17.62800 -11.15500 47.07800
H  22.99800 -12.22100 48.15000
H  24.30200 -10.88100 50.43600
H  21.49200 -11.02200 50.28000
H  22.68300 -12.11200 50.92300
H  21.62300 -12.77200 49.64800
H  25.01500 -13.13600 50.19100
H  26.31200 -12.05700 49.97700
H  26.91800 -12.92500 48.30700
H  25.42400 -12.58400 47.26700
H  25.47900 -14.05000 48.17900
H  29.03200 -8.60300 50.04500
H  30.00800 -7.62900 48.96400
H  29.65300 -9.41400 48.71700
H  28.51100 -5.18400 44.70100
H  28.85600 -1.11600 46.23100
H  28.15300 -1.03900 44.57900
H  29.84000 -1.15800 44.76300
Mg 16.15300 52.44100 26.05100
C  18.13200 51.03000 28.71100
C  13.77300 53.18700 28.30200
C  14.16200 53.32300 23.47100
C  18.34400 50.68600 23.87100
N  15.98100 52.09200 28.28800
C  16.93600 51.66400 29.13600
C  16.45900 51.84900 30.56400
C  15.01200 52.43600 30.48900
C  14.85700 52.54400 28.94600
C  13.86000 51.59000 31.19500
C  17.37800 52.88100 31.39800
C  17.29300 52.76900 32.92100
H  16.21300 51.98800 33.62400
N  14.34600 53.35400 25.89500
C  13.49100 53.64800 26.95600
C  12.44800 54.52100 26.49200
C  12.48200 54.46700 25.03500
C  13.66700 53.69100 24.73200
C  11.31900 55.06600 27.39000
C  11.53500 55.11700 24.08400
O  11.63700 54.95100 22.88100
C  10.42900 56.02800 24.55400
N  16.22600 51.99900 23.99300
C  15.33100 52.52800 23.15400
C  15.67800 52.02900 21.66800
C  17.19400 51.66800 21.78200
C  17.29500 51.40200 23.31200
C  14.67600 50.84300 21.36100
C  18.13900 52.78200 21.27500
C  19.53200 52.37000 20.64900
N  17.94600 51.15600 26.17000
C  18.71900 50.58200 25.20300
C  19.82400 49.90800 25.79100
C  19.70900 50.13200 27.15400
C  18.47800 50.84500 27.39000
C  20.91800 49.24600 24.99500
C  20.39400 49.97600 28.51000
O  21.54200 49.53900 28.73700
C  19.37500 50.58200 29.57300
C  18.90400 49.50700 30.50900
O  18.26400 48.54600 30.13800
O  19.25700 49.78800 31.83200
C  18.85000 48.82700 32.88100
H  12.99300 53.47200 29.01100
H  13.58100 53.55500 22.57500
H  18.90000 50.13200 23.11200
H  16.40700 50.88400 31.06900
H  15.10300 53.45500 30.86600
H  13.44900 51.92900 32.14600
H  14.26500 50.63000 31.51400
H  12.98500 51.46100 30.55800
H  17.09900 53.85700 31.00000
H  18.42400 52.77800 31.11000
H  17.18800 53.77900 33.31800
H  18.24300 52.30700 33.18700
H  11.35400 54.58200 28.36600
H  10.37600 54.83000 26.89800
H  11.28400 56.13600 27.59900
H  10.10600 56.60600 23.68900
H  10.68700 56.75400 25.32500
H  9.57900 55.44600 24.91100
H  15.56900 52.87600 20.99000
H  17.30000 50.69700 21.30000
H  13.99400 50.70700 22.20100
H  15.20200 49.90100 21.20700
H  14.17400 51.05500 20.41700
H  18.36900 53.57200 21.99000
H  17.51200 53.24100 20.51000
H  20.29600 52.96500 21.15100
H  19.55800 52.52000 19.57000
H  19.72100 51.32500 20.89200
H  21.72100 49.17700 25.72900
H  21.06500 49.71000 24.02000
H  20.57200 48.23800 24.76400
H  19.93200 51.35100 30.10900
H  18.32300 47.95500 32.49300
H  18.19500 49.34400 33.58200
H  19.71100 48.42500 33.41600

