158

Mg 35.13700 1.87300 29.47300
C  32.95900 2.82400 32.03100
C  37.68700 1.62400 31.69100
C  37.19000 1.53600 26.91700
C  32.45100 2.49100 27.22600
N  35.22600 2.15400 31.59600
C  34.19100 2.47800 32.43400
C  34.67900 2.32500 33.93100
C  36.24400 2.06900 33.82000
C  36.42400 1.88800 32.29100
C  37.21700 3.06700 34.48400
C  33.87700 1.22500 34.67500
C  33.49500 1.63100 36.13400
H  34.38000 2.73600 36.81900
N  37.17200 1.62200 29.37000
C  38.06000 1.49500 30.33800
C  39.35400 1.22600 29.81600
C  39.29700 1.47200 28.42400
C  37.84500 1.61300 28.17400
C  40.53400 1.02500 30.68000
C  40.37000 1.44900 27.40200
O  40.16100 1.73400 26.24600
C  41.73300 1.16500 27.85900
N  34.80900 2.05200 27.35000
C  35.83700 1.65000 26.57600
C  35.43000 1.43200 25.12700
C  33.85900 1.71900 25.15300
C  33.66600 2.17100 26.62200
C  36.20100 2.38600 24.08300
C  32.90000 0.67100 24.55300
C  32.50600 -0.50800 25.56000
N  33.08500 2.52500 29.57000
C  32.15500 2.72500 28.56000
C  30.96900 3.20700 29.12900
C  31.19800 3.35600 30.51600
C  32.51100 2.82300 30.74000
C  29.71200 3.57900 28.38100
C  30.67300 3.67000 31.78900
O  29.60300 4.21600 32.04000
C  31.80100 3.36700 32.89500
C  32.21600 4.69600 33.43000
O  32.73000 5.68200 32.78600
O  32.05400 4.67400 34.81900
C  32.19900 5.97000 35.51200
H  38.45500 1.35400 32.41800
H  37.94700 1.23100 26.19200
H  31.53500 2.57600 26.63800
H  34.50300 3.27400 34.43700
H  36.51400 1.11900 34.28200
H  37.86500 3.55600 33.75600
H  37.86600 2.60700 35.22900
H  36.62300 3.82400 34.99600
H  34.47900 0.31700 34.71100
H  32.96500 1.04300 34.10800
H  33.34600 0.71900 36.71300
H  32.44400 1.91900 36.09100
H  41.21500 1.87500 30.69400
H  41.07400 0.17200 30.26900
H  40.28400 0.70400 31.69100
H  42.10700 1.97800 28.48100
H  42.52200 0.96700 27.13300
H  41.55200 0.25300 28.42700
H  35.63400 0.40000 24.84000
H  33.58700 2.53700 24.48700
H  35.51300 3.01600 23.52000
H  36.77300 1.87300 23.31000
H  36.92600 2.96800 24.65300
H  33.41600 0.32800 23.65700
H  31.95600 1.10600 24.22500
H  31.42000 -0.47900 25.47100
H  32.93500 -0.38200 26.55400
H  32.82300 -1.48800 25.20400
H  29.85300 3.95800 27.36900
H  29.27100 4.33100 29.03400
H  29.07200 2.70400 28.26800
H  31.47300 2.73800 33.72200
H  31.50900 5.98200 36.35500
H  31.97100 6.84600 34.90500
H  33.22400 6.14000 35.84000
Mg 53.60100 24.41200 45.05700
C  51.08400 26.67700 44.28400
C  51.60100 21.85700 43.86800
C  56.30500 22.35800 45.20800
C  55.54300 27.01400 46.19400
N  51.60500 24.27600 44.10400
C  50.73600 25.36600 43.88700
C  49.47000 24.85500 43.26700
C  49.47300 23.32300 43.36800
C  50.95600 23.10100 43.82100
C  48.51900 22.78100 44.52100
C  49.22800 25.30400 41.82200
C  50.59200 25.42500 40.91600
H  51.45500 24.17800 40.60600
N  53.89400 22.32700 44.64600
C  52.93500 21.49000 44.28000
C  53.50600 20.18000 44.25500
C  54.84100 20.31500 44.72400
C  55.08600 21.70700 44.88500
C  52.73700 18.98300 43.81600
C  55.83400 19.11400 44.96400
O  55.49900 17.95500 44.83000
C  57.29300 19.43800 45.42400
N  55.72100 24.71500 45.45200
C  56.63100 23.68500 45.44900
C  58.02500 24.19700 45.73100
C  57.79300 25.72500 45.95700
C  56.24500 25.82000 45.88400
C  58.76800 23.37500 46.82000
C  58.37900 26.69200 44.90200
C  59.53200 27.50900 45.42000
N  53.41800 26.41200 45.27900
C  54.20500 27.32800 45.86400
C  53.53000 28.60200 45.99000
C  52.29400 28.41900 45.39100
C  52.29900 27.04000 44.94400
C  53.96400 29.94600 46.64800
C  51.03700 29.07300 45.04000
O  50.60800 30.18300 45.12300
C  50.27800 27.96500 44.25000
C  50.06700 28.47200 42.85700
O  50.92000 28.47200 42.01100
O  48.76700 28.84000 42.67200
C  48.27000 29.07200 41.30800
H  51.03300 20.93900 43.70200
H  57.21600 21.75900 45.14800
H  56.19500 27.77700 46.62300
H  48.81500 25.43800 43.91500
H  49.26300 22.88200 42.39400
H  48.80700 21.75600 44.75700
H  47.47400 22.71600 44.22000
H  48.64300 23.46900 45.35700
H  48.75300 26.28200 41.75000
H  48.58900 24.55600 41.35100
H  51.34500 26.17100 41.17300
H  50.22500 25.73200 39.93600
H  52.04500 19.34800 43.05700
H  52.21200 18.52600 44.65400
H  53.23400 18.20400 43.23800
H  57.74300 18.45500 45.56600
H  57.27900 20.03800 46.33400
H  57.85200 19.97000 44.65400
H  58.54300 24.00100 44.79200
H  58.12000 25.95500 46.97100
H  58.95500 23.98500 47.70400
H  59.62900 22.83600 46.42300
H  58.19800 22.50400 47.14300
H  57.64100 27.32100 44.40400
H  58.88200 26.16900 44.08800
H  59.34400 27.52100 46.49400
H  59.58100 28.50400 44.97800
H  60.45300 26.96900 45.20000
H  53.71800 30.72700 45.92800
H  54.96300 29.94800 47.08400
H  53.22800 30.09100 47.43900
H  49.36400 27.64800 44.75200
H  49.06300 29.53300 40.71800
H  47.46100 29.76800 41.53100
H  47.83500 28.17600 40.86700

