158

Mg 47.43800 34.02200 26.57300
C  45.91600 32.81200 29.40000
C  47.88200 37.01200 28.28900
C  48.55000 35.49500 23.59000
C  46.62200 31.19000 24.69200
N  47.02100 34.80000 28.59500
C  46.44400 34.07900 29.60200
C  46.70100 34.73000 30.93100
C  46.97600 36.22600 30.52300
C  47.35500 35.99700 29.05800
C  45.73100 37.22600 30.66100
C  47.86800 34.07100 31.65500
C  47.85000 34.32200 33.16400
H  46.67500 35.09900 33.68800
N  48.17400 35.99700 26.05600
C  48.33700 36.99400 26.93900
C  49.11500 38.07600 26.31300
C  49.22200 37.69200 24.92100
C  48.67400 36.33400 24.79200
C  49.42700 39.41200 26.96800
C  49.95300 38.45000 23.78000
O  50.15300 37.98700 22.68000
C  50.32600 39.95100 24.06400
N  47.24500 33.50100 24.38300
C  48.03500 34.16500 23.45800
C  48.24300 33.41400 22.10400
C  47.66900 32.03600 22.53500
C  47.16700 32.23900 23.95000
C  47.59100 34.12900 20.89600
C  48.66100 30.80400 22.44200
C  49.76700 30.62900 23.50700
N  46.42900 32.37600 26.89200
C  46.23800 31.26200 26.10000
C  45.62400 30.20100 26.92100
C  45.43900 30.83200 28.19500
C  45.94700 32.12100 28.16500
C  45.27700 28.86900 26.48000
C  44.84800 30.63800 29.42700
O  44.06300 29.73400 29.73100
C  45.01400 31.86500 30.31300
C  45.41600 31.39700 31.61300
O  46.52100 31.13700 31.99000
O  44.29400 31.32500 32.40500
C  44.37600 31.41200 33.90200
H  48.32700 37.75800 28.95100
H  49.10700 35.80700 22.70400
H  46.54500 30.28200 24.09100
H  45.74900 34.66700 31.45900
H  47.88100 36.51500 31.05800
H  44.86500 36.77600 31.14700
H  45.50300 37.61500 29.66900
H  45.96300 38.09000 31.28300
H  48.82700 34.34100 31.21400
H  47.86200 32.98300 31.57900
H  48.69100 34.93200 33.49500
H  47.93500 33.30900 33.55700
H  50.50800 39.47700 27.08700
H  48.98500 39.53800 27.95700
H  49.16100 40.28700 26.37400
H  50.72900 40.28800 23.10900
H  51.14100 39.87600 24.78400
H  49.48300 40.55000 24.40700
H  49.31300 33.48700 21.91100
H  46.85500 31.86800 21.82900
H  46.87400 33.44000 20.45000
H  48.40900 34.32600 20.20300
H  47.11400 35.06900 21.17400
H  49.13500 30.98000 21.47600
H  48.09500 29.87600 22.36700
H  50.70200 30.94900 23.04500
H  49.86100 29.62100 23.91200
H  49.55100 31.35200 24.29400
H  46.19200 28.55300 25.97800
H  44.52600 28.90800 25.69100
H  44.88300 28.21800 27.26000
H  44.00000 32.25400 30.41300
H  44.80900 30.49600 34.30400
H  43.38700 31.61400 34.31400
H  45.00500 32.26200 34.16800
Mg 41.03100 41.20300 26.11400
C  40.79100 43.80400 28.62100
C  42.02300 39.07900 28.67600
C  42.19400 38.90000 23.74900
C  40.77100 43.64500 23.75200
N  41.36800 41.43800 28.40100
C  40.98400 42.48900 29.15600
C  40.82800 42.22000 30.64000
C  41.34000 40.67900 30.74800
C  41.60100 40.36100 29.21400
C  42.54100 40.51000 31.70900
C  39.27600 42.40400 31.03200
C  38.94300 43.19900 32.33700
H  39.71300 42.86000 33.67400
N  41.93500 39.21300 26.15400
C  42.33400 38.55100 27.32800
C  42.97400 37.30300 26.96400
C  42.90400 37.23500 25.56600
C  42.35000 38.47600 25.06400
C  43.48600 36.25300 28.00900
C  43.43800 36.06600 24.71800
O  43.39600 36.23000 23.51000
C  43.98800 34.77000 25.33400
N  41.33800 41.22100 24.10400
C  41.59000 40.07100 23.33200
C  41.59400 40.47900 21.85100
C  40.93900 41.84900 21.81300
C  40.95100 42.28100 23.29900
C  43.01100 40.42800 21.14400
C  39.49700 41.78000 21.21400
C  38.37600 41.20000 22.19900
N  40.68600 43.30200 26.14300
C  40.60000 44.21000 25.03800
C  40.36300 45.47600 25.55100
C  40.28900 45.37500 26.96000
C  40.61100 44.04400 27.24500
C  40.26400 46.66800 24.70200
C  40.12600 46.08700 28.17200
O  39.82700 47.24000 28.27800
C  40.39300 45.09400 29.32600
C  41.46700 45.64700 30.16600
O  42.58500 46.04900 29.84400
O  40.92200 45.82300 31.42500
C  41.88500 46.25700 32.50700
H  42.25000 38.39300 29.49500
H  42.22200 38.08800 23.01900
H  40.62400 44.43000 23.00800
H  41.51000 42.89000 31.16300
H  40.50500 40.05500 31.06800
H  43.35800 40.17700 31.06900
H  42.18400 39.87500 32.52000
H  42.84600 41.48900 32.08100
H  38.81100 41.42100 31.10500
H  38.74500 42.89300 30.21600
H  37.96900 42.77800 32.58800
H  38.81700 44.26700 32.16400
H  42.93000 35.32500 27.87800
H  43.35100 36.57200 29.04200
H  44.54300 36.03000 27.85900
H  43.35600 34.35100 26.11700
H  44.89400 35.11100 25.83500
H  44.21000 34.04600 24.55000
H  41.00100 39.73100 21.32500
H  41.58200 42.48700 21.20600
H  43.06500 39.38900 20.81900
H  43.83500 40.47400 21.85500
H  43.21600 41.17200 20.37400
H  39.47300 41.22600 20.27500
H  39.24800 42.81300 20.97200
H  38.74600 40.96600 23.19700
H  37.86900 40.31300 21.81700
H  37.55000 41.90000 22.32400
H  41.18000 46.64900 24.11000
H  40.18400 47.54200 25.34800
H  39.42200 46.48600 24.03500
H  39.40600 45.05000 29.78700
H  41.43500 46.06800 33.48100
H  41.89500 47.34600 32.46500
H  42.92700 45.93700 32.47100

