158

Mg 47.04900 15.79500 28.22300
C  44.92400 15.60100 31.03200
C  49.27000 17.37300 30.43400
C  49.16300 16.26300 25.63900
C  44.64900 14.48700 26.27900
N  47.05900 16.45400 30.50500
C  46.12800 16.15300 31.43000
C  46.59600 16.41500 32.87800
C  47.91100 17.19900 32.57600
C  48.12600 16.99600 31.09000
C  47.96200 18.72200 32.99100
C  46.66800 15.12100 33.77700
C  46.25700 15.39000 35.25900
H  46.10800 16.82000 35.78500
N  48.98000 16.58600 28.04800
C  49.75800 17.10900 29.07600
C  51.04400 17.29400 28.54100
C  51.03600 17.06300 27.09400
C  49.67400 16.58300 26.86500
C  52.18300 17.75000 29.33800
C  52.17500 17.18800 26.05100
O  52.19600 16.75900 24.89500
C  53.51600 17.80800 26.48800
N  46.97600 15.36300 26.27800
C  47.88600 15.74300 25.36100
C  47.51900 15.39400 23.92300
C  46.11900 14.76400 24.16200
C  45.88400 14.79500 25.68800
C  47.64100 16.52400 22.86000
C  46.01300 13.29200 23.72000
C  45.08400 13.15200 22.59000
N  45.12700 15.17000 28.53900
C  44.28200 14.58100 27.62300
C  43.10100 14.18600 28.31900
C  43.30400 14.54700 29.64900
C  44.55300 15.13700 29.73600
C  41.95500 13.51400 27.63300
C  42.69500 14.54800 31.03400
O  41.66000 14.08400 31.40000
C  43.82800 15.12000 31.99200
C  43.19400 16.26500 32.79800
O  43.21800 17.47600 32.52100
O  42.55800 15.66900 33.90200
C  41.90100 16.65500 34.77000
H  49.98500 17.96900 31.00600
H  49.73900 16.61400 24.77900
H  43.86200 14.08600 25.63700
H  45.84000 17.08000 33.29400
H  48.66900 16.67400 33.15700
H  46.95500 18.99700 33.30300
H  48.27700 19.35000 32.15800
H  48.73000 18.73900 33.76500
H  47.70300 14.80400 33.90800
H  46.21500 14.30200 33.21900
H  46.92600 14.84100 35.92100
H  45.29400 14.88300 35.32800
H  53.13400 17.36800 28.96700
H  52.02900 17.33800 30.33600
H  52.17600 18.84000 29.34000
H  53.50900 18.70300 27.11000
H  54.10000 18.02700 25.59500
H  54.09200 17.02500 26.98100
H  48.19400 14.59500 23.61600
H  45.40000 15.42300 23.67400
H  47.35200 17.50100 23.24700
H  47.07400 16.16200 22.00200
H  48.66300 16.61800 22.49500
H  45.74400 12.59700 24.51600
H  47.02500 13.02400 23.41500
H  45.47700 12.39700 21.90900
H  45.01200 14.11100 22.07700
H  44.10900 12.89800 23.00500
H  41.74200 14.08000 26.72700
H  41.02800 13.48600 28.20500
H  42.22700 12.50000 27.34000
H  44.08800 14.26700 32.61800
H  40.95300 17.03500 34.39100
H  42.48000 17.57400 34.86700
H  41.71700 16.25000 35.76500
Mg -11.71500 37.82700 42.03900
C  -9.10900 35.32800 41.33200
C  -9.76000 40.13200 40.67900
C  -14.33600 39.69100 42.32200
C  -13.73100 35.03000 43.06400
N  -9.56000 37.71500 41.04600
C  -8.74100 36.61100 40.82700
C  -7.68900 37.07200 39.82900
C  -7.66500 38.67200 39.99800
C  -9.09300 38.86000 40.60800
C  -6.55700 39.17400 41.02000
C  -7.80400 36.57700 38.34000
C  -6.53000 35.99500 37.75200
H  -5.63200 36.69900 36.75900
N  -11.96700 39.66700 41.59800
C  -11.01700 40.48600 41.09200
C  -11.51600 41.82400 41.08500
C  -12.85800 41.72400 41.52900
C  -13.13600 40.28100 41.78900
C  -10.79800 42.96400 40.49600
C  -13.82400 42.91500 41.64900
O  -13.35700 44.02400 41.37700
C  -15.27100 42.76600 42.01500
N  -13.85900 37.38000 42.40300
C  -14.73100 38.41900 42.61800
C  -16.14800 37.92400 42.98100
C  -15.90800 36.37900 43.29600
C  -14.37900 36.25100 42.91500
C  -16.77600 38.68800 44.12000
C  -16.72600 35.39400 42.46600
C  -18.07100 35.06500 42.98300
N  -11.53400 35.63100 42.27800
C  -12.37500 34.72400 42.73600
C  -11.68000 33.46500 42.88700
C  -10.48300 33.66300 42.27500
C  -10.38200 35.01500 41.94700
C  -12.30500 32.21500 43.57700
C  -9.24400 33.04700 41.97600
O  -8.91400 31.89600 42.25900
C  -8.26900 34.11000 41.25500
C  -7.00400 34.17400 42.06600
O  -6.81600 34.67600 43.15700
O  -6.06200 33.35900 41.39000
C  -4.96900 33.07300 42.28900
H  -9.11100 40.94400 40.34400
H  -15.16700 40.39200 42.41700
H  -14.32700 34.21900 43.48900
H  -6.75300 36.81500 40.32500
H  -7.67400 39.14900 39.01800
H  -6.87700 39.16200 42.06200
H  -6.21300 40.15900 40.70500
H  -5.64400 38.59900 41.17500
H  -7.91700 37.43000 37.67000
H  -8.65300 35.90700 38.20000
H  -6.84400 35.07700 37.25400
H  -5.83700 35.80900 38.57300
H  -11.02500 43.16900 39.45000
H  -9.73800 42.87000 40.73200
H  -10.95200 43.87700 41.07200
H  -15.74000 42.37500 41.11200
H  -15.61300 43.79900 42.07000
H  -15.36700 42.24800 42.96900
H  -16.84100 38.06900 42.15200
H  -16.17100 36.09900 44.31600
H  -17.75800 38.94800 43.72500
H  -16.18300 39.55600 44.40700
H  -16.92600 38.17100 45.06800
H  -16.15500 34.49400 42.23800
H  -16.83300 35.85500 41.48400
H  -18.07900 33.97500 42.98400
H  -18.74900 35.46700 42.23000
H  -18.25700 35.43500 43.99100
H  -11.88100 31.30900 43.14300
H  -13.38200 32.28100 43.42400
H  -12.26700 32.20600 44.66600
H  -8.08700 33.63900 40.29000
H  -5.36400 32.37100 43.02300
H  -4.54900 33.94100 42.79500
H  -4.11100 32.60800 41.80200

