158

Mg 53.55300 24.24900 45.07600
C  51.30400 26.55400 43.82100
C  52.05500 21.84800 43.08100
C  56.17100 22.22800 45.43400
C  55.44600 26.94600 46.40800
N  52.00100 24.18200 43.51000
C  51.28500 25.34900 43.11500
C  50.26500 24.98200 42.01100
C  50.12300 23.46800 42.25500
C  51.49500 23.11400 42.97200
C  48.82700 23.18100 43.09500
C  50.90200 25.35700 40.67200
C  49.91500 25.74300 39.59200
H  50.54200 26.46000 38.35800
N  53.94600 22.21100 44.63800
C  53.19000 21.42500 43.84700
C  53.69500 20.07300 43.85400
C  54.83300 20.12700 44.77000
C  55.02500 21.51300 44.99500
C  53.23100 18.94600 43.00900
C  55.66500 18.93800 45.12700
O  55.40200 17.82200 44.68100
C  56.96600 18.99800 45.94900
N  55.56300 24.55200 45.87100
C  56.43200 23.52100 45.86600
C  57.79100 23.99900 46.30800
C  57.50200 25.48100 46.71300
C  56.02700 25.70700 46.37600
C  58.51700 23.22100 47.51100
C  58.52000 26.50600 46.09100
C  59.12100 27.53800 47.06500
N  53.31600 26.36700 45.31200
C  54.15600 27.31900 45.86000
C  53.36300 28.54400 45.99600
C  52.18400 28.30400 45.22800
C  52.28700 26.96300 44.80600
C  53.74700 29.81000 46.70900
C  50.91100 28.87500 44.77700
O  50.38500 29.98400 44.99500
C  50.31800 27.69300 43.85000
C  50.07900 28.33600 42.54800
O  50.93400 28.76800 41.80200
O  48.74100 28.37000 42.27200
C  48.29200 28.90600 40.98000
H  51.53800 21.16100 42.40700
H  57.10100 21.66400 45.53200
H  56.12000 27.78500 46.58800
H  49.29800 25.47400 42.11900
H  50.08300 22.87100 41.34400
H  49.17600 22.57500 43.93200
H  48.14100 22.62100 42.46000
H  48.35600 24.02000 43.60800
H  51.55800 24.61900 40.21000
H  51.42400 26.26500 40.97500
H  49.02200 26.28100 39.91200
H  49.50700 24.80900 39.20400
H  54.02000 18.51500 42.39200
H  52.43000 19.20600 42.31700
H  52.72000 18.24000 43.66300
H  57.13000 18.02400 46.40900
H  56.97100 19.89000 46.57600
H  57.77700 19.13700 45.23400
H  58.42700 23.91300 45.42700
H  57.54100 25.65500 47.78800
H  58.56500 23.92100 48.34600
H  59.48800 22.78900 47.27100
H  58.08000 22.34800 47.99600
H  57.94700 27.11900 45.39500
H  59.30700 25.91500 45.62200
H  59.06400 27.37300 48.14100
H  58.59800 28.47600 46.87800
H  60.10600 27.84800 46.71600
H  53.77200 30.56600 45.92400
H  54.74900 29.78700 47.13500
H  53.00500 30.03700 47.47500
H  49.36300 27.34400 44.24200
H  48.34700 29.98600 41.11800
H  47.26800 28.53600 40.93700
H  48.97700 28.51900 40.22600
Mg 31.11900 58.27300 39.65500
C  28.02400 56.41800 39.09300
C  32.80800 55.35400 38.83200
C  33.80900 60.06000 39.22100
C  29.13400 61.18400 39.80200
N  30.41400 56.15000 38.91400
C  29.15000 55.67500 38.85200
C  29.26300 54.28700 38.27000
C  30.70500 53.79900 38.81300
C  31.40400 55.20700 38.70300
C  30.70300 53.30800 40.33600
C  29.22100 54.44900 36.67100
C  28.11000 53.66200 35.92900
H  27.37200 54.28600 34.73900
N  33.13200 57.76400 39.16600
C  33.63100 56.53700 38.85900
C  34.94400 56.68500 38.44000
C  35.31200 58.04800 38.57900
C  34.05900 58.70300 39.04900
C  35.78700 55.56700 37.92200
C  36.69200 58.70100 38.27100
O  37.70100 58.02800 38.13800
C  36.86300 60.21600 38.13700
N  31.41700 60.28200 39.57700
C  32.67100 60.73800 39.55500
C  32.66000 62.21000 39.78100
C  31.11300 62.61200 40.09800
C  30.53100 61.22600 39.80800
C  33.63600 62.69700 40.83400
C  30.60000 63.77500 39.19800
C  29.73900 64.78800 39.89600
N  29.01800 58.69300 39.52700
C  28.38200 59.92800 39.72400
C  26.92300 59.67300 39.85700
C  26.77100 58.31000 39.59300
C  28.02300 57.83000 39.32800
C  25.84400 60.73800 39.97900
C  25.71700 57.29700 39.53600
O  24.51400 57.40700 39.74800
C  26.46100 56.07200 39.06800
C  26.10100 54.91200 39.93400
O  26.57600 54.69800 41.06900
O  25.20400 54.08700 39.30300
C  24.88600 52.87400 40.06000
H  33.32300 54.40100 38.69700
H  34.67600 60.72000 39.29500
H  28.53200 62.07700 39.98300
H  28.50900 53.61500 38.67900
H  31.13300 53.06700 38.12800
H  31.20000 53.92700 41.08300
H  31.17900 52.32800 40.30000
H  29.63500 53.25500 40.55000
H  30.16900 54.31500 36.15000
H  29.00700 55.50100 36.48700
H  27.33500 53.44100 36.66200
H  28.64300 52.78000 35.57400
H  35.17400 54.67800 37.77800
H  36.49500 55.47100 38.74500
H  36.17700 56.02300 37.01100
H  36.85700 60.53400 39.18000
H  36.11000 60.61500 37.45800
H  37.80800 60.49100 37.66900
H  32.86600 62.62000 38.79200
H  31.11600 62.93500 41.13900
H  34.55800 63.08600 40.40100
H  33.91600 61.84200 41.45000
H  33.20300 63.49400 41.43800
H  30.10500 63.37900 38.31200
H  31.35500 64.41100 38.73600
H  30.31500 65.62400 40.29500
H  29.14800 64.22900 40.62200
H  28.99600 65.23100 39.23300
H  26.13700 61.52600 39.28500
H  25.91000 61.12600 40.99500
H  24.82800 60.41300 39.75700
H  26.11800 55.78300 38.07500
H  24.48600 53.10600 41.04700
H  25.79800 52.27900 40.11800
H  24.26800 52.23500 39.42900

