158

Mg 27.48100 49.84100 25.88600
C  25.49500 51.00500 28.61800
C  29.77600 48.75100 28.25000
C  29.40100 48.71000 23.38400
C  25.37600 51.36400 23.73400
N  27.51600 49.80100 28.20700
C  26.61800 50.28700 29.11600
C  27.03000 49.98500 30.62400
C  28.55000 49.79100 30.37200
C  28.70500 49.49400 28.81600
C  29.36400 51.12100 30.68000
C  26.36000 48.72300 31.33600
C  25.69300 48.88200 32.69400
H  26.42100 49.61500 33.84000
N  29.28800 48.80100 25.75300
C  30.04200 48.42400 26.90200
C  31.14200 47.55400 26.47300
C  30.98500 47.45800 25.06500
C  29.91600 48.34000 24.67500
C  32.10700 46.83600 27.38200
C  31.65100 46.57200 24.10600
O  31.39200 46.60100 22.88800
C  32.68900 45.62000 24.55200
N  27.59400 50.16600 23.84000
C  28.36300 49.51500 22.98000
C  27.83500 49.47700 21.57400
C  26.40700 50.17800 21.70100
C  26.44000 50.62600 23.13100
C  28.77600 50.23800 20.53200
C  25.28100 49.10100 21.40900
C  25.11000 47.97900 22.47000
N  25.77700 51.01300 26.07600
C  25.05100 51.59200 25.05000
C  23.82200 52.17200 25.58800
C  23.97000 51.97700 27.00400
C  25.22200 51.32200 27.24800
C  22.67300 52.85700 24.71900
C  23.35400 52.30800 28.30900
O  22.39000 53.09900 28.54800
C  24.26500 51.57800 29.44400
C  24.64300 52.58200 30.50100
O  25.18000 53.63900 30.26100
O  24.19200 52.10600 31.74200
C  24.55100 52.86900 32.94600
H  30.50200 48.45000 29.00800
H  29.75100 48.25900 22.45300
H  24.53900 51.40200 23.03300
H  26.82900 50.89200 31.19300
H  28.98300 49.02600 31.01700
H  30.15600 51.26500 29.94500
H  29.79000 51.07700 31.68300
H  28.69200 51.96900 30.55300
H  27.06900 47.89800 31.40300
H  25.51800 48.47200 30.69000
H  25.41000 47.87600 33.00200
H  24.79600 49.49500 32.61100
H  31.84400 46.98300 28.43000
H  33.14500 47.14900 27.27000
H  32.00500 45.76800 27.19400
H  32.10900 44.99500 25.23000
H  33.54000 46.13600 24.99600
H  33.05000 45.04700 23.69800
H  27.73300 48.45400 21.21300
H  26.40700 50.98500 20.96900
H  29.80400 50.06600 20.84800
H  28.55100 51.29700 20.40100
H  28.61300 49.71000 19.59200
H  25.61400 48.58300 20.51000
H  24.33000 49.57100 21.15800
H  25.51200 48.28000 23.43700
H  25.66800 47.08500 22.19400
H  24.09400 47.68500 22.73400
H  22.60800 52.38000 23.74100
H  23.01100 53.89000 24.64300
H  21.71100 52.79300 25.22800
H  23.88000 50.66000 29.88800
H  23.93800 53.76600 33.02900
H  25.62500 53.05100 32.99900
H  24.48000 52.13900 33.75200
Mg -2.53200 34.28000 26.62500
C  -4.44100 32.89700 29.25900
C  -1.72900 36.94500 28.64400
C  -0.88700 35.73200 24.07300
C  -4.06900 31.98000 24.55800
N  -3.21500 34.81200 28.68000
C  -3.76700 33.99200 29.63600
C  -3.75400 34.73200 30.98700
C  -2.97300 36.09600 30.62100
C  -2.65300 35.97400 29.17200
C  -3.75800 37.36100 30.97400
C  -3.09600 34.02600 32.15700
C  -2.67200 34.84800 33.42500
H  -3.19700 34.53000 34.83800
N  -1.45300 36.12100 26.37100
C  -1.22100 37.06000 27.29400
C  -0.29000 38.09400 26.82300
C  0.00600 37.71800 25.48200
C  -0.83400 36.53300 25.20900
C  0.30800 39.23400 27.72000
C  0.93500 38.34900 24.42200
O  1.03500 37.96100 23.28500
C  1.76000 39.51200 24.86600
N  -2.62500 33.98500 24.63600
C  -1.79300 34.67700 23.79600
C  -1.69100 33.95400 22.40900
C  -2.65800 32.73100 22.57400
C  -3.15200 32.93000 24.04700
C  -2.02300 34.75800 21.10300
C  -1.82300 31.40800 22.46500
C  -2.59600 30.24800 21.90200
N  -3.99300 32.75400 26.80900
C  -4.49100 31.87500 25.88500
C  -5.38100 30.85500 26.50000
C  -5.40200 31.27800 27.89900
C  -4.56200 32.40300 27.98200
C  -6.03000 29.71000 25.76700
C  -5.94600 30.95600 29.21600
O  -6.67400 30.04100 29.47700
C  -5.26900 31.93700 30.19500
C  -6.29900 32.60200 31.04700
O  -7.11100 33.40200 30.57600
O  -6.26900 32.15700 32.32600
C  -7.39400 32.50700 33.25200
H  -1.41400 37.72600 29.34000
H  -0.31000 36.01100 23.18900
H  -4.45400 31.19800 23.90000
H  -4.81200 34.89900 31.18700
H  -2.00200 36.14500 31.11300
H  -3.47800 38.19000 30.32400
H  -3.56900 37.63900 32.01000
H  -4.81900 37.19900 30.77900
H  -2.35600 33.31200 31.79500
H  -3.78200 33.29500 32.58600
H  -2.84900 35.91900 33.33100
H  -1.58800 34.77100 33.50500
H  1.34100 38.94800 27.91400
H  -0.30700 39.32100 28.61700
H  0.23000 40.19500 27.21200
H  2.21100 39.35900 25.84600
H  1.11400 40.38500 24.95600
H  2.55500 39.75700 24.16100
H  -0.65400 33.65200 22.26100
H  -3.55800 32.78300 21.96200
H  -2.37100 35.78000 21.25500
H  -2.68900 34.27300 20.39000
H  -1.14400 34.90200 20.47500
H  -1.54700 31.21800 23.50200
H  -0.87700 31.55500 21.94600
H  -1.96100 29.72500 21.18700
H  -3.55800 30.49500 21.45200
H  -2.73500 29.56100 22.73700
H  -7.02500 29.90300 25.36600
H  -6.10200 28.86600 26.45400
H  -5.38500 29.55400 24.90300
H  -4.57600 31.45500 30.88400
H  -8.03200 33.19800 32.70000
H  -7.04400 32.89100 34.21000
H  -7.98300 31.61600 33.47200

