158

Mg -2.37300 17.06300 26.43000
C  -2.76300 14.70500 28.95600
C  -3.22300 19.49500 28.66200
C  -2.60500 19.15500 23.85300
C  -1.78100 14.40600 24.14500
N  -2.69100 17.02800 28.57800
C  -2.65100 16.01200 29.45100
C  -2.90400 16.44900 30.94200
C  -3.03700 18.00400 30.73200
C  -3.09700 18.16800 29.24400
C  -4.11400 18.78800 31.53500
C  -1.93300 15.94900 32.04200
C  -1.61500 16.90800 33.23100
H  -0.95700 16.33200 34.51600
N  -2.75600 19.06600 26.27100
C  -3.10200 19.91500 27.28700
C  -3.28000 21.31100 26.77500
C  -3.07200 21.22300 25.35000
C  -2.89500 19.75800 25.09800
C  -3.59900 22.52000 27.64000
C  -3.18000 22.30700 24.37200
O  -2.85500 22.13600 23.16300
C  -3.39000 23.75800 24.76700
N  -2.45600 16.71900 24.20800
C  -2.37700 17.81600 23.43900
C  -1.91800 17.44400 22.02000
C  -1.61900 15.92000 22.11900
C  -1.93700 15.65300 23.59600
C  -2.79500 17.94300 20.90200
C  -0.16800 15.49900 21.72800
C  1.05800 16.29700 22.32600
N  -2.34900 14.94700 26.47200
C  -2.09600 14.02900 25.46100
C  -2.24300 12.69000 26.00300
C  -2.56000 12.91400 27.38500
C  -2.59300 14.29300 27.59700
C  -2.07500 11.43700 25.25400
C  -2.74100 12.20000 28.63900
O  -2.66500 10.99800 28.91300
C  -3.05700 13.35700 29.67300
C  -2.12300 13.19300 30.83400
O  -0.85900 13.28800 30.71800
O  -2.78900 12.68500 31.94400
C  -1.98800 12.10700 33.01600
H  -3.36000 20.28900 29.39800
H  -2.69800 19.80300 22.97800
H  -1.41900 13.64900 23.44700
H  -3.84900 16.05700 31.31600
H  -2.10600 18.48500 31.03400
H  -3.64600 19.66200 31.98900
H  -4.53100 18.14300 32.30800
H  -4.95800 19.16500 30.95600
H  -0.99900 15.82000 31.49600
H  -2.31200 15.04200 32.51500
H  -2.59500 17.36500 33.37100
H  -0.93600 17.72200 32.98000
H  -2.77400 23.20000 27.42700
H  -3.56200 22.26100 28.69800
H  -4.61900 22.88700 27.53200
H  -4.36600 23.75200 25.25200
H  -3.49900 24.31400 23.83600
H  -2.55600 23.94600 25.44300
H  -0.97300 17.98400 21.95900
H  -2.33600 15.42400 21.46500
H  -2.54900 18.96600 20.61600
H  -3.86600 17.79000 21.02900
H  -2.61400 17.31700 20.02800
H  -0.12700 15.45500 20.64000
H  -0.14300 14.44700 22.01200
H  0.77900 17.24000 22.79700
H  1.76400 16.64000 21.57000
H  1.51100 15.73900 23.14600
H  -1.37400 11.58200 24.43200
H  -3.05100 11.13900 24.87000
H  -1.68400 10.64600 25.89500
H  -4.08500 13.07300 29.89700
H  -1.01100 11.75900 32.68000
H  -2.57400 11.23900 33.31900
H  -1.98400 12.79800 33.85900
Mg 48.29000 34.48500 26.41700
C  46.80600 33.07600 29.37300
C  48.51700 37.49600 27.98300
C  49.30800 35.73300 23.53200
C  47.45100 31.33900 24.73000
N  47.83200 35.16800 28.48700
C  47.39500 34.36700 29.49600
C  47.43500 35.18900 30.81500
C  47.65400 36.69500 30.25400
C  48.01400 36.46300 28.83900
C  46.50600 37.71900 30.54200
C  48.62500 34.72800 31.71000
C  48.33700 34.60800 33.24900
H  47.08800 35.36700 33.77700
N  48.88100 36.28800 25.89900
C  48.90800 37.43100 26.66300
C  49.59200 38.48100 25.96400
C  49.91900 38.02700 24.65100
C  49.31600 36.67400 24.65300
C  49.85800 39.83100 26.59300
C  50.70300 38.69800 23.54200
O  50.85300 38.29700 22.40500
C  51.39600 40.03600 23.76300
N  48.27200 33.63200 24.42200
C  48.81000 34.43800 23.41500
C  48.81800 33.64700 22.07300
C  48.58600 32.20600 22.57700
C  48.07200 32.37500 23.99600
C  47.80500 34.15600 21.04000
C  49.81000 31.17600 22.44000
C  50.62500 30.76600 23.65700
N  47.33100 32.64000 26.88400
C  47.12600 31.47200 26.09000
C  46.46100 30.48300 26.93300
C  46.22800 31.07400 28.18200
C  46.82500 32.42000 28.14400
C  46.23600 29.07000 26.45100
C  45.69100 30.90700 29.51700
O  45.23300 29.86000 29.97700
C  46.04200 32.21700 30.36300
C  46.80500 31.69100 31.55100
O  48.04000 31.45700 31.45300
O  46.01900 31.57800 32.67800
C  46.64400 30.98500 33.87400
H  48.63300 38.48000 28.44300
H  49.59000 36.19800 22.58500
H  47.26300 30.37700 24.24900
H  46.53200 35.02500 31.40300
H  48.53400 37.17400 30.68200
H  46.14300 38.36200 29.74000
H  47.02600 38.26600 31.32800
H  45.71000 37.20000 31.07600
H  49.42400 35.46400 31.62800
H  48.94100 33.79800 31.23700
H  49.16600 35.04100 33.80900
H  48.25300 33.54000 33.44900
H  48.83100 40.16900 26.73100
H  50.25200 40.62200 25.95500
H  50.55800 39.86000 27.42800
H  51.81200 40.24100 22.77700
H  52.09400 39.83900 24.57600
H  50.71600 40.86300 23.97000
H  49.78600 33.82300 21.60600
H  47.81300 31.68300 22.01300
H  47.07200 33.38800 20.79600
H  48.26100 34.36600 20.07300
H  47.14100 34.90700 21.46600
H  50.52300 31.75600 21.85500
H  49.52500 30.31100 21.84100
H  50.24700 31.37800 24.47600
H  51.66800 31.08200 23.61200
H  50.53100 29.69700 23.84600
H  46.06200 28.50000 27.36300
H  47.18000 28.73500 26.02200
H  45.35800 28.83500 25.84800
H  45.14700 32.72900 30.71700
H  46.66200 29.93200 33.59500
H  45.96400 31.11600 34.71600
H  47.63800 31.38000 34.08200

