158

Mg 1.55800 -3.08700 44.03900
C  4.70400 -1.89200 43.44800
C  0.24200 -0.36300 42.06200
C  -1.40300 -4.66700 43.88700
C  3.04200 -5.89700 45.61200
N  2.32900 -1.37300 42.78200
C  3.71200 -1.08300 42.80400
C  4.01600 0.29600 42.11700
C  2.56300 0.93800 41.99200
C  1.60700 -0.26500 42.37300
C  2.27800 2.31000 42.67700
C  4.78900 0.06200 40.74500
C  5.92000 1.09400 40.51300
H  5.61100 1.94800 39.26900
N  -0.28800 -2.72700 42.95000
C  -0.63000 -1.52200 42.33500
C  -2.00400 -1.54300 41.93500
C  -2.59000 -2.73000 42.51200
C  -1.41000 -3.42900 43.12900
C  -2.69500 -0.44600 41.14900
C  -4.03600 -3.13200 42.52800
O  -4.94000 -2.58500 41.90900
C  -4.45000 -4.34000 43.24200
N  1.03400 -5.07900 44.54500
C  -0.30600 -5.39200 44.54300
C  -0.61400 -6.66700 45.35100
C  0.80200 -7.20400 45.59500
C  1.70600 -5.98500 45.25600
C  -1.50400 -6.49100 46.55000
C  1.13300 -8.41200 44.72400
C  0.54300 -9.68200 45.33800
N  3.45600 -3.71500 44.63500
C  3.93900 -4.86000 45.24000
C  5.38800 -4.73800 45.50800
C  5.69700 -3.61200 44.82600
C  4.56300 -3.04700 44.23200
C  6.28100 -5.69900 46.41100
C  6.78100 -2.70100 44.55600
O  7.92600 -2.67900 45.04400
C  6.25600 -1.66100 43.49200
C  6.68800 -0.30200 44.04300
O  6.00500 0.29600 44.81800
O  7.87300 0.13400 43.44300
C  8.15800 1.54900 43.55600
H  -0.21400 0.49000 41.55500
H  -2.29300 -5.29300 43.98000
H  3.37000 -6.74900 46.21200
H  4.62300 0.83100 42.84700
H  2.28600 1.01200 40.94000
H  1.99700 3.10500 41.98700
H  3.19200 2.70000 43.12500
H  1.47400 2.27000 43.41100
H  4.01700 0.11900 39.97800
H  5.18800 -0.95000 40.68600
H  6.93600 0.70900 40.42200
H  5.96700 1.85000 41.29700
H  -2.01300 0.11200 40.50800
H  -3.31400 0.28300 41.67200
H  -3.45400 -0.86100 40.48700
H  -4.08800 -5.22100 42.71000
H  -5.52900 -4.27400 43.37900
H  -3.96100 -4.15400 44.19800
H  -1.04600 -7.32400 44.59500
H  0.95700 -7.42700 46.65100
H  -2.29800 -7.23800 46.52600
H  -2.05100 -5.54900 46.49700
H  -1.11600 -6.65900 47.55500
H  2.21600 -8.53400 44.70300
H  0.84900 -8.30400 43.67700
H  0.30400 -9.46400 46.37900
H  1.26300 -10.49300 45.44500
H  -0.37700 -10.03600 44.87400
H  6.85100 -5.13300 47.14700
H  7.05700 -6.19100 45.82400
H  5.70200 -6.43900 46.96300
H  6.73000 -1.79500 42.52000
H  7.32900 2.23400 43.37300
H  9.04200 1.75500 42.95400
H  8.45600 1.65000 44.60000
Mg 42.69700 41.80000 25.99200
C  41.56000 44.18700 28.19000
C  43.61500 39.74400 28.61400
C  43.53100 39.47800 23.75600
C  42.13000 44.11300 23.26600
N  42.66100 41.97800 28.12300
C  42.10600 43.05300 28.78800
C  42.04100 42.70600 30.24100
C  42.93200 41.41100 30.46700
C  43.13700 40.99000 28.97500
C  44.07600 41.37600 31.45500
C  40.59900 42.54800 30.79300
C  40.42900 43.29800 32.16700
H  39.81200 42.61800 33.32900
N  43.45300 39.86000 26.16900
C  43.74400 39.17200 27.34900
C  44.16400 37.79300 27.04500
C  44.16300 37.69100 25.58900
C  43.72300 39.03900 25.10000
C  44.51700 36.81800 28.12100
C  44.50400 36.56000 24.66900
O  44.63700 36.56500 23.42800
C  44.87100 35.22400 25.23600
N  42.94500 41.84400 23.81700
C  43.25200 40.72000 23.16700
C  43.12700 40.81600 21.63300
C  42.54800 42.29500 21.52200
C  42.63800 42.82100 22.97000
C  44.42000 40.56300 20.82900
C  41.22300 42.29400 20.87500
C  40.14500 41.32300 21.37900
N  42.13800 43.79700 25.70900
C  42.05200 44.63100 24.55400
C  41.66100 45.98500 25.05000
C  41.32000 45.81100 26.44300
C  41.69300 44.48600 26.79500
C  41.38000 47.21800 24.30100
C  40.88500 46.49300 27.67400
O  40.60700 47.63800 27.82600
C  41.00500 45.41000 28.78600
C  41.93300 45.98000 29.84600
O  43.14100 45.88600 29.86200
O  41.10300 46.59600 30.80500
C  41.76100 46.86800 32.13700
H  43.78200 39.06300 29.45100
H  43.78500 38.70200 23.03000
H  41.87600 44.81000 22.46500
H  42.40800 43.56900 30.79700
H  42.25800 40.68700 30.92300
H  44.29700 42.35700 31.87700
H  44.95400 41.00400 30.92500
H  43.93500 40.65900 32.26400
H  40.27300 41.51300 30.90200
H  39.86500 42.91700 30.07700
H  39.73700 44.11500 31.96400
H  41.38700 43.70600 32.49000
H  43.76400 36.03900 28.23800
H  44.59300 37.29200 29.10000
H  45.37100 36.20300 27.84000
H  44.86100 34.34200 24.59500
H  44.13800 34.97500 26.00300
H  45.86000 35.24600 25.69300
H  42.34600 40.13200 21.30300
H  43.21700 42.73600 20.78300
H  44.40500 41.25400 19.98700
H  44.44900 39.58100 20.35600
H  45.31000 40.57400 21.45800
H  41.48600 42.15800 19.82600
H  40.68100 43.24000 20.88900
H  39.20700 41.87700 21.40100
H  40.46300 41.00900 22.37300
H  40.03700 40.44500 20.74100
H  40.56200 47.05200 23.59900
H  42.23400 47.59200 23.73700
H  40.86500 47.94800 24.92600
H  40.02700 45.07300 29.13000
H  40.97900 47.29700 32.76400
H  42.60000 47.54900 31.99500
H  42.03900 45.91100 32.57800

