158

Mg 2.04800 -2.31900 45.00800
C  5.56800 -1.41300 44.88900
C  1.36300 0.53100 43.28200
C  -0.92900 -3.52400 44.66300
C  3.14500 -5.59900 46.07500
N  3.35600 -0.79100 44.02100
C  4.71800 -0.54500 44.12600
C  5.14200 0.61500 43.23500
C  3.79200 1.24700 42.80500
C  2.75800 0.34200 43.43100
C  3.74900 2.68000 43.39200
C  5.88800 -0.00600 42.04800
C  7.16800 0.73000 41.68700
H  7.48000 0.70200 40.14900
N  0.35700 -1.49800 44.30100
C  0.22600 -0.32900 43.62800
C  -1.16200 -0.09900 43.21100
C  -1.79200 -1.38000 43.42500
C  -0.77500 -2.21000 44.12300
C  -1.56900 1.12200 42.60800
C  -3.23600 -1.68600 43.09800
O  -3.94100 -0.89200 42.62400
C  -3.85900 -3.10500 43.23800
N  1.23400 -4.32700 45.29700
C  -0.08800 -4.47800 45.18900
C  -0.57500 -5.87400 45.68000
C  0.77000 -6.46300 46.22200
C  1.77100 -5.39600 45.82100
C  -1.66800 -5.78100 46.87500
C  1.03400 -7.87100 45.58200
C  1.68900 -8.96300 46.37300
N  3.96500 -3.31200 45.47400
C  4.21800 -4.64300 45.90800
C  5.68000 -4.73800 46.08400
C  6.22800 -3.50600 45.73300
C  5.14400 -2.69300 45.39300
C  6.34000 -5.96100 46.54700
C  7.47600 -2.74900 45.71400
O  8.61900 -3.06900 46.10900
C  7.07200 -1.37900 45.02200
C  7.60100 -0.24800 45.91400
O  7.47600 -0.28400 47.13300
O  8.16500 0.78400 45.13300
C  8.42600 2.01100 45.95500
H  1.17300 1.41000 42.66200
H  -1.97100 -3.83200 44.55200
H  3.40100 -6.62500 46.34900
H  5.68600 1.32300 43.86000
H  3.60500 1.31700 41.73400
H  4.32700 3.43200 42.85600
H  3.95900 2.65700 44.46200
H  2.72700 3.05700 43.34500
H  5.33700 -0.04400 41.10800
H  6.17300 -1.03600 42.25800
H  7.99400 0.31500 42.26400
H  7.11700 1.77500 41.99400
H  -1.19900 1.12400 41.58200
H  -1.18000 1.93500 43.22100
H  -2.65500 1.21000 42.61200
H  -3.18100 -3.86300 42.84600
H  -4.78900 -3.09600 42.67000
H  -3.92200 -3.30500 44.30800
H  -0.88700 -6.44700 44.80700
H  0.68300 -6.54800 47.30500
H  -1.87800 -4.71800 46.99200
H  -1.23600 -6.15600 47.80300
H  -2.54600 -6.39500 46.67300
H  1.65800 -7.73000 44.70000
H  0.06400 -8.14700 45.16900
H  2.27900 -9.61200 45.72500
H  0.90500 -9.63400 46.72400
H  2.35300 -8.66300 47.18300
H  5.89000 -6.32300 47.47200
H  7.42700 -5.88100 46.56500
H  6.13200 -6.66600 45.74200
H  7.52800 -1.29100 44.03700
H  8.59300 2.84200 45.26900
H  9.35000 1.88700 46.52000
H  7.57200 2.19500 46.60600
Mg 48.28900 16.42800 28.28400
C  46.13700 16.22200 31.10200
C  50.46300 18.11800 30.45500
C  50.14900 17.29700 25.69400
C  45.78200 15.11200 26.44900
N  48.28500 17.10900 30.53300
C  47.37400 16.77800 31.46900
C  47.82200 17.12200 32.93900
C  49.14000 17.94000 32.67400
C  49.34400 17.67400 31.13200
C  48.84900 19.44100 33.06100
C  48.03900 15.86500 33.79600
C  47.29100 15.71300 35.07500
H  47.13600 16.98400 35.91400
N  50.06000 17.56400 28.09500
C  50.79100 18.05600 29.13100
C  52.06800 18.66400 28.59500
C  51.99900 18.36600 27.21400
C  50.69400 17.80000 26.93100
C  53.12500 19.24100 29.51400
C  53.07600 18.70000 26.13200
O  52.90100 18.43400 24.96000
C  54.45300 19.16300 26.49500
N  47.91700 16.37100 26.33000
C  48.87100 16.64200 25.45600
C  48.48900 16.16100 24.01900
C  47.06900 15.46500 24.23300
C  46.88300 15.63300 25.76800
C  48.51500 17.34200 22.99500
C  46.95100 13.95700 23.75700
C  45.60300 13.40200 23.23100
N  46.47300 15.55400 28.65300
C  45.50700 15.06900 27.79200
C  44.30200 14.73100 28.45700
C  44.51300 15.26500 29.70300
C  45.86100 15.68800 29.82100
C  43.02000 14.19500 27.77900
C  43.82200 15.46600 30.96500
O  42.64700 15.35400 31.35500
C  44.97400 15.97500 31.96300
C  44.45000 17.06800 32.73400
O  44.09800 18.15800 32.33600
O  44.25400 16.58900 34.01900
C  43.48300 17.42800 34.84300
H  51.14200 18.50100 31.22000
H  50.77900 17.32700 24.80200
H  44.93900 14.81100 25.82400
H  47.04800 17.69900 33.44400
H  49.93700 17.64800 33.35700
H  49.32900 19.74200 33.99200
H  47.77600 19.58500 33.19300
H  49.15500 20.04500 32.20600
H  49.10100 15.66600 33.94200
H  47.61900 15.02800 33.23900
H  47.84300 14.92400 35.58500
H  46.28400 15.30200 35.00800
H  52.83000 19.46100 30.54000
H  53.48500 20.19500 29.12900
H  53.99500 18.58500 29.54500
H  54.88600 18.87500 27.45300
H  54.37200 20.25000 26.48500
H  55.08100 18.83500 25.66700
H  49.22900 15.49800 23.56900
H  46.29100 16.13500 23.86700
H  49.38200 17.27100 22.33800
H  48.83100 18.23200 23.53900
H  47.62900 17.45400 22.37000
H  47.14500 13.29000 24.59700
H  47.77900 13.76000 23.07600
H  44.98600 14.21800 22.85700
H  45.08800 12.89800 24.04800
H  45.63600 12.54800 22.55400
H  42.87800 13.13100 27.96700
H  42.99100 14.36100 26.70200
H  42.17500 14.60600 28.33200
H  45.09500 15.05100 32.52800
H  42.44700 17.24000 34.56000
H  43.63000 18.50700 34.87800
H  43.58200 17.04200 35.85700

