158

Mg 7.65100 3.95100 27.73400
C  8.96600 2.58700 30.68200
C  6.08200 6.38200 29.65700
C  5.90000 4.93600 25.02000
C  8.91600 1.18500 25.87400
N  7.62500 4.48100 29.96800
C  8.20700 3.74700 30.98100
C  7.91700 4.38500 32.34500
C  7.04000 5.59100 31.97300
C  6.95500 5.54200 30.42000
C  5.68500 5.67600 32.61800
C  9.16700 4.77000 33.20000
C  9.08900 4.43700 34.66700
H  10.39200 4.55600 35.44300
N  6.31100 5.51700 27.39900
C  5.80300 6.39700 28.32500
C  5.04800 7.43700 27.61300
C  5.03000 7.10600 26.23200
C  5.73900 5.80700 26.14800
C  4.38200 8.63100 28.19700
C  4.30600 7.77700 25.06300
O  4.28900 7.26200 23.95300
C  3.59400 9.09600 25.17400
N  7.48200 3.22600 25.80700
C  6.56500 3.72400 24.92100
C  6.56800 2.99000 23.58500
C  7.53700 1.72800 23.84100
C  8.04900 2.08300 25.25700
C  5.14500 2.65200 23.06900
C  8.70400 1.56700 22.91400
C  8.84900 0.08400 22.28600
N  8.82200 2.34100 28.12800
C  9.22900 1.31800 27.31000
C  10.07800 0.47700 28.14200
C  10.00600 0.86800 29.43700
C  9.21000 2.04400 29.40300
C  10.80400 -0.75200 27.71100
C  10.38600 0.57600 30.81700
O  11.13400 -0.20300 31.35000
C  9.59500 1.64800 31.65000
C  8.72000 0.89300 32.51400
O  7.80000 0.21200 32.10100
O  9.07000 1.10300 33.83800
C  8.22300 0.32000 34.76400
H  5.55500 7.21800 30.12200
H  5.24600 5.36300 24.25700
H  9.26600 0.33400 25.28600
H  7.28900 3.72600 32.94500
H  7.63900 6.50100 32.00000
H  5.23900 6.65500 32.79700
H  5.82500 5.37200 33.65500
H  4.96300 5.13700 32.00500
H  9.29700 5.84500 33.07300
H  10.12100 4.30300 32.95300
H  8.68800 3.44000 34.84900
H  8.25900 5.00700 35.08500
H  4.89600 9.59100 28.15000
H  4.21900 8.47000 29.26300
H  3.39300 8.73800 27.75300
H  2.67900 8.98900 25.75600
H  3.35900 9.42400 24.16100
H  4.28300 9.80700 25.63000
H  6.96900 3.69300 22.85500
H  7.04600 0.75700 23.89200
H  4.99400 3.12500 22.09800
H  4.43600 2.98600 23.82600
H  5.11900 1.56200 23.05400
H  9.59200 1.81300 23.49700
H  8.75300 2.29800 22.10700
H  8.86500 0.04200 21.19700
H  8.09900 -0.60900 22.66700
H  9.81700 -0.34300 22.54500
H  10.40600 -1.24600 26.82400
H  10.73100 -1.63800 28.34100
H  11.86200 -0.52800 27.57400
H  10.34300 2.15400 32.26100
H  7.45600 0.92300 35.24900
H  8.85300 -0.09200 35.55200
H  7.61000 -0.44100 34.28100
Mg 23.61100 -5.86200 45.95600
C  26.04700 -3.86400 44.51800
C  21.34000 -4.70500 43.70400
C  21.64900 -8.50600 46.65300
C  26.27200 -7.41700 47.83700
N  23.72100 -4.44700 44.34000
C  24.80100 -3.71300 43.91800
C  24.42700 -2.80500 42.73300
C  22.84000 -2.85500 42.66200
C  22.62900 -4.16800 43.59000
C  22.13400 -1.67700 43.27900
C  25.16500 -3.21300 41.40600
C  26.13700 -2.21200 40.78800
H  25.48900 -1.20000 39.79500
N  21.72600 -6.44500 45.31600
C  20.85300 -5.74400 44.51800
C  19.58300 -6.48900 44.42600
C  19.61400 -7.52700 45.39000
C  21.05000 -7.54700 45.82400
C  18.39900 -6.04400 43.57400
C  18.41900 -8.46100 45.77000
O  17.34100 -8.28200 45.23000
C  18.52500 -9.51500 46.81700
N  23.92500 -7.73900 47.10600
C  22.93100 -8.64300 47.24300
C  23.46900 -9.88800 48.01400
C  24.74000 -9.31900 48.66000
C  24.99300 -8.04600 47.82800
C  22.35300 -10.50000 48.94100
C  26.00200 -10.21000 49.03400
C  26.94500 -10.56600 47.79800
N  25.71000 -5.68000 46.20700
C  26.66800 -6.39100 46.95700
C  27.95800 -5.73900 46.80200
C  27.68100 -4.80500 45.78900
C  26.39800 -4.80000 45.49800
C  29.25200 -6.00900 47.45900
C  28.36300 -3.84800 44.95600
O  29.55000 -3.65500 44.83600
C  27.26100 -3.12800 44.16000
C  27.34800 -1.67900 44.55700
O  26.62600 -1.11700 45.35100
O  28.39700 -1.16400 43.86800
C  28.83500 0.18900 44.32300
H  20.49900 -4.31800 43.12500
H  21.06400 -9.40600 46.85400
H  27.07300 -7.88800 48.41200
H  24.86400 -1.84100 42.99300
H  22.41400 -2.99700 41.66900
H  21.35400 -1.93700 43.99500
H  21.78300 -1.05600 42.45400
H  22.83200 -1.01100 43.78800
H  24.39700 -3.36300 40.64800
H  25.50600 -4.24200 41.51900
H  27.06600 -2.66000 40.43700
H  26.44200 -1.52900 41.58200
H  18.59200 -5.33200 42.77200
H  17.68500 -5.56800 44.24700
H  17.95200 -6.94100 43.14600
H  17.51500 -9.67000 47.19500
H  19.05800 -9.19800 47.71400
H  19.07300 -10.40700 46.51400
H  23.74200 -10.68200 47.31900
H  24.43900 -8.87500 49.60900
H  22.05700 -11.51000 48.65800
H  21.62600 -9.69500 49.05100
H  22.77800 -10.64500 49.93400
H  25.55700 -11.13900 49.39100
H  26.55000 -9.69500 49.82300
H  26.85900 -11.65100 47.74700
H  27.95600 -10.33200 48.12900
H  26.79900 -10.10300 46.82200
H  29.94700 -6.42100 46.72700
H  29.15400 -6.62500 48.35200
H  29.59500 -5.00600 47.71500
H  27.44400 -3.18300 43.08700
H  29.92100 0.13600 44.23500
H  28.62500 0.46400 45.35700
H  28.37200 0.87900 43.61800

