158

Mg 2.20800 -0.96100 43.82300
C  5.62300 -0.54600 43.28200
C  1.72300 1.90000 41.73100
C  -1.08400 -1.56600 43.75600
C  2.77800 -4.03000 45.36400
N  3.56400 0.52300 42.64000
C  4.91000 0.38100 42.47900
C  5.46800 1.41300 41.46800
C  4.18600 2.25600 41.07800
C  3.07800 1.60500 41.87700
C  4.27900 3.81600 41.41300
C  6.12800 0.82400 40.25500
C  7.59800 1.19700 40.17900
H  8.12500 1.85200 38.81300
N  0.54500 0.06100 42.99700
C  0.57600 1.26600 42.29000
C  -0.78400 1.70000 42.06600
C  -1.60900 0.70200 42.64800
C  -0.73200 -0.38500 43.10200
C  -1.04400 3.09600 41.37500
C  -3.16600 0.69100 42.71100
O  -3.73400 1.52700 42.04500
C  -3.98300 -0.26200 43.62900
N  1.01900 -2.61000 44.50000
C  -0.33600 -2.58200 44.36800
C  -0.97200 -3.87900 44.96300
C  0.30100 -4.51400 45.70700
C  1.42000 -3.73700 45.08700
C  -2.21200 -3.73600 45.86300
C  0.41900 -6.09100 45.36300
C  0.64800 -7.01800 46.59200
N  3.82000 -2.07800 44.25500
C  3.90500 -3.26800 44.90600
C  5.28500 -3.67700 44.96100
C  6.00400 -2.59400 44.45200
C  5.03600 -1.57600 44.02600
C  5.83500 -5.02700 45.51000
C  7.31300 -2.10600 44.27200
O  8.37800 -2.59700 44.63300
C  7.14000 -0.67700 43.54700
C  7.59800 0.55100 44.34300
O  7.28800 0.85900 45.47600
O  8.56900 1.24400 43.58300
C  9.08700 2.36400 44.22100
H  1.36300 2.66500 41.04000
H  -2.14000 -1.84100 43.76300
H  2.95600 -5.02400 45.78100
H  6.14000 2.08900 41.99800
H  3.94800 2.16500 40.01800
H  5.28700 4.01200 41.77800
H  3.61100 4.13000 42.21500
H  4.09200 4.30600 40.45800
H  5.74600 1.07500 39.26600
H  6.14800 -0.22700 40.54700
H  8.21100 0.30700 40.32000
H  7.83500 1.92800 40.95300
H  -2.13200 3.14400 41.42900
H  -0.85600 3.16000 40.30400
H  -0.49300 3.87100 41.90900
H  -4.96400 0.16200 43.84400
H  -3.64800 -0.45600 44.64800
H  -4.28200 -1.19000 43.14200
H  -1.38100 -4.49700 44.16400
H  0.36100 -4.32600 46.77900
H  -3.02300 -4.44800 45.70700
H  -2.61900 -2.73400 45.72900
H  -1.98900 -3.83500 46.92600
H  1.16900 -6.21100 44.58100
H  -0.52100 -6.43900 44.93600
H  -0.07100 -7.83400 46.64700
H  0.60500 -6.42400 47.50500
H  1.53200 -7.63700 46.43900
H  5.50400 -5.81500 44.83400
H  5.41000 -5.05900 46.51400
H  6.90600 -4.97900 45.70500
H  7.64500 -0.71200 42.58100
H  10.09500 2.23700 44.61600
H  8.43900 2.75600 45.00600
H  9.10400 3.13300 43.44800
Mg 26.47300 -0.20500 28.81500
C  28.13800 -0.38400 31.87700
C  23.53800 0.53700 30.64200
C  24.67900 -0.26200 25.99000
C  29.32600 -0.83300 27.15700
N  25.91300 -0.01600 31.05200
C  26.81400 -0.05000 32.09600
C  26.14200 0.35900 33.35900
C  24.65400 0.67300 33.01300
C  24.67500 0.34400 31.47700
C  23.61300 -0.15300 33.84700
C  26.80400 1.58000 34.10900
C  26.98300 1.42000 35.63400
H  25.96900 0.61900 36.50300
N  24.39600 0.15200 28.36400
C  23.35800 0.36100 29.25000
C  22.16200 0.51600 28.49300
C  22.43500 0.15300 27.16900
C  23.87600 -0.04100 27.11400
C  20.86200 0.85900 29.13200
C  21.56000 -0.04700 25.98700
O  21.98000 -0.50100 24.95600
C  20.04300 0.28900 26.12400
N  26.96400 -0.48600 26.89000
C  26.08200 -0.41800 25.82900
C  26.75100 -0.59500 24.50100
C  28.28800 -0.53600 24.80300
C  28.21200 -0.65100 26.38200
C  26.37100 -1.83100 23.65900
C  28.86100 0.79600 24.29400
C  30.14800 0.72800 23.48600
N  28.29900 -0.79400 29.39500
C  29.40500 -0.96700 28.56100
C  30.60400 -1.11000 29.39700
C  30.12300 -0.98400 30.74600
C  28.74300 -0.71100 30.67400
C  32.02700 -1.32300 28.91900
C  30.47300 -1.03400 32.16500
O  31.51700 -1.18500 32.75300
C  29.20300 -0.60100 32.99800
C  28.79600 -1.61400 33.97400
O  28.17000 -2.62000 33.74000
O  29.42500 -1.34300 35.22500
C  29.41500 -2.42400 36.26400
H  22.66100 0.88700 31.19100
H  24.24500 -0.50600 25.01800
H  30.29800 -0.75300 26.66600
H  26.23300 -0.44900 34.08500
H  24.51500 1.75300 33.05900
H  23.91100 -0.76100 34.70100
H  23.04600 -0.79800 33.17500
H  22.98000 0.66000 34.20100
H  26.24200 2.51100 34.03700
H  27.79300 1.71600 33.67300
H  27.10100 2.42500 36.03700
H  27.92700 0.90700 35.81500
H  20.93500 1.21100 30.16100
H  20.24100 -0.03600 29.14000
H  20.25500 1.58300 28.58800
H  19.66800 0.19700 25.10500
H  19.96200 1.32000 26.47100
H  19.74500 -0.38400 26.92800
H  26.43200 0.21800 23.85000
H  28.83800 -1.37900 24.38500
H  27.21400 -2.41900 23.29600
H  25.81400 -1.60900 22.74900
H  25.70200 -2.46600 24.24000
H  29.10900 1.35700 25.19500
H  28.11500 1.24300 23.63600
H  31.08800 1.21600 23.74400
H  29.95000 1.13500 22.49400
H  30.40700 -0.30200 23.24500
H  32.71300 -0.93800 29.67400
H  32.15300 -0.94800 27.90300
H  32.22700 -2.39300 28.87500
H  29.56000 0.24400 33.58700
H  29.43600 -3.42900 35.84300
H  28.53800 -2.36900 36.90900
H  30.30000 -2.30500 36.88900

