158

Mg 0.92600 7.64700 25.74900
C  1.75200 9.46000 28.50100
C  0.62500 4.84600 27.70300
C  -0.01900 6.00000 22.95500
C  1.45600 10.52700 23.70000
N  1.29200 7.24500 27.78700
C  1.50000 8.13300 28.79300
C  1.54400 7.39900 30.19000
C  1.55400 5.92700 29.74500
C  1.11700 5.99800 28.29700
C  2.82800 5.11400 29.85800
C  0.28600 7.86800 30.95500
C  0.33500 8.02900 32.52100
H  1.52500 7.38900 33.23000
N  0.38500 5.64500 25.39000
C  0.23700 4.64600 26.38800
C  -0.44400 3.50600 25.80800
C  -0.55200 3.84400 24.38300
C  -0.09600 5.18500 24.18300
C  -0.76600 2.26700 26.61500
C  -1.20400 2.94900 23.26300
O  -1.31700 3.28000 22.09800
C  -1.57900 1.51700 23.52900
N  0.93100 8.20200 23.59600
C  0.54600 7.25100 22.64100
C  0.46600 7.94300 21.22200
C  1.07500 9.31400 21.46100
C  1.15100 9.40100 22.97700
C  1.19700 7.11800 20.16700
C  0.22800 10.50100 20.87200
C  -0.94400 11.03300 21.75700
N  1.54000 9.59000 26.00500
C  1.56200 10.65600 25.12500
C  1.83500 11.83300 25.95200
C  1.88300 11.46500 27.25300
C  1.67100 10.06100 27.24300
C  2.09300 13.23000 25.39600
C  2.10300 11.84800 28.58100
O  2.40100 12.93300 28.96700
C  1.92800 10.57600 29.44100
C  3.07900 10.65000 30.41600
O  4.20600 10.33700 30.19200
O  2.58100 11.23700 31.56300
C  3.51500 11.16500 32.63000
H  0.49700 4.04700 28.43600
H  -0.41500 5.61100 22.01500
H  1.65700 11.30000 22.95500
H  2.44800 7.85200 30.59800
H  0.70900 5.54800 30.32000
H  3.32800 4.84100 28.92800
H  2.77400 4.16400 30.39000
H  3.51100 5.66600 30.50400
H  -0.42600 7.04700 30.87100
H  0.10800 8.87000 30.56600
H  -0.61300 7.71400 32.95500
H  0.35700 9.09100 32.76600
H  -1.79500 1.97000 26.41100
H  -0.53800 2.39200 27.67400
H  -0.10900 1.42600 26.39900
H  -2.30600 1.41000 24.33400
H  -0.64800 0.97000 23.68100
H  -2.06700 1.19500 22.61000
H  -0.60000 7.93300 20.99300
H  2.10400 9.32900 21.10000
H  0.62000 6.19600 20.08900
H  2.20400 6.84900 20.48500
H  1.15800 7.69700 19.24400
H  -0.24200 10.25400 19.92000
H  0.99900 11.25500 20.71200
H  -1.87100 10.94000 21.19200
H  -0.62700 12.07200 21.84900
H  -1.13200 10.49400 22.68600
H  1.92400 13.18900 24.32000
H  3.02700 13.67500 25.74000
H  1.25000 13.85600 25.69000
H  0.97500 10.73200 29.94600
H  3.81200 10.14400 32.87300
H  3.08500 11.39800 33.60500
H  4.34100 11.83200 32.38600
Mg 40.46900 9.06500 29.27800
C  42.14800 10.47500 32.10800
C  38.23800 7.62700 31.54500
C  38.86600 8.02900 26.63300
C  43.03000 10.45600 27.20700
N  40.28300 9.06500 31.67300
C  40.95600 9.82100 32.56200
C  40.38800 9.76700 33.98600
C  39.10600 8.87800 33.75800
C  39.21900 8.43100 32.27900
C  38.89200 7.61700 34.64600
C  40.17100 11.16300 34.60800
C  39.16400 11.31500 35.73100
H  39.52300 12.02700 37.03200
N  38.78000 8.04700 29.09900
C  38.03900 7.40700 30.18100
C  37.05600 6.55200 29.52500
C  37.18500 6.75500 28.13300
C  38.30800 7.63200 27.90200
C  36.12000 5.69700 30.27700
C  36.40300 6.06800 27.00300
O  36.49100 6.46300 25.88000
C  35.54700 4.93000 27.36200
N  40.86500 9.33100 27.21900
C  39.97600 8.76500 26.28800
C  40.38400 9.09000 24.85100
C  41.72900 9.92800 25.11900
C  41.88900 9.91000 26.58700
C  40.49600 7.81100 23.99000
C  41.70700 11.40700 24.50000
C  41.58200 12.68900 25.40700
N  42.30900 10.06500 29.58000
C  43.26200 10.51600 28.63300
C  44.29600 11.11000 29.34200
C  43.92900 11.11400 30.70100
C  42.69200 10.47200 30.78500
C  45.49800 11.74000 28.88900
C  44.38100 11.59900 32.07100
O  45.31100 12.28600 32.42500
C  43.14100 11.18400 32.96300
C  43.58600 10.28300 34.10200
O  43.98700 9.16600 33.99600
O  43.55700 10.98900 35.26500
C  43.90200 10.34300 36.51300
H  37.55600 7.08500 32.20200
H  38.24200 7.84200 25.75600
H  43.73000 10.88300 26.48700
H  41.15900 9.28600 34.59000
H  38.20800 9.49000 33.84300
H  37.94900 7.97000 35.06400
H  39.63300 7.56200 35.44300
H  38.80000 6.66200 34.12800
H  39.97800 11.92300 33.85100
H  41.12500 11.49100 35.02000
H  38.71200 10.35500 35.98100
H  38.25800 11.79100 35.35700
H  35.12600 5.97600 29.92900
H  36.19300 5.79600 31.36000
H  36.30100 4.63700 30.09800
H  35.21800 4.53300 26.40100
H  34.61200 5.11100 27.89200
H  36.17600 4.15900 27.80700
H  39.55000 9.70000 24.50300
H  42.52700 9.37700 24.62100
H  39.79700 7.86200 23.15500
H  40.30300 6.90300 24.56300
H  41.49100 7.85800 23.54900
H  40.97700 11.71900 23.75400
H  42.64700 11.57700 23.97500
H  41.36200 12.40200 26.43600
H  40.77000 13.35500 25.11500
H  42.54400 13.20000 25.46000
H  45.33400 12.27000 27.95100
H  46.11000 10.90400 28.54900
H  45.95800 12.35600 29.66100
H  42.74200 12.11800 33.36000
H  43.49100 9.35500 36.72300
H  43.52200 10.99400 37.30100
H  44.98200 10.21700 36.58200

