158

Mg 44.44600 4.01400 48.03100
C  42.27800 6.73800 47.45900
C  41.88000 1.84600 47.92200
C  46.84100 1.43400 48.02200
C  47.13400 6.20900 47.73000
N  42.34500 4.27000 47.63600
C  41.66700 5.48100 47.45500
C  40.18000 5.17300 47.35200
C  40.00200 3.62000 47.76000
C  41.52300 3.21300 47.80700
C  39.10900 3.38600 48.99500
C  39.41400 5.58400 46.05300
C  38.42000 6.79100 46.13500
H  37.64900 6.99200 44.80700
N  44.37700 1.93600 47.88600
C  43.16300 1.24900 47.93200
C  43.46300 -0.16800 47.93900
C  44.88400 -0.28900 48.05700
C  45.44800 1.06500 48.01000
C  42.42500 -1.24600 47.79100
C  45.60100 -1.69800 48.24600
O  44.99400 -2.74700 48.29500
C  47.05100 -1.81900 48.32100
N  46.63900 3.80300 47.82100
C  47.37400 2.70000 48.00100
C  48.93600 2.90300 48.01700
C  49.01600 4.50600 47.99500
C  47.51800 4.87100 47.79400
C  49.61500 2.27600 49.28800
C  49.86300 5.07900 46.83500
C  50.73100 6.27600 47.23800
N  44.65800 6.02200 47.65300
C  45.82800 6.74100 47.61000
C  45.47600 8.13500 47.38200
C  44.10200 8.20700 47.36300
C  43.67500 6.91300 47.52200
C  46.43400 9.34900 47.25000
C  42.91400 9.06400 47.33600
O  42.77700 10.29300 47.15000
C  41.74100 8.11800 47.42100
C  40.96800 8.48500 48.63000
O  41.00100 7.85600 49.65100
O  40.32700 9.65400 48.41200
C  39.44500 10.22100 49.46800
H  40.95000 1.27500 47.96100
H  47.62000 0.67500 48.11900
H  47.99700 6.87600 47.67800
H  39.69400 5.67500 48.18900
H  39.46900 3.06100 46.99200
H  38.55500 4.25500 49.35100
H  39.71700 3.03400 49.82800
H  38.41300 2.62000 48.65400
H  38.97700 4.73500 45.52700
H  40.26300 6.04000 45.54300
H  39.00700 7.70700 46.06600
H  37.73600 6.78700 46.98300
H  41.51500 -0.92300 47.28500
H  42.20100 -1.68800 48.76100
H  42.80000 -2.01200 47.11300
H  47.14400 -2.90300 48.25500
H  47.46300 -1.63400 49.31300
H  47.68300 -1.50200 47.49100
H  49.34000 2.34600 47.17200
H  49.20900 4.95300 48.97000
H  50.14700 2.98100 49.92800
H  50.35100 1.60400 48.84700
H  48.83100 1.72300 49.80500
H  49.19900 5.28500 45.99600
H  50.53700 4.30500 46.46600
H  51.66400 6.18700 46.68200
H  51.06400 6.27100 48.27600
H  50.30700 7.25600 47.01600
H  46.61000 9.91500 48.16400
H  46.07900 10.09000 46.53400
H  47.40900 9.06600 46.85500
H  41.19200 8.28200 46.49400
H  38.39300 9.94200 49.40900
H  39.43500 11.31100 49.44400
H  39.71800 9.99600 50.49900
Mg 6.29700 54.53800 40.50300
C  5.55700 51.10000 40.48200
C  9.46200 53.96700 39.43900
C  6.50800 57.77900 39.99400
C  2.59000 55.06200 40.73500
N  7.34000 52.76600 39.95500
C  6.80800 51.48600 40.02800
C  7.89700 50.51900 39.61100
C  9.24700 51.34800 39.62200
C  8.70300 52.77400 39.73300
C  10.30300 51.15000 40.69900
C  7.64700 49.84200 38.24100
C  6.91200 50.61400 37.05500
H  5.99100 49.90200 36.07600
N  7.77500 55.75200 39.76900
C  9.03300 55.33500 39.39700
C  9.86000 56.51500 39.13100
C  9.01500 57.62800 39.18300
C  7.70300 57.09200 39.70300
C  11.35800 56.38400 38.83100
C  9.45000 59.01700 38.92700
O  10.61000 59.26800 38.51800
C  8.53800 60.09300 39.16900
N  4.74400 56.11100 40.13400
C  5.18400 57.35400 40.21500
C  4.00200 58.41100 40.40300
C  2.74800 57.57700 40.25400
C  3.40600 56.17600 40.36000
C  4.08900 59.42000 41.60000
C  1.88400 57.73800 38.94900
C  2.20000 56.82700 37.73800
N  4.45800 53.36700 40.72000
C  3.16200 53.76400 40.86600
C  2.45000 52.53600 41.15700
C  3.30800 51.46300 41.13900
C  4.52300 52.02000 40.80300
C  0.92200 52.40100 41.36300
C  3.47300 50.04200 41.28300
O  2.65400 49.17800 41.55600
C  4.91500 49.74400 40.79100
C  4.83900 48.89100 39.63600
O  4.42900 49.14700 38.50900
O  5.16000 47.53900 40.03800
C  5.10500 46.49300 38.99800
H  10.48500 53.74800 39.12700
H  6.60200 58.86600 40.04700
H  1.54400 55.28600 40.95700
H  8.01600 49.69900 40.32000
H  9.71700 51.22900 38.64600
H  10.44500 52.06100 41.28000
H  11.27300 50.82700 40.32100
H  9.86400 50.44800 41.40700
H  7.13500 48.89300 38.39700
H  8.61000 49.47800 37.88300
H  7.61800 50.80600 36.24700
H  6.40600 51.52800 37.36400
H  11.63100 55.42200 38.39900
H  11.89500 56.44800 39.77800
H  11.67200 57.19500 38.17400
H  7.70000 59.84700 38.51600
H  8.96100 60.96600 38.67100
H  8.52100 60.16600 40.25600
H  4.00300 59.07300 39.53800
H  2.06100 57.49800 41.09700
H  3.18900 59.42600 42.21600
H  4.31700 60.39500 41.16800
H  4.83200 59.07600 42.32000
H  1.96100 58.76900 38.60400
H  0.83600 57.81900 39.23900
H  2.52500 57.42200 36.88500
H  1.36700 56.22800 37.36900
H  3.11200 56.24300 37.86500
H  0.40600 53.36000 41.33200
H  0.74300 51.90500 42.31700
H  0.36500 51.80800 40.63700
H  5.55800 49.29600 41.54900
H  5.43900 46.88700 38.03800
H  4.12000 46.04100 38.88100
H  5.80900 45.72700 39.32400

