158

Mg 40.78100 41.08500 26.75500
C  40.47300 43.59100 29.29400
C  41.55900 38.87500 29.27100
C  41.23100 38.89000 24.37700
C  40.14100 43.63300 24.42800
N  41.14400 41.28500 29.00400
C  40.76700 42.36900 29.82100
C  40.98700 41.96500 31.33500
C  41.62300 40.52200 31.22700
C  41.31700 40.17400 29.69600
C  43.04400 40.30400 31.57100
C  39.62500 41.93000 32.02100
C  39.60200 42.73500 33.36800
H  39.01000 41.93600 34.54100
N  41.38800 39.14900 26.74700
C  41.62000 38.46200 27.91300
C  42.03200 37.16600 27.45800
C  41.78600 37.00000 26.03800
C  41.50700 38.40900 25.66300
C  42.55700 36.13100 28.48000
C  41.77600 35.78400 25.16300
O  41.53000 35.88800 23.98100
C  42.34000 34.54600 25.69600
N  40.65800 41.23900 24.72700
C  40.86100 40.17100 23.92600
C  40.54900 40.46700 22.42200
C  39.98400 41.94400 22.47000
C  40.29500 42.29200 23.97200
C  41.82500 40.40700 21.52000
C  38.47400 42.06600 22.16500
C  37.61600 41.15700 23.02500
N  40.31200 43.19500 26.72300
C  40.20600 44.09200 25.70100
C  40.16000 45.37700 26.23200
C  40.17500 45.21700 27.65600
C  40.30000 43.88300 27.88900
C  39.84300 46.50600 25.26200
C  40.10700 45.97200 28.96800
O  40.01700 47.12000 29.15800
C  40.26300 44.93200 30.06100
C  41.46200 45.31700 30.89900
O  42.63400 45.34600 30.52300
O  41.06200 45.67600 32.18700
C  42.10100 46.05900 33.20000
H  41.79900 38.21100 30.10400
H  41.49400 38.20800 23.56500
H  39.88300 44.37200 23.66600
H  41.65600 42.67600 31.82000
H  41.04100 39.84700 31.85400
H  43.67100 40.06500 30.71200
H  43.02000 39.42300 32.21300
H  43.48700 41.13800 32.11500
H  39.29000 40.89300 32.00800
H  38.88200 42.37000 31.35500
H  38.92500 43.57700 33.22300
H  40.54700 43.13600 33.73500
H  41.73800 35.46200 28.74600
H  42.77500 36.60200 29.43800
H  43.50900 35.69500 28.17700
H  41.91400 34.45800 26.69600
H  43.42700 34.62200 25.73800
H  42.18700 33.63600 25.11700
H  39.82500 39.74500 22.04300
H  40.50800 42.66200 21.83900
H  42.62300 39.93700 22.09600
H  42.06400 41.44500 21.28900
H  41.59900 39.95600 20.55400
H  38.26100 41.72900 21.15100
H  38.18000 43.11300 22.24500
H  38.10700 40.51600 23.75600
H  37.07200 40.51600 22.33100
H  36.91800 41.78200 23.58200
H  39.92400 47.47600 25.75300
H  38.79700 46.57800 24.96500
H  40.40400 46.44900 24.32900
H  39.39400 44.87500 30.71700
H  42.40100 45.26100 33.87900
H  41.79600 46.91400 33.80400
H  43.01900 46.32000 32.67400
Mg -5.66900 25.41700 26.26000
C  -4.44600 26.86700 29.25000
C  -7.65800 23.36800 28.16600
C  -6.43300 23.93900 23.37300
C  -3.42700 27.59800 24.53100
N  -5.90500 25.12000 28.52700
C  -5.41800 25.91200 29.50100
C  -6.04500 25.57400 30.80200
C  -6.88100 24.29800 30.40000
C  -6.82600 24.23500 28.94700
C  -6.43000 22.93700 31.01700
C  -6.85900 26.79300 31.44200
C  -6.79300 27.03900 32.92900
H  -6.27500 25.83200 33.77900
N  -6.88300 23.87600 25.78400
C  -7.68000 23.17500 26.71500
C  -8.51000 22.21600 26.05000
C  -8.06100 22.28800 24.64300
C  -7.12800 23.42300 24.49500
C  -9.45500 21.28900 26.71700
C  -8.40600 21.35000 23.47900
O  -8.08000 21.50000 22.29700
C  -9.35600 20.22300 23.66000
N  -5.05700 25.76100 24.20100
C  -5.52300 24.95000 23.21900
C  -4.80800 25.28300 21.87500
C  -4.13500 26.63200 22.21300
C  -4.25700 26.74800 23.74200
C  -3.88600 24.06300 21.53800
C  -4.84600 27.84700 21.58400
C  -4.49300 28.28800 20.15000
N  -4.20100 27.00500 26.81600
C  -3.36300 27.64200 25.95900
C  -2.47500 28.49900 26.77200
C  -2.89600 28.25200 28.05800
C  -3.93900 27.27900 28.00800
C  -1.45800 29.44900 26.09700
C  -2.70500 28.61800 29.45900
O  -1.99300 29.48000 29.91000
C  -3.66200 27.73500 30.26500
C  -2.88400 26.92300 31.21700
O  -2.44300 25.80400 31.02500
O  -2.63000 27.65000 32.33000
C  -2.00900 26.89000 33.42400
H  -8.40000 22.85700 28.78300
H  -6.73700 23.53400 22.40500
H  -2.83100 28.31500 23.96200
H  -5.22000 25.33500 31.47400
H  -7.90900 24.61000 30.58700
H  -6.66500 22.95000 32.08100
H  -5.34800 22.84200 30.92600
H  -7.02400 22.16600 30.52600
H  -7.91500 26.63000 31.22800
H  -6.58800 27.74100 30.97700
H  -7.76700 27.39800 33.26200
H  -6.18800 27.93200 33.08800
H  -10.40000 21.11600 26.20200
H  -9.53000 21.43100 27.79500
H  -8.92000 20.34300 26.63300
H  -10.39200 20.56000 23.62500
H  -9.05700 19.54600 24.46000
H  -9.29800 19.55400 22.80200
H  -5.48100 25.49400 21.04400
H  -3.10500 26.58900 21.86000
H  -2.84700 24.38600 21.59200
H  -4.10900 23.71800 20.52800
H  -4.00100 23.17200 22.15600
H  -4.63400 28.72400 22.19500
H  -5.90900 27.63200 21.48300
H  -5.27100 28.80800 19.59100
H  -3.95900 27.55800 19.54300
H  -3.77900 29.10800 20.22700
H  -2.07500 30.32200 25.89000
H  -0.92900 29.13400 25.19700
H  -0.76800 29.70600 26.90000
H  -4.35700 28.37600 30.80800
H  -0.92200 26.95800 33.38300
H  -2.32100 25.85200 33.54100
H  -1.97600 27.40500 34.38500

