158

Mg 47.93500 25.66400 27.60800
C  48.91900 27.94000 29.91800
C  46.91600 23.48900 30.14800
C  47.29000 23.21100 25.34400
C  49.46000 27.50700 25.18900
N  47.85200 25.73500 29.72700
C  48.27500 26.79000 30.52600
C  47.98300 26.56100 32.04300
C  47.40900 25.10300 32.04100
C  47.38800 24.74800 30.54300
C  48.20400 24.01900 32.83900
C  46.96700 27.61000 32.61100
C  47.47100 28.46300 33.78600
H  46.78400 28.42800 35.14100
N  47.21200 23.62900 27.69400
C  46.83100 22.92200 28.85600
C  46.21500 21.68300 28.49500
C  46.31000 21.68600 27.08600
C  47.01300 22.84300 26.63500
C  45.65100 20.74200 29.41700
C  45.72800 20.54500 26.16500
O  45.84500 20.47500 24.92200
C  45.06600 19.35500 26.80400
N  48.28400 25.31600 25.56700
C  47.81100 24.38000 24.80500
C  48.03000 24.63900 23.22900
C  48.62700 26.10300 23.23900
C  48.78500 26.36900 24.77100
C  48.83500 23.47100 22.60700
C  47.75500 27.29000 22.59000
C  48.47300 28.42200 21.88200
N  49.10000 27.28500 27.51900
C  49.68000 27.93100 26.48400
C  50.42600 29.13000 26.88300
C  50.12800 29.15300 28.24200
C  49.31600 27.99800 28.57600
C  51.19200 30.07500 26.03200
C  50.34500 29.88100 29.42100
O  51.14300 30.83400 29.57400
C  49.48900 29.18200 30.57300
C  50.59500 28.83000 31.49200
O  51.45800 27.97300 31.44600
O  50.46400 29.69500 32.57200
C  51.33700 29.50200 33.75600
H  46.50400 23.03200 31.05000
H  46.91600 22.41100 24.70200
H  49.74800 28.22700 24.42100
H  48.91400 26.62000 32.60600
H  46.40100 25.15100 32.45500
H  47.49200 23.54800 33.51700
H  49.00200 24.51900 33.38700
H  48.72100 23.24900 32.26500
H  45.93800 27.26700 32.72300
H  46.77100 28.37200 31.85700
H  47.42800 29.53100 33.57100
H  48.50500 28.26000 34.06400
H  46.02200 19.71700 29.40800
H  44.56800 20.63800 29.34500
H  45.85300 21.07100 30.43600
H  44.73100 18.70500 25.99600
H  44.27100 19.77100 27.42400
H  45.73600 18.79000 27.45300
H  47.08100 24.85700 22.73800
H  49.66600 26.10400 22.91000
H  48.52500 23.23200 21.59000
H  48.84800 22.66300 23.33900
H  49.76500 23.97800 22.35000
H  47.04800 27.66100 23.33200
H  47.13400 26.74200 21.88100
H  48.20400 29.24000 22.55000
H  47.99700 28.68500 20.93700
H  49.55300 28.28900 21.81700
H  51.80500 30.67100 26.70700
H  50.48200 30.60900 25.40100
H  51.84800 29.58800 25.31000
H  48.83400 29.93300 31.01300
H  50.69900 29.16200 34.57200
H  51.68500 30.47600 34.10300
H  52.19000 28.83500 33.63300
Mg 26.86900 50.76800 26.75600
C  24.89400 51.77400 29.57300
C  29.15100 49.69400 28.81000
C  28.94400 50.60400 24.03600
C  24.66800 52.64600 24.79900
N  26.97700 50.83400 28.97800
C  26.09500 51.15400 29.93800
C  26.56400 50.70800 31.33300
C  27.91900 50.00900 30.98100
C  28.01500 50.07700 29.42800
C  29.09700 50.67500 31.68400
C  25.58200 49.67900 32.02500
C  24.83100 50.18200 33.31000
H  24.82200 49.38200 34.58800
N  28.72500 50.10400 26.45700
C  29.51500 49.63900 27.43900
C  30.73400 49.07400 26.85600
C  30.73400 49.41000 25.44800
C  29.45700 50.11000 25.23400
C  31.80300 48.30200 27.60700
C  31.75000 48.98800 24.33400
O  31.60700 49.37200 23.14200
C  32.89500 48.02100 24.69100
N  26.66900 51.29500 24.62500
C  27.66900 51.09200 23.72900
C  27.19000 51.47900 22.28400
C  25.71400 52.09700 22.50200
C  25.68000 52.10300 24.08000
C  28.23900 52.39700 21.55900
C  24.57000 51.22200 22.00600
C  23.33500 51.93400 21.19000
N  25.12700 51.76700 27.04500
C  24.41100 52.49800 26.15900
C  23.26900 53.10700 26.75100
C  23.38200 52.85200 28.11600
C  24.55700 52.05100 28.24900
C  22.27500 54.05100 26.08000
C  22.94900 53.18100 29.46600
O  22.10900 53.95100 29.91200
C  23.80500 52.31200 30.44600
C  24.19900 53.36700 31.46400
O  25.22000 53.94700 31.45300
O  23.22200 53.45700 32.49100
C  23.42100 54.50500 33.57500
H  29.85200 49.14300 29.44000
H  29.56700 50.44700 23.15300
H  23.90900 53.10800 24.16500
H  26.65000 51.67400 31.83200
H  27.92100 48.93000 31.13600
H  29.64200 49.91900 32.24900
H  28.61700 51.30700 32.43100
H  29.76800 51.25000 31.04600
H  26.11700 48.77000 32.30200
H  24.81500 49.49700 31.27300
H  23.80200 50.37400 33.00500
H  25.24800 51.08000 33.76800
H  31.66800 48.16300 28.67900
H  32.73300 48.87100 27.60200
H  31.91000 47.30500 27.18000
H  33.47500 48.47900 25.49200
H  33.48900 47.79700 23.80500
H  32.61700 47.00500 24.97100
H  27.19400 50.54500 21.72300
H  25.54200 53.13100 22.20400
H  29.00900 52.70000 22.26800
H  27.69100 53.24900 21.15600
H  28.68800 51.91800 20.68900
H  24.17500 50.55700 22.77300
H  24.94400 50.55900 21.22500
H  22.44700 51.30300 21.21000
H  23.69800 51.93500 20.16200
H  23.09700 52.95100 21.50200
H  22.66900 55.06100 25.96500
H  21.38200 54.14100 26.69900
H  22.14900 53.58900 25.10100
H  23.19000 51.54900 30.92300
H  24.04400 54.00400 34.31600
H  22.45500 54.84400 33.94900
H  24.00100 55.32800 33.15700

