158

Mg 6.11700 57.17200 42.00500
C  5.11900 53.62900 41.63800
C  9.03600 56.22500 40.51100
C  6.66000 60.43800 41.37000
C  2.71300 57.79200 42.89400
N  6.78600 55.24900 41.13000
C  6.38900 53.95400 41.19000
C  7.33600 52.95200 40.55200
C  8.64100 53.72600 40.61300
C  8.10900 55.19300 40.74600
C  9.70500 53.30200 41.67000
C  6.83000 52.58700 39.05300
C  6.92100 51.14600 38.62100
H  6.31800 50.71200 37.30500
N  7.71700 58.21700 41.10000
C  8.80900 57.64000 40.58100
C  9.67500 58.78500 40.16500
C  9.05000 59.97600 40.49700
C  7.78200 59.58100 41.04000
C  11.04300 58.60600 39.50300
C  9.53800 61.36600 40.11600
O  10.66900 61.39500 39.65900
C  8.78700 62.70500 40.35900
N  4.79600 58.84900 42.09000
C  5.35400 60.09400 41.95900
C  4.23900 61.16000 42.18800
C  3.00700 60.31800 42.72000
C  3.49600 58.87900 42.68700
C  4.64000 62.28000 43.12900
C  1.57500 60.54500 42.03100
C  0.40400 60.90500 42.98200
N  4.26500 55.94100 42.24100
C  3.02300 56.40600 42.60300
C  2.14200 55.28700 42.75600
C  2.95400 54.16900 42.49400
C  4.18600 54.66200 42.03500
C  0.67800 55.28000 43.06100
C  2.98700 52.70400 42.38700
O  2.12400 51.88800 42.66300
C  4.39900 52.35800 41.90600
C  4.32900 51.31000 40.90100
O  3.85500 51.47200 39.77700
O  4.74100 50.08900 41.41500
C  4.30200 48.94000 40.65100
H  9.96000 55.88700 40.03900
H  6.88000 61.50700 41.34800
H  1.70600 58.05100 43.22800
H  7.46800 52.00600 41.07600
H  9.22900 53.73400 39.69600
H  10.53100 52.82100 41.14800
H  9.25900 52.57800 42.35200
H  10.03500 54.10400 42.33000
H  7.54400 53.14000 38.44300
H  5.86200 53.06200 38.89000
H  6.52000 50.44900 39.35600
H  7.99400 50.96300 38.67200
H  11.74900 59.31700 39.93200
H  10.94700 58.82700 38.44000
H  11.43000 57.58700 39.52800
H  7.86700 62.88900 39.80300
H  9.47600 63.53300 40.19300
H  8.55600 62.87500 41.41100
H  3.99300 61.63200 41.23700
H  2.92300 60.50100 43.79100
H  5.09000 63.10500 42.57700
H  5.47300 61.90300 43.72300
H  3.91300 62.52600 43.90300
H  1.18600 59.73800 41.41000
H  1.77900 61.40200 41.38900
H  -0.09100 59.94100 42.86700
H  -0.26100 61.70500 42.65700
H  0.82400 60.94700 43.98700
H  0.34900 54.35600 43.53600
H  0.29800 55.40000 42.04600
H  0.48700 56.15300 43.68500
H  4.84900 51.96400 42.81800
H  5.02400 48.82800 39.84200
H  3.31900 49.01100 40.18600
H  4.35100 48.09700 41.34000
Mg -0.15200 43.43400 25.74500
C  2.09800 42.82800 28.37600
C  -2.75100 42.63100 28.01500
C  -2.25600 43.11400 23.18000
C  2.50300 43.64400 23.54200
N  -0.30600 42.78800 27.99600
C  0.76900 42.67400 28.88200
C  0.29500 42.67800 30.37900
C  -1.22000 42.40700 30.18200
C  -1.50500 42.58800 28.64600
C  -1.78100 41.05700 30.70300
C  0.68500 44.05900 31.01500
C  1.06000 44.06400 32.50400
H  0.75800 42.87800 33.35200
N  -2.14600 43.10800 25.65200
C  -3.01200 42.80300 26.67100
C  -4.38500 42.58400 26.10900
C  -4.26900 42.84500 24.73500
C  -2.84200 43.00400 24.49400
C  -5.62000 42.29200 26.86400
C  -5.36900 42.88800 23.68200
O  -5.09900 43.29500 22.52800
C  -6.83600 42.44500 23.88900
N  0.07700 43.80400 23.56800
C  -0.89000 43.35000 22.72200
C  -0.36000 43.31500 21.23100
C  1.16800 43.65600 21.43000
C  1.24200 43.66600 22.99600
C  -0.50900 41.90000 20.45900
C  1.53400 44.98700 20.72200
C  1.44500 46.28500 21.52100
N  1.92400 43.22400 25.81900
C  2.92500 43.39700 24.87600
C  4.19800 43.23800 25.46900
C  3.92500 43.05300 26.81000
C  2.48100 42.98700 26.97200
C  5.59100 43.28900 24.84100
C  4.56000 42.90400 28.05400
O  5.74800 42.82600 28.35300
C  3.41400 42.74800 29.14600
C  3.65600 41.53800 29.97800
O  3.49400 40.39300 29.65500
O  4.30900 41.94500 31.10400
C  4.81900 40.93300 31.96100
H  -3.55500 42.48000 28.73800
H  -2.94800 42.87700 22.37000
H  3.33600 43.66900 22.83500
H  0.85000 41.89800 30.89900
H  -1.85600 43.16000 30.64700
H  -1.09600 40.24400 30.46200
H  -2.79400 40.81900 30.37800
H  -1.87000 41.17200 31.78400
H  -0.15600 44.72000 30.80500
H  1.55300 44.45400 30.48700
H  0.47400 44.86100 32.96100
H  2.09500 44.38700 32.61200
H  -6.38800 43.06500 26.83500
H  -5.41200 42.19500 27.93000
H  -6.11400 41.40000 26.47900
H  -7.30000 43.28200 24.41000
H  -6.88700 41.47500 24.38300
H  -7.44100 42.33400 22.98900
H  -0.77900 44.09800 20.59900
H  1.86200 42.86800 21.13600
H  -0.86600 41.05300 21.04500
H  0.46500 41.67200 20.02700
H  -1.25500 42.12100 19.69500
H  1.09200 45.16300 19.74100
H  2.60100 44.84500 20.55100
H  0.58900 46.46800 22.17100
H  1.34900 47.02600 20.72700
H  2.37200 46.52500 22.04100
H  5.57400 42.79700 23.86800
H  6.43000 42.86800 25.39600
H  5.95900 44.29500 24.64000
H  3.45900 43.71300 29.65000
H  5.82400 41.29400 32.18000
H  4.79000 39.95700 31.47700
H  4.24700 40.80000 32.88000

