158

Mg 6.75300 53.70000 41.61300
C  6.25600 50.35200 41.25200
C  10.05000 53.38900 40.41300
C  6.93700 57.11400 41.42400
C  3.25700 54.05000 42.12600
N  7.88700 52.06700 40.78500
C  7.53000 50.72600 40.84400
C  8.66500 49.87800 40.25400
C  9.89100 50.87000 40.48300
C  9.23300 52.20900 40.47700
C  10.62600 50.72900 41.85300
C  8.42900 49.38900 38.77600
C  8.15000 50.52700 37.69800
H  6.94600 50.24500 36.78800
N  8.27300 55.06300 41.07200
C  9.56100 54.75800 40.62700
C  10.36100 56.00500 40.59500
C  9.48900 57.05800 41.04900
C  8.13500 56.43800 41.17200
C  11.86000 55.92900 40.47100
C  10.01000 58.53800 41.26500
O  11.19000 58.88300 41.03100
C  9.16400 59.58700 41.71400
N  5.26800 55.37500 41.84700
C  5.65300 56.69600 41.70000
C  4.45300 57.62500 41.92900
C  3.25600 56.59600 42.07700
C  3.93000 55.25200 41.97700
C  4.58400 58.64900 43.08600
C  2.22000 56.71300 40.85200
C  0.77800 56.40200 41.15400
N  5.06700 52.48600 41.80800
C  3.71300 52.75300 42.11600
C  2.97100 51.55200 42.19100
C  3.99700 50.54200 41.94200
C  5.16300 51.20100 41.62700
C  1.49100 51.25900 42.33800
C  4.21000 49.12700 41.86200
O  3.37900 48.24000 41.97700
C  5.66400 48.96800 41.36700
C  5.39700 48.18100 40.13100
O  4.94600 48.66600 39.11900
O  6.04100 47.04600 40.13900
C  5.92900 46.17000 39.03700
H  11.11700 53.36500 40.18600
H  7.04900 58.20000 41.38800
H  2.22300 54.25400 42.41300
H  8.84600 48.97400 40.83600
H  10.61200 50.72800 39.67800
H  11.68800 50.80100 41.62000
H  10.28300 49.74500 42.17300
H  10.30600 51.52400 42.52800
H  7.66200 48.61500 38.77100
H  9.36500 48.88000 38.54600
H  8.94600 50.59300 36.95600
H  8.01800 51.44200 38.27600
H  12.05700 55.27300 39.62300
H  12.33300 55.51700 41.36300
H  12.31200 56.90900 40.31200
H  8.48600 59.69900 40.86700
H  9.65300 60.51000 42.02500
H  8.57300 59.30000 42.58400
H  4.39700 58.16100 40.98200
H  2.78500 56.71000 43.05300
H  3.74200 58.65600 43.77800
H  4.62900 59.66300 42.68800
H  5.46400 58.41600 43.68600
H  2.59500 56.04600 40.07500
H  2.13800 57.73200 40.47500
H  0.22400 57.33800 41.22900
H  0.63800 55.93900 42.13100
H  0.32200 55.72200 40.43500
H  1.13200 50.65900 41.50100
H  1.04900 52.25500 42.32800
H  1.26900 50.76300 43.28200
H  6.09000 48.34800 42.15600
H  4.96100 45.70100 39.21300
H  6.71000 45.41300 39.10200
H  6.04500 46.57600 38.03300
Mg -3.35400 34.74800 26.88600
C  -4.88400 33.02500 29.49800
C  -1.86500 36.78400 29.28300
C  -2.45200 36.97800 24.45400
C  -5.61500 33.20600 24.61000
N  -3.50000 34.98700 29.18000
C  -3.97600 33.96900 29.97300
C  -3.63400 34.26200 31.43500
C  -2.77600 35.54800 31.42000
C  -2.69200 35.87600 29.87900
C  -3.22400 36.68300 32.32000
C  -2.96500 33.00900 32.13400
C  -3.53900 32.68800 33.49000
H  -2.58500 33.12000 34.59700
N  -2.25800 36.47000 26.83800
C  -1.67400 37.11900 27.95500
C  -0.80900 38.21500 27.46600
C  -0.92800 38.20900 26.05100
C  -1.95300 37.22100 25.70300
C  0.00200 39.05700 28.41700
C  -0.15100 39.14800 25.03600
O  -0.21200 39.04200 23.81900
C  0.86100 40.03400 25.49400
N  -3.90200 35.01200 24.85200
C  -3.39500 35.99700 24.01700
C  -4.12900 36.02400 22.62500
C  -5.00300 34.69900 22.67100
C  -4.84100 34.25600 24.12100
C  -4.91700 37.39200 22.60300
C  -4.47000 33.63000 21.66300
C  -3.20700 32.69100 22.03500
N  -4.79100 33.19500 26.91300
C  -5.68800 32.70200 25.95000
C  -6.40700 31.63900 26.56100
C  -6.08900 31.72400 27.89300
C  -5.18700 32.74300 28.11700
C  -7.38300 30.73600 25.83500
C  -6.36600 31.09400 29.16800
O  -7.00600 30.13700 29.34700
C  -5.63700 31.91000 30.30100
C  -6.71900 32.51600 31.11300
O  -7.72800 33.09000 30.75700
O  -6.46200 32.24400 32.37300
C  -7.50200 32.48600 33.43700
H  -1.19200 37.30500 29.96700
H  -2.18600 37.73500 23.71300
H  -6.39300 32.82100 23.94800
H  -4.55700 34.45700 31.98100
H  -1.74100 35.30200 31.66000
H  -4.10100 36.33300 32.86400
H  -3.41700 37.63600 31.82900
H  -2.35900 36.80900 32.97200
H  -1.95000 33.35900 32.32300
H  -2.81900 32.08900 31.56700
H  -3.64200 31.60400 33.53900
H  -4.49100 33.21000 33.59000
H  1.06300 39.08500 28.17100
H  -0.00200 38.86200 29.49000
H  -0.28900 40.08500 28.20100
H  1.42200 40.39500 24.63100
H  1.63200 39.47800 26.02700
H  0.33700 40.73600 26.14300
H  -3.32600 36.05700 21.88900
H  -6.04700 34.98400 22.53800
H  -5.95000 37.19700 22.31700
H  -4.45800 38.07000 21.88300
H  -5.08800 37.88400 23.56100
H  -4.25800 34.21600 20.76900
H  -5.41100 33.11400 21.47500
H  -2.71600 33.07000 22.93200
H  -2.45700 32.67000 21.24500
H  -3.61500 31.71900 22.31300
H  -8.16300 30.41900 26.52700
H  -6.91900 29.82100 25.46700
H  -7.80400 31.27100 24.98400
H  -4.97400 31.35400 30.96300
H  -6.89200 32.57300 34.33600
H  -8.18000 31.64900 33.59900
H  -8.12900 33.35800 33.25000

