158

Mg 36.23300 49.03300 25.40900
C  36.40900 46.96600 28.23000
C  34.78700 51.41400 27.49000
C  35.90400 50.95700 22.68900
C  37.22400 46.29400 23.44800
N  35.49300 49.06100 27.61600
C  35.96400 48.25600 28.55800
C  35.57600 48.74800 29.99900
C  34.91400 50.17500 29.68700
C  35.03000 50.19600 28.14400
C  33.43000 50.47300 30.20800
C  36.81600 48.85000 30.89600
C  36.57000 48.44700 32.35500
H  36.67300 49.52400 33.51000
N  35.56500 50.97100 25.16500
C  34.92400 51.77800 26.11400
C  34.60300 53.03800 25.39800
C  35.10500 52.95400 24.05400
C  35.51400 51.55000 23.91800
C  33.95000 54.18500 26.20500
C  34.99700 54.03900 23.02400
O  35.39100 53.84100 21.89800
C  34.35800 55.36900 23.33900
N  36.53900 48.64500 23.36800
C  36.29500 49.62000 22.47500
C  36.56600 48.97300 21.06700
C  37.23400 47.61300 21.32000
C  37.04000 47.52700 22.81100
C  35.35400 48.86200 20.11800
C  38.66000 47.57700 20.83800
C  39.11500 46.17100 20.34300
N  36.79000 46.99000 25.74300
C  37.14600 45.98300 24.81100
C  37.46900 44.72800 25.56500
C  37.10200 45.01400 26.90700
C  36.75500 46.39500 26.96800
C  38.03900 43.44100 24.89700
C  37.07700 44.53100 28.24600
O  37.48500 43.45000 28.70500
C  36.65100 45.80200 29.20200
C  35.45700 45.45200 30.02300
O  34.29400 45.46400 29.63100
O  35.91600 45.26600 31.32100
C  34.99600 44.79500 32.32900
H  34.44000 52.21900 28.14000
H  35.70500 51.53400 21.78300
H  37.52200 45.44700 22.82700
H  34.81900 48.03700 30.32800
H  35.57900 50.95400 30.06000
H  32.87100 49.65700 30.66500
H  32.88400 50.78200 29.31700
H  33.41000 51.42700 30.73600
H  37.31700 49.81100 31.01500
H  37.55100 48.12700 30.54200
H  37.31200 47.69800 32.63200
H  35.60900 47.95000 32.49600
H  33.00600 54.57500 25.82500
H  34.67100 54.99900 26.27200
H  33.68700 53.90100 27.22400
H  34.69300 56.06200 22.56700
H  34.88000 55.60300 24.26700
H  33.28300 55.33300 23.51300
H  37.24800 49.68900 20.60800
H  36.72100 46.78400 20.83100
H  34.64700 49.58800 20.52100
H  34.97800 47.85900 19.92000
H  35.71400 49.35200 19.21300
H  39.32100 47.93100 21.63000
H  38.82700 48.28700 20.02700
H  39.88000 45.80000 21.02400
H  39.61700 46.38400 19.39900
H  38.29900 45.46300 20.20100
H  38.79000 43.60200 24.12400
H  37.28900 42.75500 24.50400
H  38.47100 42.88300 25.72700
H  37.51400 46.01200 29.83500
H  34.33500 44.06900 31.85600
H  34.39200 45.60700 32.73600
H  35.59200 44.36400 33.13400
Mg 17.19900 52.45800 25.64600
C  18.80600 51.04800 28.21400
C  14.50900 53.14500 27.66800
C  15.48900 53.78100 22.98800
C  19.83000 51.61000 23.53100
N  16.69900 51.97500 27.71500
C  17.60700 51.61400 28.63200
C  17.03000 51.93000 29.98800
C  15.53400 52.09200 29.79600
C  15.53400 52.37900 28.25800
C  14.71000 50.76800 30.09500
C  17.69200 53.15000 30.56000
C  18.32100 53.16900 31.98200
H  17.63000 52.34900 33.08800
N  15.21100 53.25700 25.42200
C  14.32300 53.53500 26.37700
C  13.23700 54.33400 25.82600
C  13.38300 54.34200 24.40700
C  14.76900 53.77400 24.21100
C  12.27500 55.11500 26.65800
C  12.35200 54.87300 23.34500
O  12.62100 54.88500 22.16800
C  10.92900 55.34400 23.75300
N  17.51800 52.53300 23.46900
C  16.72500 53.25100 22.65700
C  17.38400 53.41500 21.29900
C  18.76400 52.72800 21.44600
C  18.73600 52.25900 22.90400
C  16.49600 52.92900 20.06400
C  19.93200 53.61000 21.08100
C  21.08500 52.93100 20.40500
N  18.84600 51.24900 25.71700
C  19.84900 51.06100 24.82400
C  20.84500 50.18200 25.50100
C  20.45600 50.09300 26.83900
C  19.29700 50.91200 26.92500
C  22.11700 49.60400 24.84200
C  20.80900 49.73500 28.21700
O  21.79900 49.13500 28.56600
C  19.84300 50.46600 29.13700
C  19.22500 49.49000 30.09900
O  18.34900 48.66700 29.93800
O  19.86500 49.58200 31.34800
C  19.58600 48.54400 32.32800
H  13.75700 53.41700 28.41200
H  15.02400 54.37900 22.20100
H  20.70500 51.50900 22.88600
H  17.25900 51.11600 30.67600
H  15.09500 52.89300 30.39100
H  13.96600 50.89700 30.88100
H  15.25100 49.86100 30.36300
H  14.22700 50.52400 29.14900
H  16.93300 53.91000 30.74700
H  18.43000 53.68400 29.96300
H  18.36700 54.22900 32.23100
H  19.37800 52.90900 32.02500
H  11.29600 54.63700 26.69400
H  12.00300 56.09100 26.25600
H  12.61100 55.26100 27.68500
H  10.44300 54.38900 23.95100
H  10.55300 55.70400 22.79500
H  10.88000 56.06700 24.56700
H  17.56000 54.48300 21.17600
H  18.78300 51.82800 20.83100
H  16.15200 51.92300 20.30600
H  17.09200 52.94500 19.15200
H  15.61100 53.56600 20.07200
H  20.30700 54.25500 21.87500
H  19.56800 54.33400 20.35300
H  20.84800 51.89000 20.18500
H  21.94600 52.99900 21.07000
H  21.51700 53.44700 19.54700
H  22.54300 50.36700 24.19000
H  21.70800 48.76000 24.28700
H  22.71300 49.28100 25.69600
H  20.42500 51.18600 29.71300
H  19.66600 48.83100 33.37600
H  20.31600 47.73900 32.25000
H  18.53300 48.27300 32.24600

