158

Mg 53.65800 24.82400 45.52700
C  51.17400 27.03500 44.41700
C  52.02800 22.20200 43.88200
C  56.54400 22.86400 45.78100
C  55.51600 27.62800 46.49800
N  51.80300 24.74600 44.18100
C  50.95800 25.72500 43.89800
C  49.79700 25.10200 43.03500
C  49.89100 23.57200 43.30800
C  51.32400 23.53600 43.84700
C  48.78400 22.95100 44.26500
C  49.70400 25.52800 41.53300
C  50.99300 25.52700 40.69200
H  52.17300 24.59700 41.03500
N  54.12900 22.77200 44.95900
C  53.27900 21.85200 44.35000
C  53.96000 20.54500 44.41800
C  55.27200 20.74300 44.99500
C  55.35500 22.19600 45.25600
C  53.31500 19.39600 43.70900
C  56.31700 19.66400 45.25000
O  56.10600 18.51500 44.91500
C  57.58500 19.83900 45.95400
N  55.73900 25.19500 45.92500
C  56.70000 24.24200 46.03400
C  58.02700 24.76300 46.59600
C  57.74300 26.32600 46.51700
C  56.20800 26.40500 46.33100
C  58.29100 24.22800 48.00900
C  58.55600 27.13600 45.48900
C  58.69700 28.64200 45.71100
N  53.36700 26.88800 45.60700
C  54.19400 27.85600 46.17400
C  53.41400 29.02100 46.32400
C  52.26700 28.82300 45.57400
C  52.32100 27.48700 45.07600
C  53.79500 30.23100 47.05200
C  51.04800 29.41900 45.11800
O  50.57400 30.55500 45.28000
C  50.29500 28.30500 44.29600
C  50.03500 28.72400 42.90400
O  50.88800 28.93800 42.03800
O  48.65000 28.82800 42.71900
C  48.28900 29.18400 41.31600
H  51.56500 21.37200 43.34400
H  57.49000 22.33600 45.91600
H  56.02200 28.53600 46.83300
H  48.88200 25.54100 43.43400
H  49.88800 22.92600 42.43000
H  47.86800 23.54200 44.23000
H  49.12600 22.76400 45.28300
H  48.69700 21.96200 43.81600
H  49.18100 26.47100 41.37400
H  49.08400 24.80200 41.00800
H  51.33700 26.55200 40.55300
H  50.67500 25.32500 39.67000
H  53.11000 19.64800 42.66800
H  52.29800 19.18100 44.03800
H  53.84500 18.44400 43.73900
H  57.81400 18.83700 46.31500
H  57.50700 20.44000 46.86100
H  58.36700 20.25900 45.32200
H  58.81500 24.46700 45.90400
H  58.05300 26.78300 47.45700
H  58.05200 23.17500 48.15800
H  57.83600 24.86800 48.76500
H  59.37800 24.21900 47.93800
H  58.07200 27.02900 44.51800
H  59.54500 26.67800 45.45300
H  59.73900 28.70500 46.02400
H  57.99800 28.98000 46.47600
H  58.53100 29.17600 44.77600
H  54.37000 30.08200 47.96600
H  52.89200 30.78700 47.30400
H  54.45100 30.85900 46.45100
H  49.34000 28.10800 44.78400
H  48.76800 28.55200 40.56800
H  48.37600 30.24800 41.09300
H  47.27200 28.96500 40.98900
Mg -12.21100 15.93600 41.87600
C  -9.36900 14.12500 41.23200
C  -10.80200 18.63000 40.10400
C  -15.32600 17.37200 41.68900
C  -13.72200 12.95500 42.96300
N  -10.44500 16.15800 40.56200
C  -9.35500 15.34100 40.56300
C  -8.11000 15.94900 39.90400
C  -8.54300 17.50500 39.79200
C  -10.07600 17.46100 40.15400
C  -7.67600 18.53700 40.57900
C  -7.61600 15.17800 38.64900
C  -6.16300 14.78000 38.67200
H  -5.40600 15.60500 37.60600
N  -13.00400 17.84900 41.18400
C  -12.19500 18.77400 40.51200
C  -13.01800 19.89000 40.28200
C  -14.32300 19.57200 40.62800
C  -14.29000 18.19400 41.23300
C  -12.34000 21.16000 39.74700
C  -15.52000 20.45400 40.41100
O  -15.36200 21.50900 39.72800
C  -16.86500 20.19700 40.98300
N  -14.24700 15.28100 42.27700
C  -15.32700 16.08700 42.13500
C  -16.61300 15.26000 42.41000
C  -16.07700 13.87800 42.86300
C  -14.59000 14.08500 42.72000
C  -17.59700 16.12100 43.35000
C  -16.64900 12.65100 42.06700
C  -17.48000 11.62600 42.83600
N  -11.71300 13.92700 42.13600
C  -12.36900 12.85800 42.72600
C  -11.44400 11.70600 42.93300
C  -10.23800 12.24800 42.36500
C  -10.47900 13.53100 41.88400
C  -11.76500 10.31700 43.56600
C  -8.86300 11.90700 42.09700
O  -8.22400 10.88600 42.43500
C  -8.21200 13.15400 41.39800
C  -7.10400 13.56200 42.38500
O  -7.24700 14.09900 43.44500
O  -5.92600 13.12500 41.86800
C  -4.69100 13.38000 42.69800
H  -10.42900 19.58600 39.73000
H  -16.34200 17.73100 41.51300
H  -14.16500 12.06900 43.42300
H  -7.25600 15.84100 40.57200
H  -8.50900 17.76300 38.73300
H  -7.19300 19.26700 39.93000
H  -7.02000 18.06300 41.30900
H  -8.30800 19.08400 41.27900
H  -7.80000 15.77700 37.75600
H  -8.14400 14.23000 38.54600
H  -6.17500 13.70300 38.50300
H  -5.63600 15.04200 39.58900
H  -12.98200 22.04100 39.75500
H  -11.86600 21.15600 38.76600
H  -11.50400 21.43400 40.39000
H  -17.42400 21.12800 41.08000
H  -16.84800 19.80500 42.00000
H  -17.35400 19.54400 40.26000
H  -17.12600 15.19000 41.45100
H  -16.16800 13.82700 43.94800
H  -18.41000 16.48100 42.71900
H  -16.98100 16.89100 43.81400
H  -17.92700 15.42100 44.11900
H  -15.88400 12.20600 41.43200
H  -17.40400 12.93600 41.33500
H  -18.53600 11.88100 42.74800
H  -17.09600 11.52500 43.85200
H  -17.30600 10.59700 42.52300
H  -10.90600 9.85600 44.05400
H  -12.17800 9.63200 42.82500
H  -12.48800 10.47900 44.36600
H  -7.74500 12.88100 40.45200
H  -3.86600 12.73900 42.38500
H  -4.84900 13.28900 43.77300
H  -4.41800 14.40700 42.45600

