158

Mg 1.76300 -0.95800 43.97700
C  5.07400 -0.39900 43.12500
C  1.00000 2.00300 42.46300
C  -1.51300 -1.90000 44.08700
C  2.72000 -4.16900 44.87800
N  2.94000 0.50800 42.89500
C  4.24000 0.60700 42.60400
C  4.71600 1.85200 41.88100
C  3.41500 2.66900 42.00100
C  2.41300 1.69000 42.55800
C  3.51800 4.01100 42.74500
C  5.25200 1.54100 40.38400
C  6.47400 2.44200 40.03500
H  6.28500 3.38900 38.87700
N  0.01400 -0.12000 43.34800
C  -0.11800 1.15900 42.77600
C  -1.46200 1.53000 42.61400
C  -2.19000 0.42700 43.09200
C  -1.22500 -0.61500 43.51600
C  -1.96300 2.81600 41.93000
C  -3.71500 0.39100 43.13400
O  -4.43900 1.34900 42.82300
C  -4.50500 -0.86200 43.52600
N  0.77600 -2.76200 44.48000
C  -0.55700 -2.86900 44.49600
C  -1.03200 -4.31400 44.95600
C  0.26800 -5.04500 45.08900
C  1.31100 -3.98700 44.73300
C  -1.92900 -4.29700 46.26000
C  0.30400 -6.39000 44.18600
C  0.60000 -7.68100 44.98900
N  3.57500 -2.04300 44.17800
C  3.75000 -3.30400 44.69000
C  5.17200 -3.62500 44.68000
C  5.76400 -2.48500 44.10700
C  4.74200 -1.60000 43.74700
C  5.83100 -4.99400 45.18500
C  7.00700 -1.86400 43.71800
O  8.19100 -2.12300 43.84800
C  6.61400 -0.44900 43.00500
C  7.33300 0.50600 43.77200
O  7.05200 0.92400 44.87400
O  8.47000 0.75100 43.07100
C  9.20600 1.97900 43.48800
H  0.73500 3.02100 42.16800
H  -2.58200 -2.11600 44.03100
H  2.99000 -5.19600 45.13300
H  5.56300 2.32500 42.37800
H  2.98600 3.01300 41.06000
H  2.91900 4.04400 43.65600
H  3.08600 4.76800 42.09000
H  4.48900 4.22700 43.19000
H  4.48500 1.84300 39.67200
H  5.40700 0.46400 40.32500
H  7.34400 1.81400 39.84000
H  6.70400 3.05300 40.90700
H  -3.00500 3.03600 42.15900
H  -1.89100 2.83900 40.84300
H  -1.29600 3.59200 42.30400
H  -5.56900 -0.65000 43.41900
H  -4.31000 -0.93700 44.59600
H  -4.24700 -1.75400 42.95600
H  -1.69700 -4.70300 44.18400
H  0.35800 -5.19900 46.16400
H  -1.55100 -4.96000 47.03800
H  -2.84100 -4.77600 45.90400
H  -2.18100 -3.30100 46.62400
H  1.02500 -6.17600 43.39700
H  -0.66700 -6.54300 43.71500
H  1.43800 -8.23100 44.56300
H  -0.26300 -8.33300 45.12900
H  0.86700 -7.27500 45.96500
H  6.91400 -4.87500 45.18500
H  5.60700 -5.68200 44.37000
H  5.52700 -5.36000 46.16600
H  6.92700 -0.40900 41.96200
H  10.14100 1.66400 43.95000
H  8.68300 2.47800 44.30500
H  9.47000 2.71800 42.73200
Mg -11.07400 17.45200 42.84300
C  -7.72200 17.72200 43.26400
C  -11.37900 20.98400 42.72100
C  -14.28100 17.26600 41.55700
C  -10.56700 14.03000 42.18700
N  -9.69600 19.13500 43.04300
C  -8.34200 18.99100 43.21800
C  -7.74000 20.40700 43.20100
C  -8.96900 21.33000 43.39400
C  -10.12300 20.51700 43.05300
C  -9.16400 21.89800 44.87500
C  -7.04600 20.66800 41.83700
C  -5.64200 21.24600 41.76600
H  -4.60100 20.32800 40.96100
N  -12.66000 18.93400 42.37800
C  -12.50500 20.26100 42.33200
C  -13.79900 20.87100 42.05300
C  -14.73500 19.79200 41.82900
C  -13.88800 18.60600 41.85500
C  -14.07900 22.35500 41.99100
C  -16.22200 19.91900 41.51500
O  -16.71400 21.01300 41.34900
C  -17.14800 18.76800 41.35700
N  -12.19200 15.95200 41.72200
C  -13.57700 16.04000 41.49700
C  -14.20600 14.64800 41.35700
C  -13.02000 13.69200 41.69600
C  -11.86000 14.55300 41.85000
C  -15.42400 14.51400 42.27000
C  -12.73200 12.52900 40.64600
C  -12.07200 13.09100 39.35700
N  -9.52700 16.07300 42.80500
C  -9.42100 14.72800 42.54700
C  -8.11900 14.24600 42.87000
C  -7.35600 15.38800 43.17800
C  -8.29500 16.46500 43.05900
C  -7.61400 12.85500 42.73700
C  -6.06500 15.87900 43.51400
O  -4.94500 15.38900 43.50500
C  -6.23400 17.43900 43.51300
C  -5.64100 18.06900 44.71500
O  -6.20300 18.26500 45.82100
O  -4.40900 18.63900 44.39800
C  -3.73700 19.33600 45.58500
H  -11.48200 22.05700 42.89700
H  -15.31900 17.02600 41.31800
H  -10.48900 12.94200 42.13300
H  -6.90500 20.59000 43.87800
H  -9.00000 22.17000 42.70000
H  -8.94000 22.96200 44.94700
H  -8.41000 21.42400 45.50200
H  -10.16400 21.79900 45.29700
H  -7.69800 21.20400 41.14700
H  -7.01500 19.69900 41.33900
H  -5.27900 21.52600 42.75500
H  -5.59600 22.10500 41.09800
H  -14.48500 22.72700 41.05000
H  -13.27100 23.00100 42.33600
H  -14.79200 22.56000 42.79000
H  -18.15500 19.18300 41.37200
H  -17.04400 18.10100 42.21300
H  -16.92200 18.38400 40.36200
H  -14.53300 14.63000 40.31700
H  -13.15200 13.24700 42.68200
H  -15.32300 14.93500 43.27000
H  -15.43900 13.42700 42.35000
H  -16.30200 14.91600 41.76400
H  -13.71000 12.14800 40.35400
H  -12.20800 11.67800 41.08000
H  -12.75900 13.15700 38.51400
H  -11.26000 12.48500 38.95400
H  -11.73800 14.12500 39.44900
H  -6.66600 12.69400 43.25000
H  -7.45400 12.59100 41.69100
H  -8.41400 12.28400 43.20800
H  -5.64600 17.76100 42.65400
H  -2.87000 19.93600 45.30900
H  -3.55200 18.67200 46.42900
H  -4.46600 20.01100 46.03200

