158

Mg 16.81500 51.75500 26.79700
C  18.88200 50.48200 29.22400
C  14.58000 52.78500 29.17200
C  14.74800 52.61000 24.25600
C  19.01300 50.40800 24.38600
N  16.69500 51.49500 28.82800
C  17.72800 51.08800 29.74200
C  17.34500 51.31500 31.15900
C  15.84400 51.74600 31.14100
C  15.70100 52.00700 29.62700
C  14.86000 50.72600 31.79100
C  18.25300 52.45000 31.77900
C  18.40200 52.46200 33.31100
H  17.44400 51.51600 34.18200
N  15.00000 52.73200 26.67000
C  14.25200 53.04500 27.84200
C  13.13800 53.85200 27.38500
C  13.17600 53.85400 25.90200
C  14.37300 53.03100 25.55000
C  12.11100 54.44400 28.38600
C  12.19300 54.54700 24.92300
O  12.36700 54.50300 23.70900
C  11.01300 55.29800 25.42500
N  16.89600 51.43700 24.62400
C  15.90000 51.93800 23.86100
C  16.17800 51.65000 22.35900
C  17.62900 50.99700 22.37000
C  17.88800 50.92700 23.87400
C  15.15900 50.67600 21.84400
C  18.73900 51.85200 21.58400
C  19.04600 53.21300 22.07800
N  18.54900 50.65900 26.78700
C  19.33000 50.25400 25.74600
C  20.47700 49.52100 26.25500
C  20.34600 49.66100 27.60600
C  19.16200 50.34700 27.89500
C  21.59200 48.81700 25.49700
C  21.01000 49.32500 28.89400
O  22.05800 48.76500 29.07400
C  20.01800 49.80900 30.04600
C  19.47500 48.67300 30.83000
O  18.77300 47.83500 30.34400
O  19.96800 48.65000 32.11100
C  19.54700 47.53200 32.86900
H  13.95600 53.08000 30.01800
H  14.11000 52.84200 23.40100
H  19.64200 49.89300 23.65600
H  17.54600 50.39700 31.71000
H  15.67400 52.71500 31.61000
H  15.46700 49.97700 32.29900
H  14.29600 50.21600 31.00900
H  14.17900 51.22500 32.48100
H  17.80900 53.40400 31.49500
H  19.28400 52.34400 31.44000
H  18.04800 53.45400 33.59100
H  19.43000 52.25100 33.60400
H  12.58800 55.26000 28.92900
H  11.96900 53.69000 29.15900
H  11.14200 54.71700 27.96800
H  10.22400 54.57300 25.62700
H  10.72300 55.97400 24.62100
H  11.40500 55.99900 26.16100
H  16.18900 52.54800 21.74100
H  17.55700 49.95300 22.06500
H  14.58500 51.32200 21.17900
H  14.48700 50.11500 22.49300
H  15.72000 49.99200 21.20700
H  18.52100 52.01200 20.52800
H  19.63300 51.23500 21.67700
H  18.20300 53.67800 22.59100
H  19.28800 53.85200 21.22900
H  19.94900 53.21900 22.68900
H  22.60900 49.14300 25.72100
H  21.45100 48.97800 24.42900
H  21.64400 47.78100 25.83100
H  20.52400 50.54300 30.67300
H  18.46300 47.54400 32.98200
H  19.98600 47.49600 33.86600
H  19.70300 46.52100 32.49300
Mg -1.94900 34.08200 26.30400
C  -3.56300 32.75000 29.00400
C  -0.03200 36.03200 28.56400
C  -0.49100 35.51300 23.73100
C  -3.69700 32.03200 24.11900
N  -1.89500 34.36800 28.53000
C  -2.60800 33.68500 29.42800
C  -2.20800 33.99300 30.90300
C  -1.27200 35.23600 30.65300
C  -1.04700 35.19600 29.11600
C  -1.80000 36.52400 31.21300
C  -1.57700 32.73700 31.56000
C  -2.45100 32.13800 32.64600
H  -1.86000 32.02800 34.00900
N  -0.36600 35.53700 26.11700
C  0.29300 36.22700 27.19100
C  1.22100 37.19900 26.61500
C  1.11300 37.04000 25.15400
C  0.01600 36.03600 24.89900
C  1.93600 38.25400 27.47900
C  1.96700 37.67200 24.07900
O  1.86900 37.56600 22.87000
C  3.22000 38.46300 24.55300
N  -2.26100 33.96600 24.22500
C  -1.52100 34.61600 23.41000
C  -1.62300 34.19400 21.88300
C  -2.41200 32.83800 22.01600
C  -2.87300 32.94400 23.53300
C  -2.28300 35.25500 20.87900
C  -1.43500 31.55500 21.85500
C  -1.95000 30.27400 21.30100
N  -3.43000 32.67800 26.46800
C  -3.94100 31.84800 25.51900
C  -4.91800 30.96600 26.13500
C  -4.74400 31.23100 27.51000
C  -3.88100 32.34800 27.64500
C  -5.83700 30.07700 25.52900
C  -5.13500 30.80500 28.82900
O  -5.85600 29.91000 29.17400
C  -4.45000 31.84300 29.82400
C  -5.46300 32.49700 30.69500
O  -6.03400 33.57400 30.41400
O  -5.71500 31.76900 31.84500
C  -6.77700 32.25400 32.66900
H  0.60800 36.59400 29.24700
H  0.06900 35.87700 22.86700
H  -4.15400 31.22800 23.53900
H  -3.16800 34.16900 31.38700
H  -0.30800 35.01800 31.11200
H  -2.88500 36.59500 31.13200
H  -1.41700 37.29200 30.54000
H  -1.40900 36.74400 32.20600
H  -0.65500 33.05400 32.04700
H  -1.49100 31.99300 30.76900
H  -2.75000 31.13800 32.33100
H  -3.38500 32.69000 32.75300
H  1.53300 38.34000 28.48700
H  1.78800 39.20500 26.96800
H  2.98000 37.95500 27.57400
H  3.65400 38.84400 23.62900
H  3.74400 37.64800 25.05200
H  2.83200 39.29100 25.14700
H  -0.59600 34.06300 21.54200
H  -3.27900 32.77700 21.35800
H  -3.01000 34.67400 20.31200
H  -1.55000 35.65500 20.17900
H  -2.92900 35.99000 21.35900
H  -0.80500 31.27700 22.69900
H  -0.67500 31.89900 21.15400
H  -1.53000 30.19700 20.29800
H  -3.03100 30.25600 21.16500
H  -1.58100 29.46600 21.93400
H  -5.47800 29.60100 24.61600
H  -6.81900 30.54500 25.45900
H  -5.81200 29.24000 26.22600
H  -3.77500 31.36200 30.53100
H  -7.48000 31.42300 32.72900
H  -7.27600 33.13600 32.26700
H  -6.57100 32.52400 33.70500

