158

Mg 5.57200 54.12200 40.98300
C  4.61800 50.71500 40.32100
C  8.60300 53.46600 39.60500
C  6.13400 57.48600 41.16300
C  2.31900 54.51100 42.35700
N  6.30900 52.41600 39.81100
C  5.83700 51.14600 39.75600
C  6.78200 50.30400 38.93200
C  8.17900 51.01000 39.21200
C  7.67200 52.37500 39.60600
C  9.12000 50.42800 40.27600
C  6.33700 50.28800 37.42800
C  7.24600 49.39100 36.47300
H  6.30900 48.56600 35.50500
N  7.17900 55.34900 40.36400
C  8.34800 54.84300 39.94400
C  9.29400 55.97400 39.85100
C  8.51800 57.16500 40.09800
C  7.19800 56.72400 40.52900
C  10.65300 55.77900 39.39600
C  9.04100 58.50800 40.06500
O  10.18900 58.74700 39.63100
C  8.25500 59.73700 40.42200
N  4.34000 55.70100 41.48200
C  4.88200 56.95800 41.60000
C  3.93800 57.97100 42.31300
C  2.75600 57.02000 42.79900
C  3.16100 55.63200 42.21100
C  4.61600 58.86000 43.47800
C  1.30100 57.53300 42.33200
C  0.54100 58.30800 43.34500
N  3.72500 52.83300 41.25900
C  2.57800 53.18100 41.98300
C  1.77700 51.94200 42.12200
C  2.60400 50.99700 41.53400
C  3.68600 51.54900 40.96700
C  0.42900 51.81000 42.79600
C  2.51300 49.63100 41.27700
O  1.71500 48.78800 41.64700
C  3.93000 49.37000 40.43500
C  3.50500 48.62200 39.15600
O  2.45300 48.59200 38.50400
O  4.63200 47.87600 38.83200
C  4.70600 46.64000 38.10200
H  9.62200 53.25600 39.27300
H  6.33900 58.54200 41.35200
H  1.40500 54.73000 42.91400
H  6.95700 49.31500 39.35600
H  8.63600 51.11000 38.22800
H  10.12800 50.24600 39.90300
H  8.75000 49.47900 40.66400
H  9.15900 51.10100 41.13300
H  6.44400 51.29200 37.01700
H  5.29400 50.02300 37.25800
H  7.95400 48.62700 36.79100
H  7.82000 50.10900 35.88800
H  11.33000 56.24000 40.11600
H  10.66000 55.98100 38.32500
H  10.87600 54.72700 39.57100
H  8.91200 60.54600 40.10200
H  8.05600 59.74900 41.49400
H  7.37200 59.75300 39.78400
H  3.50700 58.60800 41.54100
H  2.63500 56.83400 43.86600
H  4.19100 58.71000 44.47000
H  4.26100 59.88200 43.34500
H  5.69700 58.73200 43.52600
H  0.72600 56.67400 41.98600
H  1.45000 58.15500 41.45000
H  -0.15200 58.98600 42.84700
H  1.23700 58.88700 43.95200
H  -0.02200 57.56600 43.91100
H  0.01100 50.88200 42.40600
H  -0.19900 52.66200 42.53800
H  0.64000 51.73700 43.86300
H  4.39000 48.65000 41.11100
H  4.15400 45.86000 38.62500
H  5.73800 46.35200 37.90300
H  4.32000 46.90400 37.11700
Mg -10.64900 38.59300 41.01400
C  -8.59500 35.79600 40.53700
C  -8.46500 40.50600 39.35000
C  -12.92700 41.07200 41.24300
C  -13.12400 36.40200 42.49200
N  -8.83600 38.11500 39.84500
C  -8.15800 36.90700 39.77300
C  -6.88600 37.05900 38.94500
C  -6.81600 38.60300 38.65000
C  -8.10400 39.15700 39.37100
C  -5.47800 39.17900 39.14400
C  -6.93300 36.12700 37.70000
C  -5.60100 35.40300 37.31300
H  -4.54900 36.17900 36.45100
N  -10.64300 40.53600 40.41400
C  -9.59900 41.21700 39.76000
C  -9.94700 42.60300 39.58800
C  -11.31700 42.80900 40.03300
C  -11.70900 41.46200 40.64800
C  -8.96500 43.65800 39.16800
C  -12.06800 44.17500 40.00300
O  -11.61800 45.17600 39.54800
C  -13.41600 44.23100 40.75800
N  -12.80400 38.60600 41.48800
C  -13.39600 39.80800 41.63900
C  -14.84300 39.70500 42.17100
C  -15.01400 38.18300 42.34400
C  -13.56500 37.65600 42.12700
C  -15.17000 40.59400 43.36800
C  -16.01800 37.50200 41.32300
C  -15.53500 36.88800 40.00800
N  -10.86500 36.58600 41.44500
C  -11.84300 35.87100 42.10900
C  -11.34400 34.57700 42.44200
C  -10.09900 34.51700 41.83700
C  -9.84800 35.76800 41.23200
C  -12.15500 33.49900 43.10300
C  -8.98000 33.65500 41.58100
O  -8.88600 32.51700 41.91800
C  -7.95900 34.42700 40.80600
C  -6.66000 34.33900 41.52200
O  -5.97200 33.32200 41.49600
O  -6.36400 35.51100 42.23400
C  -5.15000 35.50300 43.13600
H  -7.63600 41.11100 38.97600
H  -13.69300 41.80700 41.49800
H  -13.83300 35.71100 42.95300
H  -6.00100 36.73800 39.49300
H  -6.80000 38.97100 37.62400
H  -5.59900 39.61900 40.13400
H  -5.10400 39.96500 38.48700
H  -4.73800 38.40300 39.33900
H  -7.18100 36.83700 36.91200
H  -7.71700 35.38600 37.85700
H  -5.96100 34.57500 36.70200
H  -5.12400 35.00700 38.21000
H  -7.95000 43.26100 39.19000
H  -9.05500 44.39700 39.96400
H  -9.15200 44.18800 38.23500
H  -13.23900 44.06000 41.82000
H  -14.07500 43.48900 40.30700
H  -13.88900 45.21100 40.70700
H  -15.48000 39.95900 41.32400
H  -15.34700 37.91100 43.34500
H  -14.18800 40.92700 43.70400
H  -15.61400 39.99500 44.16300
H  -15.75600 41.45000 43.03000
H  -16.83500 38.16800 41.04900
H  -16.38400 36.60600 41.82500
H  -16.13200 37.05200 39.11200
H  -15.32800 35.81800 40.00500
H  -14.56100 37.36400 39.89100
H  -12.55100 33.80800 44.07000
H  -11.42300 32.75800 43.42300
H  -12.94700 33.07000 42.48900
H  -8.06800 33.96600 39.82500
H  -5.38800 35.59100 44.19600
H  -4.65800 36.47400 43.07100
H  -4.39000 34.74100 42.96500

