158

Mg 26.01000 51.43000 26.26100
C  23.76500 52.55400 28.57100
C  28.09000 50.41300 28.97100
C  28.43100 50.86700 24.10900
C  24.04100 52.83300 23.72600
N  26.03800 51.74300 28.54600
C  24.91200 52.10500 29.26400
C  25.18900 52.01500 30.81300
C  26.63200 51.57000 30.80000
C  27.01100 51.21600 29.35100
C  27.59700 52.67700 31.34500
C  24.18400 50.97700 31.55300
C  23.47300 51.51500 32.75600
H  24.27300 51.94300 34.04300
N  27.93200 50.64100 26.48000
C  28.52700 50.23800 27.60100
C  29.90500 49.91300 27.30800
C  30.10300 50.08500 25.89800
C  28.76300 50.58200 25.41700
C  30.87600 49.31300 28.44100
C  31.24200 49.83100 24.94600
O  31.22900 50.04100 23.72500
C  32.47400 49.36200 25.56900
N  26.23100 51.94800 24.17800
C  27.30300 51.44800 23.48700
C  27.14400 51.79700 22.03200
C  25.64200 52.25100 21.85500
C  25.28000 52.36300 23.32500
C  28.28700 52.61300 21.32600
C  24.83600 51.13700 21.12400
C  23.61400 51.60600 20.41200
N  24.16200 52.38100 26.15200
C  23.46900 52.78700 25.04000
C  22.09600 53.24700 25.49100
C  22.20900 53.12400 26.88000
C  23.45900 52.58300 27.19700
C  20.95600 53.83300 24.63100
C  21.47600 53.41800 28.14600
O  20.36400 53.86300 28.40100
C  22.51600 53.07000 29.29000
C  22.73800 54.29700 30.13100
O  23.83200 54.93900 30.16400
O  21.77900 54.37200 31.13700
C  22.11800 55.27900 32.23600
H  28.68300 50.12300 29.84000
H  29.19600 50.66500 23.35700
H  23.49200 53.18700 22.85100
H  25.03900 53.01000 31.23000
H  26.77100 50.69300 31.43300
H  27.08400 53.28600 32.09000
H  27.92200 53.29500 30.50900
H  28.56600 52.27500 31.64100
H  24.86800 50.22900 31.95300
H  23.44200 50.57700 30.86200
H  22.77200 50.70200 32.94300
H  23.01800 52.43800 32.39700
H  30.29600 48.95500 29.29200
H  31.50300 50.11000 28.84100
H  31.48400 48.48400 28.07800
H  32.32100 48.33000 25.88300
H  32.70600 49.90100 26.48800
H  33.30000 49.52600 24.87800
H  27.35100 50.80600 21.62800
H  25.59300 53.24400 21.40800
H  29.05700 52.73900 22.08800
H  28.00500 53.57900 20.90900
H  28.77500 51.95500 20.60600
H  24.45900 50.44100 21.87300
H  25.44900 50.64700 20.36900
H  23.94000 51.99900 19.44800
H  23.06800 52.29900 21.05200
H  23.00900 50.73200 20.17100
H  20.85900 53.23700 23.72400
H  21.24300 54.80500 24.23000
H  20.00700 53.89800 25.16400
H  22.07400 52.24800 29.85300
H  23.12700 54.93100 32.45500
H  21.37800 55.41300 33.02500
H  22.26800 56.30600 31.90300
Mg -11.36600 16.38700 42.74400
C  -7.97100 17.16500 43.15800
C  -12.09600 19.64300 42.39000
C  -14.51900 15.45400 42.58900
C  -10.44300 12.95500 43.07300
N  -10.11100 18.20900 42.50100
C  -8.77200 18.28200 42.80500
C  -8.30000 19.69600 42.62500
C  -9.68700 20.50800 42.61300
C  -10.71600 19.41000 42.50600
C  -9.82000 21.66400 43.76300
C  -7.48400 19.87700 41.31700
C  -5.98000 20.22700 41.38400
H  -5.12900 19.73400 40.17900
N  -13.05200 17.39300 42.41800
C  -13.16600 18.75900 42.26600
C  -14.62200 19.14700 42.07600
C  -15.34600 17.85100 42.07100
C  -14.31900 16.80000 42.35500
C  -15.12000 20.64100 41.87500
C  -16.80600 17.72500 41.65100
O  -17.40200 18.74200 41.47000
C  -17.56400 16.51100 41.41000
N  -12.37100 14.41500 42.67400
C  -13.69400 14.32100 42.73700
C  -14.12600 12.90200 42.79900
C  -12.82600 12.03300 42.80600
C  -11.82500 13.19400 42.82200
C  -15.08100 12.53100 44.02600
C  -12.61300 11.11900 41.57400
C  -12.87100 9.64400 41.85700
N  -9.52600 15.26500 42.91600
C  -9.34200 13.91200 43.14300
C  -7.92100 13.70200 43.34000
C  -7.31800 14.93200 43.41600
C  -8.38400 15.81700 43.10900
C  -7.21900 12.38300 43.58400
C  -6.12000 15.64100 43.58100
O  -4.94600 15.27700 43.81900
C  -6.48500 17.17700 43.47800
C  -6.13900 17.78500 44.78800
O  -6.87200 17.78700 45.77900
O  -4.80200 18.26700 44.71700
C  -4.18700 18.53900 46.03600
H  -12.26300 20.70700 42.21000
H  -15.54600 15.08500 42.62400
H  -10.10700 11.93800 43.28400
H  -7.64100 19.97100 43.44800
H  -9.84000 21.02100 41.66400
H  -8.82800 21.81100 44.19200
H  -10.50900 21.38600 44.56000
H  -10.07000 22.61700 43.29700
H  -7.90200 20.73700 40.79400
H  -7.65100 19.01900 40.66600
H  -5.69800 19.92500 42.39200
H  -5.98800 21.31500 41.44000
H  -15.42100 20.68300 40.82800
H  -14.32700 21.38200 41.97900
H  -16.01300 20.81800 42.47300
H  -17.00000 15.68200 40.98300
H  -18.34400 16.84000 40.72300
H  -17.97600 16.16100 42.35700
H  -14.67800 12.55100 41.92700
H  -12.81600 11.45300 43.72900
H  -15.58600 13.42700 44.38700
H  -14.50800 12.12100 44.85800
H  -15.89100 11.86000 43.73800
H  -11.64400 11.23500 41.09000
H  -13.39200 11.29900 40.83300
H  -12.10200 9.04000 41.37400
H  -13.84400 9.32700 41.48200
H  -12.87600 9.40000 42.91900
H  -7.54900 11.72300 42.78200
H  -7.59700 11.98700 44.52700
H  -6.14200 12.54400 43.63500
H  -5.88300 17.55300 42.65000
H  -3.10900 18.58600 45.87800
H  -4.34300 17.80100 46.82300
H  -4.48500 19.50300 46.44800

