158

Mg 2.47800 0.00100 43.37900
C  5.95000 0.27800 43.18600
C  2.13000 3.17400 42.37500
C  -0.84700 -0.69000 42.84800
C  2.87700 -3.38600 44.26500
N  3.86700 1.52100 42.57700
C  5.26300 1.44800 42.74100
C  5.86200 2.81400 42.61400
C  4.60600 3.70000 42.82400
C  3.44300 2.78600 42.54800
C  4.50400 4.40200 44.29400
C  6.71700 3.20200 41.30200
C  6.69600 2.23800 40.09300
H  6.67000 2.92200 38.77400
N  0.87600 1.09100 42.69600
C  0.91400 2.42200 42.44300
C  -0.43700 2.88600 42.13600
C  -1.34800 1.75600 42.10500
C  -0.44500 0.63400 42.51400
C  -0.71200 4.30600 41.71100
C  -2.88700 1.77700 41.92300
O  -3.39200 2.80300 41.57500
C  -3.77800 0.61400 42.07900
N  1.19900 -1.81300 43.40300
C  -0.14700 -1.80100 43.18600
C  -0.67200 -3.31200 43.21700
C  0.45500 -4.02100 44.06100
C  1.60700 -3.06800 43.91300
C  -2.06400 -3.56800 43.75000
C  0.82300 -5.51600 43.55200
C  1.75500 -5.66100 42.27200
N  4.05100 -1.36300 43.63200
C  4.05900 -2.69800 44.00100
C  5.40300 -3.10100 44.30200
C  6.15900 -1.99200 43.98700
C  5.35200 -0.95100 43.56900
C  5.86200 -4.41500 44.89400
C  7.52100 -1.39900 44.10000
O  8.60500 -1.83900 44.39100
C  7.40300 -0.02200 43.37800
C  8.12400 1.01400 44.22500
O  9.05400 1.68000 43.76200
O  7.45600 1.18200 45.40200
C  7.98500 2.31800 46.16600
H  1.98400 4.25200 42.27100
H  -1.92500 -0.78900 42.70700
H  3.00500 -4.43800 44.52900
H  6.51000 3.07000 43.45300
H  4.64700 4.49400 42.07900
H  5.37700 4.17800 44.90700
H  3.71600 3.87200 44.83100
H  4.34800 5.47800 44.22400
H  7.71000 3.13100 41.74600
H  6.59000 4.24400 41.01000
H  5.80600 1.62600 40.24100
H  7.49900 1.50100 40.08300
H  -1.38900 4.41800 40.86400
H  0.18600 4.86300 41.44500
H  -1.10500 4.91400 42.52600
H  -3.70800 0.15700 43.06600
H  -3.55800 -0.09900 41.28400
H  -4.76200 1.07400 41.99400
H  -0.63400 -3.62200 42.17300
H  0.18100 -4.14900 45.10800
H  -2.04000 -4.03200 44.73600
H  -2.73200 -4.08000 43.05700
H  -2.60200 -2.62100 43.79600
H  -0.10900 -6.02000 43.29700
H  1.30300 -6.02200 44.39000
H  2.77100 -6.02000 42.44000
H  1.85300 -4.76200 41.66400
H  1.39400 -6.38100 41.53800
H  5.03200 -5.05800 45.18700
H  6.44900 -4.23300 45.79400
H  6.35100 -4.99700 44.11300
H  7.94400 -0.11100 42.43500
H  7.88800 2.29300 47.25100
H  7.30600 3.12500 45.88900
H  8.98600 2.73300 46.04600
Mg 46.90800 16.02600 28.21800
C  45.04100 15.60700 31.01300
C  48.87200 18.25800 29.74900
C  48.70000 16.29200 25.25600
C  44.65800 13.96300 26.46000
N  47.00200 16.79300 30.18300
C  46.07600 16.54100 31.17300
C  46.40600 17.34100 32.46400
C  47.54200 18.24300 31.98000
C  47.85600 17.71500 30.52600
C  47.24700 19.75900 31.94000
C  46.92100 16.33200 33.52200
C  47.15600 16.92200 34.94200
H  48.55700 16.73900 35.53500
N  48.53400 17.13800 27.61200
C  49.24200 17.97200 28.38700
C  50.26400 18.61700 27.63900
C  50.21100 18.14800 26.25300
C  49.13800 17.08800 26.35800
C  51.19400 19.70900 28.08300
C  51.00000 18.51100 24.97900
O  50.81800 18.00200 23.89400
C  52.01900 19.57700 25.04200
N  46.65800 15.33000 26.10300
C  47.55200 15.44500 25.12400
C  47.09200 14.77200 23.84400
C  45.79800 14.00900 24.20000
C  45.70900 14.40300 25.71300
C  46.90100 15.81900 22.72500
C  45.75100 12.53500 23.82700
C  46.46100 11.64600 24.78700
N  45.18800 15.02100 28.54000
C  44.32000 14.36200 27.77200
C  43.19400 13.85800 28.57400
C  43.41900 14.29400 29.85700
C  44.61400 15.00400 29.75400
C  42.12600 12.91200 28.08200
C  42.99800 14.17200 31.20600
O  42.07800 13.57700 31.73800
C  43.98700 15.07700 32.02900
C  43.16200 16.11100 32.70700
O  42.39900 16.81800 32.09100
O  43.41400 16.18600 34.05200
C  42.46900 17.00100 34.86300
H  49.55600 18.92800 30.27400
H  49.32300 16.41200 24.36700
H  44.02000 13.24800 25.93700
H  45.55500 17.88900 32.86700
H  48.46000 18.14100 32.55900
H  47.37900 20.14000 30.92700
H  48.01000 20.25400 32.53900
H  46.21400 19.99300 32.19600
H  47.85100 15.86900 33.19200
H  46.07100 15.66400 33.66200
H  46.56500 16.48500 35.74600
H  46.95900 17.99100 35.02600
H  51.12700 20.03100 29.12200
H  50.94900 20.58000 27.47500
H  52.20400 19.30400 28.02800
H  51.65700 20.58300 25.25500
H  52.64400 19.54300 24.15000
H  52.74100 19.41200 25.84200
H  47.77000 13.93100 23.70300
H  44.93200 14.56000 23.83400
H  45.94300 15.66000 22.23000
H  47.74300 16.00300 22.05800
H  46.78700 16.72600 23.31900
H  46.26200 12.45400 22.86800
H  44.67800 12.34000 23.81800
H  46.91100 12.13200 25.65300
H  47.25300 11.15900 24.21900
H  45.72800 11.00200 25.27300
H  42.55600 12.35400 27.25000
H  41.25700 13.49300 27.77400
H  41.83300 12.19700 28.85000
H  44.40600 14.44600 32.81300
H  42.00600 17.76500 34.23900
H  43.08000 17.48700 35.62500
H  41.70100 16.42300 35.37700

