158

Mg 1.94500 -1.85400 44.35900
C  5.37100 -1.26800 44.35000
C  1.46600 1.23800 42.89600
C  -1.23100 -2.81800 43.76100
C  2.67300 -5.06300 45.40800
N  3.29600 -0.22300 43.57000
C  4.65000 -0.25100 43.69300
C  5.17200 1.11900 43.20400
C  3.90900 2.04500 43.05700
C  2.78300 0.98000 43.28600
C  3.78500 3.14700 44.11200
C  5.89400 1.09100 41.86600
C  5.52300 0.11900 40.75500
H  5.46300 0.62700 39.32600
N  0.31800 -0.85200 43.47400
C  0.32500 0.36800 42.90100
C  -1.01300 0.64200 42.49000
C  -1.90000 -0.38300 42.93800
C  -0.92400 -1.42800 43.39500
C  -1.46700 1.96400 41.84800
C  -3.49300 -0.48500 42.77200
O  -4.14100 0.50800 42.37500
C  -4.22600 -1.61900 43.31000
N  0.85400 -3.68400 44.61000
C  -0.49200 -3.81200 44.39300
C  -1.00300 -5.16100 44.80400
C  0.27100 -5.87200 45.20300
C  1.36200 -4.84100 45.06500
C  -2.21700 -5.06200 45.77800
C  0.58600 -7.05700 44.32500
C  -0.54800 -8.06700 44.07900
N  3.62500 -2.98800 44.88000
C  3.78100 -4.24200 45.34200
C  5.17200 -4.51800 45.75100
C  5.85800 -3.37700 45.30400
C  4.87500 -2.51800 44.78600
C  5.61600 -5.92200 46.33500
C  7.16300 -2.75300 45.10800
O  8.31000 -3.15400 45.36100
C  6.87700 -1.36300 44.47600
C  7.42300 -0.28700 45.35000
O  7.03200 0.14400 46.41900
O  8.38700 0.27900 44.53600
C  8.98600 1.51000 45.13800
H  1.24800 2.20000 42.42700
H  -2.21500 -3.24800 43.56500
H  2.89500 -6.08100 45.73500
H  5.80200 1.42400 44.03900
H  3.72900 2.47600 42.07200
H  4.61700 3.05100 44.80900
H  2.83800 3.14100 44.65200
H  3.79100 4.14400 43.67100
H  6.90300 0.88300 42.22000
H  5.87100 2.05700 41.36100
H  4.58700 -0.39100 40.98500
H  6.35100 -0.59000 40.75000
H  -0.54200 2.19500 41.32000
H  -1.58000 2.73100 42.61400
H  -2.38800 1.86600 41.27400
H  -5.28600 -1.37300 43.37200
H  -4.04200 -1.77000 44.37300
H  -4.06200 -2.48400 42.66800
H  -1.51000 -5.59200 43.94000
H  0.21500 -6.30600 46.20100
H  -2.35500 -4.01900 46.06300
H  -1.92300 -5.65800 46.64200
H  -3.09600 -5.38200 45.21900
H  1.44300 -7.53000 44.80400
H  0.92800 -6.73000 43.34400
H  -1.37900 -7.82400 44.74100
H  -0.14500 -9.04600 44.33800
H  -0.97400 -8.10000 43.07600
H  4.85700 -6.34300 46.99500
H  6.59900 -5.80500 46.79000
H  5.66900 -6.64600 45.52100
H  7.15900 -1.28400 43.42600
H  8.25500 2.31600 45.20900
H  9.82000 1.80200 44.50000
H  9.29500 1.30000 46.16200
Mg 16.83700 53.02800 26.71600
C  18.85000 51.22600 28.89500
C  14.49700 53.52200 29.08400
C  14.66700 54.26000 24.28000
C  18.82500 51.83900 24.11000
N  16.76800 52.54400 28.77300
C  17.70400 51.79800 29.43500
C  17.34400 51.94400 30.93400
C  15.81600 52.46300 30.96500
C  15.69400 52.86000 29.51900
C  14.82500 51.28600 31.27300
C  18.29100 52.97600 31.61600
C  18.68300 52.59700 33.07600
H  17.57000 52.14400 34.01700
N  15.05800 54.00200 26.72700
C  14.23600 54.18500 27.84700
C  13.01500 54.93100 27.52900
C  13.08900 55.17300 26.15200
C  14.33600 54.47800 25.62600
C  11.99400 55.34500 28.55700
C  12.04500 55.89300 25.23300
O  12.10000 55.81900 24.04600
C  10.81600 56.65100 25.75300
N  16.75800 53.01100 24.53800
C  15.77600 53.58600 23.78900
C  16.13800 53.63300 22.30000
C  17.62700 53.15300 22.28500
C  17.73700 52.57400 23.68500
C  15.22200 52.67100 21.37600
C  18.71700 54.26700 21.90900
C  19.17500 54.20600 20.44300
N  18.57500 51.89600 26.51000
C  19.26400 51.45700 25.38000
C  20.51700 50.90400 25.86000
C  20.42600 50.73200 27.19200
C  19.15700 51.28300 27.54100
C  21.70000 50.55400 24.91600
C  21.06500 50.18400 28.40900
O  22.13400 49.62700 28.49900
C  20.08900 50.63200 29.57600
C  19.64000 49.32800 30.23900
O  19.11200 48.36600 29.72900
O  19.84500 49.50700 31.60600
C  19.42500 48.30900 32.35500
H  13.72500 53.54100 29.85700
H  14.01300 54.60400 23.47600
H  19.59400 51.58400 23.37800
H  17.49300 50.95300 31.36200
H  15.74500 53.32200 31.63300
H  13.98600 51.73700 31.80300
H  15.28900 50.68500 32.05500
H  14.51600 50.73800 30.38300
H  17.87400 53.98100 31.56500
H  19.24200 52.92300 31.08600
H  19.07200 53.52900 33.48400
H  19.51400 51.89100 33.08100
H  12.23800 54.79100 29.46400
H  10.98600 55.14700 28.19300
H  12.12000 56.40600 28.77000
H  11.18300 57.44900 26.39900
H  10.10600 55.95900 26.20800
H  10.29700 57.07700 24.89400
H  16.12500 54.65800 21.92800
H  17.83100 52.32100 21.61200
H  14.20400 52.70000 21.76500
H  15.54300 51.62900 21.37600
H  15.11300 52.89900 20.31600
H  19.54100 54.22800 22.62200
H  18.23100 55.23900 21.99300
H  18.52700 53.67500 19.74600
H  20.06200 53.57200 20.44900
H  19.27800 55.23100 20.08700
H  21.70500 51.28900 24.11100
H  21.63500 49.59500 24.40300
H  22.60500 50.58200 25.52300
H  20.52700 51.26100 30.35100
H  19.70300 48.40200 33.40500
H  19.84000 47.39200 31.93600
H  18.33600 48.35400 32.36100

