158

Mg 23.64300 -4.95500 45.27400
C  25.84000 -2.56500 44.01500
C  21.20300 -3.84700 43.13000
C  21.97300 -7.92000 45.76600
C  26.21700 -6.18400 47.22200
N  23.57800 -3.37000 43.78500
C  24.60100 -2.60400 43.37200
C  24.08200 -1.64200 42.24000
C  22.48200 -1.75700 42.28200
C  22.36000 -3.04100 43.12400
C  21.66900 -0.54700 42.89700
C  24.64600 -2.05900 40.79300
C  25.18700 -0.87600 39.96100
H  25.48600 -1.14900 38.49900
N  21.77100 -5.73300 44.62700
C  20.94900 -5.12100 43.76800
C  19.70600 -5.85700 43.63300
C  19.84200 -6.96900 44.46200
C  21.26300 -6.96700 45.00300
C  18.52300 -5.30800 42.85100
C  18.79900 -8.05900 44.72100
O  17.72500 -8.00500 44.16500
C  19.06200 -9.22800 45.64000
N  24.11300 -6.80700 46.28900
C  23.17600 -7.76000 46.47700
C  23.73300 -8.93600 47.36800
C  25.11800 -8.48200 47.75300
C  25.18300 -7.11800 47.06500
C  22.81000 -9.55900 48.42300
C  26.29500 -9.43900 47.31400
C  27.34600 -9.58700 48.38000
N  25.58500 -4.35600 45.70800
C  26.51800 -4.97300 46.47700
C  27.74400 -4.22300 46.47500
C  27.54100 -3.22600 45.45600
C  26.23100 -3.40500 44.99100
C  29.01000 -4.64200 47.10300
C  28.06700 -2.11000 44.66300
O  29.14200 -1.54400 44.70200
C  26.99400 -1.63600 43.61300
C  26.85700 -0.21000 43.96900
O  26.45200 0.24900 45.01500
O  27.23700 0.58500 42.86500
C  27.23700 2.00300 43.16500
H  20.37300 -3.44200 42.54800
H  21.54100 -8.92200 45.78700
H  27.10700 -6.49600 47.77300
H  24.32400 -0.59800 42.43700
H  22.12800 -1.98600 41.27600
H  20.77200 -0.44000 42.28700
H  22.12300 0.44400 42.88400
H  21.50500 -0.81500 43.94000
H  23.93700 -2.77700 40.38100
H  25.49600 -2.70500 41.01200
H  26.16800 -0.75500 40.42100
H  24.66900 0.04800 40.21600
H  18.36600 -4.25300 43.07700
H  17.56000 -5.74600 43.11200
H  18.63600 -5.33700 41.76700
H  19.76000 -9.94100 45.20200
H  18.13700 -9.75400 45.87900
H  19.50100 -8.93300 46.59300
H  23.81900 -9.77900 46.68200
H  25.19100 -8.36100 48.83400
H  23.37100 -9.45100 49.35100
H  22.60000 -10.61500 48.25200
H  21.86800 -9.01100 48.43900
H  26.75400 -8.86900 46.50700
H  25.96900 -10.44200 47.03800
H  27.57200 -10.63700 48.56400
H  27.12900 -9.02900 49.29100
H  28.27800 -9.33200 47.87600
H  29.24700 -5.55000 46.54800
H  28.93000 -4.93400 48.15100
H  29.76100 -3.86100 46.98800
H  27.35100 -1.73100 42.58700
H  28.07500 2.20400 43.83200
H  26.32700 2.39900 43.61500
H  27.37000 2.63800 42.28900
Mg 1.46200 42.59100 25.78200
C  2.98200 42.76100 29.02200
C  -1.42700 41.61200 27.35300
C  0.22500 41.86800 22.83800
C  4.49300 43.40300 24.40100
N  0.85000 42.31900 28.00500
C  1.58900 42.54000 29.15300
C  0.76200 42.33100 30.42800
C  -0.65700 41.74100 29.85400
C  -0.39800 41.87200 28.31700
C  -1.04400 40.27200 30.28000
C  0.51700 43.60300 31.22700
C  0.83300 43.47100 32.67900
H  0.58700 42.21000 33.51800
N  -0.36100 41.87600 25.21100
C  -1.43600 41.62600 25.94600
C  -2.59500 41.31200 25.10600
C  -2.10300 41.21800 23.81400
C  -0.69800 41.72200 23.87500
C  -4.02900 41.06100 25.68400
C  -2.70200 40.69600 22.58000
O  -2.27900 40.63200 21.44500
C  -4.14900 40.26800 22.77300
N  2.30800 42.49700 23.90800
C  1.53600 42.23300 22.77300
C  2.35100 42.62100 21.45700
C  3.57300 43.37400 22.05600
C  3.48100 43.03900 23.53900
C  2.67800 41.39300 20.60300
C  3.37600 44.86300 21.66400
C  2.17200 45.57300 22.29500
N  3.36000 42.87800 26.51900
C  4.52600 43.27800 25.87000
C  5.61900 43.56600 26.79100
C  4.98000 43.31900 28.01100
C  3.68900 42.94900 27.81400
C  7.04700 43.65900 26.53600
C  5.23900 43.31600 29.41100
O  6.28000 43.58400 30.00500
C  3.94600 42.89800 30.17400
C  4.24500 41.64700 30.97600
O  4.10600 40.45100 30.62200
O  4.93800 41.96600 32.11400
C  5.68200 40.91100 32.73900
H  -2.41900 41.42500 27.77000
H  -0.24300 41.82900 21.85200
H  5.37000 43.75300 23.85100
H  1.32900 41.56100 30.95100
H  -1.52400 42.36500 30.07600
H  -1.38100 39.63200 29.46400
H  -1.82000 40.24700 31.04500
H  -0.10800 39.79400 30.56900
H  -0.52800 43.85800 31.05200
H  1.17700 44.39000 30.86100
H  0.46700 44.32600 33.24900
H  1.92100 43.49200 32.62200
H  -4.87700 41.52900 25.18400
H  -4.16300 41.56400 26.64100
H  -4.29700 40.04000 25.95800
H  -4.33700 39.67600 23.66800
H  -4.37300 39.69000 21.87600
H  -4.74500 41.18000 22.81600
H  1.83600 43.27900 20.75700
H  4.47800 42.96100 21.61000
H  2.28200 40.56100 21.18600
H  3.75800 41.36900 20.45700
H  2.08900 41.48500 19.69000
H  3.23600 44.87900 20.58300
H  4.27300 45.46800 21.79400
H  2.59300 46.31700 22.97100
H  1.58700 44.92000 22.94300
H  1.51200 46.10300 21.60800
H  7.42700 44.63500 26.23300
H  7.13500 42.93100 25.73000
H  7.47200 43.25200 27.45400
H  3.74100 43.76900 30.79700
H  6.55000 40.66500 32.12700
H  5.05900 40.01700 32.75900
H  5.84800 41.19400 33.77800

