158

Mg 42.77500 41.65000 26.15300
C  41.69500 43.91700 28.60800
C  43.93400 39.64200 28.69800
C  43.65500 39.43800 23.87000
C  41.81600 43.91800 23.73000
N  42.65000 41.77300 28.38000
C  42.24000 42.75300 29.19500
C  42.09600 42.26200 30.64100
C  42.83200 40.89600 30.63300
C  43.22500 40.80100 29.13400
C  44.01400 40.83600 31.58900
C  40.62800 42.12100 31.20400
C  40.45000 41.66200 32.67800
H  39.70200 42.63800 33.60400
N  43.70600 39.81700 26.28500
C  44.08700 39.13300 27.42900
C  44.74200 37.88300 27.00900
C  44.53900 37.78300 25.61500
C  43.95900 39.04900 25.20800
C  45.13700 36.86500 28.04900
C  44.85300 36.60100 24.75500
O  44.78400 36.57400 23.51700
C  45.07200 35.32300 25.45700
N  42.61500 41.62000 24.08800
C  43.07300 40.59900 23.32900
C  42.92100 40.85400 21.78700
C  42.03900 42.15800 21.87100
C  42.16700 42.63800 23.27300
C  44.20500 41.08100 21.16300
C  40.56600 41.94600 21.44500
C  40.22700 42.24900 19.97500
N  42.10100 43.63300 26.08200
C  41.81000 44.44700 25.02600
C  41.31900 45.74400 25.48400
C  41.29500 45.58500 26.92300
C  41.83800 44.28300 27.19000
C  40.82500 46.77600 24.64700
C  40.80300 46.13700 28.17400
O  40.33900 47.24500 28.49900
C  41.05200 45.01400 29.29200
C  41.98700 45.59800 30.34400
O  43.08300 46.03000 30.23200
O  41.27200 45.54400 31.53200
C  42.00000 45.96300 32.75100
H  44.34000 39.01800 29.49700
H  43.78000 38.68300 23.09100
H  41.48000 44.50800 22.87400
H  42.60700 42.96300 31.30200
H  42.14800 40.07900 30.86400
H  43.96100 39.91900 32.17500
H  43.96000 41.67600 32.28200
H  44.95500 40.82600 31.03900
H  40.05000 41.46600 30.55200
H  40.08800 43.02900 30.93300
H  41.43200 41.55500 33.13800
H  39.97800 40.68900 32.53500
H  45.13400 37.17300 29.09400
H  46.15400 36.60000 27.76000
H  44.51300 35.97800 27.93600
H  45.97900 35.41000 26.05600
H  45.05300 34.56500 24.67400
H  44.19900 35.10200 26.07000
H  42.30000 40.06400 21.36500
H  42.42200 42.82600 21.10000
H  44.97500 40.66600 21.81400
H  44.54000 42.09600 20.94900
H  44.19400 40.51200 20.23400
H  39.97500 42.60200 22.08600
H  40.20500 40.91900 21.48800
H  39.85900 41.31300 19.55600
H  41.10000 42.66200 19.46800
H  39.45600 43.01800 19.91700
H  40.25400 46.43400 23.78300
H  41.54900 47.50300 24.28100
H  40.08900 47.33500 25.22500
H  40.01600 44.88900 29.60500
H  41.58400 45.53900 33.66500
H  41.82800 47.02300 32.94200
H  43.08300 45.86500 32.66800
Mg -10.62200 37.80500 42.44700
C  -9.01300 34.97800 40.92400
C  -8.49100 39.74200 40.92400
C  -12.92400 40.38500 42.65100
C  -13.06300 35.58100 43.70700
N  -9.05100 37.36100 40.90100
C  -8.51000 36.21700 40.51900
C  -7.21200 36.38200 39.70200
C  -6.92800 37.90100 40.01700
C  -8.21800 38.33500 40.69400
C  -5.64900 38.31400 40.78200
C  -7.44300 35.94000 38.26200
C  -6.47500 35.01300 37.56700
H  -5.47700 35.76600 36.61300
N  -10.60900 39.85500 41.96400
C  -9.49400 40.50700 41.51700
C  -9.66400 41.88900 41.58000
C  -11.02700 42.09400 41.96300
C  -11.62800 40.72600 42.27800
C  -8.51100 42.80600 41.32000
C  -11.59000 43.48800 42.28200
O  -10.95700 44.45100 41.93000
C  -12.92700 43.72700 43.07200
N  -12.66800 37.95200 43.07500
C  -13.42200 39.12400 43.03000
C  -14.88000 38.88900 43.51900
C  -14.84200 37.37600 43.79500
C  -13.44400 36.90800 43.45300
C  -15.19700 39.80500 44.78200
C  -15.84900 36.54800 43.07600
C  -16.87700 35.81300 43.96800
N  -10.84500 35.73200 42.56900
C  -11.84200 34.98500 43.16700
C  -11.52100 33.53600 43.10200
C  -10.36900 33.56500 42.27000
C  -10.04700 34.85200 41.86900
C  -12.27900 32.31200 43.66100
C  -9.24800 32.69700 41.66600
O  -8.95600 31.51700 41.88500
C  -8.34200 33.65800 40.81500
C  -7.02300 33.46800 41.46600
O  -6.16700 32.67200 41.12500
O  -6.82600 34.38500 42.44300
C  -5.60700 34.14100 43.19500
H  -7.62300 40.32300 40.60700
H  -13.64300 41.20500 42.70800
H  -13.87900 34.97100 44.09900
H  -6.33100 35.86800 40.08300
H  -6.81700 38.51200 39.12100
H  -5.07500 37.39900 40.92600
H  -5.91200 38.72100 41.75800
H  -5.09800 39.04700 40.19200
H  -7.52100 36.83100 37.63900
H  -8.43800 35.49600 38.22200
H  -6.88300 34.26500 36.88800
H  -5.76800 34.50500 38.22200
H  -8.63000 43.88400 41.42800
H  -8.22100 42.57300 40.29500
H  -7.68200 42.43000 41.91900
H  -13.80000 43.36600 42.52900
H  -12.99300 44.78700 43.31700
H  -12.85200 43.29400 44.06900
H  -15.59300 39.23800 42.77200
H  -15.06600 37.18400 44.84400
H  -14.36300 40.50000 44.88400
H  -15.24300 39.30800 45.75100
H  -16.13600 40.29800 44.53200
H  -15.33700 35.77500 42.50200
H  -16.46100 37.17100 42.42500
H  -17.85300 36.12600 43.59800
H  -16.90000 36.16600 44.99900
H  -16.82300 34.73400 43.82500
H  -13.11200 32.03400 43.01500
H  -12.68800 32.62600 44.62100
H  -11.62900 31.44000 43.73300
H  -8.28300 33.40200 39.75700
H  -5.42800 34.88900 43.96800
H  -4.71100 34.25600 42.58500
H  -5.59000 33.23100 43.79400

