158

Mg 0.70700 8.57400 25.87900
C  1.68900 10.24600 28.71700
C  1.18300 5.61400 27.55700
C  0.32700 6.91000 22.95200
C  1.04100 11.59800 23.99800
N  1.31700 7.98900 27.88400
C  1.49500 8.85300 28.88600
C  1.55000 8.16200 30.27100
C  1.58500 6.67600 29.85100
C  1.33400 6.71900 28.32400
C  2.85800 5.90900 30.26300
C  0.37400 8.46900 31.34800
C  0.67600 8.35200 32.87800
H  1.79100 7.38400 33.28200
N  0.52400 6.53700 25.38900
C  0.74000 5.47700 26.22300
C  0.49700 4.28600 25.50900
C  0.26200 4.55900 24.06100
C  0.33400 6.04800 24.08800
C  0.57700 2.89300 26.21100
C  0.04500 3.62200 22.86300
O  -0.21300 3.97100 21.71200
C  0.05400 2.22800 23.06000
N  0.72500 9.19600 23.78300
C  0.35000 8.28100 22.85400
C  0.41000 8.86200 21.50900
C  0.15300 10.36500 21.88300
C  0.66400 10.43500 23.33300
C  1.68300 8.57900 20.71000
C  -1.35800 10.83800 21.78000
C  -1.67400 11.90800 20.66600
N  1.30300 10.56200 26.28300
C  1.31800 11.69800 25.40300
C  1.68400 12.91300 26.17800
C  1.85300 12.30700 27.56900
C  1.63800 10.94300 27.49400
C  1.73000 14.31200 25.80400
C  2.16200 12.64300 28.86200
O  2.60200 13.70700 29.30200
C  1.92100 11.35900 29.77000
C  3.02200 11.11300 30.82200
O  4.02900 10.45300 30.59900
O  2.68500 11.72100 31.98900
C  3.61500 11.51200 33.01300
H  1.22900 4.71400 28.17300
H  0.25300 6.39700 21.99000
H  1.11100 12.55400 23.47400
H  2.45900 8.40100 30.82300
H  0.72800 6.13400 30.25000
H  3.48600 6.54300 30.88900
H  3.60900 5.75800 29.48800
H  2.68800 4.92000 30.68700
H  -0.51700 7.86900 31.16000
H  -0.01900 9.47300 31.19300
H  -0.26600 8.05000 33.33500
H  1.00200 9.36700 33.10700
H  0.97700 2.15600 25.51500
H  -0.43600 2.57200 26.45500
H  1.29400 2.98400 27.02700
H  -0.80500 2.01900 23.69800
H  1.00000 1.93000 23.51400
H  -0.06200 1.72200 22.10100
H  -0.48700 8.40000 21.09800
H  0.76800 10.87100 21.13900
H  2.36000 7.95500 21.29300
H  2.30300 9.37200 20.29100
H  1.27900 7.87800 19.98000
H  -1.74600 11.27500 22.70000
H  -1.92000 9.92500 21.58200
H  -0.79000 12.25400 20.13100
H  -2.02700 12.79500 21.19300
H  -2.55500 11.63600 20.08500
H  2.08100 14.45700 24.78300
H  2.29500 14.95800 26.47500
H  0.69100 14.63300 25.73200
H  1.04900 11.76200 30.28400
H  3.98000 12.50200 33.28400
H  4.53500 10.96000 32.81600
H  3.18000 11.14700 33.94300
Mg -0.82100 34.53900 27.01000
C  -2.97600 32.80300 29.15200
C  -0.26300 36.79800 29.47200
C  0.96400 36.42600 24.81900
C  -2.24200 32.80700 24.27600
N  -1.35300 34.58100 29.11900
C  -2.14100 33.75600 29.82300
C  -2.30200 34.16500 31.27000
C  -1.59900 35.58300 31.35000
C  -1.07100 35.73300 29.86500
C  -2.57100 36.75700 31.63700
C  -1.76200 33.17400 32.36200
C  -2.32700 33.30400 33.78100
H  -1.64100 32.59300 35.01200
N  0.27700 36.35600 27.14100
C  0.35000 37.15300 28.24600
C  1.16200 38.38000 27.92800
C  1.51800 38.25800 26.61400
C  0.93600 36.96100 26.14800
C  1.43800 39.48200 28.84300
C  2.42000 39.19600 25.74200
O  2.74800 38.95600 24.61900
C  3.04600 40.40500 26.49400
N  -0.71900 34.56100 24.83200
C  0.21400 35.41700 24.23200
C  0.30800 35.05500 22.74300
C  -0.54800 33.71800 22.56200
C  -1.13700 33.62000 24.00000
C  -0.06800 36.18000 21.73000
C  0.22800 32.55100 22.06300
C  1.32200 31.99000 22.96800
N  -2.19600 33.02900 26.68800
C  -2.76400 32.57900 25.55900
C  -3.80000 31.58500 25.90500
C  -3.82400 31.62700 27.29200
C  -2.95200 32.56500 27.75600
C  -4.63900 30.75400 25.05000
C  -4.51600 31.02800 28.50300
O  -5.34800 30.19900 28.49400
C  -4.00300 31.79200 29.73900
C  -5.19400 32.44100 30.44400
O  -5.68600 33.54100 30.15500
O  -5.78800 31.49700 31.37000
C  -6.81700 32.12900 32.18900
H  -0.03200 37.45700 30.31100
H  1.42900 37.05100 24.05500
H  -2.76100 32.34500 23.43300
H  -3.38400 34.29100 31.30700
H  -0.76600 35.61700 32.05300
H  -2.19500 37.30000 32.50300
H  -3.55200 36.47000 32.01500
H  -2.75800 37.49600 30.85700
H  -0.72700 33.46100 32.54800
H  -1.75200 32.10900 32.13400
H  -3.29200 32.80600 33.68500
H  -2.49000 34.36500 33.96500
H  2.43900 39.56400 29.26700
H  0.78500 39.43500 29.71400
H  1.02100 40.41600 28.46700
H  2.15000 40.98000 26.72900
H  3.77900 40.89700 25.85300
H  3.64900 39.97500 27.29400
H  1.37600 34.94300 22.55600
H  -1.40500 33.77200 21.89200
H  -0.41400 37.14400 22.10200
H  -0.83400 35.86800 21.02000
H  0.85000 36.39800 21.18500
H  0.59800 32.72900 21.05300
H  -0.36200 31.65400 21.87600
H  1.32400 32.49600 23.93300
H  2.25200 32.32000 22.50500
H  1.14200 30.92100 23.08100
H  -4.21300 29.75400 24.97200
H  -4.90300 31.26000 24.12100
H  -5.57700 30.65600 25.59800
H  -3.54400 31.01800 30.35400
H  -7.51900 32.75900 31.64300
H  -6.31000 32.84600 32.83600
H  -7.45200 31.51500 32.82800

