158

Mg 0.80900 8.01900 27.04600
C  1.70100 10.05200 29.73400
C  0.71900 5.37100 29.25000
C  0.58600 6.02900 24.32300
C  1.09100 10.72500 24.92000
N  1.17300 7.78100 29.18900
C  1.31000 8.76000 30.11600
C  1.08200 8.28200 31.57800
C  1.17400 6.72900 31.29000
C  0.95900 6.65000 29.78400
C  2.49100 6.03400 31.79600
C  -0.20100 8.79700 32.31200
C  -0.22000 8.91700 33.81800
H  1.00700 8.55400 34.66100
N  0.72600 5.94400 26.81400
C  0.68100 5.06100 27.87200
C  0.73000 3.70700 27.23500
C  0.62100 3.86300 25.83000
C  0.64000 5.33500 25.61900
C  0.72000 2.40600 27.98700
C  0.46400 2.90700 24.75400
O  0.45100 3.31200 23.60700
C  0.30400 1.43100 24.96600
N  1.01200 8.33200 24.88900
C  0.63900 7.39800 24.00300
C  0.61100 7.93800 22.53300
C  0.38300 9.49200 22.88400
C  0.78600 9.50700 24.33200
C  1.91000 7.69400 21.72100
C  -1.05800 9.87300 22.45000
C  -1.21500 10.86100 21.23200
N  1.45200 10.01400 27.20100
C  1.50600 10.98500 26.31000
C  1.99100 12.15300 26.90900
C  2.14000 11.83600 28.30600
C  1.78800 10.53500 28.42800
C  1.99800 13.57000 26.33700
C  2.44000 12.44300 29.58000
O  2.83300 13.51900 30.05700
C  2.10800 11.30500 30.59000
C  3.33900 11.16400 31.45700
O  4.34300 10.58200 31.16400
O  3.05600 11.79000 32.61300
C  4.04400 11.80300 33.67900
H  0.66600 4.57500 29.99500
H  0.38600 5.42700 23.43400
H  0.95300 11.58800 24.26600
H  1.99600 8.50600 32.12900
H  0.35500 6.18000 31.75400
H  3.06600 6.77200 32.35600
H  3.14800 5.85800 30.94500
H  2.19900 5.14200 32.35000
H  -1.00200 8.13000 31.99500
H  -0.39100 9.79200 31.91000
H  -0.99300 8.20000 34.09300
H  -0.63100 9.89600 34.06500
H  0.95300 2.63800 29.02600
H  1.47900 1.78400 27.51200
H  -0.25700 1.92300 27.99400
H  -0.04200 0.88600 24.08700
H  -0.37500 1.22100 25.79200
H  1.25900 1.02700 25.30200
H  -0.25200 7.51700 22.01600
H  1.15000 10.01200 22.31000
H  2.41200 8.62400 21.45200
H  1.69100 7.23700 20.75600
H  2.61600 7.12500 22.32600
H  -1.53900 10.25700 23.34900
H  -1.68000 9.02200 22.17100
H  -0.28500 10.92300 20.66700
H  -1.64400 11.83400 21.46900
H  -1.98900 10.36900 20.64300
H  2.65700 14.30700 26.79500
H  0.97700 13.93900 26.43800
H  2.20100 13.55300 25.26600
H  1.21400 11.64600 31.11300
H  4.53600 12.77500 33.72200
H  4.83600 11.05500 33.67000
H  3.52400 11.73400 34.63400
Mg 9.68900 48.09100 25.51800
C  7.89800 48.22800 28.57800
C  12.48500 49.29000 27.23900
C  11.40300 47.73500 22.74500
C  6.70000 47.08200 23.82200
N  10.01900 48.91200 27.62500
C  9.24000 48.69000 28.71000
C  9.96700 49.18100 29.98300
C  11.23300 49.92900 29.45700
C  11.29200 49.26200 28.01900
C  11.16400 51.49500 29.35100
C  10.32000 48.00400 30.97400
C  9.76000 48.13800 32.40000
H  10.14700 46.91100 33.34000
N  11.70100 48.44600 25.03800
C  12.69500 48.83200 25.90800
C  13.98200 48.84900 25.26700
C  13.65300 48.47800 23.89400
C  12.16500 48.15600 23.77700
C  15.31700 49.12300 25.83800
C  14.57900 48.29400 22.76300
O  14.26200 47.96100 21.63800
C  16.00100 48.83100 22.90400
N  9.11400 47.56800 23.55300
C  10.03200 47.48300 22.54000
C  9.40200 46.89300 21.27600
C  7.96600 46.50000 21.71900
C  7.91300 47.02500 23.14000
C  9.44700 47.75400 20.05100
C  7.62700 44.93500 21.54300
C  8.31500 44.04200 22.52100
N  7.68700 47.85500 25.98700
C  6.57300 47.48200 25.18600
C  5.42000 47.27100 26.09200
C  5.91800 47.55700 27.40800
C  7.28400 47.96500 27.29200
C  4.10900 46.79800 25.69800
C  5.60900 47.51000 28.85500
O  4.54600 47.13400 29.44500
C  6.85800 47.98400 29.60600
C  7.18500 46.77100 30.44300
O  7.83400 45.79400 30.05800
O  6.58100 46.92900 31.65300
C  6.77900 45.82000 32.53400
H  13.30400 49.80200 27.74900
H  11.95100 47.51500 21.82600
H  5.78500 46.73300 23.33900
H  9.32900 49.90700 30.48700
H  12.08500 49.69300 30.09400
H  12.20300 51.82400 29.38600
H  10.58500 51.98200 30.13600
H  10.70200 51.78300 28.40700
H  11.38300 47.84200 31.15200
H  9.84600 47.08400 30.63200
H  8.67200 48.12200 32.46400
H  10.27600 48.96300 32.89000
H  16.01800 48.30100 25.69400
H  15.24100 49.44700 26.87600
H  15.69000 49.98600 25.28600
H  16.07900 49.91500 22.98900
H  16.54000 48.53300 22.00500
H  16.55300 48.40600 23.74200
H  10.02700 46.00300 21.20500
H  7.17100 47.04100 21.20500
H  9.19500 48.74700 20.42300
H  8.86200 47.37700 19.21200
H  10.47500 47.77600 19.69000
H  7.99400 44.72400 20.53800
H  6.54100 44.88000 21.60800
H  9.32700 44.36800 22.76100
H  8.49800 43.13300 21.94700
H  7.71400 43.90800 23.42100
H  3.89300 47.16300 24.69300
H  3.45000 47.29900 26.40800
H  4.03500 45.71600 25.80100
H  6.62300 48.91400 30.12400
H  7.83700 45.57200 32.44600
H  6.13400 44.97000 32.30900
H  6.63200 46.18500 33.55000

