158

Mg 47.30900 24.41400 28.25700
C  48.02500 26.85200 30.77000
C  46.17900 22.35400 30.78700
C  46.78400 22.09300 25.97000
C  48.72600 26.47700 25.86700
N  47.30200 24.61800 30.45100
C  47.45100 25.68500 31.24400
C  47.06200 25.41300 32.70500
C  46.60400 23.85900 32.70500
C  46.68500 23.59600 31.17700
C  47.33800 22.94300 33.72100
C  45.91800 26.40200 33.15000
C  45.14900 26.09000 34.39900
H  45.36200 27.04200 35.65400
N  46.62900 22.47200 28.34900
C  46.16700 21.79100 29.47000
C  45.80300 20.43900 29.03800
C  46.07400 20.31000 27.67000
C  46.48600 21.66400 27.26400
C  45.36500 19.43100 30.07500
C  45.88100 19.03900 26.77400
O  46.43600 18.86300 25.67700
C  45.22900 17.85700 27.40000
N  47.65300 24.33700 26.19200
C  47.31800 23.32700 25.44600
C  47.65700 23.51500 23.96500
C  48.06200 25.00600 23.91300
C  48.24900 25.27200 25.43000
C  48.67800 22.58900 23.32900
C  47.04200 25.94600 23.21900
C  47.11000 25.97000 21.66600
N  48.27900 26.30600 28.22900
C  48.78200 26.98400 27.17800
C  49.35100 28.18500 27.56000
C  49.02200 28.22000 28.94100
C  48.43200 27.00800 29.33400
C  50.26000 29.05000 26.74700
C  49.02100 29.04000 30.16600
O  49.44600 30.22600 30.24700
C  48.47600 28.13500 31.33800
C  49.54000 28.04000 32.33600
O  50.61900 27.48800 32.22300
O  49.10300 28.71800 33.45600
C  49.79200 28.35500 34.75100
H  45.48600 21.80500 31.42700
H  46.67600 21.41200 25.12300
H  49.09200 27.16600 25.10300
H  47.86000 25.60000 33.42500
H  45.53700 23.70700 32.86700
H  48.18700 22.69900 33.08200
H  46.77300 22.02900 33.90100
H  47.74100 23.37900 34.63500
H  45.33400 26.65000 32.26300
H  46.44000 27.34800 33.29400
H  45.55900 25.15600 34.78200
H  44.08900 25.94200 34.19300
H  44.57800 18.79800 29.66300
H  45.03800 19.80000 31.04700
H  46.28800 18.86500 30.19800
H  44.19100 18.14000 27.57200
H  45.70800 17.37600 28.25400
H  45.23000 16.96500 26.77300
H  46.67700 23.35100 23.51900
H  48.98200 25.07300 23.33300
H  48.69500 22.68200 22.24300
H  48.36700 21.56000 23.51100
H  49.66200 22.70700 23.78300
H  47.17700 26.94400 23.63800
H  46.01700 25.76700 23.54500
H  47.84600 25.20800 21.41000
H  47.60900 26.87300 21.31500
H  46.23300 25.74300 21.05900
H  51.10200 29.44300 27.31700
H  49.57600 29.80900 26.36800
H  50.83500 28.56400 25.95900
H  47.70300 28.75000 31.79900
H  49.81900 27.27600 34.90200
H  49.09200 28.65700 35.53000
H  50.79600 28.77300 34.82700
Mg -4.78900 25.90000 26.62600
C  -3.55800 27.27900 29.54600
C  -6.49300 23.56000 28.50200
C  -5.68200 24.44200 23.81200
C  -2.74500 28.12500 24.82200
N  -4.89300 25.43300 28.76600
C  -4.51500 26.28300 29.73100
C  -5.10100 25.84800 31.09200
C  -5.79100 24.47700 30.81800
C  -5.66900 24.40600 29.25600
C  -5.32700 23.27700 31.72600
C  -6.01700 26.90400 31.64700
C  -5.75800 27.32900 33.13200
H  -5.32100 26.27300 34.14400
N  -6.04000 24.32200 26.22300
C  -6.65700 23.45100 27.07100
C  -7.48600 22.47900 26.33800
C  -7.45000 22.92700 25.01100
C  -6.28600 23.89200 24.95100
C  -8.32600 21.61700 27.10300
C  -8.31900 22.49500 23.87000
O  -8.15900 22.88200 22.75700
C  -9.52300 21.59200 24.08800
N  -4.17000 26.22500 24.56900
C  -4.69700 25.41300 23.60800
C  -4.15800 25.78900 22.18200
C  -3.23400 27.01500 22.52500
C  -3.41400 27.17300 24.05800
C  -3.35900 24.61600 21.61700
C  -3.45800 28.31700 21.75100
C  -2.57900 28.52200 20.47200
N  -3.41100 27.32000 26.98300
C  -2.71500 28.13500 26.19000
C  -1.88600 29.04200 27.05300
C  -2.17700 28.74500 28.34600
C  -3.10200 27.69800 28.25900
C  -0.93900 30.13800 26.45500
C  -1.93000 29.12700 29.76600
O  -1.25500 29.96500 30.34600
C  -2.85800 28.11900 30.55700
C  -1.93500 27.43200 31.41200
O  -0.94600 26.84600 31.02100
O  -2.22500 27.64300 32.69100
C  -1.14500 27.38100 33.67800
H  -7.02700 22.85500 29.14300
H  -6.02300 23.96500 22.89100
H  -2.18500 28.85800 24.23600
H  -4.13600 25.74300 31.58800
H  -6.86300 24.57400 30.99000
H  -4.42000 23.54900 32.26600
H  -5.03100 22.33600 31.26100
H  -6.03200 23.01500 32.51400
H  -7.03600 26.59200 31.41600
H  -5.86100 27.83200 31.09700
H  -6.71900 27.73700 33.44300
H  -5.14800 28.23200 33.11100
H  -7.87000 21.40500 28.07000
H  -8.40400 20.62500 26.65900
H  -9.31000 22.06600 27.24500
H  -9.18000 20.59500 23.81100
H  -10.22700 21.85800 23.30000
H  -9.90400 21.97600 25.03400
H  -4.96700 25.95400 21.47000
H  -2.19200 26.72200 22.39000
H  -2.58700 25.03600 20.97400
H  -4.01800 23.94700 21.06400
H  -2.82800 24.00300 22.34600
H  -3.43000 29.25100 22.31200
H  -4.44700 28.27900 21.29400
H  -3.19400 28.69200 19.58800
H  -2.11800 27.54500 20.32700
H  -1.70500 29.15000 20.64300
H  -1.35700 30.72500 25.63700
H  -0.08300 29.62400 26.01600
H  -0.80900 30.84800 27.27100
H  -3.47700 28.72400 31.21900
H  -1.21000 26.33000 33.96100
H  -1.30700 27.96200 34.58600
H  -0.14500 27.41800 33.24500

