158

Mg -1.91300 16.91200 26.93900
C  -2.57500 14.50200 29.45900
C  -2.49600 19.37500 29.29000
C  -2.12700 19.24800 24.44100
C  -1.90500 14.38600 24.65500
N  -2.50500 16.89000 29.07000
C  -2.55800 15.80300 29.94700
C  -2.53000 16.25200 31.42000
C  -2.62900 17.82300 31.34100
C  -2.54900 18.08100 29.80400
C  -3.89500 18.41800 32.08400
C  -1.32400 15.58500 32.23600
C  -0.66000 16.28400 33.45400
H  -0.36200 15.46400 34.70100
N  -2.13600 18.98500 26.85700
C  -2.35200 19.79900 27.95300
C  -2.26600 21.23300 27.61400
C  -2.20300 21.26900 26.19700
C  -2.23300 19.78200 25.74900
C  -2.38900 22.34800 28.59600
C  -2.06300 22.38700 25.26200
O  -1.92700 22.19000 24.03100
C  -2.21800 23.80400 25.69100
N  -2.09500 16.83200 24.82300
C  -2.00700 17.93900 24.00200
C  -1.82100 17.50200 22.53100
C  -1.69200 15.93500 22.75200
C  -1.85900 15.67200 24.17300
C  -3.01000 17.93200 21.63200
C  -0.34200 15.37200 22.26200
C  0.97100 15.88500 22.96400
N  -2.12800 14.81200 26.97200
C  -2.10200 13.89300 25.98200
C  -2.30900 12.60300 26.50100
C  -2.41700 12.78500 27.86100
C  -2.30500 14.15200 28.13100
C  -2.42000 11.28100 25.70600
C  -2.60300 12.06700 29.00800
O  -2.80500 10.89600 29.17300
C  -2.66300 13.14700 30.14800
C  -1.67100 12.71600 31.14100
O  -0.44100 12.63300 30.99100
O  -2.28800 12.41800 32.28100
C  -1.63300 11.54100 33.27800
H  -2.24700 20.14100 30.02800
H  -2.14900 19.96100 23.61500
H  -2.02700 13.65600 23.85300
H  -3.42800 15.87900 31.91300
H  -1.72500 18.22000 31.80200
H  -4.41100 17.61600 32.61100
H  -4.66600 18.66400 31.35300
H  -3.52900 19.18700 32.76500
H  -0.46300 15.37000 31.60400
H  -1.81400 14.72100 32.68500
H  -1.25900 17.11000 33.83700
H  0.26300 16.78000 33.15500
H  -1.43300 22.86200 28.69100
H  -2.67500 22.04600 29.60400
H  -3.12500 23.02900 28.17100
H  -3.25400 23.89200 26.01800
H  -2.13000 24.39200 24.77700
H  -1.44800 24.12700 26.39200
H  -0.81700 17.84800 22.28400
H  -2.44100 15.43300 22.13800
H  -3.62900 18.58800 22.24300
H  -3.64700 17.11400 21.29600
H  -2.76000 18.61800 20.82200
H  -0.22800 15.70500 21.23100
H  -0.47100 14.29000 22.24400
H  0.73600 16.60000 23.75200
H  1.58700 16.29000 22.16000
H  1.49100 14.99300 23.31400
H  -1.78200 10.43400 25.95900
H  -2.23000 11.51400 24.65800
H  -3.47800 11.02500 25.75900
H  -3.66200 13.05000 30.57400
H  -2.30100 11.34300 34.11600
H  -0.70200 11.96000 33.66100
H  -1.42100 10.60100 32.76700
Mg -5.45800 25.65200 25.83400
C  -3.63700 26.73200 28.66900
C  -7.63300 24.05400 27.89700
C  -6.77500 24.33000 23.11100
C  -3.41100 27.72300 23.86200
N  -5.62900 25.46200 27.99600
C  -4.77500 25.93000 28.97900
C  -5.19100 25.50000 30.32500
C  -6.30900 24.41900 30.00900
C  -6.58800 24.68800 28.52200
C  -6.00100 22.97400 30.41000
C  -5.67300 26.71400 31.13300
C  -5.22200 26.85300 32.62100
H  -4.89400 25.52700 33.46800
N  -6.96800 24.36400 25.50200
C  -7.81700 23.86900 26.51900
C  -8.93900 23.06900 25.88000
C  -8.58100 22.99700 24.49600
C  -7.39100 23.90200 24.29100
C  -10.16100 22.47100 26.69200
C  -9.34100 22.32200 23.37500
O  -8.99800 22.43900 22.19900
C  -10.54500 21.54700 23.64100
N  -4.95200 25.81800 23.76000
C  -5.72100 25.21000 22.85400
C  -5.51000 25.73700 21.39000
C  -4.47200 26.87800 21.64300
C  -4.24200 26.82900 23.19000
C  -4.99100 24.59200 20.43600
C  -4.99900 28.21700 21.07100
C  -4.78400 28.41500 19.58100
N  -3.71900 26.91800 26.12400
C  -3.04000 27.70800 25.22000
C  -2.13500 28.58400 26.05100
C  -2.28500 28.11500 27.34400
C  -3.27800 27.10500 27.37900
C  -1.17000 29.66900 25.63400
C  -1.79500 28.33700 28.68800
O  -0.90400 29.03600 29.16400
C  -2.66800 27.47100 29.63300
C  -1.74900 26.61200 30.40000
O  -1.06400 25.73000 29.99800
O  -1.91200 27.01100 31.69000
C  -1.05100 26.23800 32.61200
H  -8.21500 23.39400 28.54300
H  -7.21200 23.84900 22.23400
H  -2.89700 28.42200 23.19900
H  -4.34700 25.03600 30.83600
H  -7.30600 24.56200 30.42800
H  -6.69700 22.53800 31.12700
H  -4.99900 22.75600 30.78000
H  -6.04100 22.34000 29.52400
H  -6.72400 26.46400 31.27200
H  -5.51300 27.65500 30.60700
H  -5.93800 27.48900 33.14200
H  -4.36500 27.50500 32.45500
H  -10.11800 22.79500 27.73200
H  -10.13200 21.38400 26.76000
H  -11.12300 22.75400 26.26400
H  -11.21800 22.24400 24.14100
H  -10.40700 20.65300 24.24800
H  -10.96600 21.23100 22.68600
H  -6.43700 26.14100 20.98500
H  -3.53600 26.74900 21.10100
H  -3.96700 24.39200 20.75300
H  -4.95100 24.93900 19.40400
H  -5.70000 23.76900 20.52900
H  -4.59600 29.11300 21.54200
H  -6.07600 28.25700 21.23700
H  -4.09200 29.23500 19.38800
H  -5.62600 28.73400 18.96700
H  -4.35400 27.51300 19.14500
H  -1.30600 30.54700 26.26600
H  -1.49700 30.06700 24.67400
H  -0.12400 29.37400 25.54900
H  -3.20900 28.19700 30.24000
H  -1.38800 25.20600 32.70800
H  -1.19200 26.61000 33.62700
H  -0.02200 26.14400 32.26400

