158

Mg 16.40900 -2.44300 27.45900
C  15.41200 -0.01800 29.82800
C  18.22000 -3.99800 29.91800
C  17.99800 -4.19200 25.05300
C  14.96400 -0.36600 24.98900
N  16.82600 -1.94400 29.54000
C  16.22100 -1.03000 30.32400
C  16.63800 -1.20400 31.88300
C  17.59000 -2.42800 31.82600
C  17.53200 -2.84500 30.33300
C  19.08800 -2.12400 32.24500
C  15.31100 -1.35900 32.67800
C  15.09300 -0.50100 33.95400
H  16.37900 0.00800 34.68500
N  17.75800 -3.97300 27.47800
C  18.34200 -4.54600 28.55200
C  19.23700 -5.60900 28.14200
C  19.20300 -5.68400 26.75000
C  18.26200 -4.62500 26.36600
C  19.93300 -6.50200 29.14700
C  19.95300 -6.58200 25.74100
O  19.72600 -6.61400 24.53500
C  20.97900 -7.57900 26.20200
N  16.47600 -2.28600 25.36500
C  17.14700 -3.16100 24.64700
C  17.12900 -2.77700 23.14200
C  16.11800 -1.62600 23.05400
C  15.81600 -1.37400 24.51600
C  18.57000 -2.53600 22.62700
C  14.84000 -1.99200 22.25000
C  13.62600 -2.47600 22.97100
N  15.30000 -0.66900 27.40600
C  14.68900 -0.03700 26.36400
C  13.85900 1.05500 26.84900
C  14.09700 1.09700 28.20100
C  14.99000 0.08600 28.48000
C  12.91900 1.86300 26.01300
C  13.76300 1.81400 29.45500
O  12.91000 2.65100 29.76500
C  14.57400 1.04400 30.56800
C  15.31500 2.09200 31.37200
O  16.37500 2.62500 31.09100
O  14.61800 2.45000 32.50700
C  15.10500 3.67900 33.25800
H  18.78000 -4.47200 30.72600
H  18.30200 -4.86600 24.24900
H  14.47100 0.27200 24.25200
H  17.23100 -0.37400 32.26600
H  17.14700 -3.21500 32.43700
H  19.72300 -2.13900 31.35900
H  19.39500 -2.86500 32.98200
H  19.28000 -1.16900 32.73400
H  15.21600 -2.39000 33.01800
H  14.40100 -1.22200 32.09400
H  14.58200 -1.17800 34.63900
H  14.56400 0.41300 33.68500
H  21.00100 -6.61900 28.96100
H  19.45000 -7.45300 28.92200
H  19.88700 -6.21700 30.19800
H  21.69000 -7.81700 25.41000
H  20.45700 -8.50600 26.44200
H  21.61900 -7.17000 26.98400
H  16.68700 -3.63600 22.63800
H  16.52000 -0.73600 22.57100
H  18.73800 -2.94400 21.63000
H  19.30800 -2.81000 23.38100
H  18.58900 -1.44700 22.58200
H  15.06400 -2.83200 21.59300
H  14.49300 -1.09100 21.74500
H  13.77900 -2.92500 23.95300
H  13.18800 -3.27500 22.37300
H  12.88800 -1.67600 22.92300
H  12.11600 2.20800 26.66400
H  12.69200 1.26100 25.13300
H  13.46600 2.76900 25.75200
H  13.84200 0.62200 31.25600
H  15.63200 4.36900 32.60000
H  15.84600 3.29400 33.95900
H  14.29500 4.12000 33.84000
Mg 10.04900 47.00300 26.16600
C  8.24400 46.99300 29.11200
C  12.78500 48.11900 27.86900
C  11.70400 47.10100 23.28200
C  6.94800 46.57800 24.39900
N  10.41300 47.49500 28.24500
C  9.56100 47.40000 29.28000
C  10.21000 47.76700 30.55500
C  11.43300 48.62300 29.96500
C  11.58400 48.00500 28.60800
C  11.10800 50.14400 29.91500
C  10.71800 46.54400 31.26900
C  10.89500 46.72400 32.76200
H  10.49400 45.62000 33.72200
N  11.94600 47.61700 25.60800
C  12.95000 47.95700 26.46900
C  14.22700 47.97300 25.82000
C  13.94300 47.60700 24.48700
C  12.47600 47.49600 24.34400
C  15.52000 48.35800 26.44100
C  15.03000 47.28400 23.45500
O  14.66200 47.14500 22.30000
C  16.51500 47.35400 23.77300
N  9.40100 47.07700 24.10700
C  10.39500 47.10100 23.12000
C  9.72400 46.83300 21.75200
C  8.20800 46.46200 22.13000
C  8.14100 46.81100 23.66900
C  9.87800 47.95700 20.78700
C  7.90700 45.02100 21.87300
C  8.68100 43.93700 22.69100
N  7.99000 46.79400 26.56300
C  6.86700 46.69900 25.79700
C  5.74900 46.47300 26.66600
C  6.21000 46.63900 28.00900
C  7.60500 46.78400 27.85400
C  4.37900 46.00100 26.28800
C  5.78200 46.65500 29.34900
O  4.63000 46.56500 29.84400
C  7.10800 46.85300 30.19100
C  7.33800 45.66800 31.05800
O  7.77000 44.59700 30.69000
O  6.80800 45.93500 32.32800
C  6.72900 44.75300 33.20900
H  13.68700 48.42700 28.40200
H  12.23700 46.98800 22.33500
H  6.05000 46.44000 23.79300
H  9.43400 48.13300 31.22600
H  12.34100 48.36500 30.51000
H  10.03800 50.28100 30.07200
H  11.27600 50.32400 28.85300
H  11.71600 50.71300 30.61800
H  11.65900 46.24500 30.80800
H  10.06600 45.69900 31.04400
H  10.54700 47.67200 33.17200
H  11.97800 46.73700 32.87900
H  15.48100 48.62900 27.49600
H  16.04000 49.22400 26.03100
H  16.09900 47.43500 26.47100
H  16.67500 46.50900 24.44400
H  16.89800 48.26600 24.23100
H  17.13900 47.11900 22.91100
H  10.29500 46.01300 21.31600
H  7.48300 47.10400 21.63100
H  10.38500 47.69100 19.85900
H  10.40000 48.74600 21.32800
H  8.87300 48.22200 20.45900
H  8.03700 44.74800 20.82600
H  6.81900 45.00800 21.94100
H  9.24400 44.37000 23.51800
H  9.53500 43.71600 22.05200
H  8.04100 43.09300 22.94800
H  4.33900 45.38100 25.39200
H  3.65600 46.81200 26.20200
H  4.01500 45.37200 27.10100
H  6.86500 47.72500 30.79900
H  7.54700 44.03300 33.18100
H  5.74300 44.28700 33.21900
H  6.86000 45.12000 34.22700

