158

Mg 30.05100 58.07000 39.75000
C  27.28700 56.02600 38.79300
C  32.05900 55.40200 38.77800
C  32.68900 60.17900 39.71900
C  27.75700 60.74800 40.03500
N  29.68800 56.02400 38.79200
C  28.48800 55.43800 38.65900
C  28.70300 53.93500 38.36500
C  30.21900 53.63100 38.71800
C  30.69500 55.08100 38.84200
C  30.49000 52.81300 39.99800
C  28.21200 53.46000 36.93800
C  28.65500 54.39600 35.84300
H  28.28000 53.82100 34.45300
N  32.08800 57.80700 39.53300
C  32.74000 56.62600 39.05400
C  34.17700 56.91300 38.99600
C  34.38400 58.28800 39.42600
C  32.98400 58.82500 39.55700
C  35.23400 55.87500 38.69500
C  35.69000 58.93400 39.63700
O  36.68700 58.35500 39.35400
C  35.82800 60.25700 40.37700
N  30.14600 60.21900 39.95100
C  31.37700 60.82500 39.83800
C  31.16800 62.36700 40.03300
C  29.62600 62.49200 40.30500
C  29.11100 61.09500 40.09100
C  32.13800 63.14000 41.04800
C  28.90500 63.71600 39.50200
C  28.13600 64.72900 40.33900
N  28.01900 58.40700 39.50000
C  27.24500 59.51500 39.68000
C  25.82900 59.18000 39.39500
C  25.83900 57.81800 39.05200
C  27.17300 57.36900 39.15400
C  24.67000 60.07800 39.46900
C  25.00200 56.67900 38.63100
O  23.81700 56.60800 38.45100
C  25.95600 55.47000 38.48900
C  25.62300 54.20000 39.14700
O  25.58800 54.11600 40.39100
O  25.17800 53.24300 38.29400
C  24.67400 51.98100 38.85000
H  32.72100 54.54100 38.89200
H  33.48200 60.89200 39.48400
H  26.98400 61.50700 40.17200
H  28.04700 53.37800 39.03400
H  30.84000 53.30000 37.88500
H  29.54900 52.60900 40.50900
H  31.19100 53.39500 40.59600
H  30.97500 51.90100 39.65100
H  27.17000 53.14000 36.93300
H  28.82000 52.60400 36.64400
H  29.74100 54.40700 35.74400
H  28.31600 55.43000 35.90300
H  34.82000 54.92800 38.34700
H  35.63400 55.45900 39.62000
H  36.07100 56.29000 38.13500
H  36.65300 60.29200 41.08800
H  34.98500 60.69100 40.91400
H  36.13200 61.03700 39.68000
H  31.45800 62.76800 39.06200
H  29.38400 62.57400 41.36400
H  32.80100 63.79800 40.48500
H  32.73500 62.39300 41.57000
H  31.54400 63.63000 41.81900
H  28.11200 63.25200 38.91400
H  29.65800 64.16600 38.85600
H  28.53800 64.67600 41.35000
H  27.06900 64.50600 40.30300
H  28.29700 65.75300 40.00000
H  24.74500 60.86400 38.71700
H  24.52900 60.57500 40.42900
H  23.84400 59.40100 39.25000
H  26.05400 55.33900 37.41100
H  24.58800 51.29100 38.01000
H  23.71000 52.09400 39.34600
H  25.41400 51.64400 39.57600
Mg -2.66600 34.87500 26.90100
C  -4.32700 33.14200 29.52900
C  -1.81200 37.30000 29.02700
C  -1.20100 36.39000 24.24800
C  -4.26900 32.66900 24.64700
N  -3.09400 35.25800 29.07500
C  -3.67200 34.30500 29.94900
C  -3.33700 34.77400 31.34000
C  -2.74600 36.20200 31.21100
C  -2.51700 36.31900 29.69100
C  -3.73300 37.39300 31.60700
C  -2.47400 33.76200 32.07900
C  -3.27400 33.06400 33.26800
H  -2.28100 32.99000 34.59100
N  -1.57400 36.57200 26.66400
C  -1.36000 37.48200 27.70600
C  -0.50900 38.53800 27.17100
C  -0.41100 38.36500 25.74100
C  -1.13900 37.05100 25.50600
C  0.14400 39.63100 28.00800
C  0.21000 39.27000 24.67700
O  0.11500 39.01100 23.50000
C  1.00000 40.46000 25.02500
N  -2.81100 34.63200 24.77400
C  -2.02100 35.32100 23.87700
C  -2.09900 34.73900 22.47800
C  -2.84800 33.36400 22.73800
C  -3.37100 33.55100 24.16200
C  -2.77400 35.76600 21.53000
C  -2.13800 31.96200 22.73000
C  -0.93900 31.65800 23.66200
N  -3.97300 33.21100 27.01300
C  -4.57900 32.47700 26.02900
C  -5.22100 31.38600 26.55400
C  -5.26700 31.56100 27.93700
C  -4.46000 32.75000 28.15700
C  -5.98400 30.33800 25.69700
C  -5.67000 31.13600 29.29800
O  -6.34700 30.21900 29.72600
C  -5.02800 32.10700 30.34200
C  -6.11700 32.66500 31.19300
O  -6.75000 33.71600 30.98400
O  -6.26300 31.89900 32.37200
C  -7.41700 32.29200 33.22600
H  -1.30700 38.01400 29.68000
H  -0.53600 36.73100 23.45200
H  -4.60700 31.87800 23.97500
H  -4.32300 35.01100 31.74000
H  -1.81900 36.37700 31.75800
H  -4.14600 37.91500 30.74400
H  -3.20000 38.16300 32.16400
H  -4.47700 37.08200 32.34100
H  -1.61000 34.28100 32.49500
H  -2.16200 32.92600 31.45300
H  -3.57100 32.07900 32.90900
H  -4.17500 33.65300 33.43500
H  0.11100 39.36800 29.06500
H  -0.39400 40.54700 27.76700
H  1.20800 39.70700 27.78300
H  1.79100 40.01800 25.63000
H  0.27500 40.97100 25.65900
H  1.41300 40.94900 24.14300
H  -1.07400 34.59600 22.13900
H  -3.71700 33.22600 22.09400
H  -2.82700 36.77100 21.94800
H  -3.80600 35.47600 21.33500
H  -2.21300 35.87400 20.60100
H  -1.70400 31.76200 21.75000
H  -2.85800 31.14500 22.77100
H  -1.35800 30.87600 24.29600
H  -0.68800 32.59100 24.16600
H  -0.07700 31.22700 23.15300
H  -5.54400 30.20400 24.70900
H  -7.03600 30.61700 25.63500
H  -5.92900 29.36300 26.18100
H  -4.27700 31.61800 30.96100
H  -8.25800 32.68400 32.65300
H  -7.15400 33.17800 33.80400
H  -7.64600 31.50600 33.94500

