158

Mg 36.19600 48.95300 26.18400
C  36.86700 46.66500 28.84900
C  34.54000 50.87600 28.37000
C  35.29800 50.86700 23.62500
C  37.34200 46.55300 23.99000
N  35.90000 48.81900 28.35400
C  36.40500 47.94400 29.21300
C  36.05900 48.33400 30.63200
C  35.18500 49.51200 30.42000
C  35.13600 49.72700 28.92700
C  33.67100 49.39300 30.90300
C  37.37900 48.70100 31.36200
C  37.27700 48.79000 32.92000
H  35.94500 48.76200 33.56600
N  35.26400 50.70200 26.02300
C  34.58300 51.37500 27.00700
C  34.10100 52.66800 26.52800
C  34.44300 52.72900 25.11000
C  35.00600 51.42800 24.85300
C  33.55500 53.78600 27.44800
C  34.18400 53.86000 24.06600
O  34.53900 53.80400 22.85700
C  33.47600 55.14800 24.45300
N  36.27300 48.71900 24.11800
C  35.86000 49.60500 23.23100
C  36.00700 49.23700 21.74200
C  36.68200 47.84500 21.87400
C  36.83300 47.73300 23.44000
C  34.63100 49.20200 20.97000
C  37.92700 47.63800 20.95300
C  39.41300 47.94400 21.51700
N  36.94900 46.92800 26.35800
C  37.40100 46.14800 25.35000
C  37.90100 44.86200 25.91400
C  37.71800 44.96200 27.36100
C  37.14100 46.26200 27.56200
C  38.51800 43.85100 25.00700
C  37.76300 44.31700 28.65000
O  38.20800 43.21800 29.04900
C  37.34000 45.51800 29.62600
C  36.23900 44.85000 30.45600
O  35.09300 44.73200 30.02100
O  36.72900 44.52400 31.72900
C  35.63500 44.24200 32.63000
H  33.87100 51.44200 29.02200
H  35.02500 51.48700 22.76800
H  37.71000 45.90000 23.19600
H  35.58900 47.54200 31.21600
H  35.60800 50.38600 30.91600
H  32.97100 49.79200 30.16900
H  33.58400 49.94400 31.83900
H  33.51900 48.32400 31.05000
H  37.73000 49.66500 30.99300
H  38.09400 47.95700 31.01200
H  37.94100 49.61000 33.19000
H  37.90100 47.92500 33.14300
H  33.90400 54.76400 27.11700
H  33.97500 53.59900 28.43700
H  32.49400 53.86500 27.68400
H  32.52700 54.75000 24.81400
H  33.23400 55.73700 23.56800
H  34.13300 55.57900 25.20800
H  36.65900 49.93100 21.21100
H  36.04100 47.00700 21.59900
H  34.66300 49.99900 20.22700
H  33.73400 49.49900 21.51300
H  34.43300 48.27700 20.42800
H  37.73100 48.10200 19.98600
H  38.04000 46.56500 20.79700
H  39.85100 48.57200 20.74100
H  39.95300 47.05800 21.85400
H  39.29700 48.62100 22.36300
H  38.93600 44.17800 24.05500
H  37.69000 43.18500 24.76300
H  39.29000 43.40100 25.63100
H  38.17700 45.82900 30.25200
H  35.07800 45.16200 32.81100
H  36.12700 43.86800 33.52800
H  35.03700 43.41400 32.24900
Mg 7.16500 53.78500 40.88600
C  6.43000 50.25700 40.54700
C  10.34800 53.15800 39.77600
C  7.47100 57.09400 40.35800
C  3.71900 54.21900 41.45300
N  8.22800 51.93700 40.15100
C  7.78700 50.64500 40.25000
C  8.87700 49.68000 39.80500
C  10.19000 50.58800 39.89700
C  9.58000 52.02400 39.84100
C  10.88600 50.34900 41.23200
C  8.85800 48.88200 38.45500
C  8.55700 49.78900 37.24300
H  7.56100 49.33300 36.20000
N  8.73000 54.98900 40.21500
C  9.99700 54.49600 39.86600
C  10.84100 55.70600 39.69000
C  10.04100 56.86600 39.87400
C  8.68600 56.36800 40.17600
C  12.26000 55.56900 39.17200
C  10.50700 58.29300 39.84100
O  11.65800 58.54900 39.52000
C  9.66700 59.46400 40.32400
N  5.69800 55.37400 40.66500
C  6.15800 56.69200 40.55000
C  5.08200 57.68800 40.75900
C  3.85000 56.73900 40.91900
C  4.45100 55.36500 41.05000
C  5.30900 58.63200 42.01700
C  2.92000 56.80300 39.67200
C  1.45800 57.04900 39.94500
N  5.40500 52.51200 41.11800
C  4.09000 52.86000 41.41400
C  3.25100 51.68600 41.74600
C  4.16300 50.67600 41.36200
C  5.42200 51.21800 41.00500
C  1.77000 51.76500 42.22900
C  4.31300 49.25000 41.31500
O  3.54000 48.34400 41.51900
C  5.73300 48.91200 40.74600
C  5.54000 48.06800 39.57500
O  4.95000 48.40400 38.56700
O  5.92000 46.78800 39.89300
C  5.29300 45.79500 38.99700
H  11.41700 52.98000 39.64000
H  7.60700 58.16600 40.19700
H  2.66200 54.42100 41.64000
H  8.80700 48.90400 40.56800
H  10.81600 50.43300 39.01900
H  10.90900 51.24900 41.84700
H  11.88500 50.00800 40.96100
H  10.37800 49.55700 41.78200
H  8.08000 48.11900 38.47700
H  9.82400 48.38600 38.35900
H  9.55000 50.03500 36.86700
H  8.25700 50.76400 37.62700
H  12.35600 56.42000 38.49700
H  12.53500 54.62000 38.71200
H  12.89000 55.80200 40.03000
H  10.26100 60.36400 40.48100
H  9.18800 59.17600 41.26000
H  8.92900 59.76700 39.58100
H  5.08800 58.34400 39.88900
H  3.32800 56.82300 41.87200
H  5.32800 59.67100 41.68800
H  6.35300 58.47900 42.29300
H  4.65700 58.38700 42.85500
H  3.00900 55.95700 38.99100
H  3.05900 57.76500 39.17800
H  0.88300 56.21300 39.54500
H  1.20400 58.01600 39.51100
H  1.33100 57.02500 41.02700
H  1.15400 51.51500 41.36600
H  1.34800 52.75000 42.42400
H  1.47300 51.11200 43.05000
H  6.30200 48.38600 41.51300
H  5.33200 46.06100 37.94000
H  4.20900 45.83300 39.10200
H  5.79000 44.87000 39.28900

