158

Mg 47.63100 34.37500 27.28100
C  45.79100 33.15300 29.90700
C  48.22300 37.22800 29.13900
C  48.96000 35.62900 24.54300
C  46.93800 31.37100 25.48500
N  46.92000 35.21100 29.26200
C  46.39800 34.42100 30.20000
C  46.53700 35.00300 31.65900
C  47.02400 36.46000 31.35100
C  47.36100 36.35000 29.80600
C  45.93500 37.59600 31.49700
C  47.58600 34.19400 32.50400
C  47.48000 34.44100 34.03700
H  48.38500 35.59000 34.61100
N  48.35300 36.20000 26.83200
C  48.56400 37.18800 27.72600
C  49.07900 38.30900 27.07300
C  49.41300 37.87800 25.73800
C  48.90500 36.53500 25.61400
C  49.32000 39.66100 27.75600
C  50.18800 38.58300 24.58900
O  50.24800 38.15600 23.45300
C  50.76100 39.96800 24.90500
N  47.72000 33.64900 25.16800
C  48.50200 34.33200 24.32300
C  48.97100 33.56000 23.09700
C  48.42500 32.12200 23.49900
C  47.61800 32.36600 24.80100
C  48.47500 33.97600 21.72300
C  49.37300 30.91700 23.57400
C  48.78400 29.66100 22.90500
N  46.60100 32.58500 27.58800
C  46.46400 31.46200 26.82300
C  45.69100 30.49600 27.56700
C  45.39800 31.13600 28.73500
C  45.94000 32.36900 28.74300
C  45.26600 29.13300 27.15900
C  44.67000 30.91500 29.95100
O  43.84000 30.07800 30.32600
C  44.71300 32.38800 30.73500
C  45.02900 32.07300 32.14800
O  45.87300 31.27100 32.50700
O  44.11300 32.62600 33.02400
C  43.95600 32.06600 34.31900
H  48.60500 38.10100 29.67200
H  49.58600 36.04200 23.74900
H  46.92400 30.33200 25.14800
H  45.58100 34.92600 32.17600
H  47.94900 36.72000 31.86500
H  45.98900 38.31500 30.67900
H  46.04300 38.17000 32.41700
H  44.91900 37.21200 31.58500
H  48.58300 34.58800 32.30600
H  47.62600 33.13200 32.26200
H  47.94900 33.53700 34.42600
H  46.45300 34.42300 34.40000
H  49.36700 40.44500 27.00100
H  50.24200 39.70200 28.33700
H  48.45800 39.89800 28.38000
H  51.51000 40.07200 24.12000
H  51.20500 40.04800 25.89800
H  49.91100 40.63100 24.74800
H  50.06100 33.55000 23.10300
H  47.71600 31.82700 22.72600
H  47.47200 34.30800 21.98900
H  48.54400 33.09700 21.08200
H  49.05600 34.84900 21.42400
H  49.78300 30.73900 24.56700
H  50.29300 31.15700 23.04100
H  49.29300 29.53800 21.94900
H  47.71500 29.74700 22.71100
H  48.89000 28.83200 23.60400
H  45.38000 28.91300 26.09700
H  44.24000 29.07100 27.52200
H  45.81700 28.32300 27.63700
H  43.74800 32.87400 30.59500
H  43.14800 31.33400 34.33200
H  43.75100 32.81400 35.08400
H  44.81800 31.47000 34.61900
Mg -5.26400 25.57800 26.26800
C  -3.66200 26.75500 29.07200
C  -6.89700 23.28300 28.37100
C  -6.52500 23.99000 23.57200
C  -3.17500 27.43600 24.18400
N  -5.31500 25.10800 28.45100
C  -4.64300 25.77600 29.40300
C  -5.20400 25.58700 30.84400
C  -5.85900 24.23400 30.62100
C  -6.10400 24.25400 29.11700
C  -5.06700 22.95200 31.14200
C  -6.08000 26.71500 31.42500
C  -5.87600 27.12500 32.94200
H  -5.58500 26.01500 33.92400
N  -6.50900 23.88200 25.94900
C  -7.08000 23.08600 26.96200
C  -7.79700 21.96000 26.33400
C  -7.63100 22.07700 24.91800
C  -6.83200 23.35500 24.75400
C  -8.35300 20.84200 27.20100
C  -8.13000 21.20000 23.75700
O  -7.97000 21.51500 22.54100
C  -8.89700 19.93900 24.07300
N  -4.89200 25.66900 24.21200
C  -5.64900 25.01400 23.31900
C  -5.14000 25.28500 21.87300
C  -4.34500 26.64200 22.03900
C  -4.01200 26.55400 23.54100
C  -4.39800 24.10800 21.22900
C  -5.05300 28.01900 21.72000
C  -5.78000 28.27900 20.33300
N  -3.72300 26.90700 26.53000
C  -2.98500 27.62500 25.58900
C  -2.09100 28.48900 26.28600
C  -2.29200 28.16800 27.63500
C  -3.27900 27.18400 27.72600
C  -1.09200 29.50500 25.68300
C  -1.84100 28.51800 28.95200
O  -1.03700 29.42200 29.27100
C  -2.77200 27.62100 29.98800
C  -1.96900 26.66400 30.88900
O  -1.44400 25.62200 30.57100
O  -1.85500 27.25300 32.07000
C  -1.10300 26.60300 33.13600
H  -7.31700 22.50200 29.00800
H  -7.04200 23.62400 22.68200
H  -2.42100 28.00600 23.63600
H  -4.40800 25.45600 31.57700
H  -6.73200 24.25500 31.27500
H  -4.66400 23.06100 32.14900
H  -4.32700 22.75700 30.36500
H  -5.75200 22.11400 31.27200
H  -7.12200 26.40200 31.35000
H  -5.87900 27.58600 30.80200
H  -6.79100 27.47000 33.42400
H  -5.19200 27.97200 32.99300
H  -8.71400 21.14500 28.18300
H  -7.55600 20.10400 27.30100
H  -9.18100 20.42100 26.63000
H  -9.00100 19.42600 23.11700
H  -9.93900 20.10000 24.34800
H  -8.45400 19.33800 24.86700
H  -6.02800 25.50400 21.28000
H  -3.38100 26.61300 21.53100
H  -4.49600 23.26400 21.91100
H  -3.36700 24.37700 21.00100
H  -4.86500 23.79200 20.29600
H  -4.18800 28.64600 21.94100
H  -5.78700 28.11100 22.52100
H  -6.84200 28.03800 20.37900
H  -5.29500 27.72100 19.53300
H  -5.75400 29.35400 20.15100
H  -0.85600 29.18800 24.66700
H  -0.20400 29.43400 26.31000
H  -1.45700 30.52900 25.60100
H  -3.50400 28.21500 30.53600
H  -0.11300 27.04300 33.25500
H  -0.93700 25.53200 33.02000
H  -1.67300 26.87100 34.02600

