158

Mg 0.41500 7.57400 25.75100
C  1.23000 9.72600 28.51200
C  0.92200 4.88800 27.71800
C  -0.28100 5.78100 23.03000
C  0.74100 10.56500 23.65300
N  1.06800 7.35000 27.91100
C  1.18200 8.39200 28.83300
C  1.25000 7.74300 30.24600
C  1.38300 6.17500 29.95300
C  1.02000 6.11900 28.47500
C  2.72400 5.52200 30.34900
C  -0.08500 8.15400 31.08600
C  0.06700 8.16800 32.56000
H  1.33000 7.54400 33.20000
N  0.29800 5.69600 25.40600
C  0.61800 4.71800 26.35700
C  0.34700 3.42400 25.83200
C  -0.05400 3.56400 24.47300
C  -0.09100 5.04500 24.20200
C  0.62100 2.13700 26.61800
C  -0.39900 2.53800 23.38500
O  -0.67900 2.86600 22.25800
C  -0.29900 1.09500 23.69000
N  0.22400 8.18500 23.67700
C  -0.12800 7.16500 22.78900
C  -0.07600 7.75500 21.32300
C  0.22700 9.28000 21.56600
C  0.38000 9.39200 23.04500
C  1.02100 7.10300 20.41200
C  -0.80100 10.17300 20.88200
C  -2.17900 10.13000 21.50800
N  0.85100 9.68400 25.99200
C  0.94200 10.78600 25.06000
C  1.24600 12.05300 25.76600
C  1.26800 11.63500 27.12100
C  1.10400 10.23100 27.20400
C  1.28900 13.49200 25.23100
C  1.50900 12.17000 28.44300
O  1.76700 13.28300 28.83100
C  1.37100 10.94000 29.42900
C  2.57500 10.97000 30.25000
O  3.69800 10.79500 29.80200
O  2.15100 11.18000 31.61100
C  3.13900 11.11100 32.62100
H  1.00400 4.06900 28.43600
H  -0.52000 5.17400 22.15400
H  0.65300 11.44200 23.00900
H  2.04200 8.10000 30.90500
H  0.62200 5.67400 30.55100
H  3.42300 6.23800 30.78000
H  3.15500 4.95500 29.52400
H  2.55400 4.87500 31.21000
H  -0.80900 7.37100 30.86100
H  -0.49300 9.08800 30.70200
H  -0.81700 7.63900 32.91900
H  0.01900 9.13900 33.05200
H  0.69600 1.14500 26.17400
H  0.03800 2.09700 27.53800
H  1.59100 2.19500 27.11100
H  -0.85600 0.77400 22.80900
H  -0.91800 0.73500 24.51200
H  0.74600 0.78800 23.72300
H  -1.01700 7.54600 20.81500
H  1.24700 9.54300 21.28800
H  0.87900 7.46700 19.39500
H  1.03600 6.01600 20.33700
H  2.02200 7.35200 20.76500
H  -0.94900 9.89000 19.84000
H  -0.48000 11.21300 20.93800
H  -2.87200 10.62000 20.82500
H  -2.15800 10.74800 22.40600
H  -2.45800 9.09700 21.71700
H  1.08400 13.43500 24.16200
H  2.20600 13.94700 25.60700
H  0.40400 13.88900 25.72800
H  0.51000 11.16700 30.05900
H  3.44300 12.15400 32.71000
H  3.94700 10.44300 32.32000
H  2.75300 10.78500 33.58700
Mg 24.36200 -4.67100 46.25400
C  26.41800 -2.23100 44.98500
C  21.81000 -3.66300 44.16600
C  22.70300 -7.63900 46.85600
C  26.97300 -5.73200 48.47100
N  24.22200 -3.24200 44.54700
C  25.18500 -2.27800 44.25000
C  24.66600 -1.29600 43.16800
C  23.07700 -1.53600 43.36200
C  23.03300 -2.90900 44.08500
C  22.37100 -0.37400 44.14000
C  25.34900 -1.73100 41.80700
C  25.53100 -0.59600 40.79100
H  25.76100 -0.92300 39.32400
N  22.54900 -5.44800 45.65000
C  21.59900 -4.88400 44.84200
C  20.43300 -5.68900 44.67500
C  20.67000 -6.82900 45.54600
C  22.03300 -6.65600 46.11000
C  19.25700 -5.31200 43.80400
C  19.61700 -7.88700 45.82300
O  18.55600 -7.83400 45.24100
C  19.84300 -8.97300 46.84400
N  24.69100 -6.42900 47.48300
C  23.88800 -7.52500 47.62600
C  24.55300 -8.62700 48.44300
C  25.78700 -7.86600 49.10500
C  25.87400 -6.57600 48.27900
C  23.67400 -9.37200 49.48000
C  27.08600 -8.62400 49.33500
C  27.57900 -8.79500 50.77000
N  26.24700 -4.05600 46.73100
C  27.16800 -4.47600 47.70600
C  28.33400 -3.59800 47.68900
C  28.09600 -2.74700 46.57800
C  26.80400 -3.05500 46.07100
C  29.56600 -3.54700 48.71400
C  28.70600 -1.62900 45.82000
O  29.77200 -1.01400 45.83000
C  27.58700 -1.28400 44.76300
C  27.23000 0.16500 45.05900
O  26.23000 0.53600 45.69300
O  28.13800 1.07000 44.35000
C  27.68800 2.47300 44.20100
H  20.88400 -3.20600 43.81200
H  22.34000 -8.66700 46.78900
H  27.79600 -5.98500 49.14200
H  24.87900 -0.25000 43.38700
H  22.70900 -1.48400 42.33800
H  22.07500 -0.62100 45.16000
H  21.50300 -0.06900 43.55500
H  23.01700 0.48200 44.33300
H  24.82100 -2.55300 41.32300
H  26.30100 -2.14000 42.14500
H  26.32300 0.05300 41.16500
H  24.64900 0.04500 40.79300
H  19.19100 -6.03000 42.98700
H  19.23100 -4.29100 43.42200
H  18.35600 -5.32100 44.41700
H  18.86700 -9.41900 47.03700
H  20.20100 -8.53100 47.77400
H  20.60400 -9.54300 46.31000
H  24.91000 -9.36300 47.72400
H  25.40600 -7.58400 50.08600
H  23.46800 -10.41100 49.22600
H  22.72500 -8.83800 49.52500
H  24.05600 -9.28800 50.49800
H  27.83700 -8.13500 48.71500
H  27.06900 -9.62100 48.89400
H  28.43500 -8.15200 50.97900
H  27.77100 -9.84400 50.99300
H  26.84100 -8.38200 51.45800
H  30.44500 -3.85900 48.15000
H  29.36900 -4.38300 49.38500
H  29.83700 -2.60500 49.18900
H  27.96600 -1.27300 43.74100
H  27.22000 2.83700 45.11600
H  27.11100 2.79100 43.33200
H  28.70700 2.84200 44.08900

