158

Mg -1.59700 17.46200 27.63200
C  -1.93700 14.89600 29.95300
C  -2.43600 19.76000 30.17800
C  -1.42400 20.07400 25.41700
C  -1.80600 15.22200 25.07300
N  -2.03300 17.35600 29.83100
C  -2.04500 16.17200 30.63200
C  -2.08200 16.59700 32.13400
C  -2.41000 18.08800 32.06200
C  -2.35300 18.42900 30.58600
C  -3.64500 18.65300 32.91300
C  -0.78800 16.20500 32.80200
C  -0.16400 17.07700 33.94000
H  0.20700 16.33200 35.21200
N  -1.86800 19.59100 27.80400
C  -2.26600 20.31300 28.93400
C  -2.45600 21.69700 28.63900
C  -2.03700 21.80300 27.24900
C  -1.64900 20.48600 26.78100
C  -2.97900 22.62900 29.73800
C  -2.00500 23.09100 26.37900
O  -1.50600 23.20700 25.25600
C  -2.50600 24.36900 27.04300
N  -1.51600 17.55600 25.49000
C  -1.40500 18.73300 24.83000
C  -1.28300 18.45600 23.33300
C  -1.14600 16.88900 23.23400
C  -1.62800 16.50000 24.62800
C  -2.38400 19.04500 22.33700
C  0.23900 16.37200 22.89700
C  1.37700 16.75700 23.90100
N  -1.65800 15.39600 27.45500
C  -1.75500 14.66600 26.31800
C  -1.87700 13.32100 26.72900
C  -1.95000 13.32800 28.11500
C  -1.81000 14.66100 28.57700
C  -1.92100 12.07500 25.91800
C  -1.99000 12.50000 29.33200
O  -1.94500 11.27400 29.51200
C  -1.96100 13.51200 30.50500
C  -0.84100 13.09000 31.31200
O  0.28300 13.49500 31.11500
O  -1.28400 12.28900 32.35700
C  -0.24900 11.76400 33.16600
H  -2.46300 20.43700 31.03500
H  -1.18000 20.80400 24.64300
H  -1.69700 14.43700 24.32200
H  -2.96100 16.07500 32.51200
H  -1.67500 18.82100 32.39300
H  -4.45600 18.80100 32.20000
H  -3.53500 19.55600 33.51400
H  -3.95200 17.92200 33.66100
H  0.10300 16.19100 32.17400
H  -0.94400 15.18600 33.15600
H  -0.48200 18.07300 34.24900
H  0.83100 17.25000 33.53100
H  -2.86500 23.66300 29.41100
H  -2.48700 22.54300 30.70700
H  -4.01400 22.37600 29.96600
H  -3.44400 24.27200 27.59000
H  -2.64500 25.23800 26.40000
H  -1.84100 24.49600 27.89700
H  -0.29900 18.84700 23.07200
H  -1.78500 16.44400 22.47100
H  -3.30500 18.58800 22.69600
H  -2.02500 18.71900 21.36000
H  -2.51200 20.12700 22.37200
H  0.53600 16.65500 21.88700
H  -0.02300 15.32000 22.78500
H  1.00000 16.70600 24.92200
H  1.74500 17.75800 23.67900
H  2.26800 16.13200 23.84500
H  -1.50600 12.20100 24.91800
H  -2.96500 11.86800 25.68400
H  -1.40500 11.21700 26.34800
H  -2.88900 13.36100 31.05500
H  0.04600 10.83500 32.67700
H  -0.65100 11.68600 34.17600
H  0.61200 12.41800 33.30300
Mg 9.02000 3.84800 27.07200
C  10.17600 2.08800 29.85600
C  7.00100 5.59000 29.18000
C  7.77700 5.48000 24.40000
C  10.49100 1.39800 25.00100
N  8.43500 3.63000 29.21400
C  9.18800 2.97600 30.19000
C  8.93100 3.41700 31.59300
C  7.77200 4.50100 31.35100
C  7.65000 4.54100 29.83100
C  6.56600 4.52000 32.27100
C  10.18200 4.02300 32.27000
C  10.26700 3.58500 33.79300
H  10.80900 4.54200 34.92300
N  7.63800 5.38200 26.83200
C  6.88500 5.95100 27.80000
C  6.06000 6.99900 27.29100
C  6.31000 7.03400 25.89900
C  7.28900 5.96900 25.62300
C  5.31600 7.96400 28.09700
C  5.86900 8.03200 24.80300
O  6.26300 7.94900 23.61300
C  4.83000 8.90700 25.22700
N  9.00000 3.39500 25.05200
C  8.50100 4.27800 24.14200
C  8.86300 3.81800 22.68100
C  9.82400 2.60600 22.86200
C  9.69300 2.40000 24.41300
C  7.65500 3.72900 21.73200
C  11.25600 2.92500 22.42400
C  12.21700 3.52600 23.35200
N  10.08700 2.04200 27.29600
C  10.61100 1.15100 26.39400
C  11.55400 0.30000 27.12800
C  11.38600 0.58200 28.49800
C  10.41200 1.62900 28.54100
C  12.51400 -0.57500 26.51900
C  11.84900 0.27700 29.81000
O  12.69000 -0.58900 30.12800
C  11.07000 1.26200 30.75300
C  10.31500 0.46200 31.67200
O  9.15500 0.00700 31.40700
O  10.87500 0.46500 32.92100
C  10.20700 -0.19600 33.99700
H  6.41700 6.21700 29.85700
H  7.40600 5.99100 23.51000
H  11.17400 0.76700 24.42800
H  8.49200 2.54600 32.08000
H  8.18600 5.50500 31.44000
H  6.87000 4.06800 33.21500
H  5.77700 3.93100 31.80400
H  6.21800 5.54500 32.40000
H  10.14000 5.11200 32.23700
H  11.11100 3.79000 31.74900
H  10.79300 2.63600 33.89800
H  9.25900 3.24300 34.02600
H  5.49800 9.01100 27.85200
H  5.53400 7.92900 29.16500
H  4.26000 7.78800 27.89500
H  4.03500 8.23000 25.53900
H  4.59200 9.44800 24.31100
H  5.06100 9.52800 26.09200
H  9.45800 4.64700 22.29800
H  9.35400 1.74200 22.39400
H  6.73600 4.03500 22.23100
H  7.45100 2.82800 21.15300
H  7.77600 4.40100 20.88200
H  11.25900 3.60700 21.57400
H  11.60600 2.00700 21.95300
H  12.70200 4.33800 22.81000
H  12.81200 2.67500 23.68500
H  11.67200 3.92900 24.20500
H  12.12300 -1.53000 26.16800
H  13.25900 -0.74800 27.29600
H  12.98800 -0.02600 25.70600
H  11.88500 1.72500 31.31000
H  9.47700 0.51700 34.38000
H  10.81100 -0.43000 34.87400
H  9.68300 -1.10100 33.68700

