158

Mg 53.65800 24.82400 45.52700
C  51.17400 27.03500 44.41700
C  52.02800 22.20200 43.88200
C  56.54400 22.86400 45.78100
C  55.51600 27.62800 46.49800
N  51.80300 24.74600 44.18100
C  50.95800 25.72500 43.89800
C  49.79700 25.10200 43.03500
C  49.89100 23.57200 43.30800
C  51.32400 23.53600 43.84700
C  48.78400 22.95100 44.26500
C  49.70400 25.52800 41.53300
C  50.99300 25.52700 40.69200
H  52.17300 24.59700 41.03500
N  54.12900 22.77200 44.95900
C  53.27900 21.85200 44.35000
C  53.96000 20.54500 44.41800
C  55.27200 20.74300 44.99500
C  55.35500 22.19600 45.25600
C  53.31500 19.39600 43.70900
C  56.31700 19.66400 45.25000
O  56.10600 18.51500 44.91500
C  57.58500 19.83900 45.95400
N  55.73900 25.19500 45.92500
C  56.70000 24.24200 46.03400
C  58.02700 24.76300 46.59600
C  57.74300 26.32600 46.51700
C  56.20800 26.40500 46.33100
C  58.29100 24.22800 48.00900
C  58.55600 27.13600 45.48900
C  58.69700 28.64200 45.71100
N  53.36700 26.88800 45.60700
C  54.19400 27.85600 46.17400
C  53.41400 29.02100 46.32400
C  52.26700 28.82300 45.57400
C  52.32100 27.48700 45.07600
C  53.79500 30.23100 47.05200
C  51.04800 29.41900 45.11800
O  50.57400 30.55500 45.28000
C  50.29500 28.30500 44.29600
C  50.03500 28.72400 42.90400
O  50.88800 28.93800 42.03800
O  48.65000 28.82800 42.71900
C  48.28900 29.18400 41.31600
H  51.56500 21.37200 43.34400
H  57.49000 22.33600 45.91600
H  56.02200 28.53600 46.83300
H  48.88200 25.54100 43.43400
H  49.88800 22.92600 42.43000
H  47.86800 23.54200 44.23000
H  49.12600 22.76400 45.28300
H  48.69700 21.96200 43.81600
H  49.18100 26.47100 41.37400
H  49.08400 24.80200 41.00800
H  51.33700 26.55200 40.55300
H  50.67500 25.32500 39.67000
H  53.11000 19.64800 42.66800
H  52.29800 19.18100 44.03800
H  53.84500 18.44400 43.73900
H  57.81400 18.83700 46.31500
H  57.50700 20.44000 46.86100
H  58.36700 20.25900 45.32200
H  58.81500 24.46700 45.90400
H  58.05300 26.78300 47.45700
H  58.05200 23.17500 48.15800
H  57.83600 24.86800 48.76500
H  59.37800 24.21900 47.93800
H  58.07200 27.02900 44.51800
H  59.54500 26.67800 45.45300
H  59.73900 28.70500 46.02400
H  57.99800 28.98000 46.47600
H  58.53100 29.17600 44.77600
H  54.37000 30.08200 47.96600
H  52.89200 30.78700 47.30400
H  54.45100 30.85900 46.45100
H  49.34000 28.10800 44.78400
H  48.76800 28.55200 40.56800
H  48.37600 30.24800 41.09300
H  47.27200 28.96500 40.98900
Mg -11.04700 37.89800 41.99800
C  -9.48400 34.86000 40.94600
C  -8.81700 39.63400 40.18000
C  -12.99500 40.48300 42.62000
C  -13.73800 35.58500 43.13000
N  -9.39700 37.27800 40.68400
C  -8.95400 35.98000 40.36500
C  -7.96300 36.06600 39.17600
C  -7.57600 37.58200 39.25000
C  -8.70300 38.25300 40.00200
C  -6.15400 37.98100 39.80100
C  -8.55000 35.57300 37.85800
C  -7.67400 34.68600 36.96100
H  -6.69600 35.34600 36.07700
N  -10.81300 39.85000 41.67500
C  -9.78000 40.37000 40.91300
C  -9.86000 41.75300 40.99300
C  -11.11200 42.09900 41.74900
C  -11.68900 40.82200 42.10700
C  -8.88200 42.75500 40.36400
C  -11.69700 43.48400 42.04100
O  -11.20600 44.52000 41.57500
C  -12.81800 43.64600 43.02500
N  -13.00200 37.96700 42.85200
C  -13.58100 39.21200 42.98000
C  -15.06500 39.15000 43.47700
C  -15.24500 37.60500 43.71300
C  -13.89800 37.00000 43.16200
C  -15.33400 40.00600 44.69400
C  -16.44700 36.94100 42.90300
C  -17.32900 35.89100 43.65500
N  -11.54900 35.66400 42.19100
C  -12.62000 34.94900 42.60700
C  -12.44600 33.55200 42.30800
C  -11.18600 33.40700 41.78000
C  -10.67200 34.77300 41.68500
C  -13.29000 32.43100 42.75800
C  -10.15500 32.48100 41.21700
O  -10.08400 31.28300 41.10600
C  -9.02500 33.44900 40.71300
C  -7.77400 33.17000 41.44000
O  -6.66600 33.28600 40.90400
O  -8.00000 32.98200 42.78900
C  -6.76700 33.27500 43.58600
H  -8.03500 40.08700 39.56700
H  -13.82300 41.19400 42.64800
H  -14.56400 34.92100 43.39200
H  -7.10900 35.42600 39.40100
H  -7.54700 38.02600 38.25500
H  -5.56500 38.55100 39.08300
H  -5.55500 37.11800 40.09100
H  -6.32000 38.58900 40.69100
H  -8.77600 36.41000 37.19700
H  -9.53900 35.12200 37.94300
H  -8.30100 33.92800 36.49000
H  -7.05700 34.00700 37.55000
H  -9.29900 43.10000 39.41700
H  -7.97500 42.19700 40.13200
H  -8.80100 43.49200 41.16300
H  -12.82900 44.50200 43.69800
H  -12.69600 42.85000 43.76000
H  -13.75200 43.61900 42.46400
H  -15.70500 39.45300 42.64800
H  -15.35100 37.54600 44.79700
H  -16.31100 40.42800 44.45800
H  -14.68300 40.87000 44.82500
H  -15.44300 39.53500 45.67100
H  -16.07500 36.51800 41.97000
H  -17.08700 37.78000 42.62800
H  -17.51500 34.98300 43.08200
H  -18.33200 36.31300 43.72800
H  -17.00900 35.58100 44.64900
H  -13.43000 31.72300 41.94100
H  -14.21800 32.84600 43.15000
H  -12.74400 31.88900 43.52900
H  -8.88000 33.17500 39.66800
H  -6.07200 32.43600 43.54200
H  -7.19000 33.58500 44.54200
H  -6.29200 34.19500 43.24700

