158

Mg 3.03600 1.30100 44.22600
C  5.89600 3.30500 44.29900
C  1.63400 3.58100 42.08700
C  0.59400 -0.88200 43.52000
C  5.01500 -1.33400 45.51600
N  3.71200 3.14600 43.23900
C  4.91100 3.81500 43.47100
C  4.99600 5.21600 42.82100
C  3.48900 5.35700 42.40800
C  2.90800 3.93600 42.53800
C  2.69100 6.39900 43.26800
C  5.88300 5.46800 41.48100
C  6.04900 4.26200 40.55700
H  5.43700 4.42200 39.09000
N  1.21100 1.44000 43.22300
C  0.80300 2.43800 42.30800
C  -0.41900 2.12100 41.69900
C  -0.82900 0.83700 42.24000
C  0.34000 0.39600 43.09600
C  -1.24400 3.01800 40.77200
C  -2.18100 0.12000 41.95900
O  -3.05300 0.69000 41.26100
C  -2.55700 -1.32100 42.39600
N  2.80700 -0.81400 44.52400
C  1.71600 -1.45400 44.02900
C  1.90600 -2.93400 44.34500
C  3.22900 -3.12700 45.19900
C  3.74600 -1.65900 45.06500
C  0.59800 -3.55100 44.96000
C  4.16500 -4.22700 44.67800
C  4.29500 -5.40800 45.68400
N  5.01100 0.97800 44.89300
C  5.66500 -0.10200 45.44100
C  7.01900 0.30300 45.81400
C  7.14700 1.61700 45.37900
C  5.88600 1.99300 44.81500
C  8.02400 -0.60700 46.57800
C  8.01300 2.79500 45.46100
O  9.16600 2.89900 45.88000
C  7.20200 3.95400 44.78100
C  7.07000 5.11100 45.78000
O  7.94200 5.91100 46.02000
O  5.83700 5.23800 46.43300
C  5.70200 6.36600 47.36500
H  1.16000 4.40700 41.55200
H  -0.14100 -1.64800 43.26200
H  5.52400 -2.16600 46.00700
H  5.42300 5.94000 43.51600
H  3.41400 5.66400 41.36500
H  3.22700 6.71800 44.16200
H  1.78600 5.94100 43.66600
H  2.53400 7.22600 42.57500
H  6.88700 5.73800 41.80700
H  5.39300 6.30200 40.97900
H  5.58500 3.37200 40.98100
H  7.07800 3.90100 40.54100
H  -1.57300 2.48300 39.88100
H  -0.58900 3.82800 40.45000
H  -2.04900 3.38700 41.40800
H  -2.20800 -1.34600 43.42800
H  -2.03100 -2.09500 41.83700
H  -3.64600 -1.36900 42.39400
H  2.08600 -3.48800 43.42400
H  2.91700 -3.25000 46.23700
H  0.24100 -2.69600 45.53500
H  0.81000 -4.47200 45.50200
H  -0.25100 -3.76800 44.31200
H  5.17000 -3.86100 44.46800
H  3.70900 -4.73600 43.82900
H  4.37900 -4.99400 46.69000
H  5.02900 -6.20800 45.58800
H  3.32600 -5.89000 45.81400
H  8.44800 0.02900 47.35500
H  8.73600 -0.99000 45.84700
H  7.48000 -1.40000 47.09000
H  7.83100 4.35100 43.98500
H  4.62100 6.43300 47.49000
H  6.12100 7.31900 47.04100
H  6.27300 6.16700 48.27200
Mg -5.59600 25.29900 26.92800
C  -3.85200 27.10000 29.29600
C  -6.74500 23.21400 29.29800
C  -6.46700 23.06500 24.42700
C  -3.88200 27.03100 24.48300
N  -5.21900 25.06000 29.07400
C  -4.56000 25.98100 29.85600
C  -4.84100 25.73800 31.34600
C  -5.46400 24.29400 31.33000
C  -5.86200 24.18200 29.79500
C  -4.53500 23.19100 31.94400
C  -5.64600 26.83300 31.99400
C  -5.15700 27.24700 33.42800
H  -6.01100 26.84800 34.67900
N  -6.66000 23.45600 26.84000
C  -7.12800 22.78700 27.96600
C  -7.78000 21.61500 27.58200
C  -7.63400 21.52100 26.15300
C  -6.88700 22.72800 25.74700
C  -8.50500 20.69000 28.47800
C  -8.17800 20.40400 25.28500
O  -8.04900 20.38100 24.06800
C  -8.98900 19.22500 25.80900
N  -5.22000 25.04900 24.83900
C  -5.72500 24.08900 24.04000
C  -5.24900 24.25400 22.51800
C  -4.62100 25.60900 22.59100
C  -4.59000 25.95300 24.08200
C  -4.32800 23.12500 22.03900
C  -5.38200 26.78700 21.72500
C  -4.98400 26.94200 20.25000
N  -4.37100 26.96400 26.80600
C  -3.76100 27.58100 25.79000
C  -3.02300 28.77000 26.20500
C  -3.00400 28.61900 27.61800
C  -3.80500 27.45300 27.94800
C  -2.32800 29.75600 25.28500
C  -2.52000 29.19000 28.84100
O  -1.87500 30.20300 29.10100
C  -3.05500 28.21500 29.96500
C  -1.93100 27.82300 30.83000
O  -1.29600 26.77200 30.67500
O  -1.91200 28.61300 31.97300
C  -0.90300 28.12500 32.97000
H  -7.09300 22.52400 30.07000
H  -6.82600 22.35500 23.67800
H  -3.41500 27.62400 23.69400
H  -3.91900 25.62000 31.91400
H  -6.32000 24.33800 32.00400
H  -3.46800 23.40000 31.87500
H  -4.76200 22.31600 31.33400
H  -4.82200 22.95300 32.96800
H  -6.67500 26.53300 32.19000
H  -5.70500 27.66400 31.29200
H  -4.94500 28.31200 33.32800
H  -4.12400 26.93400 33.58700
H  -8.69200 21.25800 29.38900
H  -7.92900 19.80000 28.73200
H  -9.47500 20.53700 28.00500
H  -9.95600 19.58500 26.16100
H  -8.43700 18.55700 26.47000
H  -9.37200 18.61700 24.99000
H  -6.13600 24.40200 21.90300
H  -3.62600 25.58300 22.14700
H  -4.21700 22.39300 22.83900
H  -3.29900 23.40600 21.81300
H  -4.78900 22.70300 21.14600
H  -5.43800 27.80400 22.11300
H  -6.42900 26.49300 21.78800
H  -4.24800 27.73900 20.14000
H  -5.88800 27.07600 19.65500
H  -4.51700 26.04300 19.84800
H  -2.61000 29.67300 24.23500
H  -1.26200 29.90500 25.45700
H  -2.76200 30.71000 25.58400
H  -3.71200 28.65400 30.71600
H  -1.28000 27.21200 33.43100
H  -0.77800 28.90200 33.72300
H  0.06100 27.93300 32.49800

