158

Mg 17.67900 -1.36400 27.93100
C  16.51800 0.37500 30.68000
C  19.77100 -3.10300 30.00000
C  19.26400 -2.65100 25.16000
C  15.77900 0.68600 25.89700
N  18.24800 -1.24100 30.14300
C  17.43400 -0.56500 31.10800
C  17.91300 -0.93800 32.46800
C  19.16200 -1.85700 32.18400
C  19.08500 -2.09600 30.71100
C  20.56100 -1.37200 32.62100
C  16.74900 -1.44300 33.42100
C  16.83900 -0.84000 34.90200
H  18.18000 -0.36900 35.52400
N  19.04700 -2.82000 27.64500
C  19.68200 -3.49300 28.66000
C  20.40600 -4.51900 28.06900
C  20.20700 -4.45800 26.68200
C  19.54000 -3.22500 26.43300
C  21.43700 -5.43000 28.75200
C  20.75600 -5.42800 25.55100
O  20.50800 -5.23900 24.39500
C  21.59200 -6.67000 25.90700
N  17.57500 -1.00300 25.79000
C  18.37000 -1.64300 24.88800
C  18.00200 -1.16200 23.45000
C  16.91400 -0.12500 23.75300
C  16.69000 -0.15700 25.24700
C  19.11900 -0.55200 22.71700
C  15.56700 -0.34800 22.90700
C  15.31500 0.80500 21.93700
N  16.42000 0.12800 28.18500
C  15.70300 0.89300 27.29300
C  14.86400 1.78000 27.89900
C  15.09000 1.68100 29.25400
C  16.06000 0.62900 29.40200
C  13.86700 2.75300 27.23000
C  14.82000 2.16400 30.55200
O  14.06200 3.08100 30.98900
C  15.64400 1.25900 31.49000
C  16.40300 2.23300 32.34300
O  17.36200 2.89200 31.93500
O  15.80500 2.30500 33.59200
C  16.38700 3.26100 34.60200
H  20.29800 -3.74700 30.70700
H  19.68100 -3.13000 24.27100
H  15.06300 1.25500 25.30100
H  18.22400 0.02900 32.86100
H  19.08600 -2.70100 32.87100
H  21.03100 -2.08300 33.30100
H  20.49000 -0.41200 33.13100
H  21.20100 -1.16700 31.76300
H  16.71800 -2.52900 33.50800
H  15.78700 -1.28100 32.93400
H  16.51000 -1.65900 35.54200
H  16.13100 -0.01200 34.86200
H  20.98800 -6.37000 29.07000
H  21.78900 -4.90800 29.64200
H  22.38000 -5.56700 28.22300
H  21.03000 -7.23500 26.65100
H  22.55600 -6.39800 26.33700
H  21.74600 -7.37900 25.09300
H  17.74900 -2.00800 22.81200
H  17.30000 0.88600 23.61800
H  19.79500 -0.08400 23.43300
H  18.83400 0.23700 22.02100
H  19.71400 -1.26700 22.14900
H  14.67600 -0.43800 23.52900
H  15.70700 -1.25700 22.32200
H  16.28600 1.25600 21.73800
H  14.59700 1.52100 22.33600
H  15.03800 0.32300 20.99900
H  13.08700 2.84000 27.98600
H  13.42600 2.39100 26.30100
H  14.25600 3.75700 27.05900
H  14.95900 0.75200 32.17000
H  16.20400 2.86500 35.60100
H  15.80700 4.18200 34.54200
H  17.46300 3.42100 34.54000
Mg 45.29200 4.35800 47.64400
C  43.27200 7.11300 47.24400
C  42.48200 2.40100 46.89100
C  47.25500 1.71700 47.71400
C  48.12200 6.41600 47.42100
N  43.05100 4.75400 47.34600
C  42.50000 5.98400 47.15100
C  40.99200 5.79000 46.56100
C  40.81300 4.23500 46.69800
C  42.16000 3.74600 46.99700
C  39.73100 3.84900 47.82800
C  40.87500 6.40100 45.14700
C  39.69200 7.38500 44.92100
H  38.83700 7.07500 43.71500
N  44.92000 2.31700 47.36500
C  43.74200 1.73300 47.03300
C  44.00800 0.25200 46.88900
C  45.39800 0.02000 47.18300
C  45.90900 1.36600 47.48000
C  42.98800 -0.76900 46.42300
C  46.18200 -1.39200 47.08900
O  45.55200 -2.38300 46.78600
C  47.68200 -1.51600 47.37700
N  47.41100 4.05500 47.43800
C  47.93700 2.88800 47.72400
C  49.47300 2.89300 48.07700
C  49.63300 4.49900 48.23400
C  48.31800 5.05400 47.56800
C  49.82700 2.14000 49.33300
C  50.91800 4.99700 47.47600
C  52.26300 4.24100 47.53100
N  45.68600 6.30800 47.46000
C  46.86600 7.03500 47.39400
C  46.52500 8.50300 47.37100
C  45.16600 8.54500 47.30200
C  44.70500 7.21800 47.43200
C  47.39100 9.68200 47.10700
C  44.00100 9.46800 47.24000
O  43.94900 10.69600 47.11500
C  42.74500 8.55400 47.08500
C  41.64900 8.89700 48.00600
O  41.47700 8.45300 49.18300
O  40.61600 9.66100 47.45400
C  39.42900 9.83800 48.32200
H  41.62500 1.74400 46.72400
H  47.92600 0.85700 47.75400
H  48.99100 7.04000 47.63900
H  40.31600 6.23900 47.28800
H  40.36200 3.79000 45.81100
H  38.99800 4.65000 47.92200
H  40.20700 3.75800 48.80400
H  39.32300 2.91700 47.43700
H  40.87600 5.52600 44.49600
H  41.80800 6.92800 44.94700
H  40.01800 8.42400 44.97500
H  38.97700 7.31600 45.74100
H  43.49800 -1.11700 45.52500
H  42.07000 -0.35600 46.00600
H  42.87500 -1.63900 47.06900
H  47.97600 -2.55600 47.23100
H  47.99200 -1.29800 48.39900
H  48.13600 -0.90000 46.60100
H  49.95800 2.47100 47.19700
H  49.59500 4.72000 49.30100
H  50.11400 2.76700 50.17700
H  50.71700 1.56000 49.09200
H  49.05400 1.47100 49.71200
H  51.00400 5.99000 47.91800
H  50.70000 5.14600 46.41800
H  53.13100 4.89400 47.44100
H  52.33500 3.57500 46.67200
H  52.37600 3.71000 48.47600
H  47.83100 9.61700 46.11200
H  48.23200 9.70200 47.80000
H  46.82300 10.60800 47.20200
H  42.41800 8.68400 46.05300
H  38.85200 10.61200 47.81700
H  39.77500 10.16200 49.30400
H  38.83700 8.92800 48.41600

