158

Mg 46.57500 15.56900 28.14100
C  44.56200 15.66900 31.04600
C  48.81000 17.67800 29.90300
C  48.47500 15.89400 25.43900
C  44.08300 14.03000 26.41100
N  46.60600 16.68000 30.20000
C  45.68500 16.46700 31.26100
C  46.22100 17.03500 32.63200
C  47.47100 17.85000 32.08000
C  47.66400 17.30100 30.62500
C  47.42800 19.34500 32.31600
C  46.52700 15.97900 33.73800
C  45.74500 16.24800 35.01000
H  45.85300 17.58400 35.68400
N  48.49200 16.46600 27.77300
C  49.24800 17.28900 28.56600
C  50.44800 17.70800 27.92400
C  50.42400 17.08300 26.65100
C  49.08700 16.43000 26.57300
C  51.62500 18.34500 28.64300
C  51.56300 17.00400 25.60900
O  51.50600 16.24700 24.64500
C  52.76200 17.76900 25.80500
N  46.30300 15.06400 26.30000
C  47.23100 15.23300 25.31600
C  46.78800 14.62400 23.96600
C  45.41700 13.98000 24.32900
C  45.21000 14.47700 25.79500
C  46.81500 15.63200 22.79000
C  45.39200 12.40000 24.00500
C  46.02600 11.44500 25.00100
N  44.71500 14.88300 28.57800
C  43.77000 14.28300 27.76600
C  42.56200 14.07100 28.50100
C  42.87400 14.53300 29.85800
C  44.15100 15.04800 29.83300
C  41.33700 13.43900 27.77600
C  42.33300 14.73500 31.22100
O  41.22100 14.31300 31.73900
C  43.47400 15.40400 32.03500
C  42.90400 16.62400 32.75200
O  43.00100 17.79800 32.42500
O  42.29600 16.23900 33.92300
C  41.62900 17.36300 34.61700
H  49.54700 18.32800 30.37800
H  49.03800 16.04400 24.51500
H  43.28300 13.65400 25.77000
H  45.48500 17.77500 32.94600
H  48.36900 17.55200 32.62200
H  46.70500 19.62600 33.08200
H  47.25000 19.85900 31.37100
H  48.39400 19.71000 32.66300
H  47.57800 16.12400 33.98700
H  46.30600 14.94300 33.47900
H  46.10000 15.46800 35.68400
H  44.72500 16.02600 34.69500
H  52.40800 17.59100 28.56400
H  51.48800 18.55900 29.70300
H  51.91000 19.24900 28.10400
H  52.27900 18.66500 26.19400
H  53.28000 18.11700 24.91100
H  53.27200 17.07900 26.47600
H  47.42600 13.78000 23.70400
H  44.61500 14.47500 23.78100
H  47.40800 16.51000 23.04700
H  45.89100 15.98200 22.33100
H  47.49300 15.19100 22.06000
H  45.87200 12.21400 23.04400
H  44.32400 12.22500 23.87100
H  46.31900 11.95200 25.92100
H  46.85500 10.92400 24.52200
H  45.28600 10.67500 25.21600
H  41.73100 12.59000 27.21800
H  40.83300 14.19200 27.17000
H  40.60700 13.00000 28.45600
H  43.76500 14.70400 32.81800
H  42.31400 18.04600 35.11900
H  40.97300 16.95200 35.38400
H  41.01300 17.79000 33.82600
Mg 36.35600 49.71400 24.65600
C  36.24400 47.88300 27.76900
C  35.12300 52.44400 26.26300
C  35.87900 51.11700 21.56200
C  37.28600 46.68100 23.14800
N  35.85100 50.11700 26.74400
C  35.86400 49.22000 27.84900
C  35.52600 50.03000 29.17000
C  34.90300 51.36400 28.64600
C  35.32100 51.33500 27.09300
C  33.37100 51.49400 28.82500
C  36.70200 50.11600 30.16600
C  36.31000 50.15500 31.66100
H  34.86900 49.81600 32.01000
N  35.68500 51.59000 24.05000
C  35.29900 52.58100 24.83500
C  34.97100 53.74900 23.97100
C  35.14700 53.41700 22.64500
C  35.69000 52.01100 22.68900
C  34.33900 55.10400 24.60800
C  34.85800 54.30100 21.41100
O  34.93700 53.85300 20.28400
C  34.54000 55.77400 21.50400
N  36.54500 49.03100 22.62600
C  36.25300 49.75500 21.53300
C  36.39900 48.88900 20.26900
C  37.21600 47.62500 20.83700
C  36.97500 47.73400 22.29100
C  35.06800 48.66200 19.50200
C  38.67300 47.62200 20.37700
C  39.04900 46.29200 19.63000
N  36.74500 47.65800 25.25100
C  37.13200 46.58500 24.49400
C  37.47800 45.45200 25.32500
C  37.13400 45.94400 26.65500
C  36.63000 47.27700 26.52900
C  38.17100 44.09200 25.06800
C  37.16900 45.60100 28.07100
O  37.54800 44.56400 28.52600
C  36.61300 46.79100 28.79700
C  35.50300 46.43800 29.61800
O  34.32600 46.51600 29.35600
O  36.01200 45.70200 30.68100
C  34.97200 45.18000 31.58000
H  34.73000 53.35700 26.71600
H  35.69600 51.57300 20.58700
H  37.51500 45.69900 22.72900
H  34.77500 49.36100 29.59000
H  35.33500 52.21500 29.17300
H  33.01300 50.63400 29.39000
H  32.93500 51.38900 27.83100
H  33.03500 52.44500 29.23800
H  37.28300 51.00700 29.92500
H  37.40600 49.28600 30.10300
H  36.66100 51.10800 32.05700
H  36.92300 49.41100 32.17000
H  33.95100 54.87700 25.60100
H  33.50500 55.46400 24.00600
H  35.19600 55.77600 24.64600
H  35.28500 56.15800 22.20000
H  33.46200 55.86800 21.63500
H  34.79900 56.07700 20.49000
H  37.04100 49.47800 19.61400
H  36.69600 46.72300 20.51300
H  34.25600 49.17700 20.01500
H  34.87900 47.59800 19.36300
H  35.18300 49.12100 18.52000
H  39.43500 47.69400 21.15400
H  38.82600 48.46800 19.70700
H  38.21600 45.61700 19.43700
H  39.88300 45.74300 20.06800
H  39.39000 46.61200 18.64500
H  38.65300 43.80000 26.00100
H  38.87400 44.28100 24.25700
H  37.37400 43.40000 24.79700
H  37.36700 47.32400 29.37600
H  34.43200 44.35100 31.12300
H  34.14200 45.81700 31.88500
H  35.58400 44.75000 32.37400

