158

Mg -0.46600 6.98600 24.44600
C  0.54600 9.03700 27.17500
C  0.19800 4.30200 26.31200
C  -1.29000 5.20500 21.75200
C  -0.43000 9.86400 22.45700
N  0.54700 6.77400 26.41400
C  0.54800 7.69900 27.42900
C  0.55800 6.99900 28.87900
C  0.43200 5.53600 28.51000
C  0.41200 5.54200 26.96100
C  1.46400 4.50700 28.99000
C  -0.63100 7.39500 29.76100
C  -0.25300 7.79800 31.23200
H  1.08400 7.32000 31.76100
N  -0.54800 4.92900 24.09400
C  -0.21800 4.03100 24.98200
C  -0.47500 2.71300 24.37300
C  -0.96100 2.91700 23.03900
C  -0.97500 4.41800 22.89100
C  -0.13900 1.44400 25.17400
C  -1.23200 1.89100 21.94700
O  -1.62800 2.18600 20.82500
C  -0.89000 0.40600 22.13000
N  -0.81800 7.44000 22.45700
C  -1.18600 6.57400 21.49600
C  -1.35900 7.11200 20.13400
C  -1.26900 8.63400 20.43400
C  -0.75900 8.70600 21.90400
C  -0.31000 6.61700 19.11400
C  -2.57400 9.29200 20.37000
C  -2.66900 10.34100 19.19900
N  -0.03500 8.99600 24.66700
C  -0.02700 10.05800 23.78000
C  0.33300 11.33600 24.38600
C  0.46100 10.96900 25.72500
C  0.32100 9.56700 25.89500
C  0.41800 12.73000 23.79500
C  0.69200 11.49600 27.06400
O  0.90100 12.65700 27.42300
C  0.70600 10.23500 28.09800
C  2.05500 10.36300 28.80500
O  3.17900 10.23400 28.35200
O  1.79000 10.92000 30.07800
C  2.82200 11.22300 31.03200
H  0.24100 3.43000 26.96700
H  -1.50400 4.53700 20.91500
H  -0.52100 10.82800 21.95200
H  1.49100 7.36200 29.30900
H  -0.48400 5.06800 28.87100
H  2.14700 4.98200 29.69400
H  2.11700 4.28600 28.14600
H  1.01000 3.61700 29.42600
H  -1.40200 6.62700 29.81700
H  -1.15900 8.20100 29.25100
H  -1.04400 7.34900 31.83200
H  -0.42400 8.86600 31.36700
H  -0.42000 1.48300 26.22700
H  0.92900 1.22500 25.20200
H  -0.66400 0.62400 24.68400
H  -1.69900 -0.03900 22.70900
H  0.12700 0.47300 22.51700
H  -0.84600 -0.13300 21.18400
H  -2.29900 6.68400 19.78700
H  -0.50200 9.17900 19.88300
H  0.66500 6.34100 19.51600
H  -0.15700 7.50600 18.50200
H  -0.69400 5.78500 18.52500
H  -2.82600 9.78100 21.31100
H  -3.34300 8.54600 20.16800
H  -3.44200 10.05000 18.48700
H  -1.73300 10.44400 18.65000
H  -2.94500 11.29900 19.63900
H  -0.23200 12.90000 22.93700
H  1.44300 12.89800 23.46500
H  0.08400 13.46400 24.52800
H  -0.03300 10.44500 28.87100
H  3.04000 12.28900 30.96300
H  3.72300 10.62500 30.89100
H  2.38300 11.04500 32.01300
Mg 24.73900 -4.48800 45.71700
C  26.73000 -2.09200 43.90000
C  22.02500 -3.28800 43.81000
C  23.10800 -7.21800 46.62500
C  27.71600 -5.73100 46.95100
N  24.52900 -2.91500 44.05000
C  25.45100 -2.11100 43.43100
C  24.79600 -1.24500 42.32800
C  23.24800 -1.48500 42.54000
C  23.22200 -2.61500 43.58200
C  22.29600 -0.28000 43.10500
C  25.38100 -1.59600 40.89700
C  25.92300 -0.41600 40.07500
H  25.66600 -0.56400 38.55000
N  22.78900 -5.12900 45.32500
C  21.82100 -4.47800 44.62700
C  20.68100 -5.31200 44.66300
C  20.89600 -6.46100 45.47700
C  22.31200 -6.31900 45.86200
C  19.45800 -4.91600 43.86300
C  19.87300 -7.53800 45.88500
O  18.75200 -7.67400 45.36700
C  20.10200 -8.52600 46.95800
N  25.32000 -6.16500 46.79400
C  24.47300 -7.23300 47.06500
C  25.18000 -8.45000 47.62600
C  26.62500 -7.89900 47.96100
C  26.60100 -6.55100 47.19100
C  24.41700 -9.02000 48.88700
C  27.73700 -8.92000 47.52400
C  28.61300 -9.48300 48.70100
N  26.74600 -3.90400 45.75900
C  27.79500 -4.49700 46.32300
C  28.93900 -3.63300 46.23900
C  28.63300 -2.72000 45.19300
C  27.26100 -2.89600 44.95200
C  30.24400 -3.76700 47.02500
C  29.08900 -1.65200 44.39100
O  30.12400 -1.06700 44.37500
C  27.85000 -1.30400 43.44600
C  27.56500 0.15300 43.65400
O  27.06700 0.71400 44.61800
O  28.10400 0.88000 42.61500
C  28.18600 2.38500 42.66400
H  21.11200 -2.92400 43.33500
H  22.52000 -8.10200 46.88200
H  28.70900 -6.01200 47.30700
H  25.02500 -0.21800 42.61100
H  22.98500 -1.84700 41.54600
H  21.56800 -0.61600 43.84400
H  21.65100 0.13900 42.33300
H  22.89500 0.57200 43.42500
H  24.67700 -2.08200 40.22100
H  26.13800 -2.37500 40.99500
H  26.97600 -0.26000 40.31200
H  25.33000 0.41900 40.44900
H  19.50900 -5.15200 42.80000
H  19.15800 -3.86800 43.87700
H  18.53000 -5.39300 44.17700
H  19.16900 -9.02300 47.22300
H  20.45900 -7.89300 47.77100
H  20.77700 -9.33600 46.68200
H  25.18100 -9.27900 46.91900
H  26.77600 -7.76800 49.03200
H  25.01500 -8.92100 49.79300
H  24.12400 -10.05800 48.73300
H  23.44000 -8.55100 49.00900
H  28.42000 -8.41000 46.84400
H  27.30900 -9.74000 46.94700
H  28.85000 -10.54200 48.60300
H  28.00400 -9.36600 49.59800
H  29.50500 -8.86600 48.80500
H  30.82100 -4.53300 46.50700
H  30.04200 -4.21100 47.99900
H  30.79200 -2.82500 46.97500
H  28.19600 -1.53200 42.43800
H  28.31400 2.64800 41.61400
H  29.06300 2.59100 43.27700
H  27.31600 2.91300 43.05700

