158

Mg 8.15500 3.26900 27.42100
C  9.52900 1.72700 30.23100
C  6.64200 5.48200 29.46600
C  6.83500 4.55600 24.74300
C  9.70700 0.73800 25.39900
N  8.00900 3.38100 29.65800
C  8.70400 2.74800 30.59000
C  8.43100 3.35200 31.97100
C  7.43600 4.54600 31.67100
C  7.31600 4.50100 30.16700
C  6.04700 4.55700 32.43400
C  9.65200 3.80500 32.89700
C  9.29500 4.66500 34.07400
H  9.87900 4.48800 35.47300
N  6.71400 4.71100 27.12900
C  6.23600 5.52300 28.08600
C  5.31600 6.48300 27.48400
C  5.43300 6.28800 26.11700
C  6.31600 5.15200 25.89400
C  4.54400 7.44400 28.31600
C  4.74200 7.05100 24.98700
O  4.81800 6.78200 23.76400
C  3.92600 8.25300 25.39300
N  8.27800 2.75100 25.39600
C  7.69500 3.49800 24.43000
C  7.90900 2.96700 23.02600
C  9.08900 1.98700 23.26700
C  9.02600 1.80100 24.74500
C  6.59000 2.51600 22.38900
C  10.46300 2.39900 22.71600
C  11.46100 2.99100 23.70300
N  9.21500 1.45200 27.67700
C  9.79600 0.57800 26.81600
C  10.58700 -0.41600 27.52200
C  10.43900 0.00300 28.85000
C  9.61400 1.15400 28.89500
C  11.47100 -1.51800 26.85400
C  11.05200 -0.17400 30.13500
O  11.93500 -0.94900 30.53400
C  10.51400 0.97800 31.04100
C  9.90400 0.34700 32.27200
O  8.96000 -0.48400 32.19800
O  10.61600 0.62500 33.41700
C  10.26700 -0.00700 34.65100
H  6.27700 6.29700 30.09500
H  6.37000 5.04100 23.88200
H  10.34000 0.21300 24.68000
H  7.91800 2.59500 32.56400
H  7.91800 5.48900 31.92600
H  5.27600 4.83600 31.71700
H  6.15000 5.40900 33.10600
H  5.82200 3.65500 33.00200
H  10.44200 4.20300 32.26000
H  10.03800 2.90200 33.36900
H  8.22800 4.57500 34.27700
H  9.56500 5.68100 33.78700
H  4.80400 8.50000 28.23100
H  4.63000 7.22500 29.38000
H  3.48100 7.42200 28.07400
H  3.63000 8.70900 24.44800
H  4.62600 8.98400 25.79600
H  3.11200 8.03000 26.08300
H  8.23000 3.84200 22.46100
H  8.84600 1.06500 22.73800
H  5.65600 2.56800 22.94800
H  6.74900 1.44400 22.27200
H  6.54200 2.96700 21.39800
H  10.14100 2.91300 21.81000
H  10.98100 1.49400 22.39900
H  12.27400 2.35200 24.04900
H  10.88900 3.38500 24.54300
H  11.89500 3.89300 23.27200
H  12.52300 -1.35800 27.09100
H  11.38500 -1.55700 25.76800
H  11.14900 -2.46500 27.28600
H  11.41200 1.47900 31.40400
H  9.61200 0.68100 35.18600
H  11.17700 -0.04900 35.24900
H  9.84300 -1.00600 34.55100
Mg 26.81100 50.13200 26.45600
C  24.72500 51.11900 29.05900
C  29.06600 48.92600 28.49600
C  28.90700 49.73200 23.74900
C  24.30100 51.46400 24.34000
N  26.78300 49.98500 28.51300
C  25.85500 50.34900 29.43900
C  26.24800 49.87600 30.82500
C  27.78100 49.61600 30.63600
C  27.99400 49.51200 29.14800
C  28.75100 50.46800 31.50600
C  25.43900 48.66100 31.36800
C  24.79500 48.85600 32.75000
H  25.49100 49.68600 33.92000
N  28.66300 49.30200 26.11400
C  29.43800 48.84200 27.12700
C  30.70600 48.31400 26.57900
C  30.69500 48.53900 25.18200
C  29.40500 49.23200 24.95900
C  31.70900 47.69800 27.55200
C  31.72300 48.19400 24.13400
O  31.46500 48.43000 22.96400
C  33.04200 47.57100 24.48400
N  26.71900 50.70900 24.38700
C  27.62400 50.30100 23.48700
C  27.15100 50.56700 22.10800
C  25.63100 50.81900 22.29500
C  25.48700 50.95500 23.76300
C  27.93200 51.75100 21.48900
C  24.64500 49.68900 21.71100
C  23.38900 50.21900 20.91700
N  24.99300 51.32500 26.62500
C  24.12000 51.75400 25.71100
C  22.95700 52.40000 26.32600
C  23.11200 52.14000 27.67700
C  24.40100 51.54000 27.77800
C  21.83300 53.02100 25.66100
C  22.52700 52.21000 28.98600
O  21.46500 52.70900 29.33200
C  23.53600 51.59200 29.99900
C  23.88200 52.62400 31.05900
O  24.97000 53.18700 31.18300
O  22.82800 52.72400 31.93200
C  23.21300 53.43400 33.15000
H  29.73200 48.48900 29.24300
H  29.46400 49.56100 22.82600
H  23.39200 51.70300 23.78500
H  26.09900 50.66700 31.55900
H  28.02000 48.62200 31.01200
H  29.18900 49.92100 32.34100
H  28.20300 51.32500 31.89800
H  29.57800 50.71400 30.84000
H  26.20200 47.91700 31.59700
H  24.74400 48.47300 30.55000
H  24.74900 47.82600 33.10400
H  23.76200 49.19600 32.66900
H  31.62800 48.03300 28.58600
H  32.74600 47.83200 27.24200
H  31.56300 46.61900 27.60500
H  33.57200 48.25000 25.15100
H  33.50100 47.35400 23.52000
H  32.65400 46.72400 25.05100
H  27.29400 49.65000 21.53500
H  25.34000 51.75600 21.82200
H  28.72100 52.02800 22.18800
H  27.26900 52.58000 21.24200
H  28.38800 51.32800 20.59400
H  24.29700 49.16200 22.60000
H  25.15300 48.96000 21.07900
H  22.70900 49.39300 21.12800
H  23.50100 50.40200 19.84900
H  22.95500 51.17200 21.22100
H  21.36200 52.45100 24.86000
H  22.17000 54.00100 25.32300
H  21.01100 53.20600 26.35300
H  22.92900 50.76500 30.36800
H  23.38000 54.48600 32.92000
H  24.08600 53.01100 33.64600
H  22.46500 53.32100 33.93600

