158

Mg 54.26900 24.38000 44.03900
C  51.60300 26.42100 43.27100
C  52.29800 21.65400 43.36800
C  57.04800 22.35500 43.87000
C  56.20400 27.05600 44.78900
N  52.25600 24.07200 43.25400
C  51.33900 25.05300 43.10900
C  49.94800 24.50400 42.83500
C  50.09400 23.01600 43.20900
C  51.64300 22.89900 43.38300
C  49.40100 22.55900 44.53600
C  49.64000 24.59800 41.25600
C  48.16000 24.45800 40.85000
H  47.77800 24.22400 39.41600
N  54.67200 22.26300 43.67600
C  53.64900 21.34500 43.41600
C  54.25500 20.04900 43.32200
C  55.68600 20.17000 43.44400
C  55.91000 21.60800 43.69900
C  53.50800 18.72900 42.98000
C  56.78100 19.04000 43.29800
O  56.51000 17.90100 43.00300
C  58.16000 19.44900 43.56300
N  56.29300 24.60700 44.26600
C  57.30900 23.74500 44.20500
C  58.58900 24.25800 44.86400
C  58.30400 25.74800 45.13200
C  56.86600 25.81000 44.67500
C  59.04400 23.50900 46.06300
C  59.30800 26.76700 44.38800
C  60.21800 27.48700 45.38900
N  54.00200 26.35100 43.99800
C  54.83300 27.33100 44.46100
C  54.17200 28.63500 44.52400
C  52.90100 28.36600 44.01100
C  52.85900 26.90600 43.71500
C  54.91700 29.88200 44.99900
C  51.61300 28.87800 43.70900
O  51.10700 30.01700 43.77700
C  50.72300 27.62600 43.22400
C  50.46800 28.11700 41.85000
O  51.33700 28.13400 40.97300
O  49.11400 28.39300 41.73400
C  48.68700 28.72600 40.36000
H  51.58400 20.82800 43.36200
H  57.98100 21.82900 44.08300
H  56.71300 27.89100 45.27500
H  49.24100 25.00500 43.49600
H  49.78000 22.42800 42.34500
H  49.44500 23.37300 45.26000
H  50.06200 21.75600 44.86200
H  48.33900 22.32100 44.48700
H  50.30200 23.86100 40.80200
H  49.88100 25.57200 40.83000
H  47.75300 25.44000 41.09000
H  47.71900 23.79500 41.59500
H  52.61700 18.71700 43.60600
H  54.10400 17.83000 43.13800
H  53.09900 18.70500 41.97000
H  58.49600 20.13600 42.78600
H  58.74300 18.53200 43.63800
H  58.23000 19.84500 44.57600
H  59.36800 24.14300 44.11100
H  58.23500 25.93800 46.20300
H  59.80800 22.85200 45.64900
H  58.21500 22.94300 46.48900
H  59.41400 24.25700 46.76500
H  58.71900 27.39700 43.72200
H  59.99100 26.21800 43.74100
H  61.19900 27.24700 44.98000
H  60.09900 27.33500 46.46100
H  60.10000 28.56200 45.24800
H  54.75800 29.80300 46.07400
H  54.33400 30.76300 44.73000
H  55.91500 29.94000 44.56500
H  49.75200 27.55100 43.71400
H  49.34900 28.44400 39.54200
H  48.72400 29.79300 40.57900
H  47.67400 28.37600 40.15700
Mg 6.58000 54.97300 40.65000
C  5.76900 51.55000 40.88900
C  9.82300 54.04700 39.64600
C  7.15700 58.22800 40.04700
C  3.34000 55.83100 41.77100
N  7.61900 53.09600 40.15200
C  7.03400 51.79300 40.31400
C  7.99500 50.68400 39.83500
C  9.39500 51.49300 39.81900
C  8.90600 52.98000 39.84400
C  10.32000 51.15000 41.05000
C  7.66900 50.01000 38.43000
C  6.86800 50.85300 37.40400
H  6.16700 50.04600 36.21300
N  8.27700 56.03600 39.95900
C  9.53100 55.46400 39.65500
C  10.42900 56.50300 39.24400
C  9.70100 57.76200 39.28300
C  8.30900 57.42700 39.78000
C  11.89300 56.31200 38.88700
C  10.30300 59.06100 38.98900
O  11.40700 59.06600 38.52000
C  9.65500 60.33100 39.45500
N  5.41400 56.70200 40.71800
C  5.89100 57.88600 40.49500
C  4.91100 59.06600 40.71000
C  3.67400 58.33900 41.34500
C  4.19100 56.85900 41.32800
C  5.46300 60.16200 41.65700
C  2.23400 58.61100 40.72000
C  1.73500 60.01900 41.08100
N  4.82800 53.89500 41.17300
C  3.58900 54.42100 41.60500
C  2.68300 53.24400 41.90700
C  3.48700 52.11400 41.65900
C  4.77600 52.56700 41.17500
C  1.26500 53.29200 42.51600
C  3.49100 50.71100 41.76000
O  2.64300 49.98300 42.20500
C  4.94700 50.21700 41.24800
C  4.62000 49.29400 40.05700
O  4.12300 49.58100 38.93000
O  4.98800 48.01000 40.42800
C  4.98000 47.09200 39.28200
H  10.71800 53.57300 39.23700
H  7.39000 59.22600 39.66800
H  2.33000 56.10200 42.08500
H  7.90500 50.03800 40.70800
H  10.03400 51.26800 38.96500
H  10.29900 52.03600 41.68600
H  11.36600 51.02900 40.77000
H  9.92100 50.34100 41.66100
H  7.22000 49.05100 38.68800
H  8.56100 49.80800 37.83700
H  7.58200 51.58300 37.02200
H  6.12900 51.39300 37.99500
H  12.05100 55.29300 38.53200
H  12.61400 56.64500 39.63400
H  12.10900 56.90300 37.99700
H  8.97300 60.79300 38.74100
H  10.43300 61.07500 39.62500
H  9.11600 60.20500 40.39400
H  4.66100 59.54900 39.76600
H  3.62700 58.64100 42.39100
H  6.54800 60.17800 41.76700
H  4.86200 60.38400 42.53900
H  5.30900 61.05500 41.05200
H  1.46500 57.99100 41.18100
H  2.23600 58.43800 39.64300
H  0.86600 59.90100 41.72800
H  1.61500 60.72200 40.25700
H  2.50100 60.32600 41.79200
H  1.31500 53.93200 43.39700
H  0.74000 52.40100 42.85800
H  0.76400 53.74800 41.66200
H  5.34600 49.58000 42.03700
H  4.98500 46.10100 39.73500
H  5.85000 47.30000 38.66000
H  4.08900 47.15100 38.65600

