158

Mg 47.68700 16.67600 27.53500
C  45.73900 16.69800 30.40500
C  49.99300 18.71500 28.95800
C  49.16100 17.00100 24.49400
C  44.90200 15.28400 25.85600
N  47.83200 17.57100 29.44800
C  47.01400 17.29800 30.49700
C  47.72600 17.74000 31.75900
C  48.97900 18.52300 31.25700
C  48.96500 18.26100 29.80800
C  49.03100 20.05200 31.48400
C  48.05700 16.63500 32.78000
C  48.35300 17.00600 34.23700
H  47.92000 18.35100 34.71800
N  49.38400 17.69600 26.86700
C  50.26600 18.41600 27.59900
C  51.36800 18.85300 26.81100
C  50.98900 18.50300 25.47000
C  49.81200 17.67000 25.56300
C  52.50200 19.67200 27.34800
C  51.62100 19.08700 24.12000
O  51.13000 18.92300 23.02700
C  52.85300 19.97800 24.06400
N  47.04500 16.32300 25.41100
C  47.95800 16.47100 24.42200
C  47.34900 15.96400 23.08400
C  45.95200 15.38400 23.51300
C  45.90000 15.68300 25.03200
C  47.18500 17.17200 22.11600
C  45.59200 13.95300 23.09600
C  44.33600 13.81900 22.25500
N  45.79000 16.07600 28.01900
C  44.71900 15.54600 27.24500
C  43.58800 15.16200 28.11900
C  43.98500 15.60600 29.37800
C  45.23500 16.21400 29.24100
C  42.35700 14.49500 27.70400
C  43.54900 15.63600 30.75600
O  42.60300 15.10400 31.26600
C  44.72900 16.44000 31.53900
C  44.13300 17.59400 32.21400
O  43.85800 18.68600 31.73800
O  43.96000 17.31500 33.57900
C  43.34500 18.35000 34.36800
H  50.62600 19.43800 29.47700
H  49.62400 16.99100 23.50400
H  44.04900 14.76400 25.41500
H  46.96500 18.44300 32.09800
H  49.87900 18.12800 31.72900
H  48.30000 20.39700 32.21600
H  48.84500 20.75000 30.66800
H  50.06700 20.32700 31.68600
H  48.89600 16.07600 32.36500
H  47.21700 15.94800 32.88200
H  49.39700 16.71600 34.35600
H  47.97200 16.23000 34.90100
H  52.19300 20.71300 27.44300
H  53.38300 19.68300 26.70600
H  52.70900 19.24700 28.33100
H  53.67400 19.46400 24.56300
H  52.61900 20.84700 24.67900
H  53.06300 20.22200 23.02200
H  48.01900 15.16400 22.77000
H  45.24900 16.07700 23.05100
H  47.28500 18.11700 22.65000
H  46.25000 17.16400 21.55600
H  47.94600 17.04000 21.34600
H  45.68500 13.35800 24.00400
H  46.30300 13.59400 22.35100
H  44.59200 13.32700 21.31700
H  43.78600 14.73100 22.02300
H  43.59200 13.15000 22.68800
H  42.52900 13.69000 26.99000
H  41.74300 15.21400 27.16100
H  41.80800 13.98000 28.49300
H  45.14200 15.71600 32.24100
H  42.27900 18.19400 34.53400
H  43.63800 19.33900 34.01500
H  43.82700 18.18800 35.33200
Mg -11.51500 38.32000 42.05200
C  -9.25600 35.81600 41.43700
C  -9.52000 40.35200 39.91600
C  -14.07100 40.63800 41.77800
C  -13.82000 35.99800 43.13400
N  -9.61100 38.10600 40.76700
C  -8.95300 36.95400 40.65600
C  -7.72900 37.04500 39.78000
C  -7.76500 38.59800 39.38800
C  -8.99700 39.05800 40.01400
C  -6.51700 39.52800 39.83200
C  -7.77700 36.12500 38.58800
C  -6.50400 35.19300 38.34500
H  -5.45500 35.94200 37.56600
N  -11.74800 40.24900 41.13600
C  -10.77400 40.87200 40.41200
C  -11.23000 42.25000 40.22900
C  -12.54600 42.36500 40.65200
C  -12.82000 41.05400 41.24400
C  -10.38200 43.29000 39.65900
C  -13.39000 43.64900 40.55600
O  -12.92800 44.62800 40.09300
C  -14.78300 43.74300 40.93500
N  -13.69500 38.29900 42.30700
C  -14.49700 39.40000 42.22700
C  -15.94000 39.05100 42.57300
C  -15.86700 37.48400 42.82900
C  -14.40200 37.20600 42.77200
C  -16.71400 39.89600 43.67500
C  -16.74200 36.58600 41.85700
C  -17.52000 35.39900 42.41500
N  -11.51700 36.36700 42.39600
C  -12.47500 35.54300 42.96100
C  -11.94100 34.22000 43.25000
C  -10.68800 34.30400 42.66100
C  -10.48500 35.62200 42.10800
C  -12.58100 32.99100 43.69600
C  -9.48400 33.53200 42.35400
O  -9.20300 32.38400 42.55500
C  -8.51300 34.55200 41.59400
C  -7.22500 34.70900 42.34000
O  -6.30600 33.89700 42.22900
O  -7.09400 35.83300 43.14100
C  -5.80800 36.11800 43.72600
H  -8.89200 41.00400 39.30500
H  -14.80700 41.43100 41.92300
H  -14.59800 35.30800 43.46600
H  -6.79400 36.87100 40.31300
H  -7.91400 38.74400 38.31800
H  -6.75800 40.43200 40.39200
H  -5.89000 39.76000 38.97100
H  -5.84200 38.99200 40.49800
H  -7.84900 36.84000 37.76900
H  -8.68900 35.53600 38.49500
H  -6.83000 34.33200 37.76100
H  -5.99400 34.86200 39.25000
H  -10.12700 44.08900 40.35500
H  -11.00700 43.78000 38.91200
H  -9.50600 42.92400 39.12400
H  -14.79200 43.50500 41.99900
H  -15.29700 42.92200 40.43600
H  -15.19300 44.70000 40.61300
H  -16.51500 39.15700 41.65300
H  -16.24200 37.42700 43.85100
H  -16.03600 40.56800 44.20200
H  -17.31500 39.21900 44.28300
H  -17.44900 40.47400 43.11400
H  -16.04700 36.18200 41.12100
H  -17.41100 37.29200 41.36500
H  -17.54100 35.40300 43.50500
H  -17.26200 34.44400 41.95700
H  -18.60000 35.48000 42.29700
H  -11.83900 32.30700 44.10900
H  -13.05700 32.51600 42.83900
H  -13.28300 33.22400 44.49800
H  -8.25500 34.13600 40.62000
H  -5.22800 36.77400 43.07700
H  -5.30900 35.17100 43.93000
H  -5.97000 36.58500 44.69800

