158

Mg 34.45900 1.96400 30.33000
C  32.42700 3.02300 32.88900
C  37.16400 1.83000 32.50200
C  36.71000 1.80900 27.68100
C  31.97100 2.72300 27.98600
N  34.70200 2.53600 32.44100
C  33.63400 2.68800 33.33800
C  34.11700 2.63400 34.73400
C  35.68400 2.45200 34.64200
C  35.94500 2.29100 33.10600
C  36.63900 3.53400 35.26800
C  33.27200 1.65900 35.63400
C  32.70400 2.14500 37.02900
H  33.54100 3.25500 37.76500
N  36.51200 1.50400 30.13300
C  37.41800 1.47300 31.15800
C  38.68100 1.01300 30.71400
C  38.63000 1.09700 29.28300
C  37.23500 1.50500 28.96900
C  39.78500 0.51200 31.68900
C  39.80300 0.91900 28.30800
O  39.67700 1.16200 27.13400
C  41.18000 0.52300 28.83100
N  34.36600 2.13300 28.18200
C  35.35800 1.96000 27.32800
C  34.96300 2.24600 25.85700
C  33.39800 2.21800 25.92700
C  33.19300 2.35100 27.43400
C  35.48700 3.65200 25.30000
C  32.76300 0.80600 25.34900
C  31.33600 0.86500 24.76600
N  32.56800 2.80800 30.34200
C  31.65500 3.07500 29.34400
C  30.48200 3.54300 29.86400
C  30.70600 3.57100 31.26000
C  32.02200 3.12600 31.49000
C  29.22200 3.85300 29.08300
C  30.07000 3.79900 32.53600
O  28.93100 4.31900 32.66200
C  31.16000 3.48300 33.66100
C  31.24400 4.73100 34.29400
O  31.91000 5.71600 33.99500
O  30.58400 4.62400 35.50400
C  30.66500 5.65300 36.55500
H  37.94300 1.83500 33.26800
H  37.42500 1.80500 26.85500
H  31.07600 2.76600 27.36200
H  33.91300 3.62900 35.12800
H  35.94100 1.50500 35.11700
H  36.08500 4.22500 35.90300
H  36.97400 4.20900 34.48100
H  37.36900 3.14300 35.97800
H  33.83000 0.73800 35.80000
H  32.38400 1.38800 35.06300
H  32.59200 1.18200 37.52700
H  31.70500 2.58000 36.99200
H  40.59200 1.24400 31.67500
H  40.17500 -0.46100 31.39000
H  39.53200 0.54300 32.74900
H  41.56600 1.31700 29.46900
H  41.87100 0.49200 27.98900
H  41.18000 -0.47000 29.28100
H  35.23300 1.34600 25.30500
H  32.94100 3.08500 25.45000
H  35.83000 4.07500 26.24400
H  34.68300 4.26100 24.88500
H  36.30400 3.54500 24.58700
H  32.88300 0.03100 26.10600
H  33.39200 0.62100 24.47800
H  31.27800 0.80200 23.67900
H  30.92100 1.82700 25.06800
H  30.87700 0.00600 25.25400
H  28.65500 3.01600 28.67700
H  29.58200 4.55400 28.33000
H  28.56600 4.42100 29.74300
H  30.87800 2.71400 34.38000
H  29.78100 6.28300 36.45200
H  31.58000 6.22100 36.39200
H  30.72300 5.18400 37.53800
Mg 54.23300 24.12300 45.06000
C  51.45000 26.15400 44.03700
C  52.21000 21.32600 43.98400
C  56.91900 22.34100 44.98600
C  55.80700 27.04900 45.87700
N  52.13700 23.79000 44.13700
C  51.19600 24.79700 43.87400
C  49.85100 24.21900 43.37100
C  50.00100 22.71900 43.84000
C  51.54000 22.55800 44.00300
C  49.28400 22.40200 45.15400
C  49.73500 24.24300 41.76100
C  51.03300 24.41600 40.94300
H  51.96300 23.25900 40.87800
N  54.54300 22.07100 44.55000
C  53.66700 21.06300 44.22400
C  54.40100 19.82700 44.05900
C  55.74700 20.17000 44.25000
C  55.81200 21.54800 44.61200
C  53.72000 18.42000 43.88400
C  57.02700 19.15100 44.03000
O  56.79300 17.95200 43.68400
C  58.47900 19.46700 44.35800
N  56.17300 24.68200 45.16100
C  57.11900 23.70300 45.22900
C  58.35200 24.20500 45.93800
C  58.05100 25.75000 45.98400
C  56.60600 25.86900 45.63900
C  58.58600 23.60000 47.34300
C  59.04100 26.63200 45.08400
C  58.62900 26.79100 43.62500
N  53.72400 26.23000 45.13500
C  54.48800 27.26700 45.60400
C  53.65000 28.50600 45.60100
C  52.49600 28.07000 44.97600
C  52.61800 26.68600 44.66700
C  54.05700 29.94300 46.06300
C  51.23100 28.53800 44.58100
O  50.66400 29.66800 44.74200
C  50.50600 27.35500 43.91300
C  50.03900 27.76000 42.60000
O  50.74200 28.15200 41.69200
O  48.62400 27.83400 42.57400
C  48.13800 28.24600 41.22900
H  51.71500 20.40700 43.66400
H  57.91700 21.90100 45.03400
H  56.53400 27.82000 46.13900
H  49.02300 24.80600 43.76700
H  49.67000 22.00500 43.08600
H  49.91700 21.84800 45.84800
H  48.34600 21.87900 44.96700
H  49.03000 23.32800 45.67100
H  49.10200 25.07300 41.44300
H  49.34000 23.27500 41.45200
H  51.56900 25.31500 41.24700
H  50.59700 24.67200 39.97700
H  53.58000 18.30500 42.81000
H  52.67000 18.41400 44.17800
H  54.27900 17.56300 44.26000
H  59.07400 18.58200 44.13600
H  58.47500 19.69500 45.42400
H  58.84500 20.17800 43.61700
H  59.16800 24.06500 45.22900
H  58.15700 26.15800 46.98900
H  57.89600 22.78200 47.55100
H  58.58300 24.28300 48.19300
H  59.61500 23.24200 47.37900
H  59.99100 26.10100 45.03000
H  59.22600 27.64200 45.45100
H  59.39600 26.37200 42.97300
H  58.63900 27.85800 43.40600
H  57.63000 26.44200 43.36600
H  54.15800 30.57800 45.18300
H  55.03700 29.92800 46.54100
H  53.33900 30.27800 46.81200
H  49.71700 27.07400 44.61000
H  48.62800 27.75000 40.39200
H  48.18800 29.33200 41.14400
H  47.11400 27.87100 41.24000

