158

Mg 48.09600 45.27000 42.86500
C  44.59200 45.26900 42.12400
C  48.26800 42.22500 41.37600
C  51.44800 45.81300 42.54900
C  47.70000 48.61100 43.88100
N  46.59400 43.94100 41.75400
C  45.25300 44.15800 41.65300
C  44.67600 43.05400 40.68600
C  45.72500 41.91300 40.76800
C  46.94200 42.67300 41.38400
C  45.36400 40.61500 41.47600
C  44.64500 43.69400 39.30000
C  43.25900 43.67400 38.55000
H  43.22300 43.47200 37.04900
N  49.69200 44.11000 42.25100
C  49.52400 42.83200 41.75100
C  50.85200 42.21500 41.68600
C  51.84900 43.24100 42.04100
C  51.02200 44.47500 42.28100
C  51.10200 40.70300 41.39300
C  53.31400 43.11000 42.09500
O  53.79200 42.05300 41.83900
C  54.33500 44.27100 42.28400
N  49.40900 47.18800 42.77300
C  50.72300 46.99100 42.82300
C  51.45100 48.29000 43.24200
C  50.24700 49.25700 43.65200
C  49.04200 48.24200 43.50800
C  52.44000 48.11300 44.40900
C  49.99000 50.60900 42.80600
C  49.38000 51.78000 43.56100
N  46.51000 46.65100 43.11700
C  46.49800 47.91800 43.65400
C  45.13200 48.30000 43.89300
C  44.42100 47.31600 43.18500
C  45.28300 46.35900 42.76300
C  44.70300 49.53600 44.75000
C  43.05500 46.99000 42.78700
O  41.98400 47.53000 43.02400
C  43.12500 45.70400 41.95100
C  42.09100 44.73700 42.54600
O  41.44400 43.95600 41.84700
O  42.15700 44.64200 43.87100
C  41.24900 43.72500 44.58600
H  48.47300 41.19300 41.08400
H  52.53600 45.89000 42.50800
H  47.63600 49.63200 44.26100
H  43.65800 42.86300 41.02500
H  46.06200 41.59200 39.78200
H  45.57600 39.76700 40.82400
H  44.30500 40.56900 41.73300
H  45.98800 40.72000 42.36300
H  45.28700 43.12500 38.62700
H  44.98300 44.72100 39.16200
H  42.63800 44.51700 38.85400
H  42.87000 42.78800 39.05000
H  51.91900 40.63800 40.67500
H  50.23400 40.28300 40.88500
H  51.34100 40.13000 42.28900
H  54.12900 44.86300 41.39300
H  55.36100 43.90500 42.24200
H  54.19700 44.81300 43.21900
H  51.86400 48.82200 42.38500
H  50.21600 49.46400 44.72100
H  53.27000 47.50200 44.05300
H  51.99100 47.43500 45.13400
H  52.85000 49.09100 44.66200
H  49.46100 50.40600 41.87400
H  51.01900 50.88400 42.57500
H  48.45100 52.20800 43.18500
H  50.08200 52.61100 43.63200
H  49.27300 51.53700 44.61800
H  45.22000 49.54900 45.71000
H  43.66000 49.35400 45.00600
H  44.99300 50.44500 44.22200
H  42.82500 45.85200 40.91300
H  40.30900 43.47700 44.09100
H  41.05000 44.25400 45.51800
H  41.64000 42.75800 44.90100
Mg -11.24800 38.45900 42.34400
C  -9.24300 35.73800 41.25700
C  -9.16200 40.57500 40.58900
C  -13.40600 40.97400 42.88200
C  -13.75200 36.09500 43.39300
N  -9.41500 38.18500 41.07700
C  -8.75300 36.98900 40.82000
C  -7.51300 37.21900 39.93600
C  -7.40100 38.79100 39.94300
C  -8.73800 39.26500 40.62300
C  -6.17800 39.27100 40.72000
C  -7.63300 36.57400 38.49700
C  -6.52800 35.68400 38.10900
H  -5.60000 36.23400 37.02100
N  -11.21700 40.55800 41.87800
C  -10.29700 41.20500 41.09800
C  -10.73500 42.59500 40.89800
C  -12.06700 42.64900 41.41800
C  -12.31100 41.36300 42.08500
C  -9.90100 43.59400 40.11400
C  -13.01400 43.78700 41.09800
O  -12.70900 44.72400 40.38000
C  -14.34300 43.85200 41.70700
N  -13.29700 38.48300 42.91700
C  -13.79500 39.70800 43.29500
C  -15.12700 39.47900 44.02700
C  -15.24000 37.98400 44.19800
C  -14.04600 37.44700 43.40900
C  -15.55700 40.27300 45.22700
C  -16.55200 37.22800 43.76200
C  -17.11600 36.31800 44.85200
N  -11.55700 36.36700 42.32900
C  -12.56800 35.54500 42.83400
C  -12.04300 34.18900 42.88900
C  -10.73500 34.17800 42.24500
C  -10.51200 35.54300 41.92200
C  -12.71000 33.04700 43.55400
C  -9.62300 33.41900 41.86400
O  -9.41500 32.19600 42.01700
C  -8.65000 34.36100 41.16200
C  -7.26600 34.26000 41.65500
O  -6.85600 34.87100 42.64200
O  -6.47700 33.42700 40.89600
C  -5.02500 33.52500 41.13900
H  -8.45100 41.24200 40.09700
H  -13.93200 41.81200 43.34600
H  -14.53200 35.44100 43.78700
H  -6.63600 36.73300 40.36500
H  -7.36400 39.15300 38.91600
H  -6.49100 40.03000 41.43700
H  -5.55600 39.80800 40.00400
H  -5.61600 38.48800 41.22900
H  -7.67700 37.29500 37.68000
H  -8.58600 36.04500 38.48700
H  -6.88300 34.70100 37.80100
H  -5.88200 35.29000 38.89500
H  -8.87900 43.26300 39.92800
H  -9.83500 44.53700 40.65600
H  -10.27200 43.81800 39.11300
H  -14.82300 42.87400 41.74000
H  -14.92800 44.52900 41.08500
H  -14.20700 44.12900 42.75200
H  -15.89600 39.71200 43.29100
H  -15.10100 37.73800 45.25100
H  -14.70000 40.78500 45.66400
H  -15.97800 39.59300 45.96800
H  -16.34800 40.98500 44.99300
H  -16.47600 36.60300 42.87200
H  -17.39300 37.87800 43.51900
H  -17.56900 35.44500 44.38400
H  -17.96300 36.74900 45.38600
H  -16.29000 35.90200 45.42900
H  -13.78100 33.24800 43.56700
H  -12.25200 32.92300 44.53600
H  -12.57200 32.15200 42.94700
H  -8.53900 34.07300 40.11600
H  -4.55900 33.70100 40.16900
H  -4.70600 32.60900 41.63700
H  -4.72400 34.34200 41.79600

