158

Mg 8.70200 3.21000 27.47200
C  10.19400 1.72300 30.15500
C  6.76800 5.08300 29.61600
C  7.36600 4.58300 24.81300
C  10.32200 0.82500 25.48600
N  8.41400 3.25800 29.67500
C  9.31600 2.70000 30.61100
C  9.06900 3.28900 32.00600
C  7.85400 4.28200 31.80000
C  7.66200 4.25600 30.24800
C  6.60100 4.08400 32.62300
C  10.32200 3.89100 32.68300
C  10.15500 4.47700 34.09500
H  11.16300 4.11200 35.15600
N  7.29700 4.59200 27.28400
C  6.61200 5.35100 28.22300
C  5.75900 6.27800 27.64900
C  5.80500 6.09900 26.22800
C  6.87000 5.06000 26.05100
C  4.90700 7.23000 28.49800
C  5.02800 6.74200 25.13800
O  5.06500 6.40000 23.96200
C  4.06900 7.88800 25.40400
N  8.91400 2.78100 25.42800
C  8.32800 3.58000 24.54200
C  8.74100 3.24400 23.05900
C  9.66700 1.95200 23.24800
C  9.68600 1.86400 24.79100
C  7.49900 3.11900 22.11000
C  11.16600 2.04500 22.57400
C  11.55300 0.88500 21.54100
N  9.92600 1.50000 27.68300
C  10.52100 0.66200 26.77300
C  11.46600 -0.16700 27.49200
C  11.34600 0.20800 28.82600
C  10.35100 1.20400 28.86800
C  12.43100 -1.22800 26.88700
C  11.75400 -0.11700 30.17600
O  12.56800 -0.86600 30.58700
C  11.13100 0.91500 31.01700
C  10.52600 0.29300 32.22800
O  9.41100 -0.16000 32.34300
O  11.36200 0.44000 33.29200
C  10.84300 0.04500 34.61700
H  6.44000 5.80700 30.36400
H  6.89600 5.02200 23.93000
H  10.80200 0.14000 24.78400
H  8.67700 2.44100 32.56700
H  8.17300 5.30100 32.02100
H  6.42800 4.89400 33.33200
H  6.65500 3.22400 33.29000
H  5.72200 4.06400 31.97900
H  10.65500 4.69200 32.02300
H  11.15200 3.18900 32.59900
H  9.14100 4.44400 34.49300
H  10.32900 5.54400 33.96000
H  5.04500 7.14900 29.57600
H  3.83700 7.05400 28.39000
H  5.24000 8.24000 28.25900
H  4.59400 8.67800 25.94100
H  3.25400 7.58700 26.06300
H  3.54100 8.22200 24.51100
H  9.29300 4.16200 22.85800
H  9.18100 1.04500 22.88900
H  7.16500 2.09800 22.29400
H  7.82400 3.29500 21.08400
H  6.60900 3.67900 22.39900
H  11.92800 2.12200 23.34900
H  11.04700 2.96100 21.99600
H  12.17100 0.14600 22.05300
H  12.02600 1.35900 20.68100
H  10.61700 0.41400 21.24200
H  11.86000 -1.50900 26.00200
H  12.55000 -1.97800 27.66900
H  13.45500 -0.93100 26.65800
H  11.93200 1.51000 31.45600
H  10.69400 0.92100 35.24800
H  11.75700 -0.42900 34.97400
H  9.97800 -0.61400 34.69300
Mg 29.90000 58.21600 40.10700
C  27.05900 56.17200 39.68000
C  31.87600 55.56600 39.17600
C  32.68200 60.28500 39.85800
C  27.91100 61.02600 40.15500
N  29.48500 56.03900 39.80300
C  28.24200 55.44800 39.59400
C  28.44000 53.99800 39.01200
C  30.02200 53.81800 39.27500
C  30.48100 55.25500 39.27700
C  30.42000 53.19900 40.65100
C  28.16500 53.98800 37.50200
C  28.20900 55.32800 36.68000
H  27.42700 55.41100 35.37600
N  31.99400 57.95400 39.71600
C  32.58800 56.79300 39.36900
C  33.97700 56.98900 39.34500
C  34.28000 58.33700 39.59900
C  32.93800 58.93100 39.76300
C  35.04200 55.86700 39.24700
C  35.72900 58.93200 39.61400
O  36.69900 58.22200 39.41300
C  35.90300 60.38100 40.12400
N  30.26700 60.27400 40.05500
C  31.48600 60.91800 39.95200
C  31.40800 62.43100 39.82500
C  29.81100 62.67800 40.07000
C  29.30500 61.27600 40.07700
C  32.29500 63.19800 40.85500
C  29.05200 63.70600 39.15300
C  28.47700 64.95200 39.91300
N  27.86600 58.52100 40.14800
C  27.19200 59.77400 40.11200
C  25.78300 59.56300 39.96400
C  25.67500 58.17000 39.73600
C  26.97400 57.59600 39.93600
C  24.72700 60.57900 39.91100
C  24.76300 57.05900 39.48000
O  23.55200 56.98200 39.28900
C  25.65100 55.79200 39.32300
C  25.08800 54.66600 40.11000
O  24.89700 54.78300 41.29800
O  24.86400 53.57600 39.35600
C  24.24100 52.38700 40.00400
H  32.45700 54.67600 38.92700
H  33.46400 61.04500 39.79500
H  27.37400 61.97600 40.17000
H  27.85200 53.23900 39.52800
H  30.58600 53.29300 38.50400
H  29.48600 52.77500 41.01900
H  30.80400 53.97700 41.31000
H  31.14500 52.39300 40.53500
H  27.18100 53.52700 37.41500
H  28.98000 53.44500 37.02400
H  29.27600 55.44100 36.48700
H  27.98600 56.22400 37.25800
H  35.63000 56.17100 38.38100
H  34.64600 54.92400 38.86800
H  35.74200 55.66100 40.05600
H  35.79200 61.04500 39.26800
H  36.87400 60.61600 40.55900
H  35.14600 60.51700 40.89700
H  31.69800 62.77900 38.83400
H  29.67600 62.99300 41.10500
H  31.64900 63.67100 41.59500
H  32.90800 63.92200 40.31800
H  32.88000 62.51400 41.47100
H  28.25400 63.31400 38.52200
H  29.82100 64.07600 38.47400
H  29.20300 65.73000 39.67700
H  28.40900 64.69800 40.97100
H  27.51000 65.19200 39.47300
H  24.61300 61.03200 40.89600
H  23.81100 60.07400 39.60600
H  25.05600 61.31300 39.17500
H  25.62600 55.53000 38.26500
H  24.58200 51.49000 39.48700
H  23.15300 52.43600 39.94900
H  24.38300 52.43400 41.08400

