158

Mg 49.70300 45.71800 42.85100
C  46.39800 46.34100 41.89100
C  49.54700 42.75800 41.12100
C  53.19200 45.66800 42.67700
C  49.81400 48.97400 44.04200
N  48.15200 44.68500 41.67400
C  46.83500 45.03500 41.48500
C  46.07200 43.93900 40.69900
C  47.02600 42.71200 40.64900
C  48.36600 43.44900 41.11000
C  46.51500 41.55400 41.57900
C  45.66100 44.52800 39.24500
C  44.30400 44.03500 38.77000
H  44.19600 43.07700 37.59900
N  51.13900 44.33300 42.16600
C  50.85000 43.20100 41.54300
C  52.08600 42.45000 41.37800
C  53.15600 43.18900 42.03800
C  52.49400 44.45700 42.37700
C  52.19200 41.14200 40.76900
C  54.56600 42.76600 42.18800
O  54.93000 41.71800 41.67800
C  55.55200 43.55000 42.89800
N  51.25400 47.10600 43.24000
C  52.61200 46.79500 43.20900
C  53.50300 48.06100 43.53300
C  52.38900 49.05200 44.20000
C  51.05400 48.34600 43.87100
C  54.76800 47.82400 44.42400
C  52.42500 50.55200 43.70200
C  52.10000 51.56200 44.83300
N  48.33700 47.33400 43.07200
C  48.53900 48.55000 43.66300
C  47.35900 49.33700 43.57500
C  46.42600 48.46300 42.91400
C  47.14000 47.22600 42.58800
C  47.20600 50.79800 44.04500
C  45.03700 48.38800 42.44900
O  44.06700 49.10800 42.56100
C  45.01600 47.02100 41.69500
C  43.97700 46.25600 42.42900
O  44.13000 45.90400 43.60900
O  42.87600 46.05000 41.67500
C  41.83200 45.28700 42.31400
H  49.62500 41.74800 40.71400
H  54.26100 45.53900 42.49900
H  49.88200 50.02100 44.34300
H  45.27200 43.65300 41.38300
H  47.02500 42.22900 39.67200
H  47.36900 40.92200 41.82300
H  45.79100 40.96300 41.01800
H  46.02200 41.92400 42.47800
H  46.38900 44.23100 38.48900
H  45.68200 45.61800 39.25600
H  43.66800 44.90000 38.58600
H  43.83200 43.49000 39.58800
H  52.48200 41.20600 39.72000
H  51.24300 40.61300 40.69200
H  52.83500 40.47700 41.34600
H  55.16300 43.78900 43.88800
H  55.88000 44.45200 42.38200
H  56.39500 42.88200 43.07300
H  53.82000 48.39000 42.54400
H  52.49800 48.93100 45.27800
H  54.76200 48.42500 45.33300
H  55.63300 48.15500 43.84900
H  54.93100 46.79000 44.73100
H  51.74300 50.78200 42.88300
H  53.42500 50.65400 43.28100
H  51.24000 52.13300 44.48300
H  53.02200 52.14000 44.76300
H  51.85700 51.11900 45.79900
H  47.93200 51.02200 44.82600
H  46.19000 50.99900 44.38500
H  47.42900 51.46600 43.21300
H  44.87300 47.17300 40.62500
H  41.14900 44.73300 41.67100
H  41.24700 46.08100 42.77800
H  42.25500 44.59300 43.04100
Mg -11.46400 16.88100 40.06100
C  -7.96300 16.36400 40.43400
C  -10.69700 20.31400 39.65000
C  -14.54200 17.51400 39.19300
C  -11.86000 13.36300 40.01600
N  -9.50300 18.18900 39.98000
C  -8.23200 17.68000 40.18200
C  -7.18600 18.82200 40.10700
C  -8.14300 20.09900 40.22700
C  -9.54400 19.51700 39.93700
C  -7.95400 20.90800 41.52500
C  -6.43600 19.03200 38.78400
C  -5.15700 18.23800 38.54000
H  -5.03500 17.03000 37.57900
N  -12.49400 18.66400 39.46400
C  -11.99200 19.92200 39.36100
C  -12.99200 20.81900 38.92400
C  -14.19300 20.07400 38.84500
C  -13.81100 18.70500 39.14500
C  -12.75800 22.26200 38.79000
C  -15.58300 20.63500 38.46600
O  -15.75700 21.85500 38.24900
C  -16.83700 19.83700 38.49700
N  -12.89600 15.63800 39.48700
C  -14.12300 16.16100 39.36700
C  -15.19500 14.99600 39.32000
C  -14.34200 13.71200 39.36100
C  -12.95200 14.25200 39.67100
C  -16.44200 15.10500 40.33500
C  -14.48600 12.84000 38.10800
C  -14.33000 11.31700 38.36100
N  -10.20200 15.12500 40.24000
C  -10.53100 13.80600 40.12900
C  -9.33700 13.06400 40.30800
C  -8.30300 14.03700 40.55300
C  -8.90900 15.32000 40.39600
C  -9.12700 11.65900 40.40100
C  -6.89800 14.21500 40.81300
O  -6.01500 13.39100 40.93400
C  -6.64700 15.76200 40.83800
C  -6.31900 15.99400 42.29300
O  -7.07100 16.19500 43.22700
O  -4.93500 15.80200 42.47600
C  -4.34100 15.99800 43.81300
H  -10.45100 21.36300 39.46900
H  -15.58200 17.61500 38.87500
H  -12.03200 12.28400 40.02800
H  -6.56900 18.66800 40.99200
H  -7.91700 20.83200 39.45300
H  -7.01900 21.46200 41.61900
H  -7.90700 20.13400 42.29100
H  -8.83500 21.54800 41.57000
H  -6.23700 20.10000 38.69000
H  -7.12900 18.75200 37.99100
H  -4.73400 18.03900 39.52400
H  -4.68500 19.10900 38.08400
H  -12.80900 22.67600 39.79700
H  -13.43800 22.75500 38.09600
H  -11.75100 22.58200 38.52500
H  -16.71300 19.12500 37.68100
H  -17.71800 20.45100 38.31100
H  -16.93700 19.29900 39.44000
H  -15.56500 15.18200 38.31200
H  -14.78800 13.22700 40.23000
H  -16.16800 15.87900 41.05200
H  -16.76400 14.25900 40.94200
H  -17.31500 15.42800 39.76800
H  -13.76000 13.20300 37.37900
H  -15.46200 13.02000 37.65700
H  -15.27100 10.91200 37.98900
H  -14.32400 11.13600 39.43500
H  -13.44400 10.94800 37.84500
H  -8.12600 11.27900 40.60300
H  -9.55000 11.30600 39.46000
H  -9.80100 11.21400 41.13300
H  -5.80300 15.96100 40.17800
H  -3.43600 16.58700 43.66300
H  -4.06400 14.97600 44.07100
H  -4.97800 16.37400 44.61300

