158

Mg -2.02800 17.50300 27.68300
C  -2.43000 15.25500 30.37600
C  -2.96200 20.04100 29.78400
C  -1.49000 19.56400 25.13400
C  -1.58700 14.76100 25.58900
N  -2.69600 17.58700 29.85800
C  -2.63400 16.57600 30.79700
C  -2.83300 17.15100 32.24800
C  -3.42000 18.60200 31.92200
C  -2.98400 18.81400 30.44300
C  -4.84500 18.81800 32.33000
C  -1.47600 17.12500 33.10800
C  -1.78100 16.35500 34.50100
H  -0.70000 16.35400 35.47600
N  -2.08500 19.55600 27.52600
C  -2.54000 20.42300 28.48200
C  -2.36600 21.76100 27.99300
C  -1.94000 21.64900 26.67400
C  -1.90100 20.18700 26.33300
C  -2.59100 22.95700 28.88200
C  -1.55300 22.71100 25.69100
O  -1.25300 22.57100 24.48700
C  -1.42700 24.11800 26.10300
N  -1.90600 17.22300 25.54600
C  -1.48700 18.20100 24.76600
C  -1.18500 17.63000 23.27900
C  -1.07400 16.11600 23.59800
C  -1.56700 16.02300 25.00800
C  -2.31400 17.93300 22.21200
C  0.30400 15.41700 23.15300
C  1.41300 15.62600 24.16500
N  -2.10900 15.44600 27.80500
C  -1.98800 14.43800 26.90900
C  -2.13500 13.13400 27.56800
C  -2.26200 13.38000 28.94000
C  -2.30800 14.81400 29.05000
C  -1.93500 11.79500 26.93500
C  -2.31500 12.79200 30.20400
O  -2.25900 11.58400 30.53800
C  -2.40400 14.00900 31.15000
C  -1.02000 13.91900 31.79100
O  -0.02700 14.52200 31.50000
O  -1.09400 13.05000 32.88600
C  0.08300 12.64700 33.60100
H  -3.21500 20.89500 30.41500
H  -1.26300 20.26200 24.32500
H  -1.15400 13.93300 25.02300
H  -3.68600 16.66400 32.72100
H  -2.82500 19.37200 32.41300
H  -5.25300 18.10900 33.05100
H  -5.29800 18.76200 31.34100
H  -4.86900 19.82700 32.74100
H  -1.11600 18.13900 33.28100
H  -0.71600 16.58700 32.54000
H  -1.99900 15.29900 34.34100
H  -2.68600 16.74600 34.96700
H  -2.95300 23.83300 28.34300
H  -1.57700 23.12800 29.24100
H  -3.21200 22.80000 29.76400
H  -2.37800 24.64500 26.17200
H  -0.70000 24.60600 25.45400
H  -1.08900 24.00900 27.13400
H  -0.24600 18.04000 22.90600
H  -1.84800 15.66400 22.97800
H  -3.02900 18.63100 22.64700
H  -2.86000 17.04000 21.91100
H  -1.87100 18.40200 21.33300
H  0.53400 15.66300 22.11600
H  0.08000 14.36100 23.00100
H  1.92300 16.54300 23.86900
H  2.12800 14.80600 24.09900
H  1.11700 15.81600 25.19600
H  -2.21200 11.95800 25.89300
H  -2.61600 11.09300 27.41600
H  -0.90400 11.52200 27.16100
H  -3.28600 13.85900 31.77300
H  0.28700 13.29400 34.45400
H  1.00300 12.77000 33.03000
H  0.07800 11.61300 33.94600
Mg 26.18100 1.03300 29.73100
C  28.31200 0.61800 32.55500
C  23.66900 1.60400 32.01400
C  24.09700 0.90800 27.20300
C  28.82800 -0.01100 27.76300
N  26.02700 1.08000 32.05400
C  27.02900 0.90200 32.95700
C  26.54900 1.30500 34.41700
C  25.02000 1.22700 34.17600
C  24.87200 1.38300 32.70100
C  24.28400 0.01200 34.71100
C  27.13800 2.69400 34.91100
C  27.99400 2.76400 36.20500
H  27.40200 3.42500 37.45200
N  24.21500 1.43500 29.57600
C  23.34500 1.59900 30.59200
C  21.97800 1.68000 30.06800
C  22.07500 1.50700 28.69800
C  23.53400 1.30800 28.46900
C  20.73800 1.83800 30.85600
C  20.98500 1.40000 27.70900
O  21.20200 1.28200 26.52400
C  19.59800 1.46400 28.05700
N  26.50900 0.64200 27.77600
C  25.46800 0.67600 26.84700
C  26.05400 0.68900 25.39000
C  27.56600 0.61800 25.62900
C  27.64800 0.45700 27.15400
C  25.38800 -0.37900 24.44500
C  28.40500 1.78600 25.08300
C  29.25100 1.41100 23.94300
N  28.14900 0.33000 30.05300
C  29.06700 -0.05900 29.11800
C  30.34300 -0.32600 29.82200
C  30.09200 -0.08800 31.19400
C  28.74100 0.32100 31.26400
C  31.59800 -0.79000 29.15700
C  30.60300 0.01200 32.57200
O  31.71900 -0.22600 33.05100
C  29.44400 0.46900 33.48000
C  29.33100 -0.69600 34.37500
O  28.63700 -1.68600 34.19800
O  29.99500 -0.48200 35.52200
C  29.79800 -1.31800 36.68900
H  22.83200 1.93500 32.63200
H  23.44300 0.92300 26.33000
H  29.65500 -0.36500 27.14400
H  26.99100 0.60500 35.12600
H  24.50700 2.08100 34.61800
H  25.02000 -0.66400 35.14800
H  23.81800 -0.52400 33.88400
H  23.54300 0.32000 35.44900
H  26.37800 3.45000 35.10900
H  27.66200 3.11700 34.05400
H  28.93800 3.19900 35.87900
H  28.20000 1.75400 36.55900
H  20.17600 2.70400 30.50500
H  20.94400 2.14800 31.88100
H  20.14800 0.92200 30.84800
H  19.43100 0.62600 28.73300
H  19.01300 1.41000 27.13900
H  19.30900 2.42100 28.49100
H  25.87300 1.61600 24.84500
H  27.90000 -0.29100 25.13000
H  24.53300 -0.78600 24.98400
H  25.93400 -1.30700 24.27800
H  24.92500 0.07600 23.56900
H  29.03600 2.18400 25.87800
H  27.87800 2.64900 24.67400
H  29.15300 2.15800 23.15500
H  28.93100 0.46500 23.50600
H  30.26100 1.29100 24.33400
H  32.39800 -1.06300 29.84600
H  31.89600 0.09800 28.60100
H  31.46100 -1.60900 28.45100
H  29.68400 1.37300 34.04000
H  29.88500 -2.29500 36.21300
H  28.81900 -1.07700 37.10300
H  30.56900 -1.15000 37.44100

