158

Mg 35.20600 1.82500 28.79500
C  33.43500 3.27100 31.45300
C  37.94100 1.63200 30.76000
C  36.85100 0.98800 26.00500
C  32.36700 2.57100 26.71900
N  35.56800 2.38700 30.80700
C  34.66800 2.78500 31.79700
C  35.37600 2.81600 33.18200
C  36.81800 2.67000 32.86900
C  36.82600 2.24200 31.40200
C  37.72900 3.92700 33.40200
C  34.80700 1.72000 34.10300
C  34.72000 1.98900 35.69200
H  35.24600 3.35300 36.24100
N  37.09200 1.28800 28.50700
C  38.08300 1.25100 29.39700
C  39.32000 0.84200 28.73000
C  38.94300 0.45500 27.39000
C  37.56800 0.83500 27.26900
C  40.65000 0.81100 29.48000
C  39.86000 -0.10000 26.26400
O  39.43600 -0.31400 25.09900
C  41.25800 -0.38100 26.58300
N  34.58600 1.78500 26.58900
C  35.52100 1.34300 25.75000
C  34.84600 1.17400 24.35300
C  33.31100 1.43600 24.64200
C  33.37800 1.89900 26.03100
C  35.48100 2.14500 23.31900
C  32.50900 0.08700 24.52900
C  32.07300 -0.34600 23.09800
N  33.27200 2.71600 29.02800
C  32.31300 2.94900 28.07200
C  31.13300 3.57900 28.78300
C  31.50000 3.62600 30.16200
C  32.81000 3.18000 30.19400
C  29.84300 4.01800 28.18000
C  31.01500 3.99500 31.44600
O  29.94600 4.41800 31.83900
C  32.32900 3.80900 32.35200
C  32.71700 4.95900 33.15900
O  33.42100 5.84200 32.78200
O  31.98500 4.98600 34.31500
C  32.18800 6.12500 35.33100
H  38.82300 1.53600 31.39700
H  37.29700 0.70600 25.04800
H  31.37500 2.60700 26.26300
H  35.17800 3.81400 33.57300
H  37.28200 1.85800 33.42900
H  37.20700 4.51900 34.15400
H  38.09000 4.55000 32.58300
H  38.69100 3.59000 33.78900
H  35.43200 0.83100 34.01400
H  33.78500 1.47900 33.81200
H  35.29600 1.30200 36.31200
H  33.68300 1.82500 35.98500
H  41.26900 -0.02200 29.14700
H  40.61300 0.63200 30.55400
H  41.09100 1.78100 29.24600
H  41.82100 -0.41300 25.65000
H  41.32700 -1.26100 27.22200
H  41.65800 0.43900 27.17900
H  35.13200 0.15400 24.09800
H  32.84800 2.09600 23.90900
H  36.31100 2.77100 23.64500
H  34.77400 2.85900 22.89800
H  35.70900 1.59500 22.40600
H  31.68500 0.18900 25.23400
H  33.11200 -0.68000 25.01500
H  30.98400 -0.34200 23.14900
H  32.40800 -1.36100 22.88600
H  32.44100 0.25700 22.26800
H  29.94600 4.42200 27.17300
H  29.40800 4.68100 28.92800
H  29.18700 3.16600 28.00100
H  31.98900 3.09500 33.10300
H  32.94000 6.86100 35.04800
H  32.62900 5.74400 36.25200
H  31.27300 6.67000 35.56600
Mg 30.66000 58.61000 41.67000
C  27.80300 56.99000 40.74000
C  32.46700 56.05700 40.17400
C  33.53300 60.50200 42.03400
C  28.81800 61.52400 42.39600
N  30.13500 56.92500 40.38600
C  28.90300 56.38700 40.28400
C  28.96000 54.98200 39.56600
C  30.44600 54.51100 39.87300
C  31.05700 55.90300 40.21600
C  30.44900 53.60800 41.06000
C  28.57000 54.98900 38.13200
C  27.39000 54.14500 37.64100
H  26.61500 54.79200 36.46300
N  32.70000 58.32900 41.09300
C  33.23400 57.15100 40.56500
C  34.66400 57.32500 40.49300
C  34.97100 58.57200 41.03100
C  33.73100 59.22600 41.40500
C  35.56800 56.23400 40.07300
C  36.37200 59.16800 41.16200
O  37.39300 58.46500 41.10200
C  36.62900 60.63900 41.41400
N  31.18000 60.69800 42.20500
C  32.36800 61.20100 42.28200
C  32.43900 62.65600 42.73400
C  30.89800 62.98200 42.79800
C  30.22400 61.66400 42.46600
C  33.43600 63.05700 43.83300
C  30.53500 64.18300 42.00800
C  29.48000 65.12700 42.62500
N  28.75700 59.16000 41.86200
C  28.10800 60.36100 42.11400
C  26.67700 60.20300 42.03000
C  26.49900 58.83600 41.41600
C  27.79700 58.28500 41.32500
C  25.60100 61.25700 42.37500
C  25.50100 57.88200 40.95700
O  24.29500 57.99700 40.95000
C  26.26400 56.57600 40.54400
C  25.99000 55.43400 41.48900
O  26.82800 55.00000 42.31000
O  24.75900 54.83200 41.25500
C  24.53100 53.63700 42.03100
H  33.06700 55.21100 39.83100
H  34.34300 61.21500 42.20200
H  28.16900 62.39500 42.51300
H  28.15700 54.38300 39.99500
H  30.93600 54.07100 39.00400
H  31.31200 53.75100 41.71000
H  30.59100 52.62800 40.60300
H  29.53800 53.50200 41.64800
H  29.38000 54.64900 37.48700
H  28.31300 56.02700 37.92000
H  26.72000 54.01500 38.49000
H  27.70300 53.18300 37.23700
H  35.86300 56.25100 39.02400
H  35.11900 55.27500 40.33200
H  36.54600 56.17200 40.55100
H  36.40200 60.96200 42.43000
H  35.93600 61.22700 40.81300
H  37.70000 60.83600 41.38100
H  32.87100 63.31200 41.97800
H  30.61600 63.15500 43.83700
H  32.91000 63.44800 44.70400
H  34.06500 63.87900 43.49300
H  34.03900 62.18700 44.09500
H  30.20400 63.83700 41.02900
H  31.34400 64.85400 41.72100
H  28.63700 65.10200 41.93400
H  29.78100 66.17200 42.70000
H  29.18200 64.85000 43.63600
H  24.58200 60.91000 42.20500
H  25.67200 62.08900 41.67400
H  25.60700 61.62900 43.40000
H  25.86000 56.20400 39.60200
H  25.31100 52.88000 41.96000
H  23.54700 53.21700 41.82000
H  24.37900 53.89800 43.07800

