158

Mg 43.14300 4.27000 46.98300
C  41.23700 7.25300 46.65500
C  40.26900 2.50300 46.77100
C  45.01600 1.67800 46.27800
C  46.03200 6.30300 46.70400
N  40.99100 4.77800 46.62500
C  40.43200 6.07200 46.66600
C  38.88000 5.95800 46.78800
C  38.62000 4.43300 47.01100
C  40.05800 3.82400 46.91100
C  37.92000 3.98200 48.37200
C  38.02100 6.56500 45.69200
C  38.45800 6.20200 44.25600
H  39.43400 7.16700 43.58900
N  42.67200 2.34900 46.65700
C  41.47000 1.75100 46.59800
C  41.58500 0.33100 46.34300
C  43.03100 0.07800 46.14900
C  43.64000 1.39000 46.40500
C  40.36900 -0.56700 46.17100
C  43.51400 -1.26900 45.82200
O  42.72400 -2.14500 45.63300
C  44.86700 -1.49700 45.61700
N  45.20500 4.03300 46.47200
C  45.73300 2.83400 46.39900
C  47.25200 2.83700 46.30600
C  47.54400 4.35800 46.25900
C  46.19500 4.95300 46.48700
C  48.01100 2.00500 47.38700
C  48.37000 4.83000 45.00000
C  49.91100 4.95300 45.02000
N  43.58500 6.30700 46.83200
C  44.78500 6.96200 46.81500
C  44.54400 8.33600 46.87500
C  43.14800 8.51400 46.77200
C  42.60100 7.22400 46.75300
C  45.53600 9.34700 46.90500
C  42.07400 9.54700 46.86500
O  42.12400 10.76500 46.99700
C  40.69700 8.69200 46.60000
C  39.83400 9.00200 47.73500
O  40.05700 8.70500 48.88900
O  38.64800 9.58800 47.29800
C  37.55100 9.79300 48.22700
H  39.36000 1.90700 46.87100
H  45.59600 0.75300 46.26100
H  46.96800 6.84200 46.53900
H  38.57300 6.53800 47.65800
H  38.06400 3.91300 46.23100
H  37.36500 3.04400 48.35700
H  37.28800 4.77300 48.77600
H  38.74300 3.75400 49.05000
H  38.07200 7.65000 45.78600
H  36.94000 6.46600 45.78700
H  37.51500 6.04300 43.73300
H  38.94000 5.23600 44.10800
H  40.39300 -1.52600 46.68900
H  40.18500 -0.75200 45.11200
H  39.38800 -0.13100 46.36100
H  45.33100 -1.22300 46.56500
H  45.13100 -0.77500 44.84400
H  45.20700 -2.50100 45.36400
H  47.55200 2.45900 45.32900
H  48.26100 4.48100 47.07000
H  48.91900 2.48500 47.75200
H  48.30600 1.06100 46.92800
H  47.32300 1.79400 48.20500
H  47.91900 5.81300 44.86500
H  48.02600 4.19600 44.18300
H  50.38300 4.25200 44.33200
H  50.23900 4.69300 46.02600
H  50.09300 5.99000 44.73800
H  46.09400 9.47300 47.83300
H  45.21700 10.33200 46.56700
H  46.30200 9.05400 46.18600
H  40.32100 8.95200 45.61000
H  37.87400 9.29200 49.13900
H  36.59200 9.41000 47.87900
H  37.42400 10.84700 48.47500
Mg -12.33300 17.25400 40.79700
C  -9.54900 15.21700 40.10800
C  -10.72000 19.83700 39.53900
C  -15.40900 18.75900 40.54600
C  -14.08100 14.17700 41.61300
N  -10.28600 17.53600 40.05500
C  -9.33700 16.55200 39.83500
C  -7.99100 17.19000 39.44300
C  -8.39300 18.70200 39.28700
C  -9.86200 18.76000 39.70700
C  -7.34800 19.58700 39.97700
C  -7.40600 16.56500 38.19100
C  -5.88100 16.16300 38.10700
H  -5.16000 16.60100 36.86700
N  -12.93900 19.14500 40.26100
C  -12.13000 20.08900 39.75100
C  -12.89700 21.25600 39.36700
C  -14.29600 20.93800 39.66300
C  -14.26400 19.54300 40.20200
C  -12.17300 22.52700 38.85500
C  -15.45500 21.92000 39.46800
O  -15.19500 23.04500 39.10700
C  -16.84200 21.56600 39.75500
N  -14.46400 16.53400 41.00400
C  -15.49200 17.39300 40.94200
C  -16.80500 16.82400 41.46700
C  -16.42000 15.39700 41.93200
C  -14.86500 15.36200 41.49500
C  -17.50600 17.74600 42.59900
C  -17.35600 14.25400 41.29600
C  -17.96900 13.42300 42.31700
N  -11.92700 15.11800 41.01400
C  -12.72400 14.03300 41.33700
C  -11.92300 12.82700 41.33700
C  -10.67400 13.21400 40.84600
C  -10.71100 14.59700 40.67800
C  -12.34200 11.43100 41.64300
C  -9.34500 12.74100 40.39400
O  -8.86500 11.60400 40.35100
C  -8.55400 14.04100 39.95800
C  -7.46000 14.32600 40.89600
O  -7.50600 14.65900 42.06300
O  -6.33400 13.75500 40.33700
C  -5.04800 13.83200 41.05100
H  -10.09700 20.62600 39.11300
H  -16.40800 19.16000 40.36000
H  -14.60500 13.27400 41.93100
H  -7.27500 16.98700 40.24000
H  -8.25500 19.07100 38.27100
H  -7.80700 20.57400 40.03600
H  -6.36300 19.51400 39.51600
H  -7.27800 19.14800 40.97200
H  -7.61500 17.28600 37.40100
H  -7.89600 15.61400 37.98200
H  -5.79400 15.09500 38.30500
H  -5.38700 16.64500 38.95000
H  -12.46300 22.59900 37.80700
H  -11.08400 22.52300 38.89600
H  -12.54300 23.39200 39.40500
H  -17.56000 22.35100 39.52100
H  -16.87400 21.28400 40.80800
H  -17.10600 20.74100 39.09300
H  -17.48600 16.76700 40.61700
H  -16.47200 15.28600 43.01500
H  -18.48300 18.11500 42.28700
H  -16.95800 18.61900 42.95300
H  -17.63900 17.25100 43.56100
H  -16.75800 13.56100 40.70300
H  -18.06300 14.73300 40.61900
H  -19.03200 13.30800 42.10600
H  -17.96700 13.91300 43.29100
H  -17.49000 12.44700 42.40600
H  -13.04300 11.36000 42.47500
H  -11.54200 10.71100 41.81800
H  -12.82800 11.14200 40.71100
H  -8.16900 13.79900 38.96800
H  -4.93400 12.92300 41.64200
H  -4.98800 14.72100 41.67800
H  -4.27000 13.82200 40.28800

