158

Mg 54.52400 23.73600 44.06600
C  52.01400 26.01700 43.35500
C  52.36800 21.19500 43.37100
C  57.22000 21.71700 43.76400
C  56.69200 26.46900 44.72100
N  52.39500 23.61600 43.21600
C  51.53900 24.69000 42.99800
C  50.07500 24.22400 42.73600
C  50.24800 22.66200 43.09900
C  51.77100 22.42100 43.25800
C  49.54400 22.02000 44.28900
C  49.35600 24.56700 41.41200
C  50.29400 24.63100 40.13700
H  49.71200 25.40200 38.94200
N  54.78900 21.72400 43.69400
C  53.75600 20.83800 43.49000
C  54.30300 19.54400 43.27000
C  55.69200 19.63600 43.62800
C  55.96800 21.07800 43.67500
C  53.43200 18.33500 43.02400
C  56.61000 18.51600 43.96300
O  56.28800 17.32700 43.82500
C  58.02200 18.78400 44.57400
N  56.62300 24.12100 44.11800
C  57.51200 23.10600 44.00200
C  59.00900 23.50400 44.27600
C  58.83800 25.02700 44.32000
C  57.28500 25.21600 44.46100
C  59.64300 22.88400 45.54000
C  59.58400 25.83600 43.21200
C  58.79700 25.81800 41.86400
N  54.46900 25.79400 44.16700
C  55.34100 26.77000 44.55100
C  54.69700 28.05700 44.55800
C  53.32100 27.84900 44.23200
C  53.28800 26.43400 43.85600
C  55.30800 29.37200 44.86200
C  51.91000 28.39000 44.05400
O  51.45900 29.53500 44.22700
C  51.12800 27.23800 43.40900
C  50.72200 27.68000 42.02900
O  51.44600 27.56600 41.04000
O  49.43100 28.17600 42.02600
C  49.02200 28.69000 40.72600
H  51.74400 20.31900 43.18400
H  58.03800 21.02800 43.54400
H  57.35600 27.29400 44.98700
H  49.48500 24.62200 43.56200
H  49.95000 22.05000 42.24800
H  49.06700 21.10300 43.94300
H  48.86500 22.68600 44.82200
H  50.27400 21.63900 45.00300
H  48.88400 25.53100 41.60000
H  48.50000 23.91700 41.22800
H  50.32500 23.63600 39.69300
H  51.30700 24.83000 40.48600
H  54.03100 17.45400 42.79200
H  52.81200 18.43600 42.13200
H  52.84400 18.13200 43.91900
H  58.75500 18.82400 43.76800
H  58.19900 17.85700 45.11900
H  58.18800 19.56600 45.31500
H  59.51200 23.09000 43.40200
H  59.20100 25.40900 45.27400
H  58.92200 22.21500 46.00900
H  59.85700 23.74500 46.17300
H  60.52300 22.28500 45.31000
H  60.57600 25.40500 43.07900
H  59.72500 26.72600 43.82600
H  58.15800 24.93500 41.87900
H  59.49700 25.75200 41.03000
H  58.06900 26.62700 41.82400
H  55.78900 29.84400 44.00500
H  56.13700 29.25400 45.55900
H  54.55600 30.03900 45.28500
H  50.25100 27.09100 44.03900
H  48.18100 29.36800 40.86900
H  48.65900 27.97200 39.99100
H  49.77600 29.28700 40.21200
Mg 17.09700 53.14900 25.91600
C  19.10100 51.61100 28.34900
C  14.88100 54.11500 28.47900
C  15.09500 54.32200 23.60900
C  19.31900 51.86100 23.55100
N  17.03500 52.83300 28.16300
C  18.06700 52.32100 28.93700
C  17.83200 52.64700 30.40900
C  16.33300 53.18400 30.40800
C  16.05500 53.44500 28.91200
C  15.24400 52.15400 30.98400
C  18.89900 53.50100 31.00700
C  18.82900 53.53500 32.51300
H  17.95300 52.59900 33.32800
N  15.27700 54.12700 25.93300
C  14.47600 54.32400 27.06500
C  13.32600 55.04500 26.60800
C  13.38700 55.14500 25.19400
C  14.63000 54.52800 24.87300
C  12.31900 55.57700 27.57500
C  12.48000 55.87500 24.23100
O  12.69400 55.92300 23.01000
C  11.20600 56.59600 24.75200
N  17.20000 53.11000 23.84800
C  16.19800 53.63100 23.11800
C  16.46900 53.39000 21.58100
C  18.02500 52.96200 21.63000
C  18.20400 52.59700 23.09500
C  15.58000 52.41100 20.86400
C  18.99600 54.11200 21.14700
C  20.33300 53.59600 20.45900
N  18.75000 51.84800 25.88200
C  19.59100 51.46000 24.82600
C  20.76500 50.67200 25.27200
C  20.52700 50.65300 26.64500
C  19.34900 51.40700 26.96800
C  21.82500 50.10000 24.45600
C  21.16900 50.15800 27.89100
O  22.21700 49.51900 28.09500
C  20.23700 50.88300 29.00000
C  19.87700 49.71600 29.82100
O  19.25600 48.76300 29.41700
O  20.28700 49.89400 31.13100
C  19.73200 48.82300 32.02400
H  14.12600 54.31400 29.24200
H  14.39000 54.44600 22.78500
H  20.01900 51.58500 22.76000
H  17.81300 51.70400 30.95400
H  16.31500 54.12700 30.95300
H  14.97300 52.46600 31.99300
H  15.69700 51.17100 31.11500
H  14.33300 52.12300 30.38700
H  18.82500 54.55200 30.72600
H  19.92800 53.33100 30.69000
H  18.75900 54.57200 32.84200
H  19.81500 53.25200 32.88200
H  11.33300 55.28200 27.21600
H  12.51300 56.64600 27.65800
H  12.29700 55.18300 28.59100
H  10.86100 57.39400 24.09400
H  11.40000 57.25200 25.60100
H  10.33200 55.94600 24.74500
H  16.27800 54.34400 21.09000
H  18.42600 52.03900 21.21100
H  15.05300 51.75800 21.56000
H  16.22900 51.82500 20.21300
H  14.83000 52.94100 20.27600
H  19.24100 54.72600 22.01400
H  18.38200 54.71100 20.47600
H  20.14500 53.92500 19.43800
H  20.39400 52.50900 20.52600
H  21.12800 54.15000 20.95900
H  21.57200 50.07000 23.39600
H  21.88900 49.12300 24.93500
H  22.76700 50.64400 24.52600
H  20.84800 51.60500 29.54200
H  19.99100 47.81700 31.69200
H  18.65400 48.85800 32.17900
H  20.22300 48.75900 32.99500

