158

Mg 26.24800 1.81900 29.17000
C  27.96300 1.43600 32.10500
C  23.26900 1.76000 31.09500
C  24.39300 1.73200 26.32100
C  29.17400 1.26800 27.36300
N  25.75200 1.65300 31.34600
C  26.60800 1.57700 32.37500
C  25.95300 1.55200 33.73100
C  24.42500 1.37200 33.38100
C  24.44900 1.60900 31.83700
C  23.85500 -0.02700 33.85900
C  26.30300 2.81700 34.61300
C  26.88100 2.48900 35.96600
H  26.85600 3.54900 37.10000
N  24.14500 1.88700 28.71700
C  23.11000 1.86800 29.66200
C  21.82500 1.88500 28.92600
C  22.14300 1.96700 27.54700
C  23.59000 1.87600 27.46900
C  20.50000 1.94900 29.63600
C  21.22100 2.09200 26.38400
O  21.61300 2.10900 25.21900
C  19.66600 2.22200 26.60300
N  26.68400 1.36300 27.10900
C  25.75600 1.55100 26.12800
C  26.38500 1.58300 24.71600
C  27.90200 1.67500 25.10800
C  27.94200 1.47700 26.63400
C  26.06100 0.33400 23.84800
C  28.57500 3.02000 24.57700
C  28.21000 4.37300 25.14400
N  28.15500 1.39600 29.55600
C  29.30300 1.24000 28.74100
C  30.47900 1.14700 29.57700
C  30.02800 1.20400 30.92200
C  28.58100 1.36200 30.83300
C  31.88300 0.90800 29.20300
C  30.44500 1.20300 32.22600
O  31.58900 1.03400 32.61900
C  29.20500 1.41600 33.08800
C  29.03500 0.20600 34.09500
O  28.39300 -0.85400 34.04200
O  29.81100 0.56800 35.19800
C  29.68600 -0.31700 36.41000
H  22.33000 1.78200 31.65300
H  23.82300 1.74300 25.39000
H  30.03100 1.20100 26.69000
H  26.34400 0.63000 34.16200
H  23.85600 2.08700 33.97600
H  24.51100 -0.48900 34.59600
H  23.85400 -0.64700 32.96200
H  22.87400 0.06300 34.32400
H  25.43000 3.45500 34.75300
H  26.99500 3.45600 34.06300
H  27.91800 2.15200 35.96000
H  26.22900 1.72800 36.39500
H  20.47600 2.04800 30.72100
H  19.98200 1.08000 29.22900
H  20.02600 2.85100 29.24900
H  19.27200 1.43600 27.24800
H  19.08200 2.13900 25.68600
H  19.63900 3.23200 27.01200
H  26.13000 2.46300 24.12500
H  28.51200 0.83400 24.77700
H  26.92200 -0.23600 23.50000
H  25.69200 0.74400 22.90800
H  25.28800 -0.22300 24.37900
H  28.41200 3.13300 23.50500
H  29.65800 2.90200 24.55100
H  27.98300 5.01000 24.29000
H  29.01200 4.79200 25.75200
H  27.37900 4.35500 25.84900
H  32.03700 -0.10300 29.57900
H  32.43500 1.67500 29.74700
H  32.07500 0.95400 28.13100
H  29.34500 2.23000 33.79900
H  28.69600 -0.40000 36.85800
H  30.41400 0.11500 37.09800
H  30.01800 -1.30800 36.10200
Mg 48.10000 24.81900 28.76600
C  48.78700 27.21500 31.30100
C  47.08400 22.65700 31.22300
C  47.98900 22.52300 26.43400
C  49.34400 27.19400 26.47900
N  47.99300 24.91700 31.01900
C  48.29100 26.03100 31.84400
C  48.04800 25.69100 33.32700
C  47.47900 24.20100 33.23000
C  47.54200 23.91600 31.74300
C  48.30900 23.20900 34.07400
C  47.05800 26.69500 33.92900
C  46.54800 26.31900 35.29600
H  47.14000 27.07800 36.48200
N  47.49400 22.84900 28.80100
C  47.03100 22.16300 29.90600
C  46.63300 20.84000 29.45400
C  46.88300 20.77600 27.99200
C  47.47700 22.05200 27.68200
C  46.01700 19.84700 30.38500
C  46.51100 19.80800 26.91300
O  46.83100 19.93900 25.68800
C  45.73900 18.56600 27.29700
N  48.60000 24.84800 26.70400
C  48.38900 23.73300 25.95200
C  48.75000 24.07300 24.50400
C  48.79400 25.64800 24.40800
C  48.88800 25.96700 25.95600
C  50.08400 23.42000 23.92800
C  47.52300 26.14200 23.61100
C  47.71800 27.51800 22.87900
N  48.91100 26.83300 28.83700
C  49.40600 27.61200 27.82600
C  49.85000 28.88200 28.25500
C  49.72400 28.76600 29.66800
C  49.10500 27.48700 29.94400
C  50.35700 29.96800 27.43800
C  49.82700 29.47100 30.91900
O  50.11800 30.60600 31.26100
C  49.35200 28.45000 32.04900
C  50.39000 28.18100 32.99800
O  51.26300 27.31900 32.85400
O  50.17700 28.93500 34.09400
C  51.17200 28.74000 35.16800
H  46.74900 21.94400 31.97900
H  48.11100 21.89500 25.54900
H  49.57000 27.92900 25.70300
H  49.03200 25.78700 33.78500
H  46.45000 24.14300 33.58400
H  48.62900 23.67200 35.00700
H  49.08900 23.03100 33.33400
H  47.67100 22.33900 34.23200
H  46.21500 26.73200 33.23900
H  47.61600 27.62400 34.04400
H  46.63100 25.24500 35.46400
H  45.48500 26.55100 35.23800
H  44.94000 19.69800 30.31100
H  46.22000 20.08000 31.43000
H  46.49000 18.87700 30.23400
H  44.86000 18.65900 27.93600
H  46.53700 17.92200 27.66900
H  45.42100 18.16900 26.33300
H  47.85400 23.73100 23.98600
H  49.67300 26.06100 23.91300
H  50.57700 22.88400 24.73800
H  50.75000 24.18700 23.53200
H  49.84200 22.70600 23.14100
H  46.69800 26.26400 24.31400
H  47.20300 25.42700 22.85300
H  48.70000 27.90800 23.14900
H  47.08700 28.33100 23.23700
H  47.69500 27.45000 21.79100
H  50.74200 30.77000 28.06800
H  49.58300 30.40700 26.80900
H  51.13100 29.42300 26.89600
H  48.45700 28.92900 32.44500
H  52.18800 28.79700 34.77700
H  50.92100 27.76100 35.57800
H  51.00300 29.52300 35.90600

