158

Mg 49.52600 35.64600 27.25300
C  47.56700 34.20400 29.77500
C  50.14300 38.24400 29.32300
C  51.57800 36.84800 24.93300
C  48.45000 33.16700 25.01500
N  48.92100 36.19500 29.37500
C  48.23500 35.33100 30.25600
C  48.41900 35.80800 31.69000
C  48.96900 37.29600 31.48400
C  49.25500 37.29400 29.92400
C  48.04100 38.47000 31.88700
C  49.35900 34.79100 32.51300
C  49.22800 34.89500 34.03600
H  48.19500 35.84400 34.60000
N  50.65300 37.32500 27.14800
C  50.72500 38.37200 28.04100
C  51.70200 39.29800 27.65500
C  52.20600 38.87100 26.37900
C  51.45400 37.67500 26.06700
C  52.01300 40.51100 28.48700
C  53.24700 39.52200 25.50100
O  53.51500 39.09500 24.35200
C  54.00600 40.78700 25.86200
N  49.83200 35.13800 25.21900
C  50.84000 35.73100 24.48100
C  51.09600 34.97400 23.14500
C  50.13600 33.78100 23.26000
C  49.38600 34.08500 24.53000
C  50.90400 35.72800 21.80200
C  50.92300 32.38200 23.26600
C  50.82700 31.44700 22.02200
N  48.28400 34.08100 27.33100
C  47.97000 33.14500 26.32500
C  47.11700 32.10500 26.95200
C  46.94400 32.48000 28.29300
C  47.70100 33.70200 28.47800
C  46.63700 30.84000 26.33100
C  46.31100 32.07300 29.53100
O  45.55700 31.12200 29.76500
C  46.54700 33.25800 30.44300
C  46.77000 32.73000 31.81400
O  47.50900 31.80700 32.16600
O  45.73700 33.21100 32.66200
C  45.74900 32.59300 33.99600
H  50.25000 39.06400 30.03600
H  52.24600 37.24300 24.16400
H  48.18000 32.38100 24.30600
H  47.46400 35.70800 32.20700
H  49.89900 37.36800 32.04800
H  46.99300 38.18000 31.96800
H  48.03200 39.15000 31.03600
H  48.34700 38.84400 32.86400
H  50.36100 35.15800 32.29200
H  49.29200 33.74600 32.20900
H  50.18700 35.02800 34.53700
H  49.00800 33.84800 34.24700
H  52.36600 41.32300 27.85100
H  52.78500 40.27000 29.21700
H  51.14400 40.94400 28.98300
H  54.78800 40.91200 25.11300
H  54.49300 40.76300 26.83700
H  53.33400 41.63100 26.01900
H  52.16200 34.74400 23.17000
H  49.31000 33.81300 22.55000
H  51.16600 36.77500 21.95300
H  49.92500 35.59700 21.34100
H  51.71900 35.23800 21.26900
H  50.48900 31.80500 24.08300
H  51.96900 32.54200 23.52500
H  50.56200 30.45700 22.39300
H  51.79900 31.38700 21.53400
H  50.04700 31.66800 21.29300
H  47.42700 30.13400 26.58700
H  46.54300 31.12000 25.28200
H  45.63600 30.57100 26.66600
H  45.62800 33.84100 30.37800
H  45.53600 31.52400 34.01300
H  45.01700 33.12900 34.60000
H  46.69400 32.64500 34.53600
Mg 2.08000 42.03900 25.98000
C  4.46500 42.43400 28.53700
C  -0.17300 41.13800 28.34400
C  0.05700 41.60200 23.45400
C  4.78000 42.40300 23.58900
N  2.20200 41.62700 28.22000
C  3.20700 42.00200 29.04900
C  2.76800 41.90300 30.47400
C  1.39800 41.25700 30.46200
C  1.09600 41.28600 28.95200
C  1.41700 39.83400 31.10500
C  2.82100 43.31100 31.20300
C  2.90700 43.07500 32.69200
H  1.77500 43.38400 33.74100
N  0.15900 41.61900 25.92900
C  -0.64500 41.20100 26.98800
C  -1.95500 40.93100 26.52500
C  -1.98700 41.24400 25.12600
C  -0.59100 41.49200 24.74200
C  -2.96600 40.46900 27.52100
C  -3.12700 41.24600 24.10800
O  -2.98300 41.56600 22.93400
C  -4.52900 40.65400 24.56200
N  2.38200 42.02900 23.80900
C  1.33500 41.78100 22.98600
C  1.78000 41.83400 21.49200
C  3.29300 42.17600 21.53500
C  3.51000 42.19700 23.09000
C  1.51000 40.46200 20.74100
C  3.79000 43.59200 20.98800
C  3.20300 44.09400 19.65500
N  4.11300 42.36800 26.03100
C  5.03900 42.44900 24.93000
C  6.36000 42.60000 25.44300
C  6.15400 42.64900 26.89200
C  4.83700 42.40400 27.15800
C  7.61100 42.90700 24.64100
C  6.82400 42.78200 28.19800
O  8.02400 42.79400 28.48600
C  5.71300 42.80100 29.31800
C  6.05000 41.88200 30.47700
O  6.20500 40.68800 30.38700
O  6.07300 42.61200 31.64700
C  6.33400 41.88600 32.89000
H  -0.91200 40.90300 29.11300
H  -0.60500 41.57200 22.58600
H  5.54900 42.41900 22.81400
H  3.50700 41.24100 30.92700
H  0.60000 41.74200 31.02400
H  0.47900 39.64400 31.62600
H  2.23000 39.77000 31.82900
H  1.64000 39.01800 30.41800
H  1.98600 43.95900 30.93400
H  3.71300 43.84000 30.86900
H  3.82100 43.60000 32.96700
H  3.20200 42.06400 32.97200
H  -3.95800 40.30800 27.09900
H  -3.28100 41.17400 28.29100
H  -2.61700 39.52900 27.94700
H  -5.21400 40.66000 23.71500
H  -4.91300 41.35100 25.30800
H  -4.38400 39.63900 24.93200
H  1.27900 42.62900 20.94000
H  3.88700 41.45700 20.97100
H  1.80000 39.54100 21.24700
H  1.96000 40.53900 19.75200
H  0.43800 40.40900 20.55300
H  4.79500 43.36300 20.63500
H  3.82000 44.38600 21.73400
H  2.66200 45.00600 19.90500
H  2.54600 43.26900 19.37900
H  3.88500 44.27200 18.82300
H  7.59900 43.99400 24.55700
H  7.78200 42.61100 23.60700
H  8.48300 42.61400 25.22600
H  5.63200 43.76900 29.81200
H  7.28200 42.26600 33.27200
H  6.42500 40.80200 32.81500
H  5.58600 41.99800 33.67400

