158

Mg 17.54600 -1.07300 27.53500
C  16.14300 0.85200 30.15100
C  19.33000 -2.75000 29.75100
C  18.77200 -2.72200 24.92700
C  15.81700 1.15900 25.22100
N  17.65800 -0.81000 29.73900
C  17.06100 -0.05300 30.68600
C  17.59700 -0.23500 32.11400
C  18.68300 -1.26800 31.77100
C  18.57700 -1.65700 30.28000
C  20.08100 -0.65000 32.17100
C  16.66400 -0.75100 33.19500
C  16.94200 -0.14000 34.61100
H  18.37700 0.07700 35.14900
N  18.73200 -2.65600 27.36500
C  19.36600 -3.22800 28.38700
C  20.00200 -4.47500 27.98300
C  19.94900 -4.45300 26.56200
C  19.11500 -3.28100 26.24000
C  20.73100 -5.40100 28.87200
C  20.48200 -5.41800 25.47100
O  20.20400 -5.30900 24.27600
C  21.31800 -6.66000 25.94700
N  17.32200 -0.82000 25.34400
C  17.98700 -1.63800 24.53500
C  17.87200 -1.19800 23.11500
C  16.83000 -0.04300 23.16000
C  16.61700 0.17600 24.62800
C  19.14300 -0.96400 22.27500
C  15.49000 -0.28800 22.38400
C  15.46000 0.03800 20.91400
N  16.19300 0.52200 27.61500
C  15.57500 1.30200 26.58200
C  14.57800 2.20600 27.31100
C  14.75700 1.98100 28.67000
C  15.80400 1.02700 28.83000
C  13.75000 3.25600 26.63700
C  14.42200 2.60000 29.92600
O  13.66900 3.48500 30.24000
C  15.25900 1.77600 30.93800
C  16.04200 2.84400 31.68900
O  17.08000 3.36800 31.32200
O  15.42500 2.97000 32.86400
C  16.09200 3.94100 33.75700
H  19.94800 -3.16400 30.55000
H  19.19800 -3.26100 24.07800
H  15.18900 1.76900 24.56800
H  17.92300 0.78900 32.29800
H  18.66300 -2.20700 32.32300
H  20.65600 -0.49300 31.25800
H  20.57900 -1.42400 32.75500
H  19.95300 0.29300 32.70300
H  16.79100 -1.83000 33.29100
H  15.66300 -0.51300 32.83500
H  16.52700 -0.90700 35.26500
H  16.38000 0.74500 34.91200
H  21.74000 -5.33800 28.46500
H  20.31600 -6.40700 28.81400
H  20.68600 -5.08000 29.91300
H  22.35400 -6.44500 26.20700
H  21.38200 -7.32900 25.08900
H  20.87200 -7.10900 26.83500
H  17.36200 -2.02700 22.62500
H  17.33400 0.85200 22.79400
H  20.00000 -1.06800 22.94100
H  19.21900 -0.00400 21.76500
H  19.19000 -1.81500 21.59500
H  14.73300 0.24800 22.95700
H  15.25100 -1.35100 22.41600
H  14.71200 0.79400 20.67500
H  15.22700 -0.90100 20.41100
H  16.46100 0.25400 20.54100
H  13.63200 3.05600 25.57200
H  14.25900 4.21500 26.73000
H  12.72100 3.33100 26.98900
H  14.58900 1.40900 31.71400
H  15.75300 3.83600 34.78700
H  16.02900 4.99400 33.48200
H  17.16400 3.76600 33.66000
Mg 43.10100 3.69100 47.70600
C  41.58200 6.76100 47.78300
C  40.03500 2.11000 47.31100
C  44.71900 0.83000 47.00200
C  46.29500 5.53000 47.57600
N  41.04400 4.40500 47.47600
C  40.60900 5.65700 47.65800
C  39.03400 5.77900 47.74900
C  38.63500 4.27700 47.64300
C  39.95800 3.54200 47.47100
C  37.66500 3.81000 48.72700
C  38.36000 6.70400 46.67700
C  39.12300 6.73800 45.27000
H  38.25800 6.46700 44.02700
N  42.44700 1.77300 47.25700
C  41.18700 1.31500 47.22100
C  41.14400 -0.13300 46.96700
C  42.50600 -0.48500 46.86600
C  43.30700 0.71800 47.07100
C  39.84500 -1.00400 46.79000
C  43.01700 -1.90200 46.52300
O  42.20500 -2.81200 46.19500
C  44.43700 -2.29800 46.72400
N  45.16600 3.27500 47.33200
C  45.55500 1.95400 47.20700
C  47.12700 1.90300 47.13500
C  47.60200 3.35300 47.21900
C  46.28900 4.11700 47.53100
C  47.80200 0.82400 48.07000
C  48.40900 3.89000 46.03500
C  49.76000 4.45700 46.51100
N  43.81400 5.70100 47.65500
C  45.10500 6.29700 47.62400
C  44.96700 7.73100 47.78200
C  43.59200 7.99000 47.86200
C  42.94400 6.75400 47.77900
C  46.08100 8.69600 47.85400
C  42.58800 9.03000 48.12600
O  42.61600 10.21600 48.41800
C  41.25200 8.23900 47.94200
C  40.46200 8.41300 49.10600
O  40.46900 7.70800 50.15400
O  39.47900 9.33400 48.79600
C  38.39600 9.38300 49.78000
H  39.09000 1.56900 47.39700
H  45.39400 -0.00200 46.79200
H  47.22700 6.09800 47.55500
H  38.66900 6.23600 48.66900
H  38.16000 4.33200 46.66400
H  37.46900 4.61000 49.44100
H  38.14900 2.98700 49.25400
H  36.73700 3.60200 48.19400
H  38.21400 7.72200 47.03900
H  37.36000 6.42700 46.34300
H  39.84900 5.93600 45.14100
H  39.63500 7.69300 45.15600
H  39.41400 -0.92800 45.79200
H  39.09800 -0.69300 47.52000
H  39.97100 -2.07500 46.94600
H  45.00600 -1.88700 47.55800
H  44.96900 -2.12500 45.78800
H  44.36900 -3.38200 46.81400
H  47.34700 1.60900 46.10900
H  48.14500 3.39700 48.16300
H  48.70200 1.16700 48.58000
H  47.92700 -0.04900 47.43000
H  46.98800 0.61200 48.76300
H  47.92100 4.72700 45.53500
H  48.57300 3.07900 45.32500
H  50.46100 3.79000 46.00900
H  49.97500 4.46300 47.57900
H  49.79800 5.46400 46.09400
H  46.38200 8.88800 48.88400
H  45.70900 9.65200 47.48600
H  46.85100 8.47800 47.11400
H  40.78800 8.67900 47.06000
H  38.23500 8.42800 50.28100
H  37.53200 9.58400 49.14700
H  38.66100 10.20900 50.44000

