158

Mg 17.67900 -1.36400 27.93100
C  16.51800 0.37500 30.68000
C  19.77100 -3.10300 30.00000
C  19.26400 -2.65100 25.16000
C  15.77900 0.68600 25.89700
N  18.24800 -1.24100 30.14300
C  17.43400 -0.56500 31.10800
C  17.91300 -0.93800 32.46800
C  19.16200 -1.85700 32.18400
C  19.08500 -2.09600 30.71100
C  20.56100 -1.37200 32.62100
C  16.74900 -1.44300 33.42100
C  16.83900 -0.84000 34.90200
H  18.18000 -0.36900 35.52400
N  19.04700 -2.82000 27.64500
C  19.68200 -3.49300 28.66000
C  20.40600 -4.51900 28.06900
C  20.20700 -4.45800 26.68200
C  19.54000 -3.22500 26.43300
C  21.43700 -5.43000 28.75200
C  20.75600 -5.42800 25.55100
O  20.50800 -5.23900 24.39500
C  21.59200 -6.67000 25.90700
N  17.57500 -1.00300 25.79000
C  18.37000 -1.64300 24.88800
C  18.00200 -1.16200 23.45000
C  16.91400 -0.12500 23.75300
C  16.69000 -0.15700 25.24700
C  19.11900 -0.55200 22.71700
C  15.56700 -0.34800 22.90700
C  15.31500 0.80500 21.93700
N  16.42000 0.12800 28.18500
C  15.70300 0.89300 27.29300
C  14.86400 1.78000 27.89900
C  15.09000 1.68100 29.25400
C  16.06000 0.62900 29.40200
C  13.86700 2.75300 27.23000
C  14.82000 2.16400 30.55200
O  14.06200 3.08100 30.98900
C  15.64400 1.25900 31.49000
C  16.40300 2.23300 32.34300
O  17.36200 2.89200 31.93500
O  15.80500 2.30500 33.59200
C  16.38700 3.26100 34.60200
H  20.29800 -3.74700 30.70700
H  19.68100 -3.13000 24.27100
H  15.06300 1.25500 25.30100
H  18.22400 0.02900 32.86100
H  19.08600 -2.70100 32.87100
H  21.03100 -2.08300 33.30100
H  20.49000 -0.41200 33.13100
H  21.20100 -1.16700 31.76300
H  16.71800 -2.52900 33.50800
H  15.78700 -1.28100 32.93400
H  16.51000 -1.65900 35.54200
H  16.13100 -0.01200 34.86200
H  20.98800 -6.37000 29.07000
H  21.78900 -4.90800 29.64200
H  22.38000 -5.56700 28.22300
H  21.03000 -7.23500 26.65100
H  22.55600 -6.39800 26.33700
H  21.74600 -7.37900 25.09300
H  17.74900 -2.00800 22.81200
H  17.30000 0.88600 23.61800
H  19.79500 -0.08400 23.43300
H  18.83400 0.23700 22.02100
H  19.71400 -1.26700 22.14900
H  14.67600 -0.43800 23.52900
H  15.70700 -1.25700 22.32200
H  16.28600 1.25600 21.73800
H  14.59700 1.52100 22.33600
H  15.03800 0.32300 20.99900
H  13.08700 2.84000 27.98600
H  13.42600 2.39100 26.30100
H  14.25600 3.75700 27.05900
H  14.95900 0.75200 32.17000
H  16.20400 2.86500 35.60100
H  15.80700 4.18200 34.54200
H  17.46300 3.42100 34.54000
Mg 34.61900 49.09500 26.50400
C  35.07400 47.26600 29.26100
C  33.96500 51.84400 28.48500
C  33.79400 50.84600 23.64000
C  35.52700 46.50000 24.53800
N  34.52200 49.50500 28.63000
C  34.75200 48.52500 29.57000
C  34.65900 49.15100 31.02900
C  33.99400 50.53600 30.77700
C  34.15200 50.68900 29.21500
C  32.56900 50.65300 31.19500
C  36.11500 49.14700 31.62900
C  36.33000 48.79100 33.05800
H  36.30200 49.77700 34.27100
N  34.00500 51.07200 26.13800
C  33.89500 52.07200 27.06800
C  33.46600 53.31400 26.45900
C  33.36100 53.04700 25.04500
C  33.76500 51.58500 24.89900
C  33.31300 54.63300 27.13800
C  32.96800 54.00400 23.86600
O  32.76200 53.61100 22.73700
C  32.74900 55.52400 24.02400
N  34.84300 48.79000 24.34400
C  34.35000 49.55400 23.33800
C  34.52800 48.88700 21.90200
C  35.04100 47.51300 22.24100
C  35.20400 47.63800 23.76000
C  33.16000 48.91000 21.12500
C  36.27700 47.01600 21.47900
C  36.17200 45.92100 20.36700
N  35.16500 47.26300 26.76400
C  35.47500 46.23900 25.90600
C  35.79600 44.99600 26.66900
C  35.68500 45.41500 27.98900
C  35.25100 46.76100 27.97900
C  36.16200 43.66300 26.07200
C  35.79800 44.94600 29.29300
O  35.99600 43.82200 29.71900
C  35.35300 46.10500 30.17700
C  34.27800 45.60300 31.10200
O  33.14200 45.30700 30.73000
O  34.73700 45.55100 32.35700
C  33.78100 45.11700 33.41100
H  33.73900 52.75500 29.04500
H  33.52600 51.39800 22.73700
H  35.81400 45.58200 24.01900
H  33.97000 48.54100 31.61200
H  34.63300 51.22200 31.33300
H  32.40300 51.64400 31.62000
H  32.18200 49.86700 31.84300
H  31.95300 50.60400 30.29700
H  36.36500 50.20700 31.64900
H  36.75500 48.46200 31.07200
H  37.21500 48.15400 33.06800
H  35.54600 48.08500 33.33200
H  34.01700 55.39600 26.80800
H  33.39000 54.57800 28.22400
H  32.29000 54.96900 26.96800
H  31.78800 55.75200 24.48400
H  32.73600 55.91200 23.00600
H  33.59100 56.05700 24.46600
H  35.22100 49.55800 21.39300
H  34.28800 46.73000 22.15500
H  32.32700 48.98800 21.82300
H  33.05800 47.96200 20.59700
H  33.22400 49.75500 20.43900
H  37.02200 46.56600 22.13400
H  36.72500 47.90500 21.03600
H  35.60500 46.21400 19.48300
H  35.62500 45.10500 20.84100
H  37.13000 45.62800 19.93900
H  37.07900 43.71800 25.48500
H  35.32700 43.22200 25.52700
H  36.34000 42.91300 26.84300
H  36.28400 46.40900 30.65500
H  32.73600 45.12700 33.10100
H  33.93200 45.80200 34.24500
H  34.11300 44.13100 33.73800

