158

Mg 41.05600 8.54400 28.92800
C  42.64300 10.01600 31.75500
C  38.79700 7.15600 31.03800
C  39.55500 7.09900 26.29500
C  43.59300 9.55800 26.89400
N  40.76800 8.63300 31.17500
C  41.47200 9.37800 32.10300
C  40.86400 9.19700 33.46200
C  39.62500 8.23500 33.23600
C  39.75400 7.97000 31.71500
C  39.42800 6.86400 34.06800
C  40.48300 10.61400 34.11300
C  39.69600 10.46700 35.40800
H  40.30800 11.35000 36.56300
N  39.31000 7.37400 28.72400
C  38.52400 6.94100 29.66200
C  37.38300 6.21300 29.13300
C  37.55400 6.16300 27.73400
C  38.82600 6.95200 27.48100
C  36.27000 5.87700 30.10500
C  36.60300 5.55200 26.75800
O  36.71000 5.83100 25.56600
C  35.43700 4.65200 27.15900
N  41.44700 8.44200 26.88200
C  40.73700 7.68900 26.03700
C  41.26500 7.70100 24.57800
C  42.53000 8.56100 24.74900
C  42.56700 8.84200 26.25400
C  41.60900 6.30900 23.97600
C  42.76100 9.71600 23.79100
C  42.27100 11.12300 24.26700
N  42.78000 9.52600 29.24000
C  43.73300 9.86500 28.27800
C  44.76400 10.59600 29.06300
C  44.37100 10.77700 30.38400
C  43.14500 10.01900 30.46100
C  46.00100 11.15600 28.53300
C  44.77600 11.29000 31.67800
O  45.71500 11.96200 32.04400
C  43.60100 10.79900 32.59800
C  44.13800 9.86400 33.65500
O  44.49200 8.77800 33.47400
O  44.31000 10.59800 34.83400
C  44.91500 9.78800 35.91900
H  38.03000 6.83000 31.74300
H  39.17700 6.59800 25.40100
H  44.40200 9.94700 26.27300
H  41.67500 8.68500 33.98100
H  38.72500 8.85000 33.21500
H  38.46900 6.96100 34.57600
H  40.25000 6.78300 34.77900
H  39.20600 6.00600 33.43300
H  39.82200 11.22100 33.49400
H  41.34500 11.21000 34.41200
H  39.59600 9.42300 35.70500
H  38.67400 10.83200 35.31100
H  35.45100 6.47800 29.71000
H  36.33500 6.21500 31.13900
H  35.98000 4.82700 30.15500
H  34.73800 5.30800 27.67800
H  35.66300 3.80100 27.80200
H  34.95500 4.23100 26.27700
H  40.60100 8.17000 23.85100
H  43.38200 7.88100 24.72700
H  41.49700 5.43700 24.62100
H  42.65300 6.31500 23.66300
H  40.94900 5.99400 23.16800
H  42.59400 9.41500 22.75700
H  43.85000 9.74200 23.73600
H  41.37700 10.98000 24.87400
H  42.03100 11.68200 23.36200
H  43.16800 11.45500 24.78900
H  46.31400 12.12500 28.92400
H  45.66300 11.46600 27.54400
H  46.84500 10.46800 28.56300
H  43.07500 11.57500 33.15400
H  44.14900 9.38100 36.57800
H  45.55500 10.44300 36.50900
H  45.53300 8.98400 35.51900
Mg 0.61800 43.62100 25.56800
C  2.83800 43.51400 28.27100
C  -1.98800 42.94000 27.70000
C  -1.38700 43.78100 22.92900
C  3.41000 43.62000 23.43900
N  0.43300 43.20900 27.60100
C  1.47000 43.30000 28.57200
C  0.90800 43.00800 30.01000
C  -0.45900 42.43600 29.66100
C  -0.71800 42.93300 28.24100
C  -0.72400 40.87300 29.74400
C  0.79800 44.37200 30.84800
C  0.29800 44.34900 32.34500
H  0.28200 43.09600 33.13700
N  -1.42100 43.37500 25.32500
C  -2.32400 43.23800 26.36400
C  -3.67500 43.24000 25.90700
C  -3.53600 43.46700 24.51900
C  -2.06100 43.63500 24.20500
C  -4.81300 43.05700 26.75200
C  -4.62200 43.50000 23.53300
O  -4.33000 43.72200 22.38500
C  -6.06500 43.26200 23.93400
N  0.95400 43.47000 23.53500
C  -0.05400 43.58500 22.61500
C  0.45400 43.64500 21.17500
C  1.95800 43.89000 21.44100
C  2.12200 43.65300 22.90200
C  -0.00100 42.47900 20.16600
C  2.58000 45.26900 20.97600
C  2.19200 46.43400 21.81200
N  2.71200 43.51600 25.74800
C  3.71400 43.67300 24.79800
C  4.90400 43.81500 25.52000
C  4.66000 43.68500 26.83300
C  3.32500 43.60800 26.94300
C  6.23400 43.90300 24.97800
C  5.25900 43.71000 28.12500
O  6.41600 43.77900 28.43700
C  4.11400 43.45500 29.13900
C  4.21100 42.08000 29.77900
O  3.90400 41.01100 29.29500
O  4.71500 42.14900 31.06000
C  4.77600 40.80400 31.79700
H  -2.67900 42.69600 28.51000
H  -2.08500 43.79800 22.08800
H  4.14300 43.79900 22.64900
H  1.54500 42.23100 30.43200
H  -1.23400 42.92000 30.25600
H  -0.77900 40.36000 28.78400
H  -1.58800 40.69800 30.38500
H  0.15500 40.38500 30.16700
H  0.07900 45.02200 30.35000
H  1.74900 44.90000 30.78700
H  -0.70300 44.77700 32.39800
H  0.98300 44.97900 32.91200
H  -5.51500 43.86400 26.54300
H  -4.58400 42.98700 27.81600
H  -5.35100 42.12200 26.60100
H  -6.63200 42.99000 23.04400
H  -6.42800 44.11900 24.50000
H  -5.99500 42.35500 24.53500
H  0.15600 44.61700 20.78000
H  2.57400 43.20800 20.85400
H  -0.21000 42.98200 19.22200
H  -0.79400 41.86100 20.58600
H  0.88200 41.85500 20.02700
H  2.34600 45.45500 19.92800
H  3.66500 45.21200 21.07400
H  3.11500 46.80300 22.25900
H  1.44300 46.11400 22.53600
H  1.87000 47.28100 21.20600
H  6.85800 43.99700 25.86700
H  6.49000 44.82800 24.46200
H  6.48000 43.01200 24.39900
H  4.11500 44.21100 29.92400
H  3.78900 40.37800 31.97700
H  5.38300 40.78300 32.70200
H  5.25900 40.05500 31.16800

