158

Mg 2.39000 -1.28100 44.69300
C  5.45600 0.07800 43.81500
C  0.87300 1.03600 42.53900
C  -0.51600 -2.88900 45.24500
C  4.10700 -3.80000 46.39100
N  3.13200 0.34000 43.24300
C  4.47400 0.77700 43.21400
C  4.62000 1.89000 42.11000
C  3.13800 2.27200 41.85800
C  2.25900 1.14500 42.54400
C  2.69500 3.70100 42.31000
C  5.39000 1.37100 40.85100
C  6.62800 2.13200 40.47800
H  6.79900 2.47700 39.02100
N  0.40700 -0.91300 44.11700
C  0.00900 0.03700 43.19200
C  -1.36500 -0.06000 43.16000
C  -1.84400 -1.16800 43.92700
C  -0.61200 -1.76700 44.50000
C  -2.16800 0.94400 42.31400
C  -3.39100 -1.48700 44.19400
O  -4.23700 -0.85700 43.54700
C  -3.85400 -2.63400 45.05500
N  1.88200 -3.07200 45.66900
C  0.64300 -3.55600 45.75100
C  0.55500 -4.98300 46.26700
C  2.03000 -5.34100 46.42600
C  2.79100 -4.02100 46.04200
C  -0.14800 -5.15000 47.63000
C  2.63500 -6.60400 45.73400
C  3.45600 -7.63600 46.63000
N  4.31800 -1.75900 45.11800
C  4.82300 -2.79000 45.79600
C  6.25800 -2.66300 45.90100
C  6.58600 -1.55300 45.12900
C  5.39400 -1.05000 44.63100
C  7.11100 -3.60900 46.68200
C  7.64300 -0.67100 44.65200
O  8.87000 -0.69500 44.76200
C  6.95400 0.42900 43.76600
C  7.19500 1.77800 44.39200
O  6.76400 2.15800 45.47500
O  7.90000 2.62100 43.61300
C  8.40500 3.88900 44.11600
H  0.34700 1.72600 41.87600
H  -1.49400 -3.36700 45.32700
H  4.65300 -4.70400 46.66800
H  5.20900 2.63500 42.64400
H  3.06000 2.14100 40.77900
H  3.61600 4.28300 42.34200
H  2.34000 3.68500 43.34000
H  1.98000 4.07000 41.57400
H  4.80400 1.40700 39.93300
H  5.62800 0.33800 41.10500
H  7.52000 1.61000 40.82500
H  6.70800 3.01300 41.11400
H  -1.98700 0.62300 41.28900
H  -1.79200 1.96600 42.35900
H  -3.25400 0.86400 42.37100
H  -3.49800 -3.62900 44.79000
H  -4.94300 -2.58500 45.06400
H  -3.57500 -2.53000 46.10400
H  0.03100 -5.51900 45.47600
H  2.23300 -5.42300 47.49300
H  -0.50300 -4.17900 47.97600
H  0.36900 -5.66400 48.44100
H  -1.04800 -5.74000 47.45500
H  3.27200 -6.21200 44.94200
H  1.80500 -7.21500 45.37900
H  3.69200 -7.50600 47.68600
H  4.46500 -7.71300 46.22700
H  2.91800 -8.58300 46.58900
H  7.60500 -4.35400 46.05900
H  6.50500 -4.15900 47.40200
H  7.93900 -3.11100 47.18700
H  7.43300 0.42100 42.78700
H  9.48000 3.80200 43.96300
H  8.25500 4.04700 45.18400
H  8.05700 4.81200 43.65000
Mg 5.70500 52.41400 41.89900
C  5.00800 48.99300 41.82800
C  8.62600 51.84300 40.20400
C  6.02500 55.65700 41.53400
C  2.31300 52.93300 42.95200
N  6.64400 50.62100 40.92600
C  6.26700 49.35000 41.20600
C  7.30700 48.38500 40.54400
C  8.63500 49.33500 40.70000
C  7.93900 50.68300 40.54300
C  9.42500 49.21900 42.01400
C  7.06300 47.96100 38.98800
C  6.03000 48.75100 38.25000
H  5.67700 48.24700 36.89200
N  7.25100 53.61000 41.12800
C  8.36200 53.17200 40.50700
C  9.20900 54.28400 40.21000
C  8.45000 55.48500 40.58200
C  7.20400 54.94900 41.07400
C  10.50100 54.18200 39.41400
C  8.94600 56.92200 40.49500
O  10.10700 57.15900 40.13800
C  8.06000 58.11100 40.85900
N  4.24700 54.09200 41.99300
C  4.77500 55.35700 41.95900
C  3.81600 56.35900 42.57800
C  2.55800 55.49000 42.90500
C  2.99100 54.09400 42.50800
C  4.40000 57.11700 43.80700
C  1.28300 55.95500 42.16400
C  0.08300 56.32000 43.04300
N  3.94000 51.23600 42.43900
C  2.68000 51.57900 42.94700
C  2.07100 50.32300 43.42300
C  2.93400 49.24900 42.96100
C  4.07600 49.89800 42.32300
C  0.79400 50.16000 44.12800
C  3.08100 47.87200 42.81800
O  2.33400 46.98200 43.17500
C  4.42400 47.61200 42.09300
C  4.09600 46.73300 40.88600
O  3.37500 47.05400 39.94000
O  4.67500 45.47100 40.99700
C  4.62300 44.68100 39.80200
H  9.62900 51.60700 39.84200
H  6.25100 56.72300 41.45500
H  1.41800 53.21500 43.51000
H  7.57800 47.51400 41.14100
H  9.32300 49.13400 39.87900
H  8.99200 48.37700 42.55400
H  9.36800 50.21700 42.45000
H  10.50000 49.11400 41.87000
H  7.00500 46.87300 38.95200
H  7.97400 48.09600 38.40400
H  6.26800 49.81300 38.19200
H  5.10000 48.64300 38.80900
H  10.17200 53.83000 38.43600
H  11.13900 53.38600 39.79900
H  11.05800 55.10200 39.23500
H  8.47800 59.11000 40.73500
H  7.77500 57.98300 41.90400
H  7.10800 58.22200 40.34100
H  3.69500 57.12300 41.81000
H  2.34800 55.59700 43.96900
H  5.41400 56.87000 44.12200
H  3.72800 57.02100 44.65900
H  4.51200 58.17400 43.56500
H  0.99800 55.17100 41.46300
H  1.55100 56.88900 41.67100
H  0.43400 56.74800 43.98300
H  -0.55700 55.44300 43.13200
H  -0.60300 57.02000 42.56700
H  0.74300 49.13500 44.49700
H  -0.10200 50.30200 43.52400
H  1.01500 50.79900 44.98300
H  5.14400 47.15100 42.76900
H  5.68600 44.54300 39.60500
H  4.20500 45.06400 38.87100
H  4.18800 43.70500 40.01700

