158

Mg 36.05500 2.48700 30.28600
C  33.41300 3.44900 32.34800
C  38.22500 2.48100 32.99900
C  38.56400 1.34900 28.26900
C  33.80200 2.31800 27.59200
N  35.82900 2.88000 32.39700
C  34.62500 3.21300 33.01400
C  34.86300 3.31300 34.53800
C  36.40300 3.40300 34.63800
C  36.90200 2.88000 33.21300
C  36.74400 4.89100 34.74100
C  34.19500 2.03000 35.20400
C  33.69100 2.05100 36.65100
H  34.34100 3.07500 37.66200
N  38.11300 2.00800 30.54400
C  38.78800 2.08500 31.73700
C  40.14700 1.72900 31.55700
C  40.24800 1.40300 30.19900
C  38.96700 1.57600 29.59300
C  41.12400 1.57300 32.70900
C  41.45300 0.91200 29.44000
O  41.43000 0.64300 28.23400
C  42.77900 0.76400 30.13100
N  36.21600 2.12500 28.15800
C  37.27900 1.51200 27.63800
C  37.02000 1.07100 26.17400
C  35.48100 1.09900 26.09200
C  35.16400 1.92200 27.35700
C  37.68000 2.03700 25.10800
C  34.78100 -0.25400 26.17800
C  33.95000 -0.57900 24.89700
N  34.10700 3.05700 29.89300
C  33.32000 2.92300 28.80200
C  31.90600 3.23300 29.17300
C  31.94700 3.47700 30.57500
C  33.29200 3.37600 30.91400
C  30.70800 3.13300 28.30100
C  31.15000 3.88700 31.71900
O  29.99200 4.23900 31.85200
C  32.11400 3.80000 32.91400
C  31.98100 5.14300 33.58600
O  32.38900 6.16300 33.21500
O  31.55100 4.91900 34.84600
C  31.79500 6.01500 35.79800
H  38.83100 2.61400 33.89800
H  39.23700 0.87000 27.55500
H  32.99400 2.04300 26.91100
H  34.35800 4.18600 34.95300
H  36.69800 2.88400 35.55100
H  37.54500 5.16100 34.05200
H  36.97800 5.17100 35.76800
H  35.89300 5.54100 34.53600
H  34.88200 1.20600 35.01500
H  33.36800 1.70800 34.57000
H  33.58100 1.06300 37.09600
H  32.69000 2.41800 36.42200
H  40.61700 1.36100 33.65100
H  41.53100 2.55900 32.93100
H  42.02400 0.98100 32.54900
H  43.08700 1.63500 30.70800
H  43.53000 0.59600 29.36000
H  42.81000 -0.18600 30.66500
H  37.38400 0.05400 26.03300
H  35.11800 1.71400 25.26800
H  37.08500 2.09800 24.19700
H  38.64500 1.67300 24.75600
H  37.61500 3.06100 25.47700
H  33.95900 -0.19700 26.89300
H  35.47400 -1.04000 26.47700
H  33.82000 -1.64400 24.70600
H  34.52800 -0.17600 24.06500
H  33.03300 -0.00000 24.77700
H  30.68900 2.18600 27.76200
H  30.81300 3.93200 27.56700
H  29.76700 3.17700 28.85000
H  31.68000 2.93500 33.41500
H  30.94000 6.68700 35.86200
H  32.70400 6.56000 35.54500
H  31.94500 5.55900 36.77700
Mg -1.59600 35.19600 27.28200
C  -3.73600 33.12600 29.33000
C  -0.80900 36.97600 30.10900
C  0.24500 37.20500 25.26800
C  -2.59600 33.30200 24.58400
N  -2.23900 35.03400 29.44500
C  -2.86500 33.97300 30.04200
C  -2.71000 34.02300 31.57600
C  -2.04200 35.45200 31.84700
C  -1.59200 35.78600 30.43500
C  -2.95700 36.57000 32.35400
C  -1.92600 32.84500 32.23500
C  -2.65600 32.10200 33.37500
H  -1.96600 31.86300 34.75600
N  -0.60700 36.92500 27.61100
C  -0.32600 37.48000 28.87600
C  0.53300 38.62700 28.67000
C  0.85600 38.72700 27.28500
C  0.17800 37.59100 26.69900
C  0.89000 39.55000 29.83800
C  1.64300 39.81100 26.46900
O  1.68300 39.82400 25.25700
C  2.37100 40.96200 27.12000
N  -1.20200 35.22400 25.20500
C  -0.38600 36.15600 24.61900
C  -0.37800 35.93700 23.05200
C  -1.11500 34.57400 22.93300
C  -1.74200 34.36100 24.30000
C  -1.02100 37.11800 22.07300
C  -0.09800 33.43500 22.41700
C  0.51300 32.49900 23.44800
N  -2.93800 33.57300 26.94200
C  -3.24300 32.90800 25.77200
C  -4.21000 31.84800 26.04400
C  -4.40100 31.93100 27.42700
C  -3.61400 32.99400 27.95400
C  -4.94800 30.97200 25.06300
C  -5.02800 31.24500 28.49100
O  -5.81800 30.32300 28.51900
C  -4.55500 31.97200 29.79300
C  -5.74800 32.38600 30.57100
O  -6.75800 32.93000 30.19400
O  -5.59800 32.00600 31.85300
C  -6.67700 32.20100 32.86000
H  -0.42000 37.40400 31.03500
H  0.88000 37.80500 24.61200
H  -2.79000 32.84400 23.61100
H  -3.73100 34.05800 31.95400
H  -1.24300 35.35600 32.58200
H  -2.59000 36.89900 33.32600
H  -3.92600 36.11200 32.55400
H  -3.03600 37.45600 31.72400
H  -0.96800 33.31900 32.45000
H  -1.73900 32.12500 31.43800
H  -2.67800 31.04900 33.09300
H  -3.70300 32.39900 33.43700
H  1.95800 39.58100 30.05100
H  0.49500 39.25800 30.81100
H  0.63700 40.59200 29.64200
H  1.70300 41.46800 27.81700
H  2.67400 41.62200 26.30700
H  3.22700 40.65700 27.72100
H  0.65900 35.85100 22.72900
H  -1.95500 34.64900 22.24300
H  -1.45400 37.87200 22.73200
H  -1.88500 36.87700 21.45400
H  -0.21600 37.59100 21.51000
H  0.81700 33.96900 22.16200
H  -0.50600 32.91600 21.55000
H  1.55500 32.78300 23.59600
H  0.38600 31.47000 23.11000
H  -0.13800 32.57900 24.31800
H  -5.90200 30.66700 25.49400
H  -4.23900 30.16700 24.86600
H  -5.15200 31.63700 24.22300
H  -3.84700 31.30800 30.29000
H  -7.43500 32.84800 32.41900
H  -6.25000 32.71900 33.71800
H  -7.03300 31.20600 33.12600

