158

Mg 4.46400 53.87800 40.46100
C  4.69900 50.44200 40.87500
C  7.58700 53.80900 38.86000
C  4.11500 57.08000 39.73400
C  1.28600 53.81500 42.07500
N  5.83600 52.26500 39.74300
C  5.75200 50.93300 40.13600
C  6.99200 50.17100 39.69600
C  8.06500 51.33700 39.40500
C  7.10100 52.54600 39.30500
C  9.22800 51.50400 40.33000
C  6.83200 49.23000 38.47200
C  5.74100 49.45000 37.44500
H  6.11700 49.60400 36.01400
N  5.64300 55.24900 39.31700
C  6.90500 55.04800 38.82300
C  7.44100 56.32000 38.42000
C  6.43500 57.32800 38.69000
C  5.30300 56.58000 39.20900
C  8.87600 56.52200 38.02600
C  6.60300 58.87300 38.56900
O  7.73300 59.28300 38.27400
C  5.56400 59.92900 38.93800
N  2.79500 55.21500 40.65500
C  3.01100 56.52600 40.38500
C  1.90000 57.41500 40.99400
C  0.89200 56.31500 41.58800
C  1.68100 55.04000 41.44500
C  2.41100 58.32500 42.16400
C  -0.45300 56.19700 40.82900
C  -1.39000 57.29300 40.57500
N  3.15300 52.49300 41.37200
C  1.97100 52.59400 42.00000
C  1.68300 51.38100 42.72900
C  2.73900 50.48000 42.33000
C  3.60500 51.18400 41.46700
C  0.56700 51.07700 43.60700
C  3.19300 49.16500 42.42200
O  2.71700 48.13700 42.95000
C  4.35900 49.02400 41.38800
C  3.88700 48.14400 40.22000
O  3.24000 48.60600 39.26600
O  4.31300 46.81000 40.27800
C  3.93700 45.94700 39.13600
H  8.64900 53.79800 38.60500
H  4.02400 58.16800 39.73500
H  0.33800 53.85400 42.61600
H  7.43300 49.65300 40.54700
H  8.38200 51.18500 38.37300
H  9.08500 52.38800 40.95100
H  10.18500 51.68200 39.84000
H  9.37400 50.59600 40.91500
H  6.72400 48.23700 38.90800
H  7.74100 49.19500 37.87200
H  5.08800 50.25700 37.77700
H  5.17900 48.51900 37.51900
H  8.89700 56.76300 36.96300
H  9.37800 55.56400 37.88600
H  9.47900 57.31200 38.47500
H  5.92500 60.82700 38.43700
H  5.57300 60.06000 40.02000
H  4.59300 59.63700 38.53900
H  1.39100 58.03200 40.25200
H  0.78200 56.47000 42.66200
H  3.43600 58.12400 42.47500
H  1.65900 58.31000 42.95300
H  2.30500 59.37400 41.88800
H  -0.98300 55.38100 41.32000
H  -0.26100 55.79900 39.83300
H  -2.38600 56.89300 40.76200
H  -1.34700 57.61200 39.53300
H  -1.12600 58.14000 41.20900
H  -0.36600 51.50500 43.24100
H  0.83300 51.47600 44.58600
H  0.48600 50.00300 43.77100
H  5.22500 48.54200 41.84200
H  2.85400 45.89800 39.01900
H  4.32900 44.96400 39.39700
H  4.39200 46.40300 38.25600
Mg 0.96000 42.95900 26.10500
C  2.08000 43.03600 29.43400
C  -2.25900 42.75100 27.35700
C  -0.13600 42.49900 22.92000
C  4.14400 43.05200 25.01800
N  0.08300 42.91000 28.27100
C  0.68600 42.99300 29.41200
C  -0.30700 42.79200 30.57500
C  -1.67600 42.82200 29.88800
C  -1.27700 42.80800 28.41000
C  -2.69000 41.74300 30.18200
C  -0.21300 43.89700 31.67000
C  -0.15600 43.36000 33.11600
H  -0.95300 42.10100 33.55200
N  -0.94700 42.73400 25.30000
C  -2.15000 42.72800 25.92800
C  -3.23500 42.54600 24.99400
C  -2.65500 42.60900 23.63500
C  -1.17600 42.66200 23.88900
C  -4.64200 42.47800 25.33200
C  -3.27900 42.46800 22.28400
O  -2.69800 42.58300 21.15400
C  -4.76900 42.24100 22.19500
N  1.82100 42.89600 24.17900
C  1.22300 42.65900 22.98200
C  2.24700 42.46100 21.85500
C  3.53900 42.87700 22.58100
C  3.19400 42.90600 24.04600
C  2.17500 40.94900 21.37600
C  4.11800 44.16000 22.01200
C  3.21200 45.42600 21.95200
N  2.75900 43.10800 26.95800
C  3.96300 43.16000 26.42800
C  5.03800 43.28000 27.40800
C  4.30700 43.24900 28.55900
C  2.92200 43.12800 28.30500
C  6.47600 43.37700 27.33200
C  4.45100 43.24300 29.99100
O  5.50800 43.30000 30.64200
C  3.07700 43.05800 30.66500
C  3.22100 41.76400 31.49100
O  3.48100 40.69400 31.00400
O  2.90900 41.92200 32.84000
C  3.05000 40.76200 33.73800
H  -3.31600 42.84500 27.61500
H  -0.35000 42.29800 21.86800
H  5.15200 43.17400 24.61400
H  -0.01200 41.85600 31.04900
H  -2.22000 43.73900 30.11100
H  -2.32600 40.75800 30.47500
H  -3.30000 41.56800 29.29600
H  -3.32800 42.18300 30.94800
H  -1.08700 44.54800 31.62700
H  0.63600 44.53700 31.42900
H  -0.46600 44.17400 33.77100
H  0.92100 43.23300 33.22000
H  -5.02400 41.47300 25.15400
H  -5.26900 43.15600 24.75200
H  -4.85700 42.87300 26.32400
H  -4.94000 42.26700 21.11900
H  -5.36100 43.07400 22.57700
H  -4.80200 41.25400 22.65600
H  1.94100 43.08500 21.01500
H  4.27000 42.07500 22.48100
H  3.10800 40.41500 21.20100
H  1.76200 40.97100 20.36700
H  1.62400 40.42200 22.15400
H  4.44900 44.01800 20.98300
H  4.94200 44.52200 22.62700
H  2.30800 45.22900 22.52800
H  3.03000 45.71200 20.91600
H  3.72900 46.32700 22.28200
H  6.75500 44.41000 27.12500
H  6.90200 42.78700 26.52000
H  6.77600 43.03300 28.32100
H  2.91500 43.93000 31.29900
H  2.94500 41.01200 34.79400
H  3.92200 40.13100 33.56500
H  2.14200 40.20600 33.50700

