158

Mg 35.48800 1.45600 29.40900
C  33.46600 2.46200 32.05700
C  38.19500 1.40700 31.52000
C  37.67700 0.93300 26.77500
C  32.82400 1.90500 27.19800
N  35.78200 1.93400 31.59900
C  34.82000 2.21200 32.50100
C  35.41300 2.16500 33.90300
C  36.98000 2.24000 33.62600
C  37.01700 1.80800 32.15100
C  37.62700 3.67300 33.82700
C  34.90900 0.91300 34.70700
C  34.64100 1.09900 36.17100
H  35.06300 2.34100 36.87500
N  37.63900 1.04700 29.20400
C  38.51900 1.07900 30.25200
C  39.81200 0.69000 29.67300
C  39.73200 0.55600 28.28100
C  38.31000 0.89900 28.01500
C  41.03300 0.54600 30.72500
C  40.84400 0.26700 27.20800
O  40.77700 0.16000 25.94800
C  42.27800 -0.13100 27.79100
N  35.32400 1.32100 27.41200
C  36.33200 1.11500 26.47000
C  35.85800 1.05200 25.01900
C  34.31200 1.03500 25.24500
C  34.10700 1.42600 26.70000
C  36.48500 2.17900 24.16300
C  33.66400 -0.20200 24.78800
C  33.19400 -1.26100 25.87500
N  33.54600 2.12500 29.49900
C  32.54700 2.26700 28.54200
C  31.33000 2.78200 29.15900
C  31.63100 2.75700 30.53400
C  33.03300 2.50700 30.67900
C  30.03500 3.14400 28.43900
C  31.04400 2.87900 31.86300
O  29.87700 3.00200 32.21700
C  32.27200 2.78700 32.90700
C  32.36600 3.95700 33.62700
O  32.61900 5.08000 33.15000
O  31.89500 3.79500 34.92100
C  31.56000 5.00600 35.62800
H  39.09000 1.54100 32.13100
H  38.34500 0.79400 25.92300
H  32.03300 2.01100 26.45300
H  35.05000 3.05600 34.41600
H  37.55000 1.55000 34.24800
H  36.88300 4.32900 34.27900
H  37.74900 4.09400 32.82900
H  38.60700 3.60600 34.30000
H  35.57000 0.04900 34.63200
H  33.94800 0.66400 34.25700
H  35.15300 0.21700 36.55600
H  33.57900 1.01400 36.40100
H  41.85000 -0.09900 30.40000
H  40.77800 0.01800 31.64300
H  41.41200 1.56500 30.80500
H  42.60900 0.67800 28.44200
H  43.03300 -0.33900 27.03200
H  42.05200 -0.98800 28.42700
H  36.18000 0.11000 24.57500
H  33.77400 1.75600 24.63000
H  37.03900 1.70400 23.35300
H  37.14100 2.84600 24.72300
H  35.70900 2.75900 23.66200
H  34.38500 -0.74600 24.17800
H  32.78000 0.15400 24.26100
H  32.11100 -1.30900 25.76200
H  33.55600 -1.17600 26.89900
H  33.67200 -2.14900 25.46100
H  29.17400 2.82700 29.02700
H  30.01500 2.60000 27.49400
H  29.95100 4.20000 28.18200
H  32.01700 1.93600 33.53800
H  30.77600 4.78800 36.35300
H  31.30100 5.85600 34.99700
H  32.50200 5.29000 36.09800
Mg 41.12800 7.91600 28.75700
C  42.93900 9.20300 31.44300
C  38.74500 6.75100 31.02200
C  39.52000 6.39800 26.19300
C  43.75900 8.84700 26.68000
N  40.94800 7.86300 31.02200
C  41.78500 8.57100 31.92200
C  41.26200 8.50600 33.32000
C  39.94500 7.67600 33.21000
C  39.90900 7.33600 31.68400
C  39.82800 6.43200 34.16500
C  41.24500 9.89900 34.03400
C  40.45400 10.04300 35.32800
H  41.36400 10.00000 36.63900
N  39.31400 6.84100 28.59100
C  38.46600 6.49700 29.66500
C  37.35400 5.77800 29.09000
C  37.47500 5.72700 27.64900
C  38.86200 6.25200 27.40800
C  36.24300 5.20900 29.85900
C  36.46200 5.42200 26.55700
O  36.64000 5.61600 25.40600
C  35.03800 5.03600 26.93800
N  41.58100 7.66400 26.74300
C  40.81600 6.93500 25.89800
C  41.37200 6.95200 24.43800
C  42.58600 7.96800 24.60400
C  42.61200 8.28600 26.08300
C  41.69700 5.55600 23.91200
C  42.38200 9.29700 23.80700
C  40.99900 10.00200 23.80200
N  43.01300 8.77800 28.94000
C  43.94200 9.12900 28.05100
C  45.02700 9.77600 28.64100
C  44.60300 9.88800 29.94900
C  43.42800 9.23700 30.10800
C  46.10700 10.47800 27.81000
C  44.91500 10.54300 31.18200
O  45.78700 11.43600 31.33400
C  43.83200 10.07000 32.22100
C  44.52700 9.24300 33.31800
O  44.73400 8.04500 33.44100
O  44.87900 10.14700 34.33800
C  45.72900 9.61000 35.38400
H  37.99200 6.52300 31.77900
H  38.98100 6.01300 25.32500
H  44.42500 9.35100 25.97600
H  42.04900 7.87200 33.72700
H  39.13000 8.38300 33.36400
H  39.61600 5.50800 33.62800
H  38.87300 6.61100 34.65900
H  40.57800 6.36900 34.95400
H  41.04200 10.71200 33.33700
H  42.29100 10.00600 34.32400
H  39.87000 9.13800 35.49400
H  39.83900 10.94300 35.32100
H  36.29600 5.29300 30.94500
H  36.07800 4.18700 29.51800
H  35.32600 5.67900 29.50600
H  34.98700 4.30400 27.74400
H  34.49500 4.74500 26.03800
H  34.46000 5.83300 27.40500
H  40.50000 7.32800 23.90300
H  43.54200 7.53600 24.31100
H  41.75900 4.94900 24.81500
H  42.70600 5.62600 23.50500
H  40.84700 5.28000 23.28900
H  42.59100 9.06700 22.76300
H  43.11900 9.97300 24.24200
H  41.25900 10.97800 24.21000
H  40.26600 9.57600 24.48700
H  40.55000 10.13300 22.81700
H  46.88600 10.90200 28.44500
H  45.49200 11.27500 27.39300
H  46.61900 10.02700 26.96000
H  43.40600 10.94300 32.71500
H  45.05200 9.52700 36.23400
H  46.56100 10.22900 35.72000
H  46.14400 8.60800 35.28200

