158

Mg 47.04900 15.79500 28.22300
C  44.92400 15.60100 31.03200
C  49.27000 17.37300 30.43400
C  49.16300 16.26300 25.63900
C  44.64900 14.48700 26.27900
N  47.05900 16.45400 30.50500
C  46.12800 16.15300 31.43000
C  46.59600 16.41500 32.87800
C  47.91100 17.19900 32.57600
C  48.12600 16.99600 31.09000
C  47.96200 18.72200 32.99100
C  46.66800 15.12100 33.77700
C  46.25700 15.39000 35.25900
H  46.10800 16.82000 35.78500
N  48.98000 16.58600 28.04800
C  49.75800 17.10900 29.07600
C  51.04400 17.29400 28.54100
C  51.03600 17.06300 27.09400
C  49.67400 16.58300 26.86500
C  52.18300 17.75000 29.33800
C  52.17500 17.18800 26.05100
O  52.19600 16.75900 24.89500
C  53.51600 17.80800 26.48800
N  46.97600 15.36300 26.27800
C  47.88600 15.74300 25.36100
C  47.51900 15.39400 23.92300
C  46.11900 14.76400 24.16200
C  45.88400 14.79500 25.68800
C  47.64100 16.52400 22.86000
C  46.01300 13.29200 23.72000
C  45.08400 13.15200 22.59000
N  45.12700 15.17000 28.53900
C  44.28200 14.58100 27.62300
C  43.10100 14.18600 28.31900
C  43.30400 14.54700 29.64900
C  44.55300 15.13700 29.73600
C  41.95500 13.51400 27.63300
C  42.69500 14.54800 31.03400
O  41.66000 14.08400 31.40000
C  43.82800 15.12000 31.99200
C  43.19400 16.26500 32.79800
O  43.21800 17.47600 32.52100
O  42.55800 15.66900 33.90200
C  41.90100 16.65500 34.77000
H  49.98500 17.96900 31.00600
H  49.73900 16.61400 24.77900
H  43.86200 14.08600 25.63700
H  45.84000 17.08000 33.29400
H  48.66900 16.67400 33.15700
H  46.95500 18.99700 33.30300
H  48.27700 19.35000 32.15800
H  48.73000 18.73900 33.76500
H  47.70300 14.80400 33.90800
H  46.21500 14.30200 33.21900
H  46.92600 14.84100 35.92100
H  45.29400 14.88300 35.32800
H  53.13400 17.36800 28.96700
H  52.02900 17.33800 30.33600
H  52.17600 18.84000 29.34000
H  53.50900 18.70300 27.11000
H  54.10000 18.02700 25.59500
H  54.09200 17.02500 26.98100
H  48.19400 14.59500 23.61600
H  45.40000 15.42300 23.67400
H  47.35200 17.50100 23.24700
H  47.07400 16.16200 22.00200
H  48.66300 16.61800 22.49500
H  45.74400 12.59700 24.51600
H  47.02500 13.02400 23.41500
H  45.47700 12.39700 21.90900
H  45.01200 14.11100 22.07700
H  44.10900 12.89800 23.00500
H  41.74200 14.08000 26.72700
H  41.02800 13.48600 28.20500
H  42.22700 12.50000 27.34000
H  44.08800 14.26700 32.61800
H  40.95300 17.03500 34.39100
H  42.48000 17.57400 34.86700
H  41.71700 16.25000 35.76500
Mg -5.28400 25.41700 25.83300
C  -3.80800 26.93300 28.62000
C  -6.88600 23.22700 28.12500
C  -6.60600 23.74800 23.25900
C  -3.49700 27.44100 23.78100
N  -5.50100 25.22400 28.08400
C  -4.70900 25.92700 28.97900
C  -5.01000 25.45100 30.42000
C  -5.84000 24.16300 30.23800
C  -6.16100 24.25400 28.73000
C  -5.10600 22.88400 30.60100
C  -5.71100 26.59800 31.22300
C  -6.50100 26.36000 32.53100
H  -6.19200 25.09600 33.34100
N  -6.59700 23.70700 25.70600
C  -7.14300 22.93400 26.76600
C  -7.99900 21.95000 26.19500
C  -8.01400 22.12500 24.76900
C  -7.11100 23.23900 24.49500
C  -8.61300 20.88600 27.06600
C  -8.82700 21.34000 23.75600
O  -8.84800 21.68600 22.59000
C  -9.52100 20.02700 24.17200
N  -5.04100 25.61900 23.75900
C  -5.68600 24.80100 22.88900
C  -5.41900 25.21800 21.47300
C  -4.42300 26.36600 21.63600
C  -4.31100 26.52500 23.14100
C  -4.77900 24.03500 20.66000
C  -4.92200 27.63500 20.96500
C  -4.32900 27.83900 19.58900
N  -3.86700 26.85400 26.06200
C  -3.24500 27.60700 25.14100
C  -2.36400 28.64500 25.76800
C  -2.50200 28.37300 27.09500
C  -3.43300 27.33100 27.25600
C  -1.59400 29.70000 24.98900
C  -2.09500 28.74700 28.42100
O  -1.33000 29.64000 28.74700
C  -2.77000 27.79500 29.43700
C  -1.82000 27.01800 30.33000
O  -1.12200 26.08400 29.91100
O  -1.94400 27.48000 31.59100
C  -1.23800 26.72000 32.60200
H  -7.37600 22.61600 28.88600
H  -7.12700 23.23700 22.44600
H  -2.84100 28.05900 23.16400
H  -4.05200 25.19600 30.87200
H  -6.77800 24.34900 30.76100
H  -5.86600 22.21200 30.99900
H  -4.28000 22.95200 31.30900
H  -4.62700 22.46100 29.71700
H  -6.37300 27.15400 30.55900
H  -4.91600 27.29500 31.48900
H  -7.56900 26.38400 32.31700
H  -6.46100 27.18500 33.24200
H  -8.53300 19.88900 26.63200
H  -9.67800 21.09500 27.17100
H  -8.18200 20.75400 28.05800
H  -8.89900 19.35700 24.76500
H  -9.76000 19.50900 23.24400
H  -10.47000 20.24500 24.66200
H  -6.35700 25.54500 21.02400
H  -3.44700 26.12900 21.21200
H  -5.53900 23.46000 20.13100
H  -4.11900 23.45700 21.30700
H  -4.11000 24.42200 19.89100
H  -4.77600 28.38000 21.74700
H  -5.98500 27.46700 20.78900
H  -3.63900 27.04600 19.30400
H  -3.64300 28.68500 19.56000
H  -5.03400 28.03200 18.77900
H  -2.05300 29.92100 24.02500
H  -0.53000 29.46300 25.00600
H  -1.66700 30.58800 25.61700
H  -3.30800 28.45900 30.11300
H  -0.18700 26.74500 32.31400
H  -1.53200 25.67100 32.63100
H  -1.15800 27.30000 33.52100

