158

Mg 25.92500 -1.37900 29.52200
C  27.96000 -1.47400 32.39800
C  23.20100 -0.99100 31.45000
C  24.00800 -1.32200 26.76200
C  28.78300 -2.21100 27.65000
N  25.67500 -1.08700 31.70400
C  26.63800 -1.22200 32.67700
C  26.00600 -0.97300 34.07200
C  24.48100 -0.98600 33.71800
C  24.46200 -0.97900 32.18000
C  23.68600 -2.22500 34.29700
C  26.41900 0.30100 34.79200
C  26.69700 0.03700 36.24900
H  26.75200 1.23600 37.29800
N  23.86100 -1.26100 29.14400
C  22.89800 -1.09600 30.11800
C  21.57700 -1.16600 29.49100
C  21.83400 -0.96500 28.11100
C  23.28600 -1.17700 27.95100
C  20.26200 -1.24500 30.35100
C  20.82600 -0.55000 26.98100
O  21.05500 -0.50700 25.77000
C  19.40800 -0.39800 27.39300
N  26.32300 -1.83500 27.50700
C  25.36700 -1.68700 26.50500
C  26.02000 -1.67500 25.12400
C  27.52200 -2.10400 25.40300
C  27.53600 -2.15900 26.93100
C  25.31100 -2.61300 24.06900
C  28.68800 -1.23000 24.79700
C  28.67500 0.32900 25.02300
N  27.99700 -1.77100 29.85500
C  28.99800 -2.10500 29.02500
C  30.31800 -2.03000 29.72600
C  29.91500 -1.74000 31.04600
C  28.52100 -1.67100 31.11700
C  31.61900 -2.39400 29.11800
C  30.41200 -1.55000 32.44600
O  31.55200 -1.45700 32.85200
C  29.15500 -1.42100 33.34200
C  29.34000 -2.45600 34.42000
O  28.69100 -3.46600 34.31200
O  30.20300 -2.10700 35.37900
C  30.36700 -2.95600 36.53300
H  22.33300 -0.94000 32.11100
H  23.49800 -1.06000 25.83200
H  29.69500 -2.51200 27.13100
H  26.16900 -1.86200 34.68000
H  24.05600 -0.15100 34.27500
H  22.73300 -1.89100 34.70800
H  24.16200 -2.77900 35.10500
H  23.39400 -2.86600 33.46500
H  25.62200 1.03900 34.69800
H  27.25900 0.70100 34.22400
H  27.61500 -0.49000 36.50800
H  25.87600 -0.60700 36.56500
H  19.51500 -1.71500 29.71100
H  20.00200 -0.22100 30.62100
H  20.31700 -1.83000 31.26900
H  19.28100 0.21400 28.28600
H  19.04300 -1.42100 27.48000
H  18.81400 0.06200 26.60300
H  25.82600 -0.65800 24.78400
H  27.56400 -3.07800 24.91500
H  26.05300 -3.35300 23.77200
H  25.14000 -1.94600 23.22400
H  24.32300 -2.94600 24.38900
H  28.56600 -1.39100 23.72600
H  29.67700 -1.61600 25.04400
H  28.11900 0.58300 25.92500
H  28.35600 0.78700 24.08600
H  29.73400 0.56900 25.11900
H  32.31100 -1.62600 29.46400
H  31.67700 -2.49100 28.03400
H  31.99600 -3.33700 29.51300
H  29.26300 -0.48900 33.89500
H  30.33300 -4.03600 36.38800
H  29.57500 -2.70100 37.23700
H  31.37900 -2.70200 36.84800
Mg 16.40800 52.25500 25.31800
C  18.04100 51.21500 28.19700
C  13.59000 52.94200 27.08600
C  15.00200 53.15700 22.36000
C  19.02300 50.73700 23.43800
N  15.99300 52.16900 27.43600
C  16.83400 51.86300 28.45000
C  16.22300 52.14000 29.86700
C  14.78900 52.61700 29.46500
C  14.74200 52.51600 27.86200
C  13.59900 51.81900 30.20300
C  17.07900 53.20800 30.69900
C  17.73000 52.80200 32.05100
H  16.88300 52.01800 33.02400
N  14.57300 52.95600 24.80900
C  13.51000 53.20500 25.66600
C  12.36800 53.72900 24.92400
C  12.76700 53.87700 23.53100
C  14.20700 53.35900 23.49100
C  11.01500 54.01900 25.62900
C  12.03000 54.36700 22.28800
O  12.52300 54.62200 21.16000
C  10.65200 54.77900 22.40900
N  16.98000 52.07400 23.26500
C  16.23800 52.57600 22.20700
C  16.86300 52.20800 20.81500
C  18.28300 51.73100 21.26700
C  18.08700 51.42700 22.75400
C  16.02800 51.11300 20.10200
C  19.37700 52.79800 20.95200
C  20.06700 52.57900 19.62600
N  18.19100 51.14800 25.67100
C  19.11500 50.57300 24.83700
C  20.08000 49.86200 25.58100
C  19.65900 50.10200 26.94000
C  18.54600 50.92100 26.93000
C  21.37600 49.16200 25.21500
C  20.05400 49.73400 28.28200
O  20.96800 49.05000 28.71600
C  18.90300 50.45100 29.25800
C  18.20500 49.31600 29.88300
O  17.17600 48.83400 29.51000
O  18.83200 48.96500 31.05900
C  18.12100 48.00300 31.88500
H  12.73000 53.21000 27.70300
H  14.58500 53.46100 21.39800
H  19.91700 50.53600 22.84200
H  16.07700 51.19600 30.39100
H  14.59800 53.65500 29.73600
H  14.01900 51.15400 30.95800
H  13.03600 51.26500 29.45100
H  12.91700 52.52400 30.67600
H  16.52600 54.14700 30.71700
H  17.87900 53.52500 30.03000
H  18.17600 53.59900 32.64500
H  18.65600 52.26800 31.84000
H  10.34400 53.16400 25.54100
H  10.55000 54.91300 25.21300
H  11.09000 54.20800 26.70000
H  10.16000 55.10200 21.49200
H  10.59800 55.68100 23.01900
H  10.23300 54.00500 23.05300
H  17.06300 53.00400 20.09900
H  18.68900 50.84200 20.78500
H  15.70200 51.41900 19.10900
H  15.22900 50.71900 20.73000
H  16.68300 50.25200 19.97100
H  20.03700 52.94600 21.80600
H  18.91400 53.77600 20.82100
H  21.13500 52.41500 19.77000
H  19.99800 53.44000 18.96200
H  19.51200 51.80000 19.10300
H  21.74600 49.53600 24.26100
H  21.37100 48.07200 25.20400
H  22.15800 49.44600 25.92000
H  19.45100 51.00900 30.01700
H  17.89900 48.48100 32.83900
H  18.84700 47.22500 32.12200
H  17.16600 47.58400 31.56900

