158

Mg 34.16900 49.09200 25.54400
C  34.66600 47.32900 28.60800
C  32.29200 51.31900 27.48500
C  33.87200 50.99900 22.80700
C  35.65800 46.59700 23.81800
N  33.49600 49.18000 27.80600
C  33.93900 48.48100 28.86800
C  33.62500 49.14900 30.21600
C  32.59800 50.22000 29.79400
C  32.79400 50.25200 28.26300
C  31.13400 49.97700 30.28200
C  34.87500 49.71000 30.83100
C  34.88900 49.73800 32.39300
H  33.59400 49.59500 33.18700
N  33.26000 50.88000 25.23400
C  32.53700 51.64600 26.12500
C  32.10900 52.87100 25.47500
C  32.54400 52.86300 24.08400
C  33.26100 51.56100 23.98600
C  31.36200 53.93400 26.13300
C  32.26200 53.87500 22.94000
O  32.80300 53.71300 21.86200
C  31.44200 55.07900 23.19100
N  34.68800 48.84800 23.66200
C  34.36100 49.72300 22.65800
C  34.64700 49.08100 21.22100
C  35.51800 47.86100 21.61800
C  35.27500 47.74100 23.14200
C  33.43800 48.84600 20.44000
C  37.01300 47.98300 21.15600
C  37.97300 48.83300 22.09200
N  34.98000 47.28200 26.03000
C  35.54400 46.39400 25.23600
C  35.92700 45.15000 26.01700
C  35.61500 45.52500 27.34800
C  35.12200 46.86900 27.31000
C  36.48200 43.94100 25.55400
C  35.70500 45.00900 28.69500
O  35.97900 43.88700 29.13900
C  35.14300 46.28700 29.56700
C  33.99800 45.76600 30.34700
O  32.88800 45.44300 29.94900
O  34.42400 45.43800 31.58400
C  33.50800 44.54600 32.37100
H  31.64900 51.96000 28.09300
H  33.79700 51.58300 21.88700
H  36.16600 45.83300 23.22700
H  33.32200 48.35100 30.89400
H  32.88700 51.23500 30.06700
H  30.82100 48.93300 30.31500
H  30.46500 50.52400 29.61700
H  31.09900 50.30000 31.32200
H  34.94800 50.75700 30.53500
H  35.77600 49.19800 30.49400
H  35.20700 50.74200 32.67400
H  35.48500 48.92500 32.80600
H  31.14100 53.71300 27.17700
H  30.39500 53.89700 25.63200
H  31.98600 54.82700 26.08300
H  31.87000 55.78000 23.90800
H  30.45400 54.75100 23.51400
H  31.23700 55.59500 22.25400
H  35.23400 49.80900 20.66100
H  35.15100 46.93400 21.17600
H  32.62800 48.80100 21.16800
H  33.29800 47.84900 20.02000
H  33.27300 49.49900 19.58300
H  37.07400 48.35700 20.13400
H  37.46800 46.99300 21.20300
H  38.53300 49.48900 21.42600
H  38.61200 48.17800 22.68500
H  37.42900 49.46300 22.79600
H  37.08200 44.15800 24.67000
H  35.88800 43.05600 25.32500
H  37.21900 43.70300 26.32100
H  35.92900 46.67700 30.21200
H  33.19500 43.69200 31.77100
H  32.67300 45.19300 32.63900
H  34.02700 44.20700 33.26800
Mg -9.14400 18.72700 43.00900
C  -5.58300 18.04400 43.22000
C  -8.35600 21.85400 42.10700
C  -12.39100 19.11000 42.15900
C  -9.69800 15.22400 43.29100
N  -7.16400 19.77500 42.89100
C  -5.83200 19.39500 42.96500
C  -4.79900 20.45000 42.60300
C  -5.72000 21.71100 42.44000
C  -7.20500 21.09500 42.57700
C  -5.55900 22.89200 43.49500
C  -3.85100 20.07800 41.36900
C  -4.47700 19.35700 40.10900
H  -3.96700 19.89800 38.70500
N  -10.28400 20.36600 42.28600
C  -9.74500 21.57500 41.95100
C  -10.85300 22.43300 41.45200
C  -12.06700 21.72900 41.68200
C  -11.64100 20.31900 42.04100
C  -10.63700 23.81500 40.97500
C  -13.42700 22.25200 41.39000
O  -13.56700 23.41100 41.07800
C  -14.60400 21.39500 41.46500
N  -10.78200 17.34100 42.79300
C  -12.04800 17.78300 42.39700
C  -13.06500 16.64600 42.39800
C  -12.17100 15.41500 42.74000
C  -10.84400 16.03700 43.05800
C  -14.35900 16.86800 43.16100
C  -11.97800 14.42300 41.53400
C  -12.60700 13.05200 41.77200
N  -7.92200 16.92400 43.10000
C  -8.31600 15.63800 43.23600
C  -7.15400 14.80100 43.39400
C  -6.09800 15.69800 43.42000
C  -6.58200 16.98700 43.25300
C  -7.16700 13.26200 43.53000
C  -4.73200 15.74300 43.64600
O  -3.89000 14.85600 43.96400
C  -4.19100 17.23800 43.49400
C  -3.35500 17.75100 44.63700
O  -2.15300 17.84400 44.52100
O  -4.07200 17.90400 45.78900
C  -3.29100 18.30300 46.83100
H  -8.13400 22.90900 41.93600
H  -13.46100 19.17700 41.95400
H  -9.85800 14.14400 43.25600
H  -4.07500 20.53800 43.41300
H  -5.53400 22.20600 41.48700
H  -6.44400 22.91600 44.12900
H  -5.52000 23.83400 42.94900
H  -4.60100 22.87700 44.01600
H  -2.97000 19.50400 41.65600
H  -3.55700 21.07300 41.03700
H  -5.56300 19.27100 40.09000
H  -4.24000 18.29700 40.02100
H  -11.00500 24.05300 39.97700
H  -9.57100 23.99100 41.11800
H  -11.12700 24.57400 41.58500
H  -14.54800 20.75800 42.34800
H  -14.65300 20.66600 40.65600
H  -15.57700 21.88500 41.48800
H  -13.44100 16.60400 41.37500
H  -12.40300 14.82300 43.62500
H  -14.49700 15.99600 43.80000
H  -15.16100 16.92500 42.42500
H  -14.57500 17.77900 43.71900
H  -10.92100 14.26400 41.32100
H  -12.39500 14.83400 40.61500
H  -13.50300 12.90100 41.17000
H  -12.93800 13.02200 42.81000
H  -11.98300 12.17500 41.59900
H  -6.42600 13.07800 44.30800
H  -6.87000 12.70800 42.64000
H  -8.15000 12.86900 43.79000
H  -3.43000 17.29100 42.71600
H  -2.46800 18.96800 46.56900
H  -2.80600 17.44200 47.29300
H  -3.78500 18.67100 47.73000

