158

Mg 54.14500 23.79800 44.07400
C  51.32900 25.56400 43.14300
C  52.81600 20.98400 42.45100
C  57.16300 22.23200 44.18600
C  55.56600 26.76200 45.06400
N  52.25000 23.35400 42.91100
C  51.30200 24.24100 42.61800
C  50.15400 23.59500 41.74900
C  50.43400 22.06200 41.93700
C  51.91100 22.10500 42.42100
C  49.36900 21.38000 42.94000
C  50.39100 24.03300 40.33700
C  49.19300 24.54800 39.41500
H  48.74900 23.69700 38.24400
N  54.87500 21.87300 43.59000
C  54.12600 20.81100 43.02300
C  54.90400 19.65200 42.96500
C  56.04700 19.97800 43.72800
C  56.10300 21.44400 43.88800
C  54.39500 18.33700 42.38400
C  57.13000 19.04200 44.28800
O  57.07400 17.87000 43.94500
C  58.24400 19.42800 45.20700
N  56.19800 24.49900 44.25600
C  57.26000 23.61000 44.40400
C  58.53800 24.33600 44.98000
C  57.98100 25.78400 45.10800
C  56.52900 25.68000 44.80000
C  59.07700 23.75700 46.30600
C  58.78700 26.85400 44.25800
C  59.13000 28.15900 45.01200
N  53.51400 25.78000 44.38400
C  54.13400 26.87500 44.83800
C  53.19600 28.01700 45.03800
C  52.04600 27.53700 44.35600
C  52.29800 26.18400 43.96500
C  53.54300 29.42200 45.53600
C  50.70600 27.89600 43.80900
O  50.19300 29.02000 43.86400
C  50.23300 26.62000 43.09600
C  49.75700 27.00200 41.76400
O  50.47300 27.17100 40.76000
O  48.36100 27.16900 41.80700
C  47.57900 27.65400 40.63500
H  52.40000 19.99800 42.23400
H  58.16100 21.79800 44.27600
H  56.08800 27.57200 45.57800
H  49.13700 23.89200 42.00500
H  50.35400 21.46100 41.03100
H  48.90600 22.05100 43.66400
H  49.82100 20.46700 43.32700
H  48.54900 21.04300 42.30700
H  50.94600 23.29000 39.76400
H  51.06400 24.89000 40.34500
H  49.42700 25.52200 38.98400
H  48.32900 24.83000 40.01600
H  54.12400 18.66100 41.38000
H  53.53900 17.88100 42.88100
H  55.13000 17.53300 42.34600
H  59.09800 19.91800 44.74000
H  58.54000 18.48900 45.67500
H  57.92000 20.12400 45.98000
H  59.33800 24.27500 44.24300
H  58.23500 25.98900 46.14800
H  59.02500 22.67300 46.20900
H  58.39300 24.08600 47.08800
H  60.08900 24.12500 46.47800
H  58.11000 27.25800 43.50600
H  59.63800 26.31500 43.84100
H  60.15400 28.14500 45.38700
H  58.44500 28.40900 45.82200
H  59.18400 28.95000 44.26300
H  54.34700 29.87800 44.95900
H  53.80700 29.32000 46.58900
H  52.75100 30.16800 45.46700
H  49.42200 26.21000 43.69700
H  47.81300 28.68900 40.38500
H  46.51400 27.65800 40.86900
H  47.63600 27.10400 39.69600
Mg 47.10700 34.58100 28.05800
C  45.57000 32.82900 30.58500
C  47.33500 37.39500 30.35500
C  48.33300 36.57400 25.76200
C  46.27400 32.13700 25.83100
N  46.49300 35.00900 30.23900
C  45.96500 34.07400 31.03700
C  46.04800 34.65300 32.54100
C  46.23000 36.16700 32.38500
C  46.73800 36.17800 30.89200
C  44.91400 36.83300 32.42400
C  47.32400 34.03900 33.23600
C  47.24200 33.62000 34.75500
H  46.51200 34.66800 35.63600
N  47.80400 36.62700 28.12100
C  47.89100 37.56100 29.12700
C  48.57300 38.71700 28.72700
C  48.88300 38.54200 27.39000
C  48.24800 37.23200 27.00000
C  48.97300 39.85800 29.65000
C  49.72600 39.36000 26.53000
O  49.81100 39.10500 25.31200
C  50.42800 40.59400 27.07700
N  47.03400 34.49900 25.98200
C  47.80000 35.36000 25.29900
C  47.85600 34.77200 23.85800
C  47.58800 33.31200 24.04600
C  46.92900 33.30000 25.40700
C  46.83200 35.50700 22.84300
C  48.70400 32.25400 23.90900
C  48.58400 31.27000 22.66200
N  46.23400 32.77600 28.11800
C  45.89000 31.89400 27.14900
C  45.29000 30.63700 27.67200
C  45.09900 31.00400 29.06000
C  45.68100 32.25600 29.21700
C  44.98700 29.36600 26.93800
C  44.61300 30.58900 30.37100
O  44.20700 29.45900 30.73000
C  44.72700 31.80500 31.30100
C  45.30800 31.33800 32.59500
O  46.23100 30.51100 32.72400
O  44.63700 31.87300 33.62900
C  44.68800 31.14200 34.90000
H  47.53100 38.12300 31.14400
H  48.74300 37.03700 24.86200
H  46.15300 31.25700 25.19600
H  45.15800 34.32200 33.07600
H  46.90800 36.56300 33.14200
H  45.00800 37.90800 32.26600
H  44.41100 36.57300 33.35500
H  44.32600 36.46800 31.58200
H  48.18000 34.71100 33.18900
H  47.47400 33.09300 32.71500
H  48.25100 33.65300 35.16500
H  46.93100 32.58900 34.92100
H  49.77300 39.49300 30.29400
H  48.11100 39.99800 30.30200
H  49.22500 40.84000 29.24900
H  49.74000 41.43900 27.04100
H  51.19800 40.90300 26.37000
H  50.92800 40.37300 28.02000
H  48.89700 34.89700 23.56000
H  46.86800 33.02200 23.28200
H  47.40200 36.05600 22.09400
H  46.19200 36.21300 23.37200
H  46.22600 34.71600 22.40200
H  48.68900 31.58700 24.77100
H  49.67900 32.72900 23.79800
H  49.49900 31.47900 22.10800
H  47.74400 31.57000 22.03500
H  48.39200 30.24000 22.96100
H  44.01800 29.28400 26.44700
H  45.29900 28.47700 27.48600
H  45.67100 29.39500 26.09000
H  43.70400 32.13600 31.47600
H  43.80600 30.53600 35.10800
H  44.76100 31.91600 35.66500
H  45.53300 30.46100 35.00900

