158

Mg 1.00100 8.36100 26.40300
C  1.81500 10.22800 29.11700
C  1.19600 5.49900 28.46700
C  0.79400 6.49500 23.67400
C  1.37800 11.19600 24.35000
N  1.41900 7.93000 28.57000
C  1.51600 8.91100 29.44300
C  1.52600 8.36400 30.90400
C  1.56600 6.74800 30.68300
C  1.40500 6.71200 29.11200
C  2.82600 5.95800 31.21700
C  0.32800 8.95100 31.79500
C  -0.09700 8.28300 33.16800
H  1.07200 7.71300 33.97100
N  0.95500 6.25000 26.10700
C  1.09600 5.23600 27.06000
C  1.03400 3.99200 26.39100
C  0.79700 4.28400 24.95000
C  0.89200 5.75600 24.86600
C  0.96800 2.71900 27.13400
C  0.51600 3.33000 23.87100
O  -0.02600 3.69000 22.83200
C  0.72200 1.94300 24.04400
N  1.05200 8.85600 24.31900
C  0.77800 7.85500 23.44400
C  0.62300 8.39900 22.01100
C  0.46600 9.93200 22.31800
C  0.98900 10.06100 23.75900
C  1.76400 7.90500 21.09200
C  -0.95300 10.45900 22.15600
C  -1.33000 10.70600 20.69500
N  1.67000 10.29100 26.61100
C  1.82200 11.31300 25.69500
C  2.13300 12.51600 26.42500
C  2.21300 12.14100 27.74400
C  1.88800 10.77300 27.81400
C  2.46400 13.83400 25.81800
C  2.58800 12.54400 29.08900
O  2.89500 13.68200 29.49100
C  2.22500 11.33700 30.07000
C  3.45200 10.93600 30.79100
O  4.38400 10.23600 30.27500
O  3.51000 11.52200 32.02500
C  4.76600 11.49900 32.77000
H  1.17400 4.60300 29.09000
H  0.65400 5.85100 22.80400
H  1.37300 12.11300 23.75700
H  2.50600 8.63500 31.29700
H  0.64000 6.23800 30.94800
H  3.57500 6.53700 31.75700
H  3.28300 5.45300 30.36600
H  2.44200 5.24800 31.95000
H  -0.53000 8.93800 31.12200
H  0.59100 9.99100 31.99200
H  -0.86900 7.52600 33.03000
H  -0.56000 9.04700 33.79300
H  0.26300 2.01000 26.70000
H  0.74600 2.76800 28.20000
H  1.91500 2.18600 27.04300
H  1.66200 1.71700 24.54700
H  0.86500 1.56200 23.03300
H  -0.13100 1.40500 24.45900
H  -0.25100 8.00300 21.49500
H  1.13300 10.54300 21.71100
H  2.34300 7.09600 21.53800
H  2.51000 8.69700 21.16500
H  1.41400 7.76400 20.07000
H  -1.01700 11.30200 22.84500
H  -1.59200 9.70100 22.60800
H  -0.50300 10.44200 20.03500
H  -1.36500 11.79000 20.58400
H  -2.31300 10.38000 20.35500
H  1.48300 14.30700 25.84000
H  3.03100 13.81600 24.88700
H  3.06200 14.41400 26.52200
H  1.53800 11.76600 30.80000
H  5.05700 12.52700 32.98300
H  5.56500 10.83900 32.43200
H  4.51300 11.20900 33.79000
Mg 53.80500 25.09300 45.85300
C  51.18400 27.20000 44.68600
C  52.17900 22.39200 44.45900
C  56.78700 23.41500 45.64100
C  55.52200 28.09500 46.45800
N  51.91800 24.93700 44.73700
C  50.97600 25.89000 44.34300
C  49.82600 25.24000 43.62000
C  49.98200 23.72000 44.03000
C  51.54900 23.64700 44.39400
C  49.05900 23.34500 45.14200
C  49.87500 25.44200 42.08300
C  48.50400 25.37100 41.43500
H  48.34300 24.49600 40.13600
N  54.40800 23.12900 45.30500
C  53.51000 22.18600 44.80900
C  54.19800 20.90100 44.71700
C  55.57700 21.18300 44.96600
C  55.66100 22.64900 45.34300
C  53.53600 19.56700 44.33400
C  56.65800 20.05400 44.79200
O  56.28400 18.88000 44.61300
C  58.04600 20.35100 44.96200
N  55.90300 25.70600 45.86700
C  56.92100 24.73200 45.90800
C  58.21900 25.43200 46.35200
C  57.85300 26.96800 46.45700
C  56.34700 26.93900 46.30700
C  58.83500 24.78800 47.66100
C  58.70700 27.92900 45.59800
C  58.92500 29.40600 46.18800
N  53.47000 27.22500 45.80100
C  54.16100 28.33300 46.19400
C  53.30100 29.47700 46.27500
C  52.08100 29.05500 45.75800
C  52.31700 27.74500 45.32600
C  53.64200 30.80900 46.83400
C  50.75600 29.43600 45.40700
O  50.08300 30.44400 45.52700
C  50.15800 28.28000 44.60300
C  49.89500 28.77000 43.27100
O  50.68700 29.24000 42.41400
O  48.54800 28.57000 43.08700
C  47.98100 28.96600 41.77600
H  51.69700 21.53900 43.97700
H  57.76400 22.92700 45.63400
H  56.04200 28.94500 46.90600
H  48.87800 25.63100 43.98700
H  49.80500 23.00600 43.22500
H  49.57100 23.45700 46.09800
H  48.68400 22.32900 45.02100
H  48.17000 23.97300 45.20100
H  50.38800 24.56400 41.69000
H  50.29800 26.43700 41.94800
H  48.36800 26.40700 41.12300
H  47.76800 25.00200 42.14900
H  53.79200 19.06900 43.39800
H  52.44600 19.53500 44.32600
H  53.80900 18.79800 45.05600
H  58.57800 19.42800 44.73200
H  58.13600 20.59700 46.02000
H  58.34000 21.18300 44.32300
H  58.86400 25.34200 45.47800
H  58.16200 27.24600 47.46400
H  58.14800 23.98900 47.94000
H  58.98400 25.44600 48.51700
H  59.77300 24.37900 47.28600
H  58.30100 28.12400 44.60500
H  59.68000 27.52500 45.31900
H  59.11700 30.08500 45.35700
H  59.64700 29.27900 46.99500
H  57.99600 29.70200 46.67500
H  54.30300 30.86300 47.70000
H  52.68200 31.14900 47.22300
H  53.95900 31.46800 46.02600
H  49.17900 28.06200 45.02900
H  48.73300 29.09900 40.99800
H  47.49000 29.93600 41.85600
H  47.31300 28.23600 41.31800

