158

Mg 46.95200 25.36300 28.37600
C  47.34400 27.52400 31.05300
C  46.17900 22.77100 30.71400
C  47.31200 23.25300 25.98300
C  48.40600 27.88000 26.42100
N  46.50300 25.25600 30.58300
C  46.69900 26.28500 31.44800
C  46.53000 25.75900 32.91200
C  46.12100 24.27300 32.72200
C  46.31800 24.03900 31.29100
C  46.92200 23.27200 33.50500
C  45.61500 26.66000 33.80900
C  46.03100 26.69400 35.29800
H  44.91600 26.61800 36.37000
N  46.43700 23.28400 28.29200
C  46.12800 22.40100 29.29600
C  45.96500 21.10300 28.68800
C  46.31300 21.22400 27.32400
C  46.65400 22.64000 27.12100
C  45.51700 19.88400 29.52200
C  46.58700 20.02500 26.31700
O  46.88600 20.23200 25.16800
C  46.22100 18.63500 26.63900
N  47.82800 25.48300 26.50400
C  47.75800 24.50300 25.58100
C  48.45500 24.88300 24.27400
C  48.42800 26.42700 24.36000
C  48.25200 26.65600 25.84600
C  49.86500 24.21500 24.04700
C  47.34300 27.12600 23.55800
C  47.79900 28.27500 22.68000
N  47.74100 27.38200 28.61200
C  48.25700 28.24000 27.73500
C  48.53200 29.49900 28.36900
C  48.23700 29.17800 29.72400
C  47.71000 27.94000 29.81600
C  49.16300 30.63100 27.74100
C  48.28000 29.82400 30.98700
O  48.85700 30.89600 31.27500
C  47.68400 28.70100 31.95600
C  48.66100 28.50000 33.00500
O  49.68300 27.96100 32.89700
O  48.24200 29.13100 34.17200
C  49.14000 29.16100 35.27100
H  45.85300 22.03100 31.44800
H  47.44100 22.47600 25.22700
H  48.66000 28.70400 25.75000
H  47.56900 25.84200 33.23300
H  45.05200 24.10300 32.85200
H  47.47700 22.64900 32.80300
H  46.27400 22.60800 34.07600
H  47.64100 23.68700 34.21100
H  44.60500 26.25000 33.80200
H  45.50600 27.66700 33.40600
H  46.46000 27.67800 35.48900
H  46.86900 26.00500 35.39800
H  44.83900 19.19000 29.02500
H  45.02500 20.24700 30.42500
H  46.46700 19.38500 29.70900
H  46.69200 18.26500 27.55000
H  46.58900 17.95100 25.87500
H  45.13700 18.64600 26.75600
H  47.78500 24.62900 23.45200
H  49.40600 26.80000 24.05800
H  49.86800 23.34100 23.39600
H  50.27500 23.85400 24.99000
H  50.64700 24.88700 23.69500
H  46.56200 27.47600 24.23200
H  46.86800 26.47700 22.82200
H  47.63500 27.93600 21.65700
H  48.84100 28.57900 22.78100
H  47.11300 29.08000 22.94500
H  48.40000 31.08900 27.11200
H  49.94400 30.40700 27.01400
H  49.58800 31.40300 28.38300
H  46.79300 29.12300 32.42100
H  48.95300 28.16900 35.68300
H  48.86200 29.98200 35.93200
H  50.20000 29.24000 35.03300
Mg 8.95900 47.37200 24.82700
C  6.86300 47.59100 27.59100
C  11.51600 48.45600 26.79600
C  10.90700 47.48500 22.12700
C  6.13400 47.17600 22.81500
N  9.22100 47.90900 26.93400
C  8.25100 47.84500 27.89600
C  8.74900 48.30200 29.31400
C  10.08500 49.05500 28.91000
C  10.33000 48.42300 27.47400
C  9.92400 50.62400 28.72800
C  8.87100 47.19700 30.41100
C  8.15600 47.67900 31.74700
H  8.14300 46.62000 32.87900
N  10.92600 47.80200 24.50400
C  11.85800 48.14900 25.48700
C  13.18300 48.24200 24.90100
C  13.02900 47.88200 23.59300
C  11.61200 47.65300 23.33800
C  14.45800 48.55700 25.73400
C  14.07300 47.71400 22.58200
O  13.79300 47.45300 21.40500
C  15.51500 47.72100 22.98300
N  8.53600 47.58300 22.71600
C  9.54000 47.51100 21.81800
C  8.99300 47.23200 20.36500
C  7.43500 47.24300 20.58000
C  7.33500 47.33200 22.16200
C  9.43200 48.30400 19.25300
C  6.74200 46.05600 19.81700
C  5.44700 46.41000 19.07000
N  6.91800 47.19900 25.06200
C  5.90200 47.05200 24.21600
C  4.66800 47.04200 24.94700
C  4.98100 47.09000 26.27000
C  6.36400 47.31700 26.30600
C  3.35700 47.09200 24.35900
C  4.47800 47.22900 27.61500
O  3.36600 47.22000 28.13900
C  5.65600 47.58900 28.44900
C  5.67300 46.49600 29.51000
O  6.08300 45.36300 29.36000
O  4.99500 46.89900 30.59900
C  4.62900 45.97100 31.61800
H  12.34900 48.76700 27.43000
H  11.40300 47.39000 21.15900
H  5.21300 47.04300 22.24300
H  8.05400 49.11200 29.53700
H  10.84800 48.80000 29.64500
H  9.01800 51.05900 29.14900
H  9.93000 50.82100 27.65500
H  10.70000 51.26000 29.15500
H  9.94400 47.03700 30.51600
H  8.38500 46.26900 30.11000
H  7.11500 47.92600 31.53700
H  8.61500 48.60100 32.10500
H  14.20500 48.91500 26.73200
H  15.14800 49.23200 25.22900
H  14.98100 47.60900 25.86600
H  15.78500 48.76300 23.15300
H  16.05300 47.30200 22.13300
H  15.60700 46.98100 23.77800
H  9.47300 46.27900 20.14300
H  6.94600 48.14100 20.20100
H  8.52400 48.68000 18.78200
H  10.17000 47.92400 18.54700
H  9.78000 49.19100 19.78300
H  6.54300 45.34900 20.62200
H  7.43200 45.68500 19.05900
H  4.97700 47.38100 19.22800
H  4.72800 45.67800 19.43800
H  5.54400 46.33400 17.98700
H  3.09000 48.14700 24.29600
H  2.70300 46.51800 25.01500
H  3.19100 46.72500 23.34600
H  5.39700 48.55300 28.88600
H  3.67300 46.31700 32.01000
H  5.38300 45.92000 32.40300
H  4.41000 44.97200 31.24100

