158

Mg 36.35600 49.71400 24.65600
C  36.24400 47.88300 27.76900
C  35.12300 52.44400 26.26300
C  35.87900 51.11700 21.56200
C  37.28600 46.68100 23.14800
N  35.85100 50.11700 26.74400
C  35.86400 49.22000 27.84900
C  35.52600 50.03000 29.17000
C  34.90300 51.36400 28.64600
C  35.32100 51.33500 27.09300
C  33.37100 51.49400 28.82500
C  36.70200 50.11600 30.16600
C  36.31000 50.15500 31.66100
H  34.86900 49.81600 32.01000
N  35.68500 51.59000 24.05000
C  35.29900 52.58100 24.83500
C  34.97100 53.74900 23.97100
C  35.14700 53.41700 22.64500
C  35.69000 52.01100 22.68900
C  34.33900 55.10400 24.60800
C  34.85800 54.30100 21.41100
O  34.93700 53.85300 20.28400
C  34.54000 55.77400 21.50400
N  36.54500 49.03100 22.62600
C  36.25300 49.75500 21.53300
C  36.39900 48.88900 20.26900
C  37.21600 47.62500 20.83700
C  36.97500 47.73400 22.29100
C  35.06800 48.66200 19.50200
C  38.67300 47.62200 20.37700
C  39.04900 46.29200 19.63000
N  36.74500 47.65800 25.25100
C  37.13200 46.58500 24.49400
C  37.47800 45.45200 25.32500
C  37.13400 45.94400 26.65500
C  36.63000 47.27700 26.52900
C  38.17100 44.09200 25.06800
C  37.16900 45.60100 28.07100
O  37.54800 44.56400 28.52600
C  36.61300 46.79100 28.79700
C  35.50300 46.43800 29.61800
O  34.32600 46.51600 29.35600
O  36.01200 45.70200 30.68100
C  34.97200 45.18000 31.58000
H  34.73000 53.35700 26.71600
H  35.69600 51.57300 20.58700
H  37.51500 45.69900 22.72900
H  34.77500 49.36100 29.59000
H  35.33500 52.21500 29.17300
H  33.01300 50.63400 29.39000
H  32.93500 51.38900 27.83100
H  33.03500 52.44500 29.23800
H  37.28300 51.00700 29.92500
H  37.40600 49.28600 30.10300
H  36.66100 51.10800 32.05700
H  36.92300 49.41100 32.17000
H  33.95100 54.87700 25.60100
H  33.50500 55.46400 24.00600
H  35.19600 55.77600 24.64600
H  35.28500 56.15800 22.20000
H  33.46200 55.86800 21.63500
H  34.79900 56.07700 20.49000
H  37.04100 49.47800 19.61400
H  36.69600 46.72300 20.51300
H  34.25600 49.17700 20.01500
H  34.87900 47.59800 19.36300
H  35.18300 49.12100 18.52000
H  39.43500 47.69400 21.15400
H  38.82600 48.46800 19.70700
H  38.21600 45.61700 19.43700
H  39.88300 45.74300 20.06800
H  39.39000 46.61200 18.64500
H  38.65300 43.80000 26.00100
H  38.87400 44.28100 24.25700
H  37.37400 43.40000 24.79700
H  37.36700 47.32400 29.37600
H  34.43200 44.35100 31.12300
H  34.14200 45.81700 31.88500
H  35.58400 44.75000 32.37400
Mg 0.11700 43.75700 26.84000
C  2.48000 43.45300 29.35100
C  -2.29100 42.59900 28.98100
C  -2.00700 43.46500 24.20400
C  2.78600 44.57900 24.58800
N  0.15200 43.12000 28.95500
C  1.17500 43.33600 29.83100
C  0.73000 43.04000 31.30000
C  -0.69800 42.38900 31.05800
C  -1.01000 42.66700 29.56600
C  -0.85200 40.92900 31.33600
C  0.73700 44.38000 32.19000
C  1.22200 44.25400 33.65100
H  0.64300 43.12400 34.46600
N  -1.87400 43.08300 26.58100
C  -2.67800 42.67100 27.62900
C  -3.98700 42.44600 27.11000
C  -3.93600 42.57600 25.66800
C  -2.54700 43.03500 25.39900
C  -5.13900 42.07500 27.97400
C  -5.01500 42.42400 24.67300
O  -4.80900 42.60400 23.50400
C  -6.41000 42.09600 25.08800
N  0.36400 43.91400 24.77700
C  -0.74200 43.91500 23.95800
C  -0.39600 44.29400 22.55700
C  1.10400 44.74100 22.60200
C  1.49800 44.42300 24.10900
C  -0.76400 43.19800 21.49500
C  1.34600 46.23000 22.21400
C  1.14800 47.23500 23.37200
N  2.20500 43.99600 26.90700
C  3.19000 44.26800 25.92000
C  4.52000 44.25200 26.50800
C  4.28400 43.91900 27.78900
C  2.86500 43.79300 28.00900
C  5.88900 44.43900 25.83600
C  4.93400 43.50400 29.05100
O  6.08600 43.23200 29.30800
C  3.81200 43.40500 30.10000
C  3.84200 42.13200 30.84000
O  3.48100 41.04100 30.45100
O  4.31000 42.36700 32.05200
C  4.39500 41.23900 33.01300
H  -3.03100 42.07600 29.59100
H  -2.63700 43.51300 23.31300
H  3.53700 44.90900 23.86800
H  1.41000 42.36700 31.82200
H  -1.48100 42.96100 31.55400
H  -1.41400 40.51300 30.50000
H  -1.49700 40.81600 32.20700
H  0.04300 40.30700 31.35100
H  -0.25700 44.82600 32.19800
H  1.41100 45.03200 31.63300
H  0.84000 45.16100 34.12000
H  2.30600 44.15100 33.60800
H  -4.85900 41.70400 28.96000
H  -5.63000 41.23200 27.48900
H  -5.81000 42.92800 28.07600
H  -6.43200 41.09400 25.51500
H  -7.08200 42.12300 24.23000
H  -6.76300 42.87000 25.77000
H  -1.00800 45.18800 22.43700
H  1.74400 44.09800 21.99700
H  0.21900 42.98200 21.07700
H  -1.55700 43.55300 20.83800
H  -0.99100 42.21100 21.90000
H  0.69900 46.53600 21.39100
H  2.38000 46.39400 21.90800
H  0.57000 48.09100 23.02700
H  2.11000 47.58500 23.74600
H  0.63400 46.80600 24.23200
H  5.71400 44.59600 24.77200
H  6.61500 43.63100 25.92900
H  6.32200 45.36800 26.20600
H  3.93800 44.25800 30.76600
H  3.67500 40.43300 32.86600
H  4.07900 41.61200 33.98800
H  5.37800 40.76700 33.01800

