158

Mg 47.54400 15.55800 28.72500
C  45.66300 15.54200 31.75300
C  49.85100 17.32300 30.40300
C  48.81800 16.48900 25.82400
C  44.69000 14.40600 27.11400
N  47.68200 16.36900 30.86300
C  46.87900 16.18400 31.95400
C  47.42700 16.94100 33.19200
C  48.73000 17.66000 32.71300
C  48.82400 16.98500 31.27800
C  48.62800 19.27600 32.47300
C  47.72900 15.90500 34.27800
C  47.76200 16.50800 35.76000
H  47.45500 17.99200 35.95300
N  49.25800 16.41800 28.23600
C  50.13900 17.04700 29.06700
C  51.38300 17.35700 28.30000
C  51.06500 17.12800 26.93400
C  49.61900 16.65300 26.94000
C  52.66400 17.91500 28.86100
C  51.89300 17.32100 25.71200
O  51.48400 17.07800 24.59100
C  53.23800 17.88800 25.83000
N  46.84400 15.56900 26.75800
C  47.54400 15.96200 25.72200
C  46.79600 15.70300 24.36600
C  45.52400 14.89500 24.81900
C  45.71500 14.88900 26.31600
C  46.44700 17.05000 23.67200
C  45.34900 13.55900 24.12100
C  46.47300 12.51500 24.51200
N  45.72600 14.86000 29.26100
C  44.65500 14.40200 28.52900
C  43.59700 13.92100 29.30400
C  43.93100 14.37200 30.56300
C  45.21800 14.99800 30.51200
C  42.26500 13.29600 28.89000
C  43.44100 14.52000 31.89800
O  42.36900 14.12200 32.35300
C  44.59300 15.15900 32.78100
C  43.89300 16.39400 33.23100
O  43.16200 17.11300 32.53200
O  44.14900 16.51700 34.55500
C  43.32700 17.61700 35.19400
H  50.60700 18.01500 30.77800
H  49.29000 16.65000 24.85300
H  43.93500 13.88200 26.52400
H  46.74200 17.67700 33.61100
H  49.64300 17.40700 33.25300
H  49.57500 19.68400 32.82700
H  47.75400 19.71200 32.95600
H  48.55300 19.43800 31.39800
H  48.67800 15.47300 33.96100
H  47.05100 15.07400 34.08400
H  48.72900 16.36400 36.24100
H  47.10100 15.93800 36.41200
H  52.71600 18.99600 28.72700
H  53.48900 17.37000 28.40200
H  52.80300 17.86000 29.94000
H  53.67500 18.01700 24.84000
H  53.77200 17.14800 26.42700
H  53.11600 18.86700 26.29500
H  47.44600 15.06200 23.77100
H  44.66200 15.52500 24.59900
H  47.29200 17.34000 23.04800
H  46.27400 17.78100 24.46100
H  45.59100 16.91000 23.01200
H  45.35000 13.58300 23.03100
H  44.34800 13.19500 24.35300
H  46.13600 12.00500 25.41400
H  47.52100 12.80600 24.57900
H  46.46500 11.81000 23.68100
H  42.50800 12.23900 29.00000
H  41.97400 13.51600 27.86300
H  41.51300 13.47900 29.65700
H  44.99900 14.44800 33.50100
H  43.67900 17.73800 36.21800
H  42.25200 17.44100 35.24200
H  43.46200 18.57400 34.68900
Mg 9.13200 48.16800 26.26200
C  6.81200 48.35200 28.79200
C  11.63500 48.74400 28.42800
C  11.25400 47.79400 23.64700
C  6.58400 47.83400 23.90600
N  9.21000 48.38700 28.33800
C  8.17900 48.40400 29.24900
C  8.63800 48.68200 30.72100
C  10.13300 49.06000 30.45500
C  10.34300 48.65300 29.01600
C  10.58800 50.52800 30.70200
C  8.35100 47.48600 31.67800
C  9.22800 47.53900 33.00600
H  8.49700 47.33800 34.38000
N  11.17700 48.39100 25.99100
C  12.03700 48.62300 27.04500
C  13.36500 48.55400 26.55600
C  13.30900 48.26900 25.21700
C  11.87900 48.19200 24.86300
C  14.52900 48.77100 27.51800
C  14.40500 48.19400 24.20000
O  14.12800 47.98500 23.00400
C  15.87600 48.27600 24.59400
N  8.95800 48.28400 23.98100
C  9.95700 47.95600 23.23200
C  9.63700 47.53300 21.85100
C  8.05800 47.42900 21.91000
C  7.78300 47.86400 23.32400
C  10.15500 48.49500 20.74500
C  7.43100 46.12000 21.49000
C  6.26600 46.12100 20.42400
N  7.13000 48.22300 26.27900
C  6.24100 48.08900 25.25000
C  4.86900 48.22200 25.86800
C  5.09600 48.24800 27.26500
C  6.45300 48.30100 27.43800
C  3.44100 48.12500 25.20000
C  4.37200 48.33000 28.48100
O  3.20900 48.17500 28.74400
C  5.51400 48.40300 29.58400
C  5.22900 47.25700 30.50300
O  5.48700 46.10700 30.23100
O  4.71600 47.66600 31.68900
C  4.64500 46.65000 32.74400
H  12.32800 48.89600 29.25900
H  11.96300 47.32000 22.96500
H  5.76700 47.66000 23.20200
H  8.05200 49.48700 31.16500
H  10.83500 48.39500 30.95800
H  11.55400 50.41900 31.19500
H  9.96200 51.03000 31.43900
H  10.72000 51.07400 29.76700
H  8.35200 46.50600 31.20000
H  7.30500 47.58900 31.96500
H  9.68800 48.52700 33.00500
H  9.97300 46.76200 32.83400
H  14.22600 48.71900 28.56400
H  14.80200 49.75900 27.14700
H  15.37100 48.09300 27.37400
H  16.02500 47.49500 25.34100
H  16.19000 49.29500 24.81700
H  16.38700 47.84600 23.73300
H  9.99200 46.51200 21.71600
H  7.59900 48.26300 21.37900
H  10.50600 49.43300 21.17400
H  9.37300 48.68000 20.00800
H  10.92600 48.04200 20.12200
H  6.98700 45.69800 22.39100
H  8.20100 45.50000 21.03100
H  6.18600 47.14300 20.05500
H  5.31400 45.76700 20.82000
H  6.57800 45.42500 19.64600
H  2.80900 48.88000 25.66700
H  2.99100 47.15600 25.41600
H  3.60100 48.16800 24.12300
H  5.40900 49.31400 30.17300
H  3.76800 46.99000 33.29500
H  5.63400 46.46400 33.16000
H  4.38900 45.68500 32.30500

