158

Mg 42.41200 41.85600 26.54600
C  41.57000 44.12200 29.00500
C  43.67600 39.78800 28.97800
C  43.09600 39.66800 24.12100
C  41.36600 44.29700 24.17800
N  42.56200 41.90600 28.75700
C  42.09100 42.88000 29.57400
C  42.40600 42.54900 31.09100
C  43.24200 41.21900 31.02400
C  43.17200 40.99700 29.45700
C  44.72600 41.28300 31.60400
C  41.12900 42.56300 32.02200
C  41.36500 43.21700 33.38000
H  40.49600 42.64300 34.55200
N  43.28400 40.02200 26.62200
C  43.73700 39.34500 27.69700
C  44.23500 38.06000 27.25300
C  44.09300 37.98500 25.84300
C  43.46900 39.22500 25.45400
C  44.75200 37.01300 28.26300
C  44.45000 36.80000 24.91000
O  44.29300 36.79900 23.69800
C  44.95700 35.47000 25.48000
N  42.43300 42.04100 24.43400
C  42.57800 40.89200 23.71900
C  41.95200 41.02700 22.31700
C  41.55100 42.56500 22.22100
C  41.70900 42.98800 23.68100
C  42.79500 40.48800 21.09200
C  40.17400 42.84400 21.71100
C  40.01800 43.97500 20.60100
N  41.81900 43.84600 26.56400
C  41.42300 44.70300 25.53900
C  40.99600 46.00700 26.06000
C  41.04900 45.74300 27.46300
C  41.54800 44.50000 27.67700
C  40.64500 47.27300 25.33700
C  40.71900 46.35900 28.72900
O  40.28500 47.42300 29.02300
C  41.04700 45.29200 29.78200
C  42.05900 45.93000 30.68700
O  43.25600 46.01500 30.59500
O  41.37200 46.49900 31.69200
C  42.05400 47.10800 32.84600
H  43.91000 39.03700 29.73600
H  43.03000 38.91700 23.33100
H  40.88300 45.00800 23.50500
H  43.03600 43.33200 31.51200
H  42.65900 40.47400 31.56500
H  45.06700 42.05300 32.29700
H  45.49000 41.31100 30.82700
H  44.91800 40.30800 32.05200
H  40.93700 41.52000 32.27300
H  40.20400 42.94200 31.58600
H  40.98200 44.21300 33.15600
H  42.43100 43.22400 33.60500
H  43.99400 36.23600 28.37000
H  44.96900 37.34400 29.27900
H  45.67100 36.51800 27.95000
H  45.97900 35.79800 25.66700
H  45.08200 34.72400 24.69400
H  44.44400 35.02100 26.33000
H  40.96700 40.56200 22.34700
H  42.30600 43.12600 21.67100
H  43.09000 41.30000 20.42700
H  42.13200 39.77400 20.60500
H  43.66900 39.88900 21.34900
H  39.51700 43.19300 22.50700
H  39.71400 41.94700 21.29700
H  39.26400 44.68100 20.94700
H  39.79000 43.60200 19.60200
H  40.97000 44.50500 20.56700
H  39.56900 47.31400 25.16500
H  41.12900 47.28600 24.36100
H  40.89400 48.15800 25.92300
H  40.06800 45.09400 30.22000
H  43.02000 47.55700 32.61400
H  42.34100 46.29700 33.51600
H  41.36000 47.71200 33.43100
Mg 30.46800 58.19700 41.65500
C  27.61400 56.36700 40.26100
C  32.35100 55.55800 40.56600
C  33.04900 60.17400 41.73400
C  28.23600 60.78300 42.16800
N  30.03400 56.31100 40.39700
C  28.79900 55.69800 40.11500
C  28.99300 54.29100 39.53800
C  30.45500 53.98900 40.10500
C  31.02300 55.36000 40.31600
C  30.42300 53.24400 41.45600
C  28.87300 54.24200 37.96700
C  28.11700 53.02900 37.37800
H  27.13900 53.27500 36.20700
N  32.46100 57.89900 41.31100
C  33.07700 56.74600 40.87700
C  34.51100 56.89000 40.91400
C  34.73900 58.24400 41.20800
C  33.39400 58.88200 41.35900
C  35.41300 55.81000 40.54700
C  36.14400 58.94800 41.23400
O  37.19200 58.31900 41.24500
C  36.20600 60.44200 41.22500
N  30.56600 60.13000 41.89500
C  31.83500 60.73700 42.00800
C  31.69400 62.23500 42.28100
C  30.18400 62.40400 42.66000
C  29.58700 61.00200 42.21300
C  32.70200 62.84400 43.29600
C  29.46500 63.63500 42.04700
C  28.46400 64.44700 42.93300
N  28.32000 58.55400 41.39600
C  27.58000 59.68700 41.62700
C  26.25300 59.48500 41.27500
C  26.17000 58.27800 40.69100
C  27.51300 57.69100 40.87100
C  25.02400 60.40800 41.46100
C  25.34800 57.34900 40.02000
O  24.22600 57.34100 39.59400
C  26.22500 56.11800 39.71500
C  25.68500 54.91400 40.36900
O  26.31300 54.24700 41.21300
O  24.40200 54.63700 40.02300
C  23.84200 53.38200 40.65600
H  33.02600 54.69900 40.57500
H  33.82500 60.93300 41.86000
H  27.60900 61.59400 42.54300
H  28.38000 53.59600 40.11100
H  31.04100 53.32800 39.46600
H  29.41100 53.00200 41.78100
H  30.93000 53.80500 42.24100
H  30.89800 52.27000 41.33300
H  29.88100 54.02400 37.61200
H  28.63000 55.24100 37.60600
H  27.65000 52.51100 38.21500
H  28.80400 52.26400 37.01500
H  35.67600 56.03100 39.51300
H  35.00200 54.80200 40.61100
H  36.33200 55.75600 41.13000
H  37.22000 60.81900 41.09800
H  35.82200 60.73800 42.20100
H  35.59900 60.95700 40.48000
H  31.83700 62.77000 41.34200
H  30.23200 62.41900 43.74900
H  32.33400 63.75200 43.77300
H  33.58200 63.13000 42.71900
H  33.11500 62.16000 44.03700
H  28.79600 63.36900 41.22800
H  30.19300 64.32100 41.61400
H  27.68100 64.77400 42.24800
H  28.98000 65.31500 43.34500
H  28.13100 63.66600 43.61600
H  24.50800 60.21600 42.40200
H  24.30700 60.12900 40.68900
H  25.29500 61.44900 41.28800
H  26.15800 55.95200 38.64000
H  24.65100 52.65400 40.59500
H  23.01500 53.04400 40.03100
H  23.58400 53.59600 41.69300

