158

Mg 9.34200 48.79800 25.98900
C  7.27100 49.16300 28.85900
C  11.99000 49.85100 27.79800
C  11.06100 48.68100 23.11800
C  6.37000 48.32700 24.12100
N  9.54500 49.33900 28.11000
C  8.58600 49.33400 29.14700
C  9.31200 49.63700 30.42200
C  10.67000 50.31400 29.94000
C  10.78200 49.81600 28.48200
C  10.61300 51.84600 30.12700
C  9.60300 48.37600 31.28000
C  9.87400 48.55400 32.71800
H  9.94400 47.33600 33.61400
N  11.26500 49.14600 25.55700
C  12.26800 49.48200 26.50400
C  13.47800 49.38100 25.78400
C  13.25700 49.15900 24.40200
C  11.81100 48.96000 24.28400
C  14.83400 49.61500 26.50200
C  14.23700 49.11900 23.28100
O  13.92600 48.90900 22.09700
C  15.67200 49.44700 23.58800
N  8.80300 48.61000 23.95200
C  9.69900 48.54200 22.95900
C  9.02700 48.30000 21.53200
C  7.55500 48.44200 21.83900
C  7.57100 48.47500 23.42600
C  9.55100 49.20900 20.38800
C  6.64500 47.35400 21.27600
C  5.66700 47.77500 20.16300
N  7.28000 48.56700 26.34700
C  6.20100 48.35800 25.49000
C  4.97400 48.31500 26.20900
C  5.37500 48.66600 27.56600
C  6.77600 48.86500 27.56800
C  3.65800 48.16700 25.56600
C  4.85300 48.93500 28.87400
O  3.71800 49.09500 29.36100
C  6.11300 49.13600 29.79300
C  6.18000 47.94800 30.74800
O  6.08700 46.76400 30.41600
O  6.46000 48.46300 31.98500
C  6.53600 47.43500 33.02500
H  12.84700 50.27600 28.32500
H  11.68800 48.60300 22.22800
H  5.43600 48.24000 23.56200
H  8.60600 50.24700 30.98700
H  11.49100 49.92800 30.54500
H  9.57700 52.18100 30.08000
H  11.04500 52.34200 29.25700
H  11.06500 52.03500 31.10100
H  10.59700 48.06500 30.95700
H  8.96000 47.53300 31.02600
H  9.04900 49.10600 33.16800
H  10.76400 49.17900 32.80000
H  14.55500 49.82500 27.53500
H  15.38600 50.49500 26.17200
H  15.43800 48.70800 26.50700
H  16.11000 48.85700 24.39200
H  15.66700 50.47800 23.94300
H  16.28100 49.52800 22.68800
H  9.12300 47.26300 21.20900
H  7.07200 49.39100 21.60500
H  8.69300 49.71900 19.95200
H  10.08200 48.55200 19.69900
H  10.30100 49.89200 20.78800
H  5.97000 46.92100 22.01400
H  7.21300 46.52400 20.85400
H  4.67900 47.65200 20.60800
H  5.73000 47.02100 19.37900
H  5.78400 48.78900 19.78000
H  3.57600 47.24600 24.98900
H  3.47500 49.01600 24.90800
H  2.89000 48.22000 26.33700
H  5.92600 50.02200 30.40000
H  5.72400 46.71800 32.90300
H  6.46900 47.85000 34.03100
H  7.47900 46.89200 32.97200
Mg 0.90900 43.59300 26.00700
C  2.99100 43.94900 28.87100
C  -1.55600 42.72000 28.21200
C  -0.94000 42.96500 23.31800
C  3.73500 44.24700 24.02000
N  0.81400 43.28700 28.27200
C  1.66700 43.69900 29.21900
C  1.03200 43.78800 30.68100
C  -0.39400 43.21000 30.46200
C  -0.37000 43.05200 28.88000
C  -0.85700 41.96800 31.24400
C  1.00400 45.26900 31.34700
C  0.97000 45.33500 32.83500
H  0.71600 43.96000 33.52800
N  -0.99200 42.93500 25.77000
C  -1.86900 42.68300 26.74900
C  -3.14100 42.48000 26.22200
C  -2.94700 42.46400 24.80200
C  -1.59900 42.75800 24.55800
C  -4.37200 42.20900 27.00300
C  -4.02000 41.93800 23.83300
O  -3.73400 41.85900 22.59700
C  -5.42400 41.65100 24.18800
N  1.46700 43.36900 24.03700
C  0.40600 43.10900 23.15100
C  0.96900 43.19200 21.69900
C  2.36100 43.89100 21.94000
C  2.54700 43.82200 23.40300
C  1.15800 41.86900 21.04700
C  2.56900 45.31700 21.32900
C  2.51600 46.60200 22.21400
N  2.94500 44.14400 26.33000
C  3.96500 44.31100 25.39100
C  5.27400 44.45800 26.09300
C  4.93200 44.29000 27.43800
C  3.50700 44.13900 27.57400
C  6.58700 44.65300 25.34600
C  5.37900 44.09800 28.78100
O  6.53500 44.13800 29.12700
C  4.22300 43.98400 29.77200
C  4.31300 42.76800 30.52900
O  4.17600 41.64000 30.12500
O  4.58700 43.05800 31.82100
C  4.60600 42.04800 32.85200
H  -2.41100 42.56400 28.87400
H  -1.54100 42.98700 22.40600
H  4.52900 44.44400 23.29600
H  1.64800 43.15900 31.32300
H  -1.02900 44.03700 30.78000
H  -1.68000 42.36100 31.84100
H  -0.07000 41.53500 31.86300
H  -1.20700 41.08300 30.71400
H  0.19500 45.77700 30.82100
H  1.85200 45.80500 30.92100
H  0.20300 46.04600 33.14400
H  1.95800 45.72300 33.08200
H  -5.23900 42.84100 26.81000
H  -4.08500 42.51200 28.01000
H  -4.57900 41.14100 26.92900
H  -5.44700 40.81700 24.89000
H  -5.85100 41.34600 23.23300
H  -5.90200 42.57800 24.50300
H  0.33800 43.80200 21.05200
H  3.16400 43.28700 21.51800
H  2.05500 41.55100 20.51600
H  0.32500 41.76300 20.35200
H  0.84000 41.01000 21.63900
H  1.74600 45.53400 20.64800
H  3.49700 45.28500 20.75800
H  1.96900 46.43700 23.14200
H  1.91900 47.43300 21.83800
H  3.52500 46.94600 22.44400
H  7.41700 44.20100 25.88900
H  6.77900 45.69900 25.10600
H  6.62700 44.16400 24.37300
H  4.24000 44.92600 30.32100
H  4.58300 42.48200 33.85200
H  5.50900 41.43900 32.85200
H  3.73000 41.43800 32.63200

