158

Mg 17.42700 -1.41000 27.74100
C  16.36500 0.46200 30.41300
C  19.46600 -3.29100 29.96700
C  18.68300 -3.15800 25.15900
C  15.76000 0.57900 25.60000
N  17.78200 -1.46700 29.92700
C  17.15300 -0.61600 30.84200
C  17.61200 -0.91200 32.23800
C  18.69000 -2.03600 32.07500
C  18.67800 -2.25600 30.52000
C  20.16300 -1.65600 32.51000
C  16.42400 -1.17300 33.31800
C  16.56500 -0.43300 34.69700
H  17.75000 -0.82700 35.55900
N  18.73000 -3.06000 27.60100
C  19.45000 -3.71200 28.62100
C  20.00100 -4.98800 28.12200
C  19.81600 -4.91800 26.73500
C  19.03800 -3.68900 26.45900
C  20.64000 -6.12100 28.95600
C  20.37100 -5.79600 25.69700
O  20.28700 -5.61700 24.49800
C  21.10300 -7.09500 26.08600
N  17.32300 -1.18600 25.66900
C  17.92400 -2.04500 24.78500
C  17.73500 -1.63300 23.29600
C  16.60100 -0.55100 23.54300
C  16.56000 -0.37900 25.02500
C  19.07500 -1.07000 22.64500
C  15.25100 -0.78000 22.95400
C  14.62100 0.36500 22.12700
N  16.28100 0.23200 27.89900
C  15.63600 0.93800 26.93600
C  14.86100 2.03300 27.59200
C  15.13900 1.87200 29.02000
C  16.02100 0.81700 29.11700
C  13.98300 3.01100 26.97800
C  14.85600 2.40400 30.28200
O  14.18100 3.40200 30.60700
C  15.67500 1.51200 31.25000
C  16.69400 2.36300 31.82600
O  17.80700 2.54300 31.41900
O  16.23000 2.96500 32.94200
C  17.26500 3.60500 33.84400
H  20.05100 -3.94700 30.61500
H  19.00700 -3.80400 24.34100
H  15.31400 1.21000 24.82900
H  18.20600 -0.06900 32.59100
H  18.31200 -2.97700 32.47400
H  20.07800 -0.66600 32.95800
H  20.89900 -1.63500 31.70600
H  20.57200 -2.39800 33.19500
H  16.36200 -2.23400 33.56300
H  15.48100 -0.96400 32.81300
H  15.61100 -0.57500 35.20700
H  16.50100 0.62700 34.45300
H  20.08200 -7.03500 28.75200
H  20.69000 -5.90400 30.02300
H  21.65500 -6.19700 28.56600
H  22.04600 -6.83900 26.56900
H  21.44700 -7.70800 25.25300
H  20.49500 -7.66700 26.78700
H  17.22100 -2.36000 22.66800
H  16.99500 0.37900 23.13300
H  19.90200 -0.99700 23.35100
H  18.97200 -0.04000 22.30200
H  19.40300 -1.71800 21.83200
H  14.56200 -1.13400 23.72100
H  15.29600 -1.60100 22.23900
H  13.74400 0.82100 22.58500
H  14.32500 0.04500 21.12800
H  15.29900 1.20800 21.99200
H  14.54900 3.92200 26.78200
H  13.22500 3.21400 27.73500
H  13.49100 2.62400 26.08600
H  15.12700 1.13700 32.11400
H  16.94300 4.52300 34.33600
H  18.20600 3.90100 33.38100
H  17.41100 2.82200 34.58800
Mg 42.27400 41.43800 25.74000
C  41.42000 43.88100 28.11800
C  43.48300 39.60400 28.45000
C  43.39000 39.04300 23.66200
C  41.84000 43.68200 23.24200
N  42.27200 41.59900 28.05100
C  41.79500 42.68000 28.76200
C  41.80900 42.42200 30.31400
C  42.66800 41.14000 30.39600
C  42.78300 40.72700 28.91900
C  43.96200 41.27600 31.12600
C  40.43000 42.23400 30.98200
C  40.07900 43.33900 32.09100
H  41.00900 43.71700 33.25200
N  43.30900 39.54400 25.99800
C  43.70300 39.02400 27.17600
C  44.27600 37.70000 26.90400
C  44.12600 37.42200 25.49100
C  43.52600 38.66000 25.03200
C  44.78500 36.72900 28.00300
C  44.29800 36.11600 24.65800
O  44.09600 36.08300 23.42300
C  44.84000 34.86900 25.26700
N  42.55800 41.34700 23.81200
C  42.95200 40.24600 23.09200
C  42.79500 40.51000 21.56400
C  42.03700 41.87600 21.51400
C  42.14100 42.33500 22.92900
C  44.05800 40.45900 20.75300
C  40.53500 41.74300 21.17600
C  39.71100 40.57800 21.67800
N  41.68200 43.37500 25.63500
C  41.56600 44.19900 24.49700
C  41.21700 45.48900 24.88700
C  41.06400 45.39200 26.30700
C  41.39400 44.12400 26.69300
C  41.18900 46.68500 24.00800
C  40.77200 46.16900 27.52800
O  40.49900 47.34700 27.72800
C  40.98000 45.11500 28.80200
C  42.02400 45.77100 29.71200
O  43.22400 45.94600 29.43600
O  41.41200 46.18400 30.87100
C  42.32900 46.78000 31.80100
H  43.62400 38.95500 29.31600
H  43.60400 38.34300 22.85200
H  41.64900 44.38400 22.42800
H  42.33000 43.26900 30.76200
H  42.17700 40.31800 30.91500
H  44.06800 40.52200 31.90500
H  44.07100 42.22100 31.65700
H  44.81100 41.19000 30.44700
H  40.49000 41.35100 31.61900
H  39.75500 42.25100 30.12600
H  39.11600 43.04600 32.50800
H  39.98000 44.24300 31.49000
H  43.99000 35.98700 28.07500
H  44.90000 37.20100 28.97900
H  45.76000 36.33900 27.71000
H  44.14200 34.52300 26.02900
H  45.81900 35.18800 25.62300
H  45.07100 34.15900 24.47300
H  42.26500 39.66300 21.12900
H  42.51700 42.57500 20.83000
H  44.30200 41.39100 20.24300
H  44.03600 39.58400 20.10300
H  44.84000 40.32200 21.49900
H  40.56100 41.66500 20.09000
H  40.10800 42.69700 21.48500
H  39.42700 39.87500 20.89500
H  38.85600 40.88600 22.28100
H  40.15000 39.92400 22.43100
H  40.57400 46.55600 23.11800
H  42.19500 46.79700 23.60400
H  40.88600 47.55200 24.59400
H  40.09100 45.01800 29.42400
H  42.77000 47.69500 31.40400
H  43.02700 46.01300 32.13700
H  41.76200 47.11500 32.67000

