158

Mg 42.29600 41.39900 26.05100
C  41.50100 43.69700 28.57000
C  44.02900 39.58700 28.33600
C  42.66600 38.96300 23.82300
C  41.32600 43.62200 23.74100
N  42.78100 41.69400 28.26800
C  42.15600 42.58900 29.10600
C  42.42100 42.30400 30.52800
C  43.30900 40.91800 30.39800
C  43.34400 40.68500 28.90800
C  44.56500 40.97200 31.25000
C  41.14100 41.96100 31.36100
C  40.59200 42.96800 32.43700
H  40.05300 42.38800 33.75200
N  43.41300 39.61300 26.02400
C  44.07800 39.05100 27.07500
C  44.62700 37.78600 26.61500
C  44.04900 37.49300 25.34700
C  43.32600 38.71500 25.01300
C  45.54600 36.94400 27.48900
C  44.09200 36.22800 24.51800
O  43.51000 36.15500 23.37700
C  44.86800 35.08900 24.99000
N  42.17800 41.36900 24.06800
C  42.23400 40.22400 23.35200
C  41.82900 40.42500 21.93100
C  41.49600 41.96800 21.85500
C  41.67300 42.37700 23.28700
C  43.05200 40.04300 20.98400
C  40.01700 42.18300 21.33000
C  39.80400 43.25900 20.30700
N  41.42400 43.23400 26.10900
C  41.07000 44.02800 25.07100
C  40.57300 45.27000 25.55100
C  40.66100 45.18000 26.92200
C  41.21600 43.91800 27.20700
C  40.11100 46.38900 24.60700
C  40.43100 45.83600 28.15000
O  39.95800 46.96200 28.45400
C  40.90300 44.87600 29.36500
C  41.80200 45.63100 30.18700
O  42.93100 45.85000 30.00900
O  41.19300 45.96400 31.30600
C  41.95200 46.69900 32.40300
H  44.51700 38.94000 29.06800
H  42.52200 38.15700 23.10100
H  41.17700 44.33600 22.92900
H  43.01100 43.12200 30.94100
H  42.72100 40.08600 30.78400
H  45.57600 40.93200 30.84200
H  44.48300 40.29000 32.09600
H  44.54300 41.94000 31.75000
H  41.15800 40.97500 31.82600
H  40.27000 41.96900 30.70600
H  39.76100 43.57800 32.08100
H  41.36200 43.72900 32.56500
H  46.35300 36.68600 26.80200
H  44.94600 36.14700 27.92800
H  45.97800 37.53300 28.29800
H  44.67000 34.81300 26.02600
H  45.91400 35.29400 24.76400
H  44.52900 34.17800 24.49600
H  40.97800 39.77800 21.71700
H  42.14000 42.66600 21.32100
H  42.96300 39.06100 20.51900
H  44.01100 40.18400 21.48400
H  42.96200 40.77400 20.18100
H  39.31100 42.30400 22.15100
H  39.65800 41.24300 20.91100
H  39.17700 44.07000 20.67800
H  39.53900 42.88100 19.31900
H  40.67500 43.91200 20.23300
H  39.24300 45.93200 24.13200
H  40.85700 46.68100 23.86800
H  39.66600 47.13600 25.26500
H  40.02900 44.66200 29.98100
H  42.04800 46.10600 33.31300
H  41.41500 47.63500 32.55800
H  42.94000 46.98700 32.04400
Mg -2.27500 34.78900 27.03700
C  -3.87700 33.33400 29.78300
C  -0.80900 37.16500 29.26700
C  -0.79500 36.21600 24.39700
C  -3.86500 32.48400 24.87300
N  -2.50200 35.28000 29.24400
C  -3.15300 34.48600 30.18600
C  -2.71600 34.94200 31.63700
C  -1.83500 36.28300 31.33700
C  -1.70800 36.32500 29.83300
C  -2.34900 37.64100 31.97700
C  -1.91300 33.87400 32.44700
C  -1.41400 34.30100 33.93900
H  -1.67500 33.37900 35.06400
N  -0.92400 36.45600 26.86000
C  -0.43700 37.22500 27.87300
C  0.50800 38.13700 27.27400
C  0.47200 37.96800 25.85900
C  -0.47800 36.81900 25.64200
C  1.19900 39.20900 28.02000
C  1.28000 38.76500 24.72100
O  0.92800 38.69900 23.51400
C  2.31800 39.82500 25.03700
N  -2.15800 34.28300 24.89500
C  -1.60300 35.11200 24.01100
C  -1.93200 34.67300 22.60000
C  -2.51800 33.19200 22.88100
C  -2.97600 33.35700 24.26500
C  -2.84600 35.59700 21.83400
C  -1.50900 32.03800 22.60400
C  -0.53500 31.63800 23.70200
N  -3.74400 33.29500 27.20500
C  -4.15300 32.36000 26.26300
C  -4.94200 31.33400 27.03700
C  -4.81700 31.69900 28.39400
C  -4.07400 32.86000 28.43600
C  -5.58800 30.09000 26.43600
C  -5.17600 31.30900 29.65600
O  -5.91900 30.37400 30.05100
C  -4.49700 32.20200 30.63100
C  -5.43800 32.62400 31.70100
O  -6.26000 33.48500 31.53100
O  -5.27900 31.97000 32.94600
C  -6.51200 32.11000 33.77800
H  -0.39100 37.94200 29.91100
H  -0.36300 36.67600 23.50600
H  -4.27700 31.84200 24.09100
H  -3.61400 35.13600 32.22300
H  -0.86200 36.19800 31.82000
H  -2.26000 38.61600 31.49800
H  -1.77500 37.72200 32.90000
H  -3.35600 37.47100 32.35500
H  -1.04500 33.68500 31.81400
H  -2.56000 32.99800 32.49900
H  -1.86200 35.25700 34.21100
H  -0.32700 34.31500 33.86800
H  0.67900 40.15300 27.85300
H  2.24300 39.28800 27.71800
H  1.17400 39.05400 29.09800
H  2.08800 40.44700 25.90200
H  2.51300 40.38000 24.11900
H  3.27100 39.33400 25.23500
H  -1.06200 34.63100 21.94400
H  -3.27100 32.95000 22.13100
H  -3.74100 35.13200 21.42000
H  -2.25600 36.02500 21.02300
H  -3.20400 36.38700 22.49300
H  -0.88600 32.20600 21.72500
H  -1.98200 31.13000 22.23000
H  -0.69300 32.13200 24.66100
H  0.45100 31.77400 23.25700
H  -0.67700 30.56500 23.83200
H  -5.44500 29.24500 27.10900
H  -5.05900 29.85000 25.51300
H  -6.63300 30.39900 26.45700
H  -3.70000 31.61000 31.08000
H  -6.25900 32.05200 34.83700
H  -7.19400 31.27900 33.59600
H  -7.10200 33.02500 33.71900

