158

Mg 35.90700 49.62800 25.63400
C  35.76300 47.96400 28.61500
C  34.14100 52.23900 27.07200
C  35.57400 50.91400 22.51400
C  37.02200 46.63700 24.02400
N  35.16500 50.09900 27.65200
C  35.20900 49.29200 28.74200
C  34.76000 50.01200 29.93000
C  34.17100 51.33400 29.46200
C  34.50100 51.17800 27.96900
C  32.70100 51.59900 29.85900
C  35.86800 50.15700 30.97600
C  35.31500 50.37900 32.38400
H  33.82800 50.27900 32.68500
N  35.10200 51.36400 24.92600
C  34.35300 52.29800 25.64300
C  33.97300 53.35400 24.70000
C  34.32100 52.93800 23.40400
C  34.91900 51.57800 23.58300
C  33.17400 54.53400 25.12800
C  34.11300 53.69200 22.11100
O  34.41900 53.27000 20.99700
C  33.38900 55.02000 22.06900
N  36.42100 48.91800 23.54100
C  36.18900 49.67400 22.49200
C  36.68100 49.06800 21.16400
C  37.30100 47.73500 21.66700
C  36.81800 47.71300 23.15700
C  35.52200 48.94600 20.09600
C  38.84200 47.50000 21.60600
C  39.74300 48.63300 22.24400
N  36.33100 47.76300 26.17200
C  36.84100 46.66200 25.48500
C  37.01400 45.55500 26.36100
C  36.66000 46.02600 27.61100
C  36.22900 47.35900 27.43900
C  37.46300 44.18900 25.94000
C  36.49600 45.68600 29.01200
O  36.62600 44.59400 29.55700
C  35.95700 46.93700 29.72200
C  34.72500 46.56700 30.37600
O  33.71100 46.11000 29.90700
O  34.88200 46.64900 31.77200
C  33.83800 45.97700 32.52800
H  33.65200 53.10300 27.52600
H  35.36400 51.27900 21.50700
H  37.36500 45.76700 23.46000
H  33.97400 49.33100 30.25800
H  34.71000 52.17500 29.89800
H  32.61500 52.45100 30.53400
H  32.29700 50.78700 30.46400
H  31.95500 51.77600 29.08500
H  36.52100 50.96200 30.64000
H  36.53900 49.29800 30.96100
H  35.65400 51.36300 32.70900
H  35.80100 49.78100 33.15400
H  33.36100 54.54000 26.20100
H  32.11600 54.31900 24.97900
H  33.45300 55.55700 24.87500
H  33.30600 55.44100 21.06700
H  33.91600 55.76200 22.66900
H  32.34100 54.95000 22.36200
H  37.37600 49.73100 20.64800
H  36.73600 46.93900 21.18400
H  34.60500 49.20700 20.62500
H  35.37500 47.95300 19.67100
H  35.68800 49.61300 19.25000
H  39.04800 47.34300 20.54700
H  39.06600 46.53500 22.06100
H  39.17900 49.36400 22.82400
H  40.43300 49.10100 21.54200
H  40.25700 48.12600 23.06000
H  38.37700 43.85700 26.43200
H  37.84000 44.22500 24.91800
H  36.64900 43.48500 26.11500
H  36.65800 47.10600 30.53900
H  33.78700 46.58900 33.42800
H  33.92100 44.92200 32.78900
H  32.84800 46.17200 32.11600
Mg -1.58700 34.30200 26.45600
C  -3.13100 32.51600 29.24700
C  -0.19900 36.34600 28.61700
C  -0.66400 36.15400 23.81400
C  -3.65300 32.35100 24.41000
N  -1.45500 34.18500 28.68500
C  -2.19800 33.49100 29.59800
C  -1.81200 33.92800 31.00600
C  -1.19800 35.33400 30.81900
C  -0.85300 35.27000 29.27100
C  -2.01800 36.62200 31.34300
C  -0.97200 32.84800 31.77000
C  -1.48700 32.68300 33.16900
H  -0.41800 32.34400 34.23200
N  -0.56800 35.95600 26.24200
C  -0.00500 36.67000 27.24100
C  0.75600 37.79500 26.64500
C  0.62400 37.80600 25.22600
C  -0.23600 36.61800 25.03300
C  1.67700 38.66000 27.48400
C  1.17600 38.67500 24.08200
O  1.11400 38.36500 22.91200
C  1.88700 39.95900 24.42700
N  -1.93800 34.11200 24.36900
C  -1.52100 35.09900 23.53400
C  -2.15000 34.85300 22.16400
C  -2.85600 33.54100 22.30900
C  -2.79000 33.26700 23.79300
C  -2.97200 35.97700 21.47000
C  -2.25200 32.45700 21.34400
C  -0.94700 31.70500 21.84000
N  -3.19200 32.89200 26.70600
C  -3.87000 32.13900 25.74700
C  -4.81700 31.29100 26.34100
C  -4.55000 31.34800 27.71500
C  -3.58500 32.35500 27.89400
C  -5.79100 30.29500 25.78700
C  -4.88400 30.81800 29.00500
O  -5.71200 29.99800 29.35600
C  -3.99900 31.56200 30.07600
C  -4.95300 32.20000 31.02800
O  -5.77600 33.07300 30.80500
O  -4.58700 31.78000 32.25100
C  -5.37600 32.31900 33.36400
H  0.26400 37.12100 29.23000
H  -0.30500 36.66000 22.91500
H  -4.35200 31.92500 23.68700
H  -2.75300 34.00300 31.55000
H  -0.22600 35.30300 31.31100
H  -2.25100 37.13700 30.41100
H  -1.35700 37.13800 32.04000
H  -2.97800 36.40900 31.81300
H  0.07700 33.13200 31.68800
H  -1.35300 31.92600 31.33100
H  -2.36600 32.04900 33.28700
H  -1.91400 33.63100 33.49700
H  1.54800 38.30700 28.50800
H  1.29100 39.67900 27.51500
H  2.70600 38.67000 27.12400
H  1.46500 40.73100 23.78400
H  2.95800 39.88300 24.23700
H  1.70200 40.39900 25.40700
H  -1.25500 34.62100 21.58700
H  -3.90600 33.63900 22.03500
H  -2.40800 36.47600 20.68300
H  -3.15500 36.71100 22.25500
H  -3.92800 35.75200 20.99700
H  -2.03700 32.85700 20.35300
H  -3.01800 31.68500 21.26600
H  -1.11900 30.65400 22.07200
H  -0.42500 32.19300 22.66300
H  -0.20800 31.81700 21.04700
H  -5.59300 30.24600 24.71600
H  -6.83100 30.54200 26.00300
H  -5.64900 29.36800 26.34200
H  -3.32800 30.84500 30.55000
H  -6.30700 32.83800 33.13600
H  -4.61700 32.94600 33.83300
H  -5.57300 31.47000 34.01800

