158

Mg 4.57500 55.21800 41.00000
C  3.85000 51.81500 41.09100
C  7.81000 54.34000 40.05900
C  5.05500 58.41900 39.80200
C  1.15800 55.86000 41.58000
N  5.57700 53.33600 40.37500
C  5.10400 52.06600 40.62600
C  6.20500 51.00600 40.37900
C  7.50000 51.86600 40.28700
C  6.93700 53.25800 40.24900
C  8.47500 51.63900 41.50800
C  5.99200 49.97600 39.16100
C  5.56500 50.61400 37.81600
H  6.55700 50.57400 36.71900
N  6.17200 56.23500 40.16200
C  7.40600 55.70300 39.89700
C  8.29800 56.74700 39.51800
C  7.50200 57.94600 39.27200
C  6.17200 57.58700 39.75200
C  9.80600 56.48100 39.42700
C  8.04200 59.21700 38.73400
O  9.25700 59.29700 38.65700
C  7.19400 60.45900 38.45500
N  3.23300 56.83900 40.42300
C  3.72900 58.10300 40.16000
C  2.72900 59.18900 40.58300
C  1.43500 58.33000 40.98400
C  1.95400 56.90700 41.04000
C  3.23100 60.16400 41.67700
C  0.25200 58.37700 39.88700
C  -1.20700 58.32700 40.38000
N  2.89100 54.12900 41.50600
C  1.63300 54.51900 41.84200
C  0.86200 53.43100 42.34700
C  1.63400 52.28700 42.02000
C  2.89200 52.80700 41.53700
C  -0.51100 53.58100 42.93600
C  1.67700 50.85400 42.05000
O  0.85900 50.04300 42.32600
C  3.08400 50.48400 41.45900
C  3.01300 49.47100 40.36000
O  2.71200 49.74900 39.21300
O  3.34800 48.27800 40.83200
C  3.12500 47.17200 39.91600
H  8.78900 53.86700 39.94700
H  5.23300 59.46800 39.55300
H  0.12200 56.09900 41.83300
H  6.21100 50.43900 41.30900
H  7.94400 51.66300 39.31200
H  8.77400 52.56000 42.00800
H  9.45000 51.24900 41.21700
H  8.02600 50.91400 42.18600
H  5.28500 49.22100 39.50600
H  6.91600 49.43500 38.95700
H  5.21300 51.62400 38.02700
H  4.67100 50.08800 37.48100
H  10.30800 57.04100 40.21500
H  10.13400 56.57400 38.39200
H  10.08000 55.43700 39.57500
H  7.78500 61.13100 37.83300
H  7.09400 60.88400 39.45400
H  6.33800 60.10200 37.88300
H  2.58500 59.87900 39.75100
H  0.98600 58.70200 41.90500
H  4.22600 59.90100 42.03500
H  2.65400 60.15500 42.60200
H  3.21800 61.19000 41.30800
H  0.35100 57.48500 39.26800
H  0.38200 59.15200 39.13100
H  -1.74900 57.38100 40.39900
H  -1.79700 59.03000 39.79300
H  -1.34400 58.64900 41.41200
H  -1.03600 52.62700 42.89900
H  -1.04200 54.34100 42.36200
H  -0.50800 54.03100 43.92900
H  3.56300 49.96500 42.28900
H  2.10500 46.78900 39.94600
H  3.71000 46.43500 40.46700
H  3.55500 47.31600 38.92400
Mg -10.45400 39.20000 40.21700
C  -8.66200 36.31700 39.07800
C  -7.58100 41.15400 39.60800
C  -12.44300 41.93800 40.22800
C  -13.32400 37.16700 40.19900
N  -8.37900 38.77800 39.53000
C  -7.97400 37.60300 38.99000
C  -6.69400 37.75200 38.24700
C  -6.16200 39.09300 38.86600
C  -7.41800 39.74000 39.39100
C  -5.21500 38.89300 40.10500
C  -6.76300 37.84000 36.72100
C  -6.17200 36.70800 35.89100
H  -7.00300 36.16100 34.69800
N  -10.06000 41.26900 39.97600
C  -8.81500 41.90200 39.71800
C  -8.99200 43.32300 39.61100
C  -10.34900 43.58800 39.85400
C  -11.02700 42.24500 40.05400
C  -7.82200 44.26800 39.24100
C  -10.98900 44.93000 39.83000
O  -10.29500 45.88200 39.53900
C  -12.48600 45.13500 39.94900
N  -12.57000 39.52200 40.17500
C  -13.11800 40.73300 40.34100
C  -14.64200 40.71600 40.38200
C  -14.89300 39.11400 40.18000
C  -13.54700 38.56800 40.17300
C  -15.09900 41.16300 41.74600
C  -15.70100 38.89100 38.91500
C  -16.58600 37.57900 38.82800
N  -10.88500 37.12000 39.99600
C  -12.06800 36.47700 40.12500
C  -11.78300 35.08000 40.14500
C  -10.47400 34.95500 39.66100
C  -9.97200 36.24700 39.62300
C  -12.75300 34.08300 40.57300
C  -9.37600 34.02300 39.26300
O  -9.34000 32.79200 39.40400
C  -8.21500 34.92000 38.73400
C  -6.89000 34.53000 39.41500
O  -6.61200 34.67800 40.59100
O  -6.02700 33.96300 38.50700
C  -4.72700 33.51100 38.98700
H  -6.67600 41.73000 39.40400
H  -13.18500 42.72700 40.36400
H  -14.21200 36.53300 40.24900
H  -6.12500 36.87500 38.55400
H  -5.65800 39.66000 38.08400
H  -4.22500 39.19800 39.76500
H  -5.24800 37.85700 40.44300
H  -5.41400 39.53300 40.96500
H  -6.44700 38.81000 36.33500
H  -7.81200 37.83100 36.42300
H  -6.01700 35.88700 36.59100
H  -5.14500 36.89000 35.57400
H  -8.14800 45.09000 38.60400
H  -7.09000 43.65900 38.71000
H  -7.20300 44.66900 40.04300
H  -12.82100 46.17100 39.89600
H  -12.92400 44.69300 40.84400
H  -13.02500 44.69800 39.10900
H  -14.95400 41.34600 39.54900
H  -15.34200 38.67600 41.07100
H  -15.58000 42.14100 41.72100
H  -14.28400 41.29000 42.45800
H  -15.81300 40.41500 42.09100
H  -14.99300 38.95700 38.08900
H  -16.35800 39.75700 38.83700
H  -16.07400 36.72900 38.37600
H  -17.57500 37.82700 38.44200
H  -16.78800 37.32400 39.86800
H  -12.92000 34.23100 41.64000
H  -12.28600 33.10500 40.45400
H  -13.67400 34.21700 40.00600
H  -8.15300 34.80800 37.65100
H  -4.44300 32.75700 38.25300
H  -4.95800 33.10300 39.97100
H  -3.97100 34.28100 39.13900

