158

Mg 7.53600 3.07400 27.95700
C  8.93000 1.83600 30.82300
C  5.92700 5.38000 29.76900
C  5.87500 4.04500 25.03500
C  9.30800 0.71100 26.08300
N  7.36000 3.52000 30.02700
C  8.03400 2.86900 31.07400
C  7.73400 3.56200 32.38300
C  6.75200 4.70900 32.00600
C  6.65200 4.50800 30.54400
C  5.32400 4.69400 32.70900
C  9.00100 4.06700 33.16800
C  9.17600 3.71900 34.75300
H  9.56200 4.80100 35.73900
N  6.06900 4.44700 27.50700
C  5.64200 5.39600 28.39300
C  4.74000 6.30000 27.68000
C  4.61500 5.93700 26.36500
C  5.53100 4.77900 26.24300
C  4.04100 7.36400 28.43000
C  3.81500 6.56600 25.22500
O  3.66800 6.04700 24.16000
C  3.05700 7.74300 25.53700
N  7.49600 2.32100 25.86400
C  6.73500 2.94800 24.87700
C  6.96100 2.21500 23.54600
C  8.26500 1.43700 23.85400
C  8.32600 1.42500 25.38700
C  5.83400 1.21500 23.14200
C  9.54900 2.05300 23.23400
C  10.30300 1.08000 22.33900
N  8.89700 1.54700 28.31200
C  9.57400 0.71700 27.50200
C  10.49200 -0.13600 28.25900
C  10.31700 0.38400 29.59500
C  9.32100 1.35300 29.54700
C  11.46400 -1.21400 27.80700
C  10.70000 0.15100 30.99500
O  11.43800 -0.60400 31.56800
C  9.80900 1.16200 31.83600
C  9.04200 0.33100 32.76000
O  8.11500 -0.34300 32.45300
O  9.69900 0.21100 33.98700
C  9.07000 -0.54900 35.03100
H  5.64100 6.15000 30.49000
H  5.57600 4.36100 24.03400
H  10.06900 0.22000 25.47200
H  7.09900 2.87800 32.94600
H  7.21200 5.69700 32.00100
H  4.71900 4.00600 32.11900
H  4.93000 5.70900 32.66300
H  5.27700 4.35600 33.74500
H  8.85200 5.14400 33.24200
H  9.98000 4.04800 32.68900
H  10.03300 3.04700 34.81000
H  8.37200 3.08700 35.12900
H  4.51900 8.32400 28.23700
H  4.04200 7.01700 29.46300
H  2.99300 7.45300 28.14300
H  2.35900 7.45100 26.32100
H  2.47500 8.01300 24.65600
H  3.73100 8.54900 25.82700
H  6.99400 2.94000 22.73300
H  8.16700 0.42700 23.45900
H  5.00000 1.23200 23.84400
H  6.11300 0.16100 23.14000
H  5.30700 1.43900 22.21400
H  10.24000 2.37400 24.01500
H  9.25200 2.94800 22.68800
H  10.74900 1.52300 21.44900
H  9.61000 0.30000 22.02500
H  11.18700 0.66300 22.82300
H  11.58200 -1.15900 26.72400
H  11.06700 -2.19000 28.08400
H  12.38400 -1.00700 28.35300
H  10.45300 1.83500 32.40300
H  9.95100 -1.01400 35.47400
H  8.32800 -1.30600 34.77500
H  8.58100 0.06800 35.78400
Mg 35.03800 2.86900 29.11700
C  33.08400 3.93700 31.82700
C  37.86400 3.20100 31.09100
C  36.91400 1.90400 26.52600
C  32.19500 2.84100 27.18700
N  35.41800 3.28200 31.25700
C  34.45800 3.69400 32.17700
C  35.06800 3.63900 33.53500
C  36.57700 3.77300 33.26800
C  36.66000 3.43600 31.74800
C  37.27500 5.16700 33.65900
C  34.55500 2.52600 34.47900
C  34.35100 2.92400 35.93800
H  35.22700 3.98100 36.65900
N  37.14400 2.53500 28.84500
C  38.10500 2.80700 29.79200
C  39.39700 2.59100 29.15800
C  39.18500 2.13400 27.78300
C  37.68900 2.16900 27.64000
C  40.67100 2.97000 29.90500
C  40.11100 1.65000 26.68400
O  39.70200 1.33400 25.58800
C  41.53400 1.42300 26.93200
N  34.59200 2.40900 27.14800
C  35.52500 1.98500 26.29300
C  34.89500 1.49600 24.95400
C  33.37500 1.82200 25.18300
C  33.36500 2.49100 26.59100
C  35.61800 1.90400 23.67100
C  32.54400 0.50800 24.87000
C  32.37600 -0.56100 25.96000
N  33.07200 3.32900 29.32700
C  32.05100 3.27200 28.48000
C  30.85800 3.75800 29.01600
C  31.24100 4.02300 30.37400
C  32.57800 3.75100 30.50400
C  29.52600 3.68500 28.40300
C  30.69600 4.54900 31.66900
O  29.64000 5.02700 31.95600
C  31.87300 4.23300 32.69200
C  32.04700 5.40600 33.52900
O  32.38700 6.54500 33.11400
O  31.67800 5.13800 34.85700
C  31.50900 6.30600 35.75000
H  38.76300 3.27200 31.70700
H  37.47100 1.41600 25.72400
H  31.30600 2.90400 26.55500
H  34.78500 4.56300 34.03900
H  37.04100 2.92900 33.78000
H  37.86200 4.98000 34.55900
H  36.48300 5.83100 34.00600
H  37.84900 5.52200 32.80300
H  35.30100 1.73200 34.45000
H  33.60600 2.15000 34.09500
H  34.35400 2.03900 36.57500
H  33.33400 3.31600 35.95800
H  41.00500 2.18100 30.58000
H  40.65600 3.89100 30.48700
H  41.44400 2.97600 29.13600
H  42.08100 2.36500 26.90300
H  41.89600 0.76600 26.14100
H  41.54700 0.87800 27.87600
H  35.03400 0.43800 25.17900
H  33.14700 2.53900 24.39400
H  36.18000 2.82100 23.84300
H  34.78900 1.97800 22.96800
H  36.25300 1.16300 23.18500
H  32.97600 -0.00600 24.01200
H  31.53100 0.82300 24.62000
H  32.92000 -1.48500 25.76500
H  31.30600 -0.71200 26.10900
H  32.83900 -0.26600 26.90100
H  28.81500 4.21600 29.03600
H  29.17400 2.66500 28.25000
H  29.49000 4.22900 27.46000
H  31.58000 3.45600 33.39900
H  30.48700 6.64600 35.92100
H  31.99700 7.24900 35.50100
H  31.89200 6.02000 36.72900

