158

Mg 35.34000 2.92100 30.23100
C  32.75500 3.86200 32.35400
C  37.41900 3.05200 32.99700
C  37.99700 2.56900 28.25600
C  33.23400 3.08400 27.59000
N  35.14500 3.48600 32.33300
C  33.99000 3.83900 32.97800
C  34.11600 3.90100 34.53800
C  35.65600 3.87500 34.66200
C  36.13100 3.39800 33.22000
C  36.06000 5.22600 35.09900
C  33.43900 2.65300 35.12500
C  33.11100 2.58700 36.65900
H  33.67900 3.68700 37.68800
N  37.42600 2.76100 30.55800
C  38.05900 2.72700 31.78300
C  39.44100 2.47100 31.61900
C  39.55200 2.20800 30.24600
C  38.31900 2.57700 29.63200
C  40.35300 2.40600 32.79500
C  40.76300 1.63500 29.40400
O  40.69300 1.34800 28.19700
C  42.07800 1.43900 30.13200
N  35.60700 3.00500 28.20400
C  36.80200 2.79400 27.57800
C  36.59900 2.46900 26.03900
C  35.03100 2.54100 25.91000
C  34.56200 2.87400 27.30500
C  37.32500 3.27400 24.93100
C  34.38800 1.26500 25.35500
C  34.15700 0.00300 26.26100
N  33.30700 3.36800 29.96700
C  32.57500 3.36200 28.82100
C  31.18200 3.65300 29.14400
C  31.22600 3.83700 30.57000
C  32.53000 3.69000 30.99700
C  30.20900 3.67900 28.14400
C  30.36400 4.17700 31.71100
O  29.22600 4.54800 31.77300
C  31.37500 4.24300 32.93400
C  31.41700 5.61400 33.42800
O  31.30400 6.62200 32.73100
O  31.41700 5.55800 34.80200
C  31.62600 6.81400 35.54900
H  38.05800 3.25300 33.86000
H  38.85700 2.60800 27.58600
H  32.55100 2.96800 26.74500
H  33.44000 4.68500 34.87900
H  35.98700 3.16800 35.42300
H  36.17100 5.14900 36.18000
H  35.38600 6.06100 34.90900
H  37.05600 5.53600 34.78200
H  33.99600 1.76200 34.83700
H  32.45000 2.39600 34.74300
H  33.49300 1.68500 37.13700
H  32.02900 2.47000 36.71700
H  40.20000 1.49400 33.37200
H  40.27900 3.35900 33.31800
H  41.39900 2.44700 32.49000
H  42.81800 1.28200 29.34600
H  42.04800 0.63100 30.86200
H  42.34200 2.40900 30.55200
H  36.90200 1.43300 25.89200
H  34.79400 3.37900 25.25500
H  38.27900 2.85400 24.61500
H  37.60200 4.23800 25.35900
H  36.64400 3.35000 24.08300
H  35.06500 0.92600 24.57100
H  33.51800 1.56400 24.77000
H  35.06700 -0.58500 26.14300
H  33.36200 -0.61800 25.84700
H  34.15500 0.30400 27.30800
H  30.12800 2.75300 27.57400
H  30.54700 4.48900 27.49800
H  29.26600 4.00200 28.58700
H  30.99100 3.62300 33.74400
H  30.64200 7.18000 35.84100
H  32.11200 7.60000 34.97000
H  32.26100 6.73600 36.43200
Mg 55.51900 23.82100 44.67400
C  53.33900 26.51000 44.21200
C  53.09800 21.78300 43.46000
C  57.87200 21.45500 44.63100
C  57.93200 26.23500 45.88200
N  53.51000 24.26200 43.64100
C  52.80900 25.33800 43.59200
C  51.50500 25.06600 42.83200
C  51.29100 23.52700 43.06600
C  52.70100 23.16500 43.42900
C  50.31800 23.23100 44.22000
C  51.59000 25.51800 41.33200
C  50.23600 25.86200 40.64600
H  49.88100 25.06200 39.36900
N  55.50000 21.86300 43.99600
C  54.36200 21.18100 43.60100
C  54.79200 19.84200 43.32900
C  56.19400 19.72000 43.64900
C  56.59500 20.99900 44.12700
C  53.79800 18.81500 42.83400
C  57.03500 18.38200 43.61900
O  56.53500 17.32600 43.24900
C  58.42400 18.33700 44.01000
N  57.60200 23.87900 45.07700
C  58.29000 22.65500 45.17700
C  59.77500 22.89800 45.61100
C  59.74400 24.42700 45.89800
C  58.30800 24.88700 45.59300
C  60.32200 21.98900 46.75000
C  60.79300 25.24300 45.13300
C  61.84300 25.88900 46.09300
N  55.62100 26.03700 45.05900
C  56.67200 26.80300 45.58600
C  56.13400 28.19400 45.78000
C  54.81900 28.08100 45.30100
C  54.63100 26.74800 44.75400
C  56.83700 29.33600 46.27300
C  53.53200 28.77200 45.16600
O  53.16700 29.90300 45.57700
C  52.55600 27.84200 44.37500
C  52.24900 28.59100 43.12300
O  53.09300 28.92200 42.30700
O  50.87800 28.75000 43.03800
C  50.46000 29.60600 41.89000
H  52.23900 21.17800 43.16200
H  58.67600 20.71800 44.68400
H  58.64600 26.86200 46.41900
H  50.81700 25.74200 43.33900
H  50.95200 23.01700 42.16400
H  49.41100 22.77500 43.82200
H  50.01800 24.15800 44.70700
H  50.70600 22.62700 45.04100
H  52.08500 24.75900 40.72600
H  52.20000 26.41600 41.23600
H  50.31700 26.92500 40.42000
H  49.43100 25.77500 41.37500
H  53.03400 19.41900 42.34400
H  53.39000 18.25600 43.67600
H  54.42500 18.21300 42.17700
H  58.44300 18.71300 45.03300
H  58.93300 18.96400 43.27900
H  58.71400 17.28700 43.96300
H  60.33300 22.77600 44.68300
H  59.87200 24.55900 46.97200
H  61.01700 21.36100 46.19200
H  59.52000 21.37000 47.15100
H  60.86600 22.49400 47.54800
H  60.32100 26.11800 44.68700
H  61.26200 24.65100 44.34700
H  62.68100 25.20300 45.96500
H  61.50100 25.92800 47.12700
H  62.24000 26.80800 45.66200
H  57.02400 29.14000 47.32900
H  56.28400 30.26800 46.15900
H  57.79500 29.39100 45.75500
H  51.66500 27.66600 44.97900
H  50.41800 30.68700 42.02700
H  49.46000 29.33400 41.55100
H  51.12100 29.52500 41.02700

