158

Mg 2.35300 -1.07200 43.88500
C  5.77600 -0.39200 43.33000
C  1.51800 1.51400 41.97600
C  -0.78400 -2.27200 43.99400
C  3.38300 -4.00500 45.68900
N  3.55900 0.26500 42.58500
C  4.91400 0.50300 42.65200
C  5.31000 1.67000 41.70700
C  3.94600 2.39900 41.47400
C  2.91200 1.40100 42.08000
C  3.83500 3.79000 42.25300
C  5.96100 1.22100 40.40400
C  7.32700 1.75400 40.12800
H  7.43500 2.23300 38.67200
N  0.58200 -0.40200 43.18500
C  0.43700 0.71000 42.41600
C  -0.96200 0.95500 42.14300
C  -1.69000 -0.10700 42.70300
C  -0.65500 -0.96000 43.35700
C  -1.41700 2.09700 41.35500
C  -3.25200 -0.26000 42.75800
O  -3.97500 0.61800 42.32600
C  -3.79700 -1.48400 43.45600
N  1.40400 -2.82700 45.04400
C  0.11200 -3.11800 44.66300
C  -0.29100 -4.48500 45.14100
C  1.00800 -5.11000 45.66300
C  1.99100 -3.93500 45.49000
C  -1.51300 -4.48200 46.10500
C  1.55800 -6.43500 44.97700
C  1.90900 -7.56100 45.90700
N  4.24200 -2.02900 44.46100
C  4.46200 -3.16000 45.24300
C  5.94900 -3.34400 45.36700
C  6.49300 -2.23900 44.71200
C  5.42000 -1.48000 44.16800
C  6.62700 -4.51700 46.03400
C  7.73700 -1.53100 44.40300
O  8.91500 -1.90800 44.63800
C  7.28600 -0.23100 43.56800
C  7.68900 0.92300 44.31400
O  6.98800 1.65800 45.03500
O  9.09600 1.04000 44.23600
C  9.71800 2.03800 45.15200
H  1.26100 2.42700 41.43600
H  -1.72700 -2.81700 43.90900
H  3.58500 -4.90600 46.27100
H  5.98100 2.35800 42.22100
H  3.80600 2.57500 40.40800
H  3.12300 3.66800 43.06900
H  3.42400 4.49500 41.53100
H  4.80100 4.18100 42.57100
H  5.35800 1.38900 39.51100
H  6.02900 0.13300 40.40300
H  8.02700 0.92200 40.19800
H  7.56900 2.55100 40.83100
H  -2.46200 2.13100 41.04700
H  -0.71500 2.38100 40.57100
H  -1.31300 2.93900 42.04000
H  -4.85000 -1.31900 43.68300
H  -3.31900 -1.70000 44.41200
H  -3.61100 -2.41100 42.91400
H  -0.61300 -5.00100 44.23600
H  0.92700 -5.31700 46.73000
H  -1.31900 -4.81200 47.12600
H  -2.38500 -4.97400 45.67500
H  -1.79200 -3.45600 46.34900
H  2.44200 -6.13800 44.41400
H  0.82500 -6.74700 44.23300
H  2.98800 -7.70700 45.85100
H  1.48600 -8.52600 45.62700
H  1.72100 -7.44700 46.97400
H  7.39100 -3.96000 46.57600
H  7.09700 -5.25700 45.38600
H  5.99900 -5.03400 46.75900
H  7.85900 -0.31300 42.64400
H  9.58300 1.69500 46.17700
H  9.35100 3.06400 45.11000
H  10.78900 2.03200 44.95200
Mg -0.08100 43.58500 26.20600
C  2.13500 43.41100 28.98700
C  -2.53600 42.55100 28.41700
C  -2.17100 43.56000 23.64300
C  2.57900 44.20300 24.12100
N  -0.09400 42.95400 28.56600
C  0.87900 43.08600 29.47200
C  0.31900 42.94200 30.90400
C  -1.16100 42.46700 30.59900
C  -1.32200 42.76700 29.09300
C  -1.55000 41.00100 31.02400
C  0.40600 44.24700 31.75200
C  0.84500 44.19600 33.24500
H  0.73000 42.91300 33.99600
N  -2.07200 43.12000 26.04700
C  -2.91900 42.77500 27.09600
C  -4.32600 42.67100 26.59400
C  -4.26200 43.07100 25.20100
C  -2.80900 43.33700 24.94100
C  -5.48400 42.21800 27.45100
C  -5.35100 43.17300 24.13300
O  -5.10400 43.43800 22.99000
C  -6.78200 42.87500 24.50500
N  0.19100 43.80700 24.10800
C  -0.84400 43.86700 23.24800
C  -0.40100 44.26300 21.87000
C  1.09200 44.64300 22.13000
C  1.30300 44.23900 23.52700
C  -0.56400 43.08600 20.93100
C  1.44600 46.13700 21.75800
C  1.31600 47.10800 22.98600
N  1.94200 43.66600 26.47000
C  2.89200 43.89000 25.48800
C  4.26800 43.81800 26.13200
C  4.02900 43.67300 27.53100
C  2.56100 43.61300 27.66400
C  5.49200 44.01200 25.32700
C  4.63600 43.47400 28.84400
O  5.77200 43.52100 29.21800
C  3.39300 43.43700 29.77600
C  3.57200 42.24300 30.54100
O  3.28400 41.10900 30.25600
O  4.08800 42.53600 31.77000
C  4.36200 41.36700 32.65700
H  -3.30300 42.21300 29.11700
H  -2.81200 43.62900 22.76200
H  3.36800 44.27600 23.36900
H  0.98300 42.20800 31.36100
H  -1.91100 43.10400 31.06800
H  -2.47200 41.02400 31.60500
H  -0.78900 40.40900 31.53300
H  -1.73000 40.38900 30.14000
H  -0.57600 44.72100 31.74800
H  1.03100 45.00700 31.28500
H  0.12900 44.82700 33.77200
H  1.82200 44.66500 33.35600
H  -6.44000 42.41700 26.96600
H  -5.48100 42.90300 28.29900
H  -5.44800 41.27200 27.99100
H  -7.45800 43.01100 23.66100
H  -7.10500 43.50100 25.33700
H  -6.89600 41.83500 24.80800
H  -1.02300 45.12200 21.61700
H  1.77800 43.98900 21.59200
H  -0.56000 43.38300 19.88300
H  -1.54100 42.64800 21.13600
H  0.14400 42.26800 21.06700
H  0.77700 46.35700 20.92600
H  2.45700 46.28300 21.37700
H  0.92100 48.05900 22.62900
H  2.37300 47.24900 23.21000
H  0.72000 46.73300 23.81900
H  5.46500 44.79700 24.57100
H  5.70400 43.08300 24.79700
H  6.27700 44.31200 26.02100
H  3.51200 44.23100 30.51300
H  4.86800 40.58800 32.08700
H  3.44200 40.97700 33.09300
H  4.91600 41.65000 33.55200

