158

Mg 46.98800 34.02800 27.05700
C  44.77400 32.90000 29.57600
C  47.49900 36.81300 28.93300
C  48.50500 35.41500 24.31600
C  46.10700 31.26500 25.10400
N  46.25400 34.69400 28.95900
C  45.56600 33.98400 29.88800
C  45.63900 34.63200 31.28700
C  46.26400 36.10000 30.96100
C  46.62800 35.87800 29.53000
C  45.45900 37.38200 31.28100
C  46.61300 33.77500 32.13800
C  47.05000 34.26300 33.50400
H  46.08400 35.19300 34.20300
N  47.91800 35.86500 26.67600
C  48.09600 36.84600 27.62100
C  48.88500 37.94500 27.07100
C  49.13600 37.51400 25.67200
C  48.48200 36.24900 25.49600
C  49.32700 39.23400 27.84500
C  49.77400 38.33200 24.63400
O  49.84100 37.94200 23.48900
C  50.36000 39.75600 24.92300
N  47.06000 33.53400 24.96300
C  47.82800 34.13900 24.06600
C  48.03700 33.38400 22.73500
C  47.39500 32.02300 23.03000
C  46.82400 32.21800 24.50300
C  47.58700 34.10700 21.47500
C  48.27800 30.78700 22.77500
C  49.56900 30.48600 23.59800
N  45.65900 32.41900 27.17900
C  45.50300 31.32300 26.39000
C  44.64200 30.38500 27.03100
C  44.24100 31.00700 28.20400
C  44.92900 32.17500 28.31400
C  44.17100 28.99600 26.50200
C  43.38300 30.93100 29.37100
O  42.63700 29.97300 29.44000
C  43.66900 32.12400 30.28700
C  44.09400 31.49000 31.52700
O  44.77700 30.45900 31.64500
O  43.54300 32.12700 32.63700
C  43.74500 31.38300 33.93100
H  47.73400 37.67600 29.56000
H  49.03900 35.70200 23.40800
H  46.01200 30.38600 24.46400
H  44.60700 34.71500 31.63000
H  47.12100 36.19200 31.62800
H  44.45500 37.11100 31.60900
H  45.39500 37.96300 30.36100
H  45.86800 38.06600 32.02400
H  47.48800 33.80000 31.48900
H  46.21800 32.76900 32.28200
H  48.00800 34.70800 33.23400
H  47.38600 33.49800 34.20300
H  50.37500 38.99600 28.02800
H  48.94500 39.15800 28.86300
H  49.15400 40.24400 27.47300
H  49.45700 40.27200 25.24800
H  50.81700 40.17300 24.02500
H  51.12200 39.65700 25.69600
H  49.11400 33.52700 22.81400
H  46.42500 32.05000 22.53300
H  48.48400 34.62600 21.13900
H  46.84300 34.87400 21.69000
H  47.32000 33.36000 20.72700
H  48.53400 31.09700 21.76100
H  47.65800 29.90900 22.59600
H  50.28600 31.24200 23.27700
H  49.98600 29.49300 23.43300
H  49.19300 30.54100 24.61900
H  44.62500 28.18400 27.07000
H  44.49700 29.09000 25.46600
H  43.11900 28.73800 26.38400
H  42.74200 32.68800 30.39100
H  44.40900 31.90500 34.61900
H  43.84900 30.29900 33.96100
H  42.71900 31.52500 34.27100
Mg -10.22100 17.39400 40.73300
C  -6.78400 17.19000 40.90900
C  -9.84800 20.76800 40.16100
C  -13.56500 17.52600 40.09100
C  -10.28600 13.98600 40.55200
N  -8.52400 18.78900 40.45800
C  -7.26700 18.47600 40.68600
C  -6.29800 19.68800 40.46500
C  -7.31200 20.90400 40.72100
C  -8.66000 20.11900 40.49800
C  -7.27700 21.44800 42.11800
C  -5.59900 19.72200 39.06100
C  -4.09400 19.46200 39.03400
H  -3.50900 18.65000 37.92700
N  -11.52100 18.91400 40.18900
C  -11.16600 20.27000 39.96400
C  -12.30500 21.01700 39.59400
C  -13.45300 20.14800 39.74000
C  -12.86900 18.78300 39.95400
C  -12.19800 22.49400 39.13800
C  -14.91300 20.56800 39.66300
O  -15.19900 21.73300 39.50200
C  -15.99200 19.61400 39.60600
N  -11.72800 15.93000 40.47600
C  -13.01500 16.23200 40.36700
C  -13.80900 14.92800 40.22700
C  -12.77700 13.80300 40.17500
C  -11.51900 14.65100 40.39300
C  -14.94500 14.73900 41.26700
C  -12.81500 13.08100 38.86100
C  -12.69600 11.54900 39.03400
N  -8.86900 15.86400 40.76200
C  -9.00600 14.47900 40.76800
C  -7.81400 13.79200 40.87700
C  -6.92700 14.92300 40.97900
C  -7.63100 16.07500 40.92500
C  -7.63300 12.32800 40.87700
C  -5.45800 15.15200 41.04300
O  -4.58300 14.30400 41.08100
C  -5.38600 16.69200 41.19100
C  -4.95900 17.15600 42.55700
O  -3.88000 17.70800 42.72100
O  -5.92300 17.00400 43.48700
C  -5.63600 17.60500 44.82000
H  -9.83700 21.85700 40.07600
H  -14.62300 17.39400 39.85100
H  -10.32200 12.89500 40.53200
H  -5.51200 19.70100 41.22100
H  -7.19300 21.68000 39.96500
H  -6.90600 22.46700 42.00200
H  -6.55800 20.93800 42.75900
H  -8.29300 21.47700 42.51100
H  -5.68300 20.66400 38.52000
H  -6.26000 19.06000 38.50100
H  -3.73100 19.36800 40.05700
H  -3.68800 20.43800 38.76800
H  -12.13200 23.12600 40.02400
H  -13.13900 22.76300 38.65900
H  -11.26000 22.69700 38.62000
H  -16.04400 18.94600 38.74700
H  -16.94000 20.14600 39.67900
H  -15.90800 19.08900 40.55800
H  -14.23000 15.07500 39.23200
H  -13.00300 13.19100 41.04800
H  -15.12300 15.63900 41.85600
H  -14.78600 13.92800 41.97700
H  -15.83500 14.58800 40.65600
H  -11.99000 13.47500 38.26700
H  -13.76900 13.33000 38.39600
H  -11.67500 11.22600 38.82800
H  -13.37300 11.00100 38.37900
H  -12.88100 11.34500 40.08900
H  -7.94000 11.94300 39.90500
H  -8.33000 11.84600 41.56200
H  -6.62000 11.95700 41.03200
H  -4.66600 16.98800 40.42700
H  -4.80400 17.14700 45.35400
H  -6.59600 17.47700 45.32000
H  -5.42100 18.67100 44.74800

