158

Mg 41.73400 7.45400 30.19800
C  43.41600 8.78500 32.78800
C  39.42500 6.06400 32.34500
C  40.31400 5.70900 27.58600
C  44.70100 7.66500 28.32000
N  41.48700 7.34000 32.32000
C  42.21300 8.13000 33.20600
C  41.62100 8.04400 34.62700
C  40.42300 7.04200 34.50700
C  40.46300 6.77700 32.95500
C  40.59400 5.73000 35.28400
C  41.16500 9.43400 35.09800
C  40.77200 9.49900 36.54300
H  41.52000 10.53900 37.45700
N  40.05900 6.22800 30.00700
C  39.25500 5.77500 31.01800
C  38.17800 4.96300 30.44200
C  38.39800 4.86100 29.04000
C  39.65300 5.65100 28.83700
C  37.27300 4.18300 31.26500
C  37.49500 4.20900 27.98600
O  37.73900 4.21800 26.80400
C  36.17100 3.59900 28.47400
N  42.45000 6.71900 28.26300
C  41.65400 6.14100 27.36400
C  42.26700 6.05100 25.94800
C  43.60000 6.76900 26.14900
C  43.60900 7.03100 27.70400
C  42.27900 4.56000 25.47900
C  43.78600 7.99700 25.30800
C  42.81100 9.19500 25.53100
N  43.57500 8.23200 30.41500
C  44.62000 8.28400 29.54900
C  45.65200 9.13400 30.18900
C  45.18300 9.46800 31.44900
C  43.99100 8.79100 31.55100
C  46.94600 9.62700 29.67500
C  45.52900 10.06500 32.75100
O  46.52300 10.72100 33.05900
C  44.26200 9.63500 33.61600
C  44.74900 9.02100 34.79300
O  45.23200 7.91500 34.84600
O  44.82600 10.02200 35.75700
C  45.71000 9.83300 36.91500
H  38.61900 5.75600 33.01400
H  39.88900 5.13200 26.76200
H  45.61200 7.83800 27.74300
H  42.41800 7.72400 35.30000
H  39.62000 7.64200 34.93500
H  40.99300 5.00700 34.57200
H  39.57900 5.44200 35.55600
H  41.31500 5.82900 36.09500
H  40.32500 9.71400 34.46200
H  41.98600 10.11100 34.86200
H  40.87600 8.56400 37.09400
H  39.69500 9.64600 36.62400
H  37.47900 4.17700 32.33500
H  37.15300 3.13700 30.98100
H  36.32700 4.71000 31.14200
H  35.69300 4.21900 29.23300
H  36.42600 2.63300 28.90800
H  35.56800 3.49100 27.57300
H  41.50900 6.56300 25.35500
H  44.38400 6.13500 25.73500
H  41.32200 4.19800 25.10400
H  42.49100 3.92700 26.34100
H  43.05300 4.39300 24.73000
H  43.86400 7.59400 24.29800
H  44.77900 8.36800 25.56300
H  42.14800 9.22000 26.39500
H  42.06500 9.26200 24.74000
H  43.52300 10.00900 25.66700
H  46.95200 9.75600 28.59200
H  47.67600 8.91000 30.04900
H  47.17900 10.62200 30.05300
H  43.72800 10.57200 33.77300
H  45.17600 9.87000 37.86400
H  46.31600 10.73100 37.04400
H  46.37500 8.97200 36.84300
Mg 16.11400 51.57600 26.29600
C  18.17000 50.65200 29.01300
C  13.71400 52.48600 28.42300
C  14.29200 52.22000 23.56200
C  18.60300 50.18800 24.17000
N  16.04000 51.69200 28.47600
C  16.96700 51.26500 29.38200
C  16.41600 51.45700 30.83200
C  14.96600 51.99600 30.60000
C  14.86900 52.04800 29.07400
C  13.77400 51.12400 31.20600
C  17.27900 52.45000 31.55700
C  17.31700 52.56400 33.05600
H  16.36300 51.75300 33.94200
N  14.24500 52.30900 26.06800
C  13.38000 52.70700 27.07300
C  12.27800 53.31600 26.42700
C  12.47300 53.26800 24.98300
C  13.72100 52.55400 24.81500
C  11.09300 53.86700 27.20300
C  11.49100 53.72300 23.90500
O  11.56000 53.53200 22.73300
C  10.20600 54.35100 24.28600
N  16.35600 51.14300 24.14000
C  15.43000 51.47900 23.21500
C  15.77600 50.85700 21.83400
C  17.28000 50.57000 22.04800
C  17.44100 50.65900 23.57600
C  14.91000 49.62300 21.50500
C  18.15400 51.62700 21.35700
C  19.24200 51.02700 20.38500
N  18.06900 50.63100 26.47100
C  18.92600 50.08900 25.50300
C  19.96500 49.39400 26.13600
C  19.81100 49.60200 27.52600
C  18.58800 50.37600 27.66400
C  21.05900 48.64100 25.48500
C  20.31700 49.39100 28.87100
O  21.24900 48.76300 29.23500
C  19.22100 50.10000 29.92200
C  18.83000 49.01300 30.74600
O  18.22500 47.98700 30.32500
O  19.28300 49.22100 32.02700
C  18.89700 48.15800 32.98400
H  12.86300 52.71500 29.06900
H  13.72400 52.46700 22.66300
H  19.41400 49.93800 23.48300
H  16.49900 50.48100 31.31100
H  14.82300 52.94700 31.11200
H  13.07500 50.58400 30.56700
H  13.11200 51.71100 31.84200
H  14.34400 50.46900 31.86400
H  17.02900 53.41500 31.11600
H  18.26500 52.26700 31.12800
H  17.01700 53.60400 33.18100
H  18.34900 52.47400 33.39500
H  10.29800 53.13300 27.07100
H  10.79000 54.90600 27.07600
H  11.26000 53.80900 28.27900
H  9.66100 54.59900 23.37600
H  10.48200 55.35000 24.62400
H  9.49700 53.76900 24.87500
H  15.61500 51.56100 21.01700
H  17.56500 49.55500 21.77300
H  14.05800 49.49900 22.17300
H  15.37700 48.64900 21.65200
H  14.63700 49.56000 20.45200
H  18.68100 52.22300 22.10100
H  17.63500 52.41400 20.80900
H  19.59000 51.69600 19.59700
H  19.02300 50.06200 19.92800
H  20.09900 50.69700 20.97200
H  21.07500 48.69900 24.39700
H  21.05200 47.58700 25.76300
H  21.99900 49.03700 25.87000
H  19.70700 50.93700 30.42400
H  19.76600 47.51900 33.13600
H  18.11200 47.46100 32.69000
H  18.65800 48.66400 33.92000

