158

Mg 46.86400 17.20300 28.62600
C  44.80400 17.03700 31.49800
C  49.26300 18.67200 30.62300
C  48.68500 17.63900 25.77400
C  44.19200 15.91700 26.82200
N  47.00500 17.88700 30.80300
C  46.01500 17.62000 31.80800
C  46.56600 18.04500 33.21200
C  47.90200 18.80800 32.81200
C  48.05600 18.50100 31.28700
C  47.93700 20.34600 33.02500
C  46.78700 16.87800 34.21900
C  47.36700 17.25700 35.62100
H  46.91100 18.61900 36.26700
N  48.74700 17.90400 28.29300
C  49.62400 18.47700 29.20400
C  50.88000 18.73500 28.63700
C  50.78300 18.39800 27.21600
C  49.36700 17.93600 27.06100
C  51.99800 19.42400 29.27500
C  51.84900 18.42700 26.14200
O  51.65300 18.24800 24.94500
C  53.23400 18.76700 26.55700
N  46.40300 16.95900 26.57800
C  47.36600 17.19600 25.61500
C  46.73900 16.96800 24.25600
C  45.38200 16.17200 24.59700
C  45.31800 16.29300 26.06800
C  46.54200 18.20900 23.29300
C  45.27900 14.70600 23.99500
C  44.04800 14.35900 23.15600
N  44.88300 16.63800 28.96200
C  44.01200 16.07500 28.15600
C  42.77900 15.70800 28.89900
C  43.09700 16.09100 30.16800
C  44.38400 16.64100 30.18800
C  41.49700 15.20800 28.29500
C  42.60400 16.05500 31.55300
O  41.53800 15.55700 31.96000
C  43.69800 16.58200 32.37500
C  43.19600 17.72600 33.18600
O  42.95200 18.84800 32.80400
O  42.99700 17.26100 34.41700
C  42.67100 18.18800 35.45800
H  50.00100 19.25800 31.17400
H  49.30500 17.76100 24.88400
H  43.30400 15.61400 26.26500
H  45.75300 18.66300 33.59500
H  48.67600 18.36700 33.44100
H  48.32300 20.86100 32.14600
H  48.47200 20.63800 33.92800
H  46.94300 20.79000 33.06800
H  47.58800 16.32100 33.73400
H  46.01400 16.18600 34.55300
H  48.45600 17.22900 35.57200
H  47.08900 16.41600 36.25600
H  52.84400 18.80500 29.57300
H  51.67100 19.89300 30.20300
H  52.21700 20.33100 28.71100
H  53.60300 18.30600 27.47400
H  53.26200 19.85600 26.60000
H  53.91700 18.56100 25.73300
H  47.39100 16.22000 23.80400
H  44.61500 16.85900 24.23900
H  45.52700 18.43500 22.96500
H  47.21900 18.27600 22.44100
H  46.90800 19.02200 23.91900
H  45.27000 14.00100 24.82600
H  46.16300 14.42600 23.42200
H  44.26400 13.83900 22.22200
H  43.33900 15.16300 22.96000
H  43.46700 13.67700 23.77800
H  41.43700 14.12000 28.28800
H  41.47400 15.47300 27.23800
H  40.61400 15.52100 28.85300
H  44.08900 15.86500 33.09700
H  42.87200 19.24300 35.27000
H  43.23500 17.97400 36.36600
H  41.60800 18.13800 35.69200
Mg 6.46000 53.96900 40.73500
C  5.42000 50.55600 40.45800
C  9.58100 53.02200 39.75100
C  7.01100 57.18900 40.27000
C  3.03600 54.66000 41.77900
N  7.20200 52.10300 39.85900
C  6.67500 50.82100 39.85400
C  7.64900 49.80400 39.15000
C  9.00100 50.52600 39.47600
C  8.60300 52.01200 39.66500
C  9.70800 49.90500 40.75600
C  7.22900 49.66800 37.65400
C  7.59500 48.26800 36.93500
H  6.73200 47.84900 35.80200
N  8.15900 54.96700 40.12100
C  9.33300 54.39200 39.81100
C  10.23800 55.43200 39.55000
C  9.60400 56.69000 39.71300
C  8.14400 56.34300 40.01800
C  11.72700 55.20500 39.15600
C  10.22400 58.01200 39.51100
O  11.42600 58.13000 39.20600
C  9.43100 59.30000 39.50800
N  5.17800 55.60800 40.81900
C  5.68100 56.89200 40.65300
C  4.52900 57.94000 40.92700
C  3.38800 57.08700 41.57500
C  3.96000 55.68800 41.47200
C  4.94100 59.18600 41.79300
C  1.95500 57.15100 40.90500
C  1.40900 58.60300 40.59500
N  4.60400 52.86300 41.17500
C  3.41400 53.27900 41.68400
C  2.51800 52.14300 41.98700
C  3.31500 51.06300 41.56200
C  4.51000 51.53600 41.05300
C  1.17400 52.11600 42.55700
C  3.41600 49.60600 41.36600
O  2.61500 48.70100 41.65300
C  4.85200 49.19800 40.77100
C  4.69900 48.29000 39.57300
O  4.21400 48.52600 38.49700
O  5.05100 47.01100 39.94900
C  5.02900 45.92600 38.97000
H  10.58300 52.66600 39.49800
H  7.13000 58.27400 40.30300
H  2.06300 54.95200 42.18000
H  7.57800 48.83200 39.63800
H  9.66500 50.31300 38.63800
H  9.13700 49.13600 41.27800
H  9.92300 50.71300 41.45600
H  10.61500 49.40600 40.41700
H  7.82200 50.45300 37.18500
H  6.21600 50.00500 37.43100
H  7.60200 47.52900 37.73700
H  8.61200 48.49100 36.61300
H  11.90100 54.13300 39.06500
H  12.40900 55.62400 39.89600
H  11.96200 55.63500 38.18300
H  10.04500 60.19200 39.37500
H  8.97800 59.20500 40.49400
H  8.81100 59.29100 38.61200
H  4.17100 58.25300 39.94600
H  3.18900 57.25500 42.63300
H  4.06200 59.64200 42.24800
H  5.40700 59.88300 41.09600
H  5.73300 58.96000 42.50700
H  1.28900 56.65100 41.60800
H  2.02900 56.63800 39.94600
H  2.05600 59.34400 41.06500
H  0.36500 58.72900 40.88000
H  1.44300 58.61100 39.50500
H  0.64000 53.06600 42.54600
H  1.16900 51.74300 43.58100
H  0.64500 51.31000 42.04700
H  5.47200 48.68100 41.50400
H  4.20800 45.99600 38.25600
H  5.06700 44.96000 39.47300
H  5.88000 46.09400 38.31100

