158

Mg 44.45800 4.02700 46.45800
C  42.46400 6.83800 46.50300
C  41.52400 2.01200 46.45100
C  46.36100 1.36100 45.98900
C  47.23500 6.13300 46.05400
N  42.27400 4.38000 46.23200
C  41.77100 5.66200 46.22300
C  40.19800 5.53400 46.21200
C  39.92200 4.00200 46.49700
C  41.28900 3.39400 46.31600
C  39.17900 3.68000 47.90400
C  39.45000 6.03800 44.86200
C  39.85400 5.43400 43.47800
H  39.84400 6.33100 42.26100
N  44.03600 1.92100 46.10100
C  42.75600 1.35000 46.21100
C  42.97100 -0.11000 46.21900
C  44.37700 -0.30100 45.89700
C  44.98900 1.03500 46.02400
C  41.95700 -1.15900 46.52700
C  45.05000 -1.60100 45.56000
O  44.29600 -2.60400 45.62300
C  46.51400 -1.78100 45.34500
N  46.46000 3.81300 45.83300
C  47.02400 2.58100 45.86500
C  48.55800 2.71100 45.86200
C  48.83300 4.29000 45.87000
C  47.43000 4.82100 45.87000
C  49.28800 1.91000 47.03200
C  49.64800 4.83800 44.62200
C  50.89300 3.99800 44.35800
N  44.83700 6.05900 46.35000
C  46.01800 6.79500 46.19900
C  45.68400 8.23200 46.39200
C  44.28700 8.26200 46.49400
C  43.82300 6.93600 46.44000
C  46.74900 9.34000 46.37500
C  43.12800 9.15000 46.59200
O  43.13200 10.36100 46.53100
C  41.87500 8.24700 46.61000
C  41.18500 8.48600 47.87800
O  41.41800 7.88900 48.93000
O  40.42700 9.57900 47.79800
C  39.72600 10.16200 48.97300
H  40.72600 1.29000 46.63700
H  47.07900 0.53900 45.97100
H  48.08200 6.82200 46.08600
H  39.77000 6.16300 46.99200
H  39.30900 3.58000 45.70100
H  39.00300 4.65800 48.35300
H  39.85700 2.95600 48.35600
H  38.22600 3.16200 47.79300
H  39.50900 7.11400 44.70000
H  38.41000 5.78900 45.06900
H  39.09100 4.68000 43.28600
H  40.84300 4.97600 43.46800
H  41.45500 -1.46700 45.61000
H  41.25000 -0.72500 47.23300
H  42.44000 -2.05800 46.91100
H  47.17900 -1.52700 46.17000
H  46.68500 -1.03500 44.56900
H  46.70900 -2.79500 44.99700
H  48.90800 2.25000 44.93800
H  49.29900 4.61500 46.80000
H  48.52200 1.59000 47.73900
H  49.90500 2.56900 47.64200
H  49.83700 1.05900 46.62900
H  49.86300 5.87800 44.86500
H  49.00700 4.89400 43.74200
H  51.04200 3.25500 45.14100
H  51.75200 4.66200 44.45000
H  51.00700 3.62900 43.33900
H  47.66600 9.04500 46.88500
H  46.31900 10.15900 46.95100
H  47.08500 9.58900 45.36800
H  41.20500 8.47600 45.78200
H  38.67600 10.10800 48.68600
H  40.02400 11.19300 49.16400
H  39.85300 9.59700 49.89600
Mg 0.53800 42.92900 26.77000
C  3.00500 42.93700 29.37900
C  -1.81500 42.32200 29.08800
C  -1.48100 41.79900 24.35500
C  3.27500 42.87900 24.46600
N  0.69700 42.45900 29.02300
C  1.68100 42.72500 29.91900
C  1.12500 42.84100 31.30500
C  -0.33200 42.34400 31.13200
C  -0.52400 42.38700 29.61800
C  -0.58100 40.92200 31.83100
C  1.25200 44.34700 31.91800
C  0.85700 44.42000 33.46000
H  0.70800 43.08600 34.21900
N  -1.43100 42.27500 26.75800
C  -2.28700 42.14000 27.77100
C  -3.60000 41.86800 27.31900
C  -3.51600 41.59300 25.90300
C  -2.03900 41.81500 25.60900
C  -4.82600 41.95200 28.33000
C  -4.63700 41.34400 24.95300
O  -4.44100 41.04900 23.75900
C  -6.03300 41.30300 25.37100
N  0.84600 42.53600 24.70700
C  -0.20100 42.03500 23.92700
C  0.23400 41.99600 22.40700
C  1.70700 42.48000 22.48700
C  2.00600 42.65900 23.97000
C  0.08900 40.68800 21.58800
C  2.01200 43.82300 21.68200
C  1.79700 45.15100 22.37200
N  2.64900 43.03800 26.84800
C  3.60300 43.08500 25.81200
C  4.90100 43.37900 26.38900
C  4.75500 43.24600 27.80300
C  3.31400 43.02700 27.99300
C  6.18300 43.67900 25.66400
C  5.47400 43.27700 29.08300
O  6.66100 43.31000 29.29500
C  4.27400 43.27200 30.09500
C  4.60800 42.24000 31.03000
O  5.04400 41.17200 30.67100
O  4.61800 42.67800 32.29200
C  5.30700 41.84500 33.24200
H  -2.60500 42.22800 29.83600
H  -2.09400 41.52500 23.49400
H  4.05000 43.06300 23.71900
H  1.78000 42.17600 31.86700
H  -0.94100 43.14800 31.54500
H  -1.40300 41.20900 32.48700
H  0.22200 40.53400 32.45700
H  -0.86300 40.18600 31.07800
H  0.58300 44.97000 31.32400
H  2.26900 44.72200 31.80000
H  0.00300 45.07500 33.63600
H  1.76100 44.75500 33.96900
H  -5.82300 41.86800 27.89700
H  -4.77600 42.83200 28.97200
H  -4.76600 41.07200 28.97100
H  -6.62600 41.32800 24.45600
H  -6.30300 42.20300 25.92400
H  -6.18900 40.30700 25.78500
H  -0.38100 42.74600 21.90900
H  2.36900 41.73100 22.05100
H  -0.34500 40.93800 20.62000
H  -0.53400 39.92900 22.06200
H  1.06700 40.24600 21.40200
H  1.38400 43.86500 20.79200
H  2.99600 43.84900 21.21300
H  2.69300 45.73000 22.59700
H  1.14800 45.06800 23.24300
H  1.09900 45.68800 21.73000
H  6.90100 44.14700 26.33800
H  6.00000 44.37100 24.84200
H  6.43400 42.74100 25.17000
H  4.22800 44.22200 30.62700
H  5.18300 42.28900 34.23000
H  6.37200 41.93000 33.02900
H  4.88100 40.84500 33.15800

