158

Mg 25.48300 1.30400 29.78400
C  27.57900 1.05200 32.50700
C  22.76000 1.81500 31.90700
C  23.45100 1.27100 27.10100
C  28.16400 0.36700 27.69100
N  25.22300 1.26900 31.93300
C  26.24000 1.29200 32.85100
C  25.73300 1.46900 34.31900
C  24.23800 1.79700 34.13100
C  24.04100 1.58500 32.63100
C  23.23300 1.06100 34.93400
C  26.50900 2.64800 34.93100
C  26.83200 2.44800 36.41600
H  26.62800 3.45400 37.50500
N  23.40300 1.61800 29.56400
C  22.51400 1.77600 30.51900
C  21.18000 1.89200 29.92200
C  21.34700 1.77700 28.58300
C  22.75700 1.55500 28.35500
C  19.94500 2.13700 30.72100
C  20.26800 1.86700 27.51100
O  20.57200 1.85300 26.32300
C  18.82700 2.01700 27.87400
N  25.72300 0.89400 27.73200
C  24.75900 1.02800 26.75800
C  25.29500 0.88400 25.31700
C  26.79900 0.68800 25.57500
C  26.92400 0.57400 27.13500
C  24.60100 -0.23400 24.57300
C  27.67300 1.82900 24.99100
C  28.60200 1.29900 23.87500
N  27.46600 0.56900 30.02700
C  28.39800 0.34100 29.08600
C  29.62900 0.17000 29.84900
C  29.42100 0.43100 31.17500
C  28.05600 0.73100 31.22300
C  30.95800 -0.17600 29.34700
C  29.98900 0.44700 32.47500
O  31.11200 0.17600 32.89000
C  28.79200 0.78300 33.46400
C  28.61900 -0.31300 34.43100
O  28.12700 -1.41200 34.19400
O  29.12500 0.07800 35.66700
C  29.06500 -0.96100 36.66900
H  21.99000 2.24500 32.55100
H  22.74700 1.37000 26.27200
H  29.06100 0.35500 27.06900
H  25.97100 0.51400 34.78800
H  23.89800 2.82800 34.22400
H  22.98800 1.79000 35.70600
H  23.70700 0.13000 35.24600
H  22.33800 0.78200 34.37700
H  25.83500 3.49700 35.03500
H  27.38400 2.83300 34.30700
H  27.87600 2.14300 36.48800
H  26.36600 1.52200 36.75100
H  20.11000 2.03800 31.79400
H  19.25500 1.33600 30.45500
H  19.38500 3.06800 30.63800
H  18.24300 2.39100 27.03200
H  18.62000 2.79200 28.61300
H  18.38800 1.05300 28.12900
H  25.10900 1.84200 24.83200
H  27.11900 -0.26400 25.15200
H  23.67900 0.10400 24.09900
H  24.32900 -1.02400 25.27400
H  25.34900 -0.77300 23.99100
H  28.25000 2.34900 25.75600
H  27.02500 2.59200 24.56100
H  29.13500 0.38800 24.14800
H  29.28600 2.11400 23.63700
H  28.09900 1.05200 22.94000
H  31.21100 -1.08600 29.89100
H  31.70100 0.58000 29.60100
H  31.02700 -0.42800 28.28900
H  29.07600 1.72200 33.93800
H  28.25100 -1.68400 36.61700
H  28.80700 -0.46500 37.60500
H  30.05600 -1.40500 36.76300
Mg -1.94900 34.08200 26.30400
C  -3.56300 32.75000 29.00400
C  -0.03200 36.03200 28.56400
C  -0.49100 35.51300 23.73100
C  -3.69700 32.03200 24.11900
N  -1.89500 34.36800 28.53000
C  -2.60800 33.68500 29.42800
C  -2.20800 33.99300 30.90300
C  -1.27200 35.23600 30.65300
C  -1.04700 35.19600 29.11600
C  -1.80000 36.52400 31.21300
C  -1.57700 32.73700 31.56000
C  -2.45100 32.13800 32.64600
H  -1.86000 32.02800 34.00900
N  -0.36600 35.53700 26.11700
C  0.29300 36.22700 27.19100
C  1.22100 37.19900 26.61500
C  1.11300 37.04000 25.15400
C  0.01600 36.03600 24.89900
C  1.93600 38.25400 27.47900
C  1.96700 37.67200 24.07900
O  1.86900 37.56600 22.87000
C  3.22000 38.46300 24.55300
N  -2.26100 33.96600 24.22500
C  -1.52100 34.61600 23.41000
C  -1.62300 34.19400 21.88300
C  -2.41200 32.83800 22.01600
C  -2.87300 32.94400 23.53300
C  -2.28300 35.25500 20.87900
C  -1.43500 31.55500 21.85500
C  -1.95000 30.27400 21.30100
N  -3.43000 32.67800 26.46800
C  -3.94100 31.84800 25.51900
C  -4.91800 30.96600 26.13500
C  -4.74400 31.23100 27.51000
C  -3.88100 32.34800 27.64500
C  -5.83700 30.07700 25.52900
C  -5.13500 30.80500 28.82900
O  -5.85600 29.91000 29.17400
C  -4.45000 31.84300 29.82400
C  -5.46300 32.49700 30.69500
O  -6.03400 33.57400 30.41400
O  -5.71500 31.76900 31.84500
C  -6.77700 32.25400 32.66900
H  0.60800 36.59400 29.24700
H  0.06900 35.87700 22.86700
H  -4.15400 31.22800 23.53900
H  -3.16800 34.16900 31.38700
H  -0.30800 35.01800 31.11200
H  -2.88500 36.59500 31.13200
H  -1.41700 37.29200 30.54000
H  -1.40900 36.74400 32.20600
H  -0.65500 33.05400 32.04700
H  -1.49100 31.99300 30.76900
H  -2.75000 31.13800 32.33100
H  -3.38500 32.69000 32.75300
H  1.53300 38.34000 28.48700
H  1.78800 39.20500 26.96800
H  2.98000 37.95500 27.57400
H  3.65400 38.84400 23.62900
H  3.74400 37.64800 25.05200
H  2.83200 39.29100 25.14700
H  -0.59600 34.06300 21.54200
H  -3.27900 32.77700 21.35800
H  -3.01000 34.67400 20.31200
H  -1.55000 35.65500 20.17900
H  -2.92900 35.99000 21.35900
H  -0.80500 31.27700 22.69900
H  -0.67500 31.89900 21.15400
H  -1.53000 30.19700 20.29800
H  -3.03100 30.25600 21.16500
H  -1.58100 29.46600 21.93400
H  -5.47800 29.60100 24.61600
H  -6.81900 30.54500 25.45900
H  -5.81200 29.24000 26.22600
H  -3.77500 31.36200 30.53100
H  -7.48000 31.42300 32.72900
H  -7.27600 33.13600 32.26700
H  -6.57100 32.52400 33.70500

