158

Mg 48.25400 35.47000 28.12900
C  46.19100 33.52700 30.21000
C  48.43700 37.73100 30.79800
C  49.29600 37.96500 26.02100
C  47.34700 33.42800 25.47600
N  47.49900 35.55300 30.22800
C  46.82600 34.59800 30.88300
C  46.73400 34.89600 32.37500
C  47.04200 36.40100 32.39100
C  47.83700 36.58600 31.07200
C  45.77300 37.33000 32.39900
C  47.60700 33.95500 33.26500
C  49.01300 34.47400 33.77700
H  49.10600 34.85600 35.24800
N  49.02000 37.47700 28.33100
C  48.91100 38.22600 29.51200
C  49.49800 39.52200 29.31900
C  49.90500 39.55200 27.95600
C  49.41800 38.28600 27.34500
C  49.56700 40.48400 30.45100
C  50.72100 40.56500 27.16800
O  50.91100 40.42400 25.97000
C  51.37900 41.80300 27.88800
N  48.55100 35.58200 26.09300
C  48.88800 36.77500 25.43600
C  48.58700 36.62500 23.89000
C  48.40700 35.11700 23.75400
C  48.11300 34.66400 25.20300
C  47.29700 37.47400 23.38400
C  49.53500 34.29100 23.03500
C  49.32700 34.00000 21.55000
N  47.20400 33.66900 27.86300
C  46.87500 32.99700 26.73300
C  46.10700 31.81700 27.02900
C  45.71000 32.03800 28.37200
C  46.38900 33.18100 28.78300
C  45.78600 30.67400 26.05100
C  44.83300 31.66700 29.51100
O  43.97200 30.79100 29.56500
C  45.02200 32.62700 30.72200
C  45.29300 31.73900 31.83000
O  46.00800 30.68600 31.90700
O  44.55000 32.20300 32.85100
C  44.54900 31.37300 34.04100
H  48.61600 38.34900 31.68100
H  49.46900 38.75100 25.28200
H  46.87500 32.88500 24.65300
H  45.69500 34.78700 32.68500
H  47.55700 36.79900 33.26500
H  44.91300 36.69400 32.60900
H  45.71100 37.89800 31.47100
H  45.65400 37.96000 33.28100
H  47.72200 33.00400 32.74600
H  47.01900 33.80600 34.17000
H  49.54200 35.22000 33.18200
H  49.62900 33.57800 33.69300
H  50.34400 41.22100 30.25000
H  49.76200 40.02600 31.42100
H  48.67000 41.09800 30.36400
H  50.51100 42.34700 28.26200
H  52.04900 42.26400 27.16300
H  52.10900 41.54400 28.65400
H  49.47200 37.05600 23.42100
H  47.48400 34.83900 23.24500
H  46.76600 38.03700 24.15200
H  46.56900 36.82300 22.90000
H  47.65800 38.19000 22.64500
H  49.76800 33.35600 23.54500
H  50.43000 34.91000 23.09400
H  48.38300 34.39600 21.17500
H  49.29900 32.92400 21.38200
H  50.15800 34.37400 20.95200
H  44.98300 30.94300 25.36500
H  45.51000 29.83800 26.69400
H  46.68000 30.40800 25.48600
H  44.15000 33.26100 30.88400
H  44.97500 30.37700 33.91700
H  43.50600 31.22400 34.32000
H  45.03700 31.83600 34.90000
Mg -1.69900 34.40500 26.83900
C  -3.35600 32.46300 29.25500
C  -0.30300 36.16100 29.34500
C  -0.37700 36.25100 24.47600
C  -3.07500 32.24400 24.28800
N  -2.03300 34.33900 29.09300
C  -2.69000 33.50400 29.88200
C  -2.52000 33.81100 31.37500
C  -1.69900 35.18000 31.27900
C  -1.30100 35.22700 29.83200
C  -2.40600 36.49200 31.71500
C  -1.77100 32.74600 32.27700
C  -2.44500 32.50900 33.65900
H  -1.63800 32.27200 35.01800
N  -0.57900 36.05800 26.95100
C  -0.00600 36.62200 28.05400
C  1.02900 37.64900 27.67900
C  0.93200 37.70800 26.22500
C  -0.05700 36.61500 25.80400
C  1.82100 38.40400 28.65200
C  1.65200 38.76000 25.31700
O  1.50900 38.77500 24.09800
C  2.58200 39.83000 25.99000
N  -1.70600 34.25500 24.70800
C  -1.24700 35.30100 23.98100
C  -1.58800 35.14800 22.48600
C  -2.16000 33.67500 22.39400
C  -2.34600 33.33400 23.89300
C  -2.58100 36.23100 21.90500
C  -1.35000 32.60400 21.63300
C  -0.55500 31.60800 22.44500
N  -3.00300 32.75700 26.71900
C  -3.35400 31.90700 25.64800
C  -4.09200 30.79200 26.14400
C  -4.16300 31.04900 27.53000
C  -3.42200 32.17700 27.80800
C  -4.80200 29.78400 25.38100
C  -4.68200 30.41100 28.76500
O  -5.28400 29.35400 28.86400
C  -4.10900 31.27500 29.95200
C  -5.17400 31.66200 30.91200
O  -5.55800 32.82500 31.03500
O  -5.60300 30.65200 31.78400
C  -6.39800 31.26800 32.90100
H  0.19400 36.59800 30.21300
H  0.08100 36.98500 23.80900
H  -3.36400 31.54700 23.49900
H  -3.51400 34.09600 31.71900
H  -0.76100 35.08900 31.82600
H  -3.41600 36.25800 32.05200
H  -2.42100 37.21000 30.89500
H  -1.86900 36.90000 32.57100
H  -0.75400 33.11900 32.39400
H  -1.63400 31.77600 31.79800
H  -3.05300 31.61000 33.55600
H  -3.19500 33.26500 33.89300
H  2.11900 37.82000 29.52200
H  1.25500 39.27800 28.97400
H  2.76700 38.80500 28.28900
H  2.09900 40.40300 26.78200
H  3.02200 40.42100 25.18700
H  3.33100 39.13700 26.37300
H  -0.67900 35.10200 21.88600
H  -3.18100 33.57500 22.02700
H  -3.56600 35.80300 21.71800
H  -2.18900 36.53000 20.93300
H  -2.56100 37.05800 22.61600
H  -0.62800 33.11400 20.99600
H  -1.99700 32.01600 20.98300
H  0.13300 31.08100 21.78400
H  -1.31900 30.92900 22.82400
H  0.03200 32.08200 23.23100
H  -4.31300 29.61800 24.42100
H  -5.81500 30.14600 25.20800
H  -4.85200 28.84900 25.93800
H  -3.45000 30.67100 30.57600
H  -5.79200 32.03900 33.37700
H  -6.77900 30.52100 33.59800
H  -7.33900 31.60800 32.47000

