158

Mg 24.39500 -6.00500 44.77900
C  26.66600 -3.88000 43.46800
C  21.94600 -4.54600 43.05700
C  22.50400 -8.82400 45.27500
C  27.03300 -7.72500 46.34700
N  24.35300 -4.44200 43.28500
C  25.36900 -3.62900 43.01400
C  25.02400 -2.55200 41.99900
C  23.48400 -2.59700 42.16400
C  23.24800 -3.91100 42.96900
C  22.81700 -1.43300 43.01000
C  25.71400 -2.84900 40.67200
C  26.40700 -1.75900 39.89000
H  26.21400 -1.90000 38.38900
N  22.42300 -6.57500 44.28500
C  21.49700 -5.79200 43.66000
C  20.25400 -6.49100 43.58600
C  20.35600 -7.75500 44.18200
C  21.83300 -7.79600 44.62200
C  19.03500 -5.92100 42.82800
C  19.25000 -8.81400 44.30400
O  18.10200 -8.59000 43.95800
C  19.55900 -10.23700 44.90200
N  24.85600 -8.14900 45.37100
C  23.85900 -9.01200 45.61700
C  24.30000 -10.32800 46.33000
C  25.64900 -9.85200 46.95700
C  25.84300 -8.48900 46.15400
C  23.32200 -10.85400 47.31300
C  26.87300 -10.90500 46.86400
C  27.57400 -11.18000 48.26500
N  26.47500 -5.82000 45.06400
C  27.40200 -6.54600 45.73700
C  28.75000 -5.91000 45.60100
C  28.45200 -4.81500 44.77300
C  27.10000 -4.85200 44.43900
C  30.11500 -6.38100 46.09600
C  29.03500 -3.67300 44.10400
O  30.15500 -3.20700 44.05900
C  27.85000 -2.94400 43.34100
C  27.62000 -1.63900 43.83000
O  26.85100 -1.39000 44.71300
O  28.35300 -0.66800 43.07400
C  28.04700 0.74200 43.34600
H  21.13700 -4.00800 42.55900
H  21.81000 -9.60100 45.60200
H  27.86400 -8.31300 46.74200
H  25.33200 -1.56000 42.33000
H  23.00200 -2.75400 41.19900
H  22.77100 -0.49800 42.45300
H  23.40300 -1.22800 43.90600
H  21.84600 -1.81200 43.33000
H  24.88700 -3.29600 40.12000
H  26.43400 -3.66700 40.70900
H  27.47400 -1.69200 40.10200
H  26.13400 -0.79000 40.30700
H  18.81800 -6.47100 41.91200
H  19.10100 -4.84400 42.67900
H  18.16700 -6.03000 43.47900
H  18.68600 -10.88700 44.84200
H  19.85900 -10.11000 45.94200
H  20.37100 -10.73500 44.37300
H  24.52400 -10.99400 45.49700
H  25.47600 -9.55800 47.99200
H  23.85800 -11.08500 48.23400
H  22.96400 -11.82900 46.98500
H  22.42300 -10.28100 47.54100
H  27.51000 -10.40800 46.13400
H  26.48100 -11.73400 46.27500
H  27.38200 -12.25200 48.31300
H  27.13100 -10.59800 49.07300
H  28.64700 -10.99900 48.20500
H  30.37200 -7.43700 46.02100
H  30.18200 -6.21300 47.17100
H  30.91600 -5.78300 45.66100
H  28.08600 -2.77200 42.29100
H  28.50100 1.05500 44.28600
H  26.97900 0.96000 43.36800
H  28.60700 1.24900 42.56000
Mg 9.82500 47.52500 25.67800
C  7.97900 47.91700 28.58700
C  12.63200 48.56800 27.21000
C  11.44400 47.48900 22.65900
C  6.87200 46.95000 23.93200
N  10.25600 48.12800 27.69800
C  9.33000 48.29500 28.73600
C  10.07900 48.76700 29.93300
C  11.41100 49.29200 29.37100
C  11.44900 48.68300 27.95900
C  11.46300 50.84300 29.33400
C  10.32900 47.64700 31.04400
C  9.72500 48.11500 32.43800
H  9.57500 47.09100 33.55500
N  11.74500 47.84800 25.09900
C  12.84800 48.20800 25.87200
C  14.14800 48.07600 25.13100
C  13.78400 47.67200 23.81900
C  12.21500 47.64800 23.81900
C  15.52600 48.16700 25.81700
C  14.69900 47.30300 22.65200
O  14.20100 46.93500 21.51500
C  16.18900 47.44900 22.68800
N  9.26300 47.26600 23.62600
C  10.09600 47.27100 22.53000
C  9.41400 46.90300 21.23800
C  7.96100 46.48900 21.71300
C  8.04500 46.87200 23.20900
C  9.44300 48.09400 20.24400
C  7.66700 44.93100 21.54100
C  8.59700 44.02000 22.32400
N  7.84800 47.42500 26.08800
C  6.77200 47.24400 25.30200
C  5.54200 47.15500 26.04500
C  6.00800 47.38200 27.41200
C  7.37500 47.58000 27.33800
C  4.20400 46.75300 25.59200
C  5.56600 47.44300 28.79600
O  4.45400 47.26200 29.29800
C  6.78500 47.81300 29.59000
C  6.99200 46.71200 30.57200
O  7.80700 45.77000 30.43600
O  6.20100 46.92000 31.70000
C  6.36900 45.87700 32.75700
H  13.47900 48.95400 27.78200
H  12.00200 47.49100 21.72100
H  5.98400 46.74300 23.33200
H  9.58800 49.61600 30.41000
H  12.20800 48.94500 30.02900
H  11.62000 51.17800 28.30900
H  12.34500 51.23900 29.83700
H  10.55800 51.34100 29.68100
H  11.40000 47.45500 31.10800
H  10.01800 46.67000 30.67500
H  8.79800 48.61000 32.14600
H  10.31800 48.93200 32.84800
H  15.65800 47.52000 26.68400
H  15.65200 49.17600 26.20900
H  16.37900 47.86000 25.21100
H  16.53800 47.46100 21.65500
H  16.55900 46.58000 23.23000
H  16.47900 48.41700 23.09600
H  9.85900 46.04000 20.74400
H  7.16600 47.09600 21.27900
H  10.12100 48.90800 20.50200
H  8.54700 48.66300 19.99500
H  9.69400 47.58400 19.31300
H  7.70500 44.69400 20.47800
H  6.65800 44.81600 21.93700
H  8.94000 44.56300 23.20500
H  9.42000 43.59400 21.75100
H  7.94900 43.26800 22.77200
H  3.53300 46.90600 26.43700
H  4.20900 45.75400 25.15600
H  4.00100 47.38700 24.72900
H  6.48400 48.71900 30.11600
H  5.67100 45.08400 32.49000
H  6.23700 46.44100 33.68100
H  7.40700 45.55000 32.71000

