158

Mg 35.57700 0.40500 29.78200
C  33.17500 1.68700 32.02300
C  37.85000 0.34400 32.42100
C  38.01400 -0.01300 27.62300
C  33.35000 1.23800 27.24600
N  35.56100 1.07100 31.99400
C  34.41000 1.42600 32.67500
C  34.63200 1.40400 34.25000
C  36.28600 1.29500 34.25500
C  36.61800 0.84000 32.80500
C  37.10200 2.61000 34.79200
C  33.82600 0.27900 35.01300
C  33.24400 0.60100 36.39300
H  34.05400 1.60100 37.32000
N  37.63100 -0.06400 29.99400
C  38.38800 -0.09900 31.14900
C  39.72700 -0.63600 30.88200
C  39.76400 -0.69600 29.44500
C  38.46100 -0.27100 28.91800
C  40.65000 -0.88100 31.96200
C  40.95600 -0.99700 28.60100
O  40.94700 -0.80700 27.36800
C  42.14900 -1.56800 29.18500
N  35.68500 0.58400 27.66400
C  36.81500 0.46200 27.03200
C  36.63700 0.68900 25.46200
C  35.16200 1.19500 25.51400
C  34.67400 0.91800 26.87500
C  37.69200 1.76000 24.89500
C  34.35500 0.55800 24.35700
C  33.47000 -0.69300 24.67500
N  33.65700 1.13300 29.57300
C  32.87400 1.40400 28.47200
C  31.62600 1.87900 28.86800
C  31.68900 2.00700 30.21200
C  32.95200 1.58400 30.62000
C  30.53900 2.35700 27.96500
C  31.00800 2.45900 31.41800
O  29.88600 3.04500 31.47700
C  31.88600 2.26000 32.60700
C  32.10500 3.49300 33.38600
O  32.71100 4.47800 32.91300
O  31.46400 3.39800 34.58900
C  31.57700 4.61900 35.39500
H  38.49200 0.40300 33.30200
H  38.72500 -0.13900 26.80400
H  32.65200 1.49100 26.44500
H  34.31600 2.40800 34.53700
H  36.58900 0.50600 34.94300
H  38.02400 2.25500 35.25300
H  36.48400 3.03100 35.58600
H  37.33200 3.35800 34.03400
H  34.49700 -0.56600 35.16000
H  32.99800 0.04200 34.34500
H  33.05900 -0.36700 36.85700
H  32.29700 1.09800 36.18200
H  40.88000 -1.91300 32.22800
H  40.38700 -0.42500 32.91600
H  41.56300 -0.36900 31.65800
H  42.93600 -0.95000 29.61700
H  42.52800 -2.24000 28.41500
H  41.86900 -2.28200 29.96000
H  36.78200 -0.34000 25.13400
H  35.14600 2.27900 25.40300
H  37.17800 2.54700 24.34400
H  38.28600 1.23000 24.15000
H  38.30800 2.16600 25.69800
H  35.08000 0.11000 23.67700
H  33.71100 1.29400 23.87700
H  33.70800 -1.16000 25.63100
H  33.61800 -1.42400 23.88000
H  32.42000 -0.40000 24.65100
H  30.61900 3.44200 27.90100
H  29.60100 2.11500 28.46500
H  30.50000 1.85100 27.00000
H  31.44300 1.54200 33.29700
H  31.45700 4.41200 36.45800
H  30.77600 5.25500 35.01800
H  32.55800 5.09200 35.33700
Mg -0.62700 43.86900 26.27500
C  1.85500 43.32200 28.58000
C  -2.91400 43.59000 28.75900
C  -3.07100 43.79600 24.01500
C  1.75300 43.42900 23.74400
N  -0.52500 43.40700 28.32700
C  0.59000 43.30500 29.13200
C  0.25800 43.39000 30.63000
C  -1.18500 42.78300 30.51800
C  -1.59500 43.20700 29.11000
C  -1.22800 41.19300 30.75600
C  0.34400 44.85000 31.21500
C  0.41000 44.93100 32.75000
H  0.13600 43.62900 33.63000
N  -2.74100 44.02300 26.40800
C  -3.50800 43.94600 27.58500
C  -4.86100 44.19000 27.28500
C  -4.95700 44.25600 25.84300
C  -3.57100 44.03200 25.30000
C  -5.79200 44.50900 28.40200
C  -6.14900 44.41700 24.99200
O  -6.03200 44.55000 23.77900
C  -7.61200 44.35100 25.53700
N  -0.72800 43.54300 24.24400
C  -1.85500 43.57500 23.52700
C  -1.60700 43.46000 21.98400
C  -0.05800 43.62500 21.92000
C  0.37700 43.49400 23.36800
C  -2.16800 42.04900 21.35600
C  0.52400 44.94000 21.37800
C  0.08600 46.16000 22.24400
N  1.45000 43.42500 26.11700
C  2.27800 43.37600 25.01700
C  3.61000 43.38100 25.47800
C  3.47800 43.30200 26.91100
C  2.13400 43.35500 27.22400
C  4.84500 43.50400 24.64600
C  4.24700 43.23600 28.11600
O  5.44700 43.09800 28.34600
C  3.25900 43.34400 29.24000
C  3.50800 42.27000 30.20500
O  3.77300 41.12200 29.91400
O  3.30800 42.67100 31.46500
C  3.70600 41.71300 32.51000
H  -3.57800 43.51900 29.62300
H  -3.80500 43.87000 23.20900
H  2.47600 43.44700 22.92600
H  0.88400 42.68400 31.17700
H  -1.78500 43.31500 31.25600
H  -1.64200 40.56100 29.97000
H  -1.66100 41.09500 31.75100
H  -0.22300 40.77200 30.75400
H  -0.55700 45.43700 31.03700
H  1.17200 45.38000 30.74300
H  -0.47600 45.47500 33.07800
H  1.32700 45.38100 33.12800
H  -5.27600 45.17000 29.09800
H  -6.13900 43.65900 28.98900
H  -6.71600 45.00000 28.09700
H  -8.29500 44.16900 24.70700
H  -7.80600 45.18100 26.21700
H  -7.81200 43.43300 26.09000
H  -2.18400 44.22800 21.46900
H  0.29200 42.73600 21.39600
H  -3.10300 42.08400 20.79500
H  -2.15700 41.29900 22.14600
H  -1.43500 41.87100 20.56900
H  0.13500 45.05900 20.36700
H  1.59600 44.86500 21.19500
H  0.92300 46.45700 22.87600
H  -0.79900 45.94600 22.84400
H  -0.23400 46.88900 21.49900
H  4.96200 42.64200 23.98900
H  5.69600 43.64100 25.31200
H  4.85600 44.38800 24.00800
H  3.40400 44.32100 29.70100
H  4.79600 41.70000 32.50800
H  3.29300 40.71800 32.34300
H  3.58400 42.10100 33.52100

