158

Mg 39.93400 9.72500 30.05600
C  41.78000 10.84300 32.80200
C  37.99200 7.88000 32.25000
C  38.29800 8.59500 27.41900
C  42.44200 11.04400 28.03600
N  40.04900 9.28200 32.25200
C  40.75700 9.97800 33.21500
C  40.36700 9.52200 34.65900
C  39.35000 8.43500 34.35600
C  39.01700 8.54100 32.87700
C  39.84200 6.95900 34.70300
C  39.90600 10.75700 35.55200
C  40.37600 10.72500 36.98200
H  39.32500 11.16900 38.12100
N  38.27900 8.48000 29.89900
C  37.56000 7.90700 30.87600
C  36.43400 7.18400 30.25200
C  36.53300 7.44100 28.88100
C  37.71100 8.19200 28.69000
C  35.44100 6.29700 30.99400
C  35.52000 7.05600 27.76500
O  35.51700 7.69500 26.67600
C  34.38100 6.04700 28.10100
N  40.45200 9.62000 28.09800
C  39.48000 9.27700 27.14100
C  39.96400 9.59800 25.69200
C  41.26500 10.47400 26.02000
C  41.45300 10.26700 27.46400
C  40.23400 8.26600 24.85900
C  41.17900 11.95800 25.57900
C  39.96500 12.76300 26.16500
N  41.77500 10.73700 30.26800
C  42.69400 11.20200 29.34300
C  43.81900 11.83000 30.04800
C  43.41200 11.78100 31.44300
C  42.19200 11.08700 31.52800
C  45.06200 12.27200 29.42200
C  43.78900 12.15000 32.78100
O  44.69200 12.82600 33.14000
C  42.82500 11.51900 33.77400
C  43.55700 10.64100 34.81800
O  43.80300 9.48800 34.68200
O  43.58800 11.30300 35.95600
C  44.28300 10.71600 37.09100
H  37.35000 7.26900 32.88800
H  37.79700 8.46700 26.45700
H  43.19400 11.50600 27.39300
H  41.20200 9.06900 35.19400
H  38.37800 8.60300 34.82000
H  39.93900 6.29300 33.84600
H  39.00400 6.48500 35.21500
H  40.77500 6.78000 35.23800
H  38.82300 10.87300 35.59600
H  40.29000 11.64400 35.04700
H  41.11000 11.52700 37.05800
H  40.71400 9.73800 37.29700
H  35.58300 6.31000 32.07500
H  35.67700 5.30800 30.60200
H  34.43600 6.68600 30.83000
H  33.84100 5.84000 27.17700
H  33.71900 6.46900 28.85600
H  34.72700 5.06700 28.43000
H  39.23400 10.11600 25.07000
H  42.08300 9.93300 25.54500
H  40.03700 8.40300 23.79600
H  39.57600 7.47200 25.21100
H  41.24700 7.86500 24.88600
H  40.96500 11.81700 24.52000
H  42.06700 12.56400 25.76300
H  39.25900 12.16000 26.73500
H  39.49200 13.17000 25.27100
H  40.31500 13.55400 26.82900
H  44.80600 13.15900 28.84300
H  45.49200 11.51800 28.76300
H  45.65200 12.64300 30.26000
H  42.36900 12.34000 34.32700
H  43.53500 10.02300 37.47400
H  44.64300 11.44400 37.81800
H  45.09100 10.09200 36.70900
Mg 10.23900 46.74400 25.54500
C  7.96800 46.90000 28.18200
C  12.66800 48.08200 27.59200
C  12.28600 46.68500 22.94600
C  7.53300 46.22600 23.40000
N  10.33200 47.45700 27.62400
C  9.28300 47.21200 28.54600
C  9.79400 47.55200 29.95100
C  11.17800 48.24800 29.74400
C  11.46300 47.87200 28.28800
C  11.15600 49.87800 29.84200
C  9.73500 46.28200 30.92500
C  9.35300 46.55500 32.39200
H  9.65900 45.55800 33.42200
N  12.18900 47.21400 25.31200
C  13.00500 47.71800 26.30400
C  14.35800 47.96300 25.75500
C  14.33200 47.43000 24.38400
C  12.87900 47.14500 24.16800
C  15.50700 48.58600 26.57100
C  15.54900 47.20500 23.44100
O  15.45200 46.68700 22.36700
C  16.97100 47.53200 23.84600
N  10.00500 46.49100 23.38100
C  10.98200 46.43500 22.52000
C  10.41900 46.09500 21.06100
C  8.86500 45.79900 21.40200
C  8.81500 46.19700 22.85900
C  10.76700 47.22300 20.05100
C  8.40600 44.31100 20.98100
C  7.50400 44.34400 19.75000
N  8.19000 46.61200 25.64300
C  7.20900 46.47300 24.71400
C  5.89500 46.54100 25.33600
C  6.18100 46.65100 26.72900
C  7.53000 46.70600 26.85900
C  4.64200 46.43600 24.62600
C  5.57000 46.72900 28.04000
O  4.38100 46.77900 28.31800
C  6.73200 46.79400 29.01900
C  6.53600 45.50900 29.80200
O  6.89200 44.38800 29.49200
O  5.89300 45.73800 30.93600
C  5.55000 44.58300 31.77000
H  13.49000 48.43700 28.21700
H  13.04500 46.51200 22.18000
H  6.71700 46.10800 22.68400
H  9.02800 48.24700 30.29500
H  11.99200 47.78800 30.30400
H  11.58700 50.29500 28.93200
H  11.84800 50.15500 30.63700
H  10.15000 50.23900 30.05400
H  10.75700 45.91100 30.83600
H  9.04700 45.56600 30.47600
H  8.26500 46.60500 32.41200
H  9.78200 47.50500 32.71200
H  15.27900 48.91700 27.58400
H  15.81400 49.52900 26.11800
H  16.36200 47.91100 26.62100
H  17.74800 47.58400 23.08300
H  17.11800 46.78100 24.62300
H  16.95600 48.45700 24.42300
H  10.92100 45.17800 20.75300
H  8.17700 46.44400 20.85500
H  11.51700 46.86700 19.34500
H  11.13100 48.20200 20.36000
H  9.86300 47.34900 19.45500
H  7.87400 43.86800 21.82400
H  9.32500 43.72900 20.91100
H  8.13600 43.86100 19.00500
H  7.08700 45.31700 19.48800
H  6.62100 43.76000 20.01100
H  4.45800 45.41100 24.30300
H  4.60300 47.11500 23.77400
H  3.84800 46.76200 25.29700
H  6.69400 47.64200 29.70300
H  6.53200 44.37500 32.19300
H  5.25200 43.65600 31.28100
H  4.84000 44.91200 32.52900

