158

Mg 2.55100 -0.40100 43.84700
C  5.88100 0.73400 43.31400
C  1.42500 2.26600 42.10600
C  -0.44800 -1.99700 43.49800
C  3.95300 -3.45800 45.00600
N  3.57200 1.28600 42.87300
C  4.91500 1.67200 42.81200
C  5.08100 3.09700 42.42300
C  3.62700 3.54500 42.07000
C  2.78600 2.25800 42.39600
C  3.08000 4.65500 42.96000
C  6.10000 3.17100 41.23400
C  5.90300 2.22100 40.07100
H  6.15300 2.69600 38.64300
N  0.68600 0.08900 42.97000
C  0.47500 1.24100 42.33900
C  -0.91100 1.23600 42.00400
C  -1.56900 0.10900 42.48100
C  -0.43200 -0.70300 42.92000
C  -1.57600 2.46200 41.31300
C  -3.03300 -0.09800 42.59500
O  -3.77200 0.88000 42.35800
C  -3.54900 -1.39300 43.13100
N  1.81200 -2.44100 44.15000
C  0.52700 -2.76100 44.06900
C  0.25600 -4.23900 44.55000
C  1.62700 -4.61600 45.25000
C  2.55600 -3.42700 44.78400
C  -1.15200 -4.49000 45.34900
C  2.14200 -6.02800 44.92600
C  2.29600 -7.14400 46.04600
N  4.52200 -1.23200 44.24000
C  4.86200 -2.51800 44.70100
C  6.33500 -2.54500 44.86500
C  6.78200 -1.31200 44.30200
C  5.61800 -0.57500 43.90000
C  7.19100 -3.54600 45.56700
C  7.93200 -0.49900 43.98300
O  9.12600 -0.77700 44.13800
C  7.38100 0.86200 43.49200
C  7.59800 1.98100 44.49000
O  7.40800 1.88300 45.68700
O  8.36300 3.03200 43.94500
C  8.80700 4.10300 44.87400
H  1.10800 3.15600 41.55800
H  -1.44700 -2.40300 43.66800
H  4.36000 -4.39300 45.39700
H  5.51200 3.60300 43.28700
H  3.44700 3.69800 41.00500
H  3.20100 5.60600 42.44200
H  3.72500 4.63300 43.83900
H  2.05000 4.56900 43.30600
H  7.13800 3.08200 41.55700
H  6.05100 4.21000 40.91000
H  4.87100 1.90200 39.92400
H  6.68400 1.47200 40.20100
H  -2.03600 3.02300 42.12600
H  -2.27200 2.22500 40.50800
H  -0.87400 3.15200 40.84500
H  -4.63000 -1.24700 43.14100
H  -3.27200 -1.71600 44.13500
H  -3.25400 -2.12500 42.38000
H  0.07500 -4.78600 43.62500
H  1.46000 -4.52000 46.32300
H  -1.74400 -3.58000 45.44400
H  -0.96800 -4.77100 46.38600
H  -1.75800 -5.26200 44.87600
H  3.14200 -6.03200 44.49200
H  1.48400 -6.30000 44.10200
H  1.89200 -6.81700 47.00500
H  3.36100 -7.25300 46.24900
H  1.64800 -7.98200 45.78900
H  6.92700 -4.51400 45.14200
H  7.00600 -3.44200 46.63600
H  8.25400 -3.33300 45.45100
H  7.84800 1.12500 42.54300
H  9.10100 4.99300 44.31800
H  9.74800 3.91600 45.39200
H  8.11900 4.46800 45.63700
Mg 16.34900 -1.19400 27.99500
C  15.69300 0.92700 30.62600
C  18.77300 -2.80900 30.06700
C  17.67800 -2.86600 25.33600
C  14.87300 1.09500 25.90100
N  16.95600 -1.11300 30.17300
C  16.48100 -0.19100 31.07900
C  17.16000 -0.33900 32.49500
C  18.28100 -1.44100 32.20700
C  18.02100 -1.77900 30.72900
C  19.77100 -1.00500 32.63300
C  16.09500 -0.67600 33.52700
C  16.23100 -0.03300 34.90100
H  17.59700 0.50400 35.32000
N  17.91400 -2.72500 27.74400
C  18.72500 -3.24100 28.77200
C  19.30000 -4.49100 28.25800
C  18.97400 -4.65000 26.84900
C  18.18600 -3.39800 26.58600
C  20.02900 -5.47600 29.15800
C  19.33100 -5.76100 25.88900
O  19.16300 -5.65200 24.66800
C  19.89000 -7.02600 26.35200
N  16.14500 -1.01600 25.91000
C  16.80200 -1.74500 24.96100
C  16.45900 -1.18800 23.49000
C  15.24700 -0.20700 23.78600
C  15.41900 -0.06000 25.28300
C  17.68300 -0.52900 22.78800
C  13.86000 -0.85200 23.62200
C  12.83600 0.10400 23.00100
N  15.23700 0.53700 28.15600
C  14.72700 1.36700 27.24300
C  14.16100 2.49100 27.88700
C  14.55100 2.46200 29.20800
C  15.22600 1.20800 29.30400
C  13.51900 3.70400 27.25100
C  14.50300 3.17500 30.45000
O  13.83700 4.14600 30.76200
C  15.26300 2.21900 31.43700
C  16.42900 2.94000 31.99500
O  17.57800 2.98800 31.59900
O  15.98600 3.62300 33.07900
C  16.86400 4.56700 33.77700
H  19.55600 -3.21300 30.71200
H  18.07100 -3.34300 24.43600
H  14.30900 1.75900 25.24300
H  17.59700 0.61200 32.79900
H  18.24500 -2.34400 32.81600
H  19.75300 -0.13000 33.28200
H  20.35100 -0.75700 31.74400
H  20.27400 -1.83200 33.13500
H  16.01700 -1.74600 33.72300
H  15.18900 -0.32900 33.03000
H  15.98600 -0.75300 35.68100
H  15.54700 0.81500 34.91100
H  20.84600 -5.96800 28.63000
H  19.34700 -6.22500 29.55900
H  20.63100 -5.01300 29.94000
H  19.36100 -7.32300 27.25800
H  20.96900 -6.87700 26.35100
H  19.80300 -7.85900 25.65400
H  16.20200 -2.14900 23.04500
H  15.37500 0.75200 23.28500
H  17.73800 0.52600 23.05800
H  17.39900 -0.40900 21.74200
H  18.64500 -1.02300 22.92100
H  13.42200 -1.23200 24.54600
H  13.90500 -1.74100 22.99200
H  12.42800 -0.25800 22.05800
H  13.31200 1.07400 22.85700
H  11.98400 0.24400 23.66600
H  14.04500 4.57400 27.64300
H  12.49300 3.56800 27.59400
H  13.65600 3.50500 26.18800
H  14.53200 1.99800 32.21500
H  16.74800 5.54300 33.30700
H  17.90900 4.27400 33.67300
H  16.61600 4.55200 34.83800

