158

Mg 25.52800 -8.42100 47.28800
C  27.87500 -6.05800 46.54500
C  23.43600 -6.95700 44.92900
C  23.23200 -10.83700 47.95100
C  28.00500 -10.26900 48.98500
N  25.61200 -6.68200 45.91400
C  26.72200 -5.87200 45.77300
C  26.59000 -4.86900 44.66800
C  25.09200 -4.96900 44.34800
C  24.61400 -6.26200 45.12600
C  24.23400 -3.66200 44.77600
C  27.46500 -5.25900 43.46900
C  28.37400 -4.25300 42.77600
H  27.96500 -3.67700 41.41000
N  23.54800 -8.81200 46.62100
C  22.86900 -8.07700 45.57800
C  21.61600 -8.77000 45.33400
C  21.49400 -9.71800 46.33400
C  22.77200 -9.83200 47.02100
C  20.60900 -8.23200 44.31800
C  20.25800 -10.49600 46.61400
O  19.31900 -10.42400 45.83800
C  20.07500 -11.33500 47.89400
N  25.59700 -10.27200 48.27900
C  24.50700 -11.03900 48.55500
C  24.93100 -12.35600 49.25700
C  26.47500 -12.30600 49.23700
C  26.76800 -10.87400 48.77100
C  24.19300 -12.51300 50.60200
C  27.35000 -13.34100 48.49100
C  27.74500 -14.56000 49.30300
N  27.53100 -8.29400 47.71900
C  28.40000 -9.05900 48.42800
C  29.71300 -8.44300 48.43500
C  29.56500 -7.19700 47.81600
C  28.18800 -7.15300 47.39500
C  30.99100 -9.05500 48.90400
C  30.28000 -6.03900 47.30100
O  31.45300 -5.65600 47.45800
C  29.22800 -5.25300 46.46400
C  29.04600 -3.83300 46.93600
O  28.55500 -3.51200 48.00600
O  29.49400 -2.96200 45.94700
C  29.12500 -1.59000 46.02100
H  22.89600 -6.38600 44.17100
H  22.52900 -11.65900 48.10100
H  28.76700 -10.86700 49.48900
H  26.91100 -3.91000 45.07600
H  24.88500 -5.16400 43.29600
H  23.67400 -3.78100 45.70300
H  23.48100 -3.44400 44.01900
H  24.85400 -2.77400 44.90200
H  26.80500 -5.58400 42.66400
H  28.00000 -6.16600 43.74900
H  29.27400 -4.82600 42.55300
H  28.71800 -3.42700 43.39900
H  21.00200 -7.34400 43.82500
H  19.76500 -7.73700 44.79900
H  20.31200 -9.02200 43.62800
H  20.52200 -12.26600 47.54500
H  19.01400 -11.44600 48.11900
H  20.62500 -10.90600 48.73200
H  24.51700 -13.09900 48.57500
H  26.65800 -12.24800 50.31000
H  24.55400 -13.34400 51.20700
H  23.12500 -12.50200 50.38500
H  24.47600 -11.61700 51.15400
H  28.18600 -12.86700 47.97700
H  26.65500 -13.75200 47.75800
H  28.73800 -14.80600 48.92600
H  27.02300 -15.31100 48.98200
H  27.68200 -14.41100 50.38100
H  31.55300 -8.30100 49.45500
H  31.56500 -9.50100 48.09100
H  30.82600 -9.94600 49.50900
H  29.46000 -5.27400 45.39900
H  28.13200 -1.54600 45.57400
H  29.82800 -0.92400 45.52200
H  29.11200 -1.16700 47.02600
Mg -6.08100 25.70600 26.35600
C  -4.14900 27.27300 28.88100
C  -7.07300 23.38200 28.78500
C  -7.55200 24.00800 23.96000
C  -4.48600 27.72900 24.03900
N  -5.56200 25.29700 28.54600
C  -4.95800 26.21900 29.34300
C  -5.45500 25.99200 30.80700
C  -5.99300 24.53100 30.79500
C  -6.28100 24.39100 29.30800
C  -4.97500 23.42500 31.35900
C  -6.42600 27.08400 31.31100
C  -6.63000 27.08400 32.83600
H  -5.81700 26.07000 33.65900
N  -7.16900 23.95600 26.36900
C  -7.47600 23.16600 27.43800
C  -8.29400 22.01400 26.97500
C  -8.53300 22.16200 25.57300
C  -7.77400 23.40400 25.24600
C  -8.90600 20.95500 27.95000
C  -9.31300 21.27700 24.56100
O  -9.44100 21.55700 23.36200
C  -9.99800 20.01200 25.01900
N  -6.16700 25.91800 24.36600
C  -6.87000 25.12000 23.49100
C  -6.86100 25.65900 22.01700
C  -5.60500 26.56800 22.01700
C  -5.33100 26.74000 23.57400
C  -6.90600 24.55900 20.89000
C  -5.84800 27.98700 21.41300
C  -5.25000 28.12500 20.00500
N  -4.60400 27.20500 26.38000
C  -4.08200 27.97900 25.37100
C  -3.12700 28.95800 25.94100
C  -3.17100 28.71100 27.32400
C  -4.06800 27.65000 27.51400
C  -2.18800 29.91900 25.36900
C  -2.60400 29.11900 28.58200
O  -1.86300 29.99800 28.97300
C  -3.14900 28.11900 29.69800
C  -1.92700 27.38800 30.21700
O  -1.34500 26.41400 29.66400
O  -1.78500 27.75300 31.54500
C  -1.03900 26.83400 32.42300
H  -7.47500 22.75100 29.58000
H  -8.12800 23.38600 23.27200
H  -3.90100 28.31800 23.33000
H  -4.53700 26.18400 31.36200
H  -6.91200 24.53400 31.38100
H  -4.69500 22.88800 30.45300
H  -5.56300 22.78700 32.01900
H  -4.06000 23.78800 31.82700
H  -7.35700 26.88900 30.77800
H  -6.15200 27.99200 30.77400
H  -7.70400 27.08000 33.02400
H  -6.39800 28.06600 33.24800
H  -9.98100 20.90000 27.77800
H  -8.66000 21.11400 28.99900
H  -8.52600 19.96200 27.70900
H  -10.72500 20.22500 25.80200
H  -9.32100 19.19600 25.27300
H  -10.58500 19.59400 24.20100
H  -7.77200 26.24000 21.87400
H  -4.81200 26.01500 21.51300
H  -7.93000 24.39400 20.55200
H  -6.60100 23.58300 21.27000
H  -6.19900 24.90400 20.13600
H  -5.50700 28.77600 22.08300
H  -6.91700 28.18100 21.32700
H  -4.87900 27.13500 19.73900
H  -4.35600 28.71500 20.20500
H  -5.91500 28.42300 19.19400
H  -2.62700 30.91500 25.31900
H  -1.71300 29.64100 24.42900
H  -1.34000 30.10100 26.03100
H  -3.68600 28.57700 30.52900
H  -0.00700 27.17700 32.49000
H  -1.03900 25.83000 31.99700
H  -1.59000 26.92600 33.35900

