158

Mg 49.96300 46.55300 43.33200
C  46.73900 46.95900 42.34200
C  50.00800 43.45900 41.73800
C  53.25600 46.53200 43.67700
C  49.96900 49.99100 44.47600
N  48.58700 45.41800 42.09300
C  47.30300 45.77100 41.89600
C  46.54300 44.75900 41.04000
C  47.55100 43.56600 40.94800
C  48.77700 44.14200 41.66900
C  47.02300 42.22400 41.47200
C  45.98100 45.32700 39.67000
C  44.65900 44.74000 39.29700
H  44.61400 43.72200 38.09400
N  51.41300 45.12500 42.94400
C  51.22900 43.97000 42.24400
C  52.49500 43.26700 42.24300
C  53.47100 44.05700 42.94600
C  52.76200 45.29400 43.25700
C  52.65700 41.91200 41.48800
C  54.93900 43.80800 43.14300
O  55.41500 42.77900 42.72800
C  55.88300 44.69000 44.06700
N  51.44700 48.03400 44.03500
C  52.74400 47.75200 44.08800
C  53.51000 49.01600 44.60700
C  52.49600 50.15400 44.66300
C  51.19700 49.40500 44.38800
C  54.11600 48.71300 46.01200
C  52.77700 51.35900 43.66200
C  53.26100 52.64200 44.35200
N  48.61900 48.15600 43.51500
C  48.76500 49.46900 43.96600
C  47.44000 50.11200 43.93600
C  46.61900 49.15600 43.25900
C  47.43700 48.00700 43.03500
C  47.07600 51.38500 44.46600
C  45.29500 48.90800 42.70500
O  44.24800 49.61100 42.73600
C  45.30300 47.43800 42.17000
C  44.27500 46.69800 42.96600
O  44.15700 46.58400 44.19100
O  43.42100 46.05700 42.07100
C  42.57700 44.97100 42.54500
H  50.07900 42.51600 41.19300
H  54.34000 46.59800 43.78600
H  49.89900 51.05800 44.69900
H  45.65300 44.39800 41.55400
H  47.71600 43.40200 39.88300
H  46.06100 42.33300 41.97300
H  47.77300 41.74400 42.10100
H  46.89200 41.48700 40.68000
H  46.74500 45.10800 38.92400
H  45.99000 46.41700 39.69400
H  43.93800 45.55100 39.19400
H  44.21400 44.13300 40.08500
H  53.11700 42.12100 40.52200
H  51.72300 41.35100 41.46100
H  53.37700 41.27300 42.00000
H  56.50400 43.92800 44.53900
H  55.28500 45.14400 44.85800
H  56.48200 45.34900 43.44000
H  54.35000 49.21000 43.94000
H  52.45400 50.56500 45.67200
H  54.44100 49.59500 46.56500
H  54.94100 48.04000 45.77700
H  53.30700 48.23700 46.56500
H  51.80900 51.60900 43.22800
H  53.44800 51.03000 42.86800
H  54.34200 52.77900 44.32200
H  52.98000 52.54200 45.40000
H  52.82900 53.55400 43.94000
H  47.44200 52.21500 43.86100
H  47.39600 51.51800 45.49900
H  46.00000 51.53200 44.37600
H  45.00500 47.47900 41.12200
H  42.13700 45.08500 43.53600
H  43.14200 44.03900 42.54300
H  41.75000 44.83700 41.84700
Mg -1.46200 35.21300 26.80500
C  -3.24500 33.41200 29.25500
C  -0.33300 37.26000 29.46900
C  0.07600 37.11700 24.65600
C  -2.76000 33.19000 24.44900
N  -1.89100 35.43900 29.14600
C  -2.45600 34.45200 29.89200
C  -2.25600 34.71800 31.43200
C  -1.42600 35.98600 31.39000
C  -1.19000 36.28500 29.91800
C  -2.10300 37.08800 32.27300
C  -1.67200 33.59300 32.26600
C  -2.52700 33.03000 33.45900
H  -1.80700 33.01900 34.83600
N  -0.27300 36.94500 27.00200
C  0.11700 37.55900 28.14800
C  0.98600 38.60700 27.84700
C  1.20500 38.53400 26.44100
C  0.32700 37.48100 25.94000
C  1.59000 39.61300 28.84800
C  2.16000 39.33700 25.56900
O  2.23900 39.09000 24.37900
C  3.07700 40.34600 26.18800
N  -1.53400 35.20200 24.75900
C  -0.71800 36.18700 24.10900
C  -0.83200 35.91300 22.62800
C  -1.66200 34.52200 22.51400
C  -2.00300 34.24500 23.96200
C  -1.56800 37.03300 21.86800
C  -0.86500 33.44100 21.76300
C  0.35900 32.83400 22.53800
N  -2.87200 33.72200 26.79300
C  -3.25800 32.99500 25.72100
C  -3.92400 31.83400 26.16100
C  -4.04700 31.95600 27.58400
C  -3.35000 33.14600 27.89500
C  -4.28000 30.69200 25.23400
C  -4.46900 31.31800 28.84200
O  -5.09400 30.28500 29.06800
C  -3.94000 32.26100 29.94500
C  -5.04000 32.81300 30.70500
O  -5.85500 33.66900 30.32000
O  -5.16500 32.24900 31.90600
C  -6.25700 32.58400 32.78300
H  0.11100 37.79800 30.30900
H  0.32000 37.87000 23.90400
H  -2.91100 32.40100 23.70900
H  -3.28700 34.82100 31.77000
H  -0.41100 35.81100 31.74800
H  -1.34900 37.42200 32.98700
H  -2.99900 36.76900 32.80500
H  -2.35400 37.84100 31.52600
H  -0.67900 33.84800 32.63800
H  -1.39200 32.81400 31.55800
H  -2.79700 32.01300 33.17400
H  -3.40000 33.66100 33.62900
H  1.19900 39.42300 29.84800
H  1.44900 40.66900 28.61600
H  2.66400 39.45700 28.94600
H  3.67200 39.85300 26.95600
H  2.45600 41.13300 26.61500
H  3.75100 40.78500 25.45200
H  0.19200 35.78300 22.27900
H  -2.57700 34.61700 21.93000
H  -1.81100 37.93500 22.43000
H  -2.47100 36.67600 21.37200
H  -0.95800 37.34600 21.02000
H  -0.56200 33.77200 20.77000
H  -1.55900 32.60000 21.78900
H  -0.06100 31.83700 22.67000
H  0.41500 33.39800 23.46900
H  1.33800 32.75300 22.06500
H  -4.33300 29.82100 25.88700
H  -3.49400 30.50400 24.50300
H  -5.17500 30.78800 24.61800
H  -3.22900 31.69400 30.54500
H  -6.11400 32.20900 33.79700
H  -7.20900 32.15700 32.46700
H  -6.24800 33.66300 32.93900

