158

Mg 16.38200 -0.71200 27.84300
C  15.59000 1.36400 30.52400
C  18.27300 -2.61100 30.00400
C  17.73700 -2.37300 25.10300
C  14.84800 1.52400 25.75500
N  16.92200 -0.57100 29.96600
C  16.41700 0.35000 30.87400
C  16.80000 -0.13400 32.29700
C  17.98200 -1.07600 32.03300
C  17.71100 -1.52800 30.56500
C  19.43300 -0.72200 32.33100
C  15.56000 -0.70200 33.08400
C  15.30600 0.09500 34.45100
H  16.53700 0.46600 35.34700
N  17.71500 -2.33600 27.65400
C  18.33900 -3.03100 28.66200
C  19.05400 -4.18300 28.13100
C  18.97600 -4.14000 26.69000
C  18.13100 -2.94700 26.43500
C  19.64000 -5.27300 29.01800
C  19.56700 -5.03200 25.61200
O  19.47300 -4.79400 24.40700
C  20.54100 -6.26700 25.91200
N  16.39300 -0.43600 25.71000
C  17.01200 -1.24400 24.77400
C  16.82500 -0.65900 23.39800
C  15.81300 0.43900 23.59600
C  15.64900 0.50700 25.04500
C  18.16500 -0.19200 22.71600
C  14.50700 0.27600 22.79300
C  13.28400 -0.22100 23.49300
N  15.32600 0.99300 28.05100
C  14.72100 1.79700 27.12300
C  14.04500 2.96100 27.76500
C  14.38300 2.76900 29.11600
C  15.17100 1.60000 29.23300
C  13.33500 4.08400 26.98400
C  14.16600 3.41700 30.44800
O  13.46800 4.36800 30.76400
C  14.97100 2.46300 31.44300
C  15.99000 3.29500 32.21700
O  17.09600 3.61200 31.86200
O  15.44200 3.69400 33.37600
C  16.21900 4.66200 34.21800
H  18.67500 -3.31200 30.73900
H  18.02500 -2.90400 24.19400
H  14.41300 2.21000 25.02500
H  17.25700 0.71600 32.80300
H  17.84000 -2.00300 32.59000
H  20.04700 -0.87300 31.44300
H  19.74400 -1.32900 33.18100
H  19.58700 0.31200 32.64000
H  15.72700 -1.73500 33.38800
H  14.66100 -0.57500 32.48000
H  14.59200 -0.44700 35.07000
H  14.92100 1.09000 34.22800
H  19.98800 -6.14200 28.45900
H  18.87400 -5.49900 29.75900
H  20.56700 -4.93300 29.47900
H  20.03900 -7.13900 26.33000
H  21.23000 -5.70000 26.53900
H  20.99800 -6.57900 24.97300
H  16.46800 -1.31000 22.60000
H  16.23200 1.40800 23.32400
H  19.06500 -0.70200 23.05900
H  18.37500 0.85700 22.92900
H  18.13300 -0.26400 21.62900
H  14.66100 -0.38500 21.94000
H  14.21600 1.24700 22.39200
H  12.75200 0.64100 23.89500
H  13.59500 -0.86300 24.31800
H  12.69300 -0.86000 22.83700
H  13.23600 4.94000 27.65100
H  12.38400 3.58800 26.79200
H  13.85300 4.34900 26.06200
H  14.22700 2.02300 32.10700
H  15.97600 4.40800 35.25000
H  16.01300 5.69100 33.92300
H  17.30900 4.65800 34.23300
Mg 54.71800 24.36900 44.64300
C  52.07600 26.36900 43.39200
C  52.83500 21.49700 44.04500
C  57.52900 22.53000 45.07000
C  56.52000 27.30500 45.32100
N  52.63500 24.02500 44.00400
C  51.78700 24.94800 43.36900
C  50.54400 24.22900 42.88700
C  50.67600 22.76400 43.47500
C  52.15500 22.70500 43.92300
C  49.67000 22.15900 44.56000
C  50.32200 24.33100 41.35500
C  48.89900 23.97400 40.93300
H  48.84200 22.79500 40.01700
N  55.24500 22.27700 44.52300
C  54.28700 21.30600 44.34500
C  54.96000 20.03000 44.35500
C  56.31400 20.27500 44.70400
C  56.42100 21.75000 44.75100
C  54.26200 18.69800 43.91200
C  57.31300 19.19900 44.95700
O  56.97200 17.99800 44.97700
C  58.70100 19.55200 45.40500
N  56.80000 24.89300 44.87700
C  57.71100 23.89800 45.14600
C  59.04100 24.47600 45.76000
C  58.69200 26.03900 45.78200
C  57.22800 26.11500 45.26700
C  59.43400 24.00400 47.16300
C  59.61300 26.83000 44.88000
C  59.94700 28.26400 45.39200
N  54.41800 26.47100 44.40900
C  55.22800 27.57300 44.76800
C  54.44500 28.76400 44.63000
C  53.24600 28.34200 44.08600
C  53.27600 26.91200 43.89700
C  54.98500 30.13600 44.94100
C  52.00400 28.78700 43.56100
O  51.56400 29.88000 43.34600
C  51.24700 27.55800 42.92200
C  51.28900 27.70200 41.40200
O  52.25800 27.57300 40.67700
O  49.99700 27.92000 41.06500
C  49.75100 28.00200 39.64800
H  52.25100 20.57500 44.01400
H  58.45500 22.06300 45.41200
H  57.07000 28.22700 45.52400
H  49.78700 24.71800 43.50000
H  50.61400 22.09500 42.61600
H  49.07800 23.00900 44.89700
H  50.23900 21.70800 45.37300
H  49.05400 21.41700 44.05000
H  51.00800 23.65900 40.83800
H  50.49900 25.31600 40.92400
H  48.31600 24.81400 40.55600
H  48.38800 23.68900 41.85200
H  54.04800 18.09600 44.79500
H  54.93000 18.01700 43.38500
H  53.38300 18.97900 43.33100
H  59.19900 20.04100 44.56900
H  59.24400 18.63500 45.63400
H  58.59900 20.13700 46.31900
H  59.84300 24.32400 45.03700
H  58.86300 26.47600 46.76600
H  59.11100 22.98000 47.34900
H  59.04800 24.62300 47.97300
H  60.51400 23.86200 47.13000
H  59.14400 27.07600 43.92700
H  60.59900 26.37600 44.77900
H  60.76600 28.14800 46.10300
H  59.18900 28.90600 45.84000
H  60.31400 28.85800 44.55400
H  54.76200 30.39900 45.97500
H  54.53100 30.95700 44.38600
H  56.07500 30.13600 44.94900
H  50.29400 27.29700 43.38300
H  49.64500 27.02900 39.16900
H  50.61200 28.47400 39.17300
H  48.86200 28.58400 39.40700

