158

Mg 2.60600 -2.73300 43.91100
C  6.10700 -2.32800 43.54200
C  2.08500 -0.00700 41.93400
C  -0.65500 -3.52000 43.90000
C  3.17800 -5.63500 45.76600
N  3.94900 -1.37500 42.81100
C  5.33500 -1.37000 42.85100
C  5.89300 -0.01200 42.18600
C  4.54700 0.84200 42.08400
C  3.44200 -0.25800 42.20100
C  4.36500 1.88300 43.23200
C  6.59800 -0.41800 40.85000
C  7.89400 0.31600 40.55500
H  8.01300 1.07300 39.22100
N  0.95100 -1.88200 43.00200
C  0.98700 -0.80300 42.21100
C  -0.36700 -0.61000 41.71400
C  -1.24900 -1.49500 42.38700
C  -0.33200 -2.40000 43.15200
C  -0.77600 0.40400 40.67600
C  -2.75100 -1.55300 42.18500
O  -3.23900 -0.76300 41.41200
C  -3.68900 -2.62300 42.73800
N  1.45000 -4.31200 44.78400
C  0.12400 -4.39700 44.64000
C  -0.42600 -5.66100 45.19900
C  0.81800 -6.44000 45.74700
C  1.86000 -5.37800 45.37600
C  -1.49700 -5.41900 46.27800
C  1.01700 -7.86800 45.05000
C  0.47100 -9.13000 45.74500
N  4.31500 -3.78400 44.68400
C  4.34300 -4.91500 45.42700
C  5.73400 -5.20000 45.67800
C  6.50300 -4.24400 44.97000
C  5.54700 -3.38900 44.38100
C  6.24500 -6.32700 46.55500
C  7.82000 -3.71400 44.61500
O  8.89500 -4.15500 45.01800
C  7.62400 -2.50600 43.64700
C  8.33100 -1.25300 44.05500
O  9.32500 -0.78200 43.51600
O  7.72900 -0.66800 45.08000
C  8.20500 0.70800 45.50000
H  1.98300 0.92100 41.36600
H  -1.71700 -3.76900 43.93700
H  3.42100 -6.59700 46.22000
H  6.54000 0.45100 42.93100
H  4.60800 1.37800 41.13700
H  4.95700 1.57500 44.09400
H  3.29400 1.99500 43.40100
H  4.67600 2.88400 42.93300
H  5.85000 -0.19500 40.08800
H  6.82600 -1.48300 40.84600
H  8.69500 -0.42300 40.53800
H  8.17300 0.98400 41.37000
H  -1.22400 -0.14200 39.84600
H  0.09500 0.93700 40.29500
H  -1.49100 1.14900 41.02600
H  -3.79600 -2.60100 43.82300
H  -3.33900 -3.55900 42.30300
H  -4.66600 -2.44200 42.28900
H  -1.00800 -6.21900 44.46500
H  0.89700 -6.52200 46.83100
H  -2.10200 -6.32600 46.29500
H  -2.09600 -4.50900 46.29500
H  -1.08500 -5.42800 47.28600
H  2.03800 -8.04800 44.71100
H  0.40100 -7.76800 44.15600
H  -0.42000 -9.42300 45.19000
H  0.14400 -8.93400 46.76600
H  1.15400 -9.96500 45.90300
H  7.33400 -6.34800 46.60700
H  5.78700 -7.25600 46.21400
H  5.95100 -6.16000 47.59100
H  8.14200 -2.75300 42.72000
H  9.24800 0.59800 45.79500
H  7.62000 1.01800 46.36600
H  8.13400 1.43700 44.69300
Mg -0.46600 6.98600 24.44600
C  0.54600 9.03700 27.17500
C  0.19800 4.30200 26.31200
C  -1.29000 5.20500 21.75200
C  -0.43000 9.86400 22.45700
N  0.54700 6.77400 26.41400
C  0.54800 7.69900 27.42900
C  0.55800 6.99900 28.87900
C  0.43200 5.53600 28.51000
C  0.41200 5.54200 26.96100
C  1.46400 4.50700 28.99000
C  -0.63100 7.39500 29.76100
C  -0.25300 7.79800 31.23200
H  1.08400 7.32000 31.76100
N  -0.54800 4.92900 24.09400
C  -0.21800 4.03100 24.98200
C  -0.47500 2.71300 24.37300
C  -0.96100 2.91700 23.03900
C  -0.97500 4.41800 22.89100
C  -0.13900 1.44400 25.17400
C  -1.23200 1.89100 21.94700
O  -1.62800 2.18600 20.82500
C  -0.89000 0.40600 22.13000
N  -0.81800 7.44000 22.45700
C  -1.18600 6.57400 21.49600
C  -1.35900 7.11200 20.13400
C  -1.26900 8.63400 20.43400
C  -0.75900 8.70600 21.90400
C  -0.31000 6.61700 19.11400
C  -2.57400 9.29200 20.37000
C  -2.66900 10.34100 19.19900
N  -0.03500 8.99600 24.66700
C  -0.02700 10.05800 23.78000
C  0.33300 11.33600 24.38600
C  0.46100 10.96900 25.72500
C  0.32100 9.56700 25.89500
C  0.41800 12.73000 23.79500
C  0.69200 11.49600 27.06400
O  0.90100 12.65700 27.42300
C  0.70600 10.23500 28.09800
C  2.05500 10.36300 28.80500
O  3.17900 10.23400 28.35200
O  1.79000 10.92000 30.07800
C  2.82200 11.22300 31.03200
H  0.24100 3.43000 26.96700
H  -1.50400 4.53700 20.91500
H  -0.52100 10.82800 21.95200
H  1.49100 7.36200 29.30900
H  -0.48400 5.06800 28.87100
H  2.14700 4.98200 29.69400
H  2.11700 4.28600 28.14600
H  1.01000 3.61700 29.42600
H  -1.40200 6.62700 29.81700
H  -1.15900 8.20100 29.25100
H  -1.04400 7.34900 31.83200
H  -0.42400 8.86600 31.36700
H  -0.42000 1.48300 26.22700
H  0.92900 1.22500 25.20200
H  -0.66400 0.62400 24.68400
H  -1.69900 -0.03900 22.70900
H  0.12700 0.47300 22.51700
H  -0.84600 -0.13300 21.18400
H  -2.29900 6.68400 19.78700
H  -0.50200 9.17900 19.88300
H  0.66500 6.34100 19.51600
H  -0.15700 7.50600 18.50200
H  -0.69400 5.78500 18.52500
H  -2.82600 9.78100 21.31100
H  -3.34300 8.54600 20.16800
H  -3.44200 10.05000 18.48700
H  -1.73300 10.44400 18.65000
H  -2.94500 11.29900 19.63900
H  -0.23200 12.90000 22.93700
H  1.44300 12.89800 23.46500
H  0.08400 13.46400 24.52800
H  -0.03300 10.44500 28.87100
H  3.04000 12.28900 30.96300
H  3.72300 10.62500 30.89100
H  2.38300 11.04500 32.01300

