158

Mg 8.59600 3.73800 26.84700
C  10.09300 2.03800 29.63100
C  6.69800 5.42700 29.09400
C  6.93500 4.93500 24.31100
C  10.38400 1.63400 24.78400
N  8.40300 3.63800 29.14500
C  9.15300 3.01800 30.05500
C  8.81400 3.57500 31.50600
C  7.58700 4.45700 31.28400
C  7.54800 4.47000 29.70600
C  6.25500 3.97700 31.97800
C  9.89800 4.37400 32.15900
C  9.66400 4.46200 33.68600
H  10.79600 4.58400 34.64700
N  7.21000 5.27300 26.70700
C  6.50200 5.78900 27.74900
C  5.40900 6.60500 27.20100
C  5.59100 6.53000 25.79200
C  6.61800 5.55100 25.51800
C  4.48100 7.39400 28.07000
C  4.88200 7.37700 24.72100
O  5.23100 7.35200 23.54300
C  3.72200 8.27700 25.05500
N  8.68800 3.30100 24.80700
C  7.90400 3.93700 23.92900
C  8.13400 3.46000 22.47700
C  9.31300 2.50800 22.69600
C  9.53600 2.52300 24.16500
C  6.83200 2.90800 21.85600
C  10.53200 2.67700 21.70400
C  11.32500 1.45100 21.20900
N  9.91400 2.13500 27.07600
C  10.65800 1.42900 26.13100
C  11.48400 0.42600 26.78000
C  11.24100 0.64400 28.15700
C  10.29800 1.68300 28.32200
C  12.32200 -0.60900 26.12300
C  11.71800 0.23800 29.40200
O  12.47700 -0.64900 29.80100
C  11.14100 1.26800 30.43800
C  10.58900 0.47100 31.60000
O  9.59200 -0.12900 31.43500
O  11.18100 0.78200 32.82700
C  10.57900 0.19700 34.07600
H  5.98900 5.80200 29.83500
H  6.31300 5.20800 23.45500
H  10.89900 0.99800 24.06100
H  8.53800 2.67700 32.05800
H  7.74900 5.49700 31.56700
H  5.84000 4.61300 32.76000
H  6.44500 3.01100 32.44800
H  5.49800 3.86100 31.20300
H  10.02000 5.26300 31.54000
H  10.87500 3.90800 32.02700
H  8.97800 3.67900 34.00800
H  9.09700 5.38300 33.82500
H  4.45000 8.42700 27.72500
H  4.76800 7.36500 29.12100
H  3.51900 6.95100 27.81400
H  2.98000 7.88400 25.75000
H  3.25300 8.59200 24.12300
H  4.08100 9.24200 25.41200
H  8.42900 4.31600 21.87000
H  8.87300 1.53700 22.46800
H  6.16500 2.62600 22.67100
H  7.02400 1.99700 21.28900
H  6.26700 3.60400 21.23600
H  11.16500 3.37800 22.24700
H  10.30200 3.14100 20.74500
H  11.30900 1.50800 20.12100
H  11.07000 0.48100 21.63500
H  12.37400 1.51400 21.50100
H  13.17600 -0.74300 26.78800
H  12.60900 -0.25000 25.13500
H  11.74500 -1.53300 26.16500
H  11.95100 1.92900 30.74700
H  10.25700 1.05700 34.66200
H  11.22400 -0.29800 34.80200
H  9.70000 -0.41500 33.87400
Mg 53.33000 24.48600 45.56200
C  50.78600 26.51300 44.46300
C  51.64300 21.85600 44.03600
C  55.98200 22.57700 46.18100
C  55.07700 27.24900 46.71600
N  51.54200 24.29600 44.22500
C  50.62700 25.21900 43.88100
C  49.66900 24.73100 42.84100
C  49.63200 23.21600 43.23000
C  51.01300 23.06000 43.88200
C  48.49700 22.86000 44.33100
C  50.28700 25.02700 41.42300
C  49.42900 25.71400 40.25000
H  50.29400 26.40400 39.15300
N  53.76500 22.46800 45.17500
C  52.91900 21.57500 44.55700
C  53.55700 20.24300 44.64500
C  54.79500 20.36200 45.45000
C  54.91700 21.81900 45.54400
C  52.91100 19.02300 44.00100
C  55.60200 19.18000 45.98300
O  55.16200 18.04200 45.99200
C  56.93600 19.46000 46.69400
N  55.36500 24.90300 46.19800
C  56.16800 23.93200 46.55600
C  57.61600 24.35500 46.95500
C  57.30000 25.92300 47.11300
C  55.88400 26.09500 46.61200
C  58.17000 23.67500 48.21800
C  58.35600 26.86200 46.40800
C  59.32900 27.50200 47.23500
N  53.01200 26.46200 45.69300
C  53.71700 27.47100 46.28800
C  52.93700 28.70400 46.36600
C  51.81100 28.37900 45.63400
C  51.87100 26.99500 45.22200
C  53.29700 29.94000 47.01800
C  50.48100 28.88300 45.14600
O  49.92900 29.94600 45.33500
C  49.87800 27.70400 44.29100
C  49.51900 28.27000 42.96600
O  50.26900 28.34700 41.98100
O  48.22800 28.64200 43.04900
C  47.77700 29.28000 41.80500
H  51.02500 21.03500 43.66700
H  56.85600 21.94200 46.33500
H  55.80200 28.00900 47.01300
H  48.63200 25.05400 42.75400
H  49.46900 22.55100 42.38200
H  48.00700 21.94900 43.98600
H  47.96700 23.79300 44.52300
H  48.96700 22.67200 45.29600
H  50.51000 24.07500 40.94100
H  51.30800 25.39700 41.51900
H  48.82900 26.49400 40.71900
H  48.69900 24.98300 39.90300
H  52.36300 19.28600 43.09600
H  52.34900 18.52200 44.78900
H  53.72700 18.35000 43.74000
H  57.34800 18.45500 46.78800
H  56.80000 19.73500 47.74000
H  57.61400 20.02800 46.05800
H  58.30400 24.19800 46.12500
H  57.21700 26.21600 48.15900
H  58.97500 23.08600 47.77800
H  57.38400 23.02200 48.59600
H  58.33800 24.53200 48.87000
H  57.84600 27.68200 45.90300
H  58.85200 26.27800 45.63200
H  59.23700 27.31800 48.30500
H  59.29000 28.56300 46.98800
H  60.31600 27.09800 47.01000
H  54.14000 30.47100 46.57600
H  53.61100 29.66200 48.02400
H  52.41000 30.56900 47.09400
H  48.97300 27.47700 44.85400
H  48.24900 30.26100 41.86000
H  46.69500 29.38600 41.88900
H  47.99700 28.78500 40.86000

