158

Mg 47.89000 15.57900 28.44300
C  45.77600 15.29700 31.28700
C  50.27600 17.14500 30.47100
C  49.86400 16.25100 25.65800
C  45.27700 14.40900 26.44300
N  47.97100 16.25100 30.57600
C  46.93400 15.98600 31.56200
C  47.47300 16.47700 32.88600
C  48.65300 17.43800 32.48400
C  49.04100 16.88400 31.09400
C  48.33400 18.97200 32.48900
C  47.90300 15.21100 33.73400
C  48.11400 15.44700 35.26000
H  48.02300 16.85700 35.89000
N  49.86300 16.34200 28.12700
C  50.63000 16.91800 29.11600
C  51.99400 17.25800 28.55900
C  51.86400 17.13800 27.12400
C  50.50600 16.50900 26.90700
C  53.17400 17.87600 29.30800
C  52.86600 17.39900 26.00100
O  52.63000 17.31300 24.77600
C  54.27500 17.85200 26.35700
N  47.58200 15.38700 26.40400
C  48.51200 15.82500 25.47000
C  47.90700 15.59500 24.06200
C  46.63300 14.82800 24.36800
C  46.44000 14.89100 25.85200
C  47.76800 16.82800 23.16300
C  46.57700 13.33600 23.87800
C  47.04100 12.19900 24.81700
N  46.02500 14.91800 28.78600
C  45.11700 14.42800 27.83800
C  44.00700 13.82700 28.61200
C  44.15400 14.22900 29.94800
C  45.44300 14.88600 30.02400
C  42.80300 13.19900 27.98000
C  43.51600 14.30300 31.31000
O  42.40000 14.01600 31.65600
C  44.63700 14.87300 32.27200
C  44.01500 15.89700 33.13500
O  43.79300 17.00900 32.76800
O  43.63100 15.38900 34.30800
C  42.72500 16.22800 35.04300
H  51.04900 17.54400 31.13200
H  50.43900 16.52900 24.77200
H  44.61500 13.85300 25.77600
H  46.70900 16.99600 33.46400
H  49.51400 17.36900 33.14800
H  48.79500 19.44300 33.35800
H  47.26700 19.18100 32.57500
H  48.77600 19.42100 31.60000
H  48.83100 14.83500 33.30500
H  47.14600 14.43200 33.63500
H  49.10700 15.05400 35.47700
H  47.36400 14.88100 35.81200
H  52.98400 17.85700 30.38100
H  53.33200 18.89700 28.96200
H  54.05500 17.25100 29.16200
H  54.14400 18.83400 26.81200
H  54.96800 17.95600 25.52200
H  54.68600 17.05000 26.97100
H  48.62800 15.00200 23.49900
H  45.75600 15.27800 23.90300
H  46.71800 17.09800 23.04700
H  48.17800 16.62500 22.17300
H  48.36000 17.63500 23.59400
H  47.16300 13.22900 22.96500
H  45.55100 13.06900 23.62500
H  46.18800 11.64900 25.21400
H  47.60400 12.62400 25.64800
H  47.58100 11.44200 24.24900
H  41.86500 13.43800 28.48100
H  42.93100 12.12300 27.85700
H  42.63200 13.54000 26.95900
H  45.09100 14.17000 32.97000
H  41.85500 16.30800 34.39100
H  43.04300 17.21300 35.38300
H  42.32800 15.68300 35.89900
Mg -1.61500 34.99400 26.17600
C  -3.48000 33.38500 28.76600
C  -0.55900 37.15400 28.59600
C  -0.00100 36.68500 23.82500
C  -3.39200 33.14100 23.97200
N  -1.93600 35.13300 28.46800
C  -2.77900 34.44200 29.30000
C  -2.77600 34.91800 30.71700
C  -2.01700 36.29700 30.57200
C  -1.43300 36.19900 29.13400
C  -2.90300 37.53200 30.82100
C  -2.14900 33.95400 31.77800
C  -2.96300 33.85600 33.13500
H  -2.30500 33.12600 34.33200
N  -0.38700 36.59700 26.20800
C  -0.06400 37.35200 27.29700
C  0.85500 38.39200 26.87700
C  1.13200 38.20300 25.55500
C  0.26600 37.08300 25.13100
C  1.32200 39.44400 27.86900
C  1.90400 39.03800 24.56900
O  2.30100 38.55600 23.49300
C  2.38700 40.40700 24.97500
N  -1.81500 35.07200 24.12900
C  -0.95900 35.75500 23.32800
C  -1.14800 35.43600 21.86700
C  -2.15800 34.24300 21.95800
C  -2.52100 34.14100 23.43800
C  -1.61300 36.70300 21.02500
C  -1.65300 32.90000 21.31400
C  -0.46400 32.20200 22.01800
N  -3.01400 33.40700 26.22800
C  -3.66500 32.74000 25.24000
C  -4.52500 31.69600 25.77100
C  -4.49700 31.96300 27.17600
C  -3.55500 32.92400 27.40900
C  -5.36500 30.72000 25.08400
C  -5.05800 31.50600 28.39600
O  -5.81000 30.61000 28.70000
C  -4.30700 32.36600 29.51500
C  -5.38300 32.99400 30.24600
O  -5.97200 34.07200 30.01900
O  -5.75000 32.16000 31.30200
C  -6.73700 32.63800 32.25900
H  -0.27700 37.83400 29.40200
H  0.54400 37.04900 22.95100
H  -3.86600 32.46400 23.25700
H  -3.82100 35.10200 30.96500
H  -1.14100 36.41200 31.20900
H  -2.92200 38.16400 29.93300
H  -2.44400 38.20200 31.54800
H  -3.94100 37.33500 31.08900
H  -1.17000 34.31500 32.09600
H  -2.05300 32.97900 31.30100
H  -3.94000 33.43100 32.90200
H  -3.06000 34.88300 33.48600
H  1.27200 39.08600 28.89800
H  0.65400 40.30500 27.85900
H  2.38500 39.68200 27.89100
H  1.61600 40.93600 25.53500
H  2.66100 40.92200 24.05500
H  3.27100 40.14600 25.55800
H  -0.21800 35.02200 21.47900
H  -3.08700 34.58300 21.50000
H  -2.69900 36.76100 21.10900
H  -1.33600 36.61700 19.97500
H  -1.18800 37.61700 21.44000
H  -1.46900 33.17700 20.27600
H  -2.43600 32.14300 21.27200
H  -0.86700 31.30800 22.49400
H  0.04400 32.73700 22.82100
H  0.30200 31.85500 21.32500
H  -5.21500 29.70200 25.44400
H  -5.20500 30.91100 24.02300
H  -6.41100 30.91100 25.32300
H  -3.71600 31.62600 30.05500
H  -6.42700 33.26700 33.09400
H  -7.27800 31.79500 32.69000
H  -7.44300 33.36100 31.85000

