158

Mg 25.55000 1.41600 28.98200
C  27.50700 1.21700 31.92000
C  22.89300 1.68800 30.77000
C  23.84800 1.26500 26.07700
C  28.49400 0.51100 27.14900
N  25.28900 1.38100 31.06100
C  26.12600 1.54000 32.15600
C  25.45000 1.70500 33.48500
C  23.94500 1.75600 33.10000
C  24.02900 1.54800 31.49600
C  22.99500 0.65300 33.73700
C  25.90700 2.88800 34.39200
C  26.49100 2.58000 35.76500
H  26.35100 3.67300 36.86400
N  23.56800 1.56200 28.46200
C  22.61900 1.76400 29.41400
C  21.36800 1.93800 28.73900
C  21.62900 1.75000 27.31700
C  23.07300 1.53400 27.22900
C  20.01700 2.09100 29.47200
C  20.58700 1.69100 26.16000
O  20.98000 1.33600 25.00800
C  19.17300 1.92900 26.35500
N  26.07900 0.77300 26.94200
C  25.23000 1.12100 25.95600
C  25.79700 1.00600 24.57800
C  27.34100 0.75000 24.92400
C  27.34600 0.70700 26.47100
C  25.28600 -0.18800 23.59300
C  28.28600 1.86200 24.38700
C  29.49300 1.33700 23.63600
N  27.63100 1.04700 29.38500
C  28.70300 0.65200 28.56100
C  29.86100 0.44300 29.36000
C  29.46600 0.73200 30.67900
C  28.08900 0.96500 30.68500
C  31.14000 -0.15800 28.95000
C  29.81500 0.79400 32.10000
O  30.90800 0.66200 32.64000
C  28.60800 1.19200 32.92000
C  28.50800 0.13800 34.00800
O  28.10800 -1.01800 33.85700
O  29.00400 0.58800 35.24700
C  28.89400 -0.25900 36.45700
H  22.02500 2.04700 31.32800
H  23.38000 1.29900 25.09100
H  29.48600 0.45100 26.69600
H  25.59400 0.79700 34.07100
H  23.48100 2.68600 33.42900
H  23.47800 -0.16900 34.26400
H  22.36800 0.18100 32.98000
H  22.32800 1.24200 34.36700
H  25.10200 3.59500 34.59100
H  26.74100 3.40600 33.91800
H  27.57600 2.56800 35.66200
H  26.12000 1.62100 36.12700
H  19.39600 2.82800 28.96100
H  20.12600 2.39300 30.51300
H  19.59500 1.08600 29.48800
H  18.71700 1.26800 27.09200
H  18.70100 1.81600 25.37900
H  18.97000 2.95100 26.67200
H  25.61900 1.98400 24.13100
H  27.73600 -0.17700 24.51000
H  24.62600 -0.78200 24.22500
H  26.03100 -0.82300 23.11200
H  24.76400 0.29700 22.76900
H  28.57300 2.56300 25.17100
H  27.66600 2.50300 23.76000
H  30.24800 2.10300 23.46200
H  29.16300 0.90500 22.69000
H  29.92400 0.51000 24.20000
H  30.86700 -0.96700 28.27300
H  31.66200 -0.51500 29.83800
H  31.78200 0.50400 28.36800
H  28.81300 2.20500 33.26700
H  27.94600 -0.18300 36.99000
H  29.67200 -0.04400 37.18900
H  29.09000 -1.30200 36.20800
Mg 36.48300 49.04400 26.07700
C  36.22800 46.95300 28.90600
C  35.63700 51.65300 27.98400
C  36.40200 50.96800 23.11400
C  36.56400 46.10800 24.09000
N  36.05700 49.28100 28.30600
C  36.01100 48.36800 29.26700
C  35.80500 49.03200 30.65700
C  35.44500 50.47300 30.25600
C  35.76500 50.50600 28.76500
C  34.06900 51.05000 30.76300
C  37.00800 48.81400 31.68300
C  36.45400 48.44100 33.09300
H  35.04400 48.68600 33.63700
N  36.14600 51.01500 25.65800
C  35.84700 51.95600 26.62300
C  35.85000 53.25600 26.05400
C  36.01800 53.12800 24.65700
C  36.20900 51.61700 24.39000
C  35.55500 54.41300 26.94900
C  36.18000 54.15600 23.52100
O  36.25300 53.82300 22.35100
C  36.04300 55.60200 23.94400
N  36.29900 48.53700 23.88700
C  36.49400 49.52100 22.95800
C  36.77400 48.93200 21.48800
C  37.12600 47.44300 21.97000
C  36.60500 47.36200 23.41800
C  35.50500 48.92200 20.57300
C  38.64600 47.15900 22.00500
C  39.24500 45.81200 21.40800
N  36.44300 46.94400 26.35800
C  36.45000 45.90300 25.44600
C  36.54900 44.73800 26.21300
C  36.50100 45.10900 27.58500
C  36.45900 46.46700 27.64100
C  36.92800 43.37900 25.58500
C  36.60700 44.63200 28.85900
O  36.86900 43.52500 29.32600
C  36.34200 45.75300 29.81300
C  35.05000 45.47300 30.55500
O  33.87100 45.62900 30.14300
O  35.40800 44.97600 31.77800
C  34.42100 44.60500 32.80000
H  35.36400 52.52200 28.58700
H  36.29200 51.43600 22.13400
H  36.79800 45.22800 23.48700
H  34.95500 48.49800 31.08200
H  36.16800 51.17300 30.67500
H  33.61300 50.22900 31.31600
H  33.54900 51.26500 29.83000
H  34.07100 51.99000 31.31500
H  37.55600 49.74900 31.79300
H  37.66200 48.06400 31.23600
H  37.14500 48.84200 33.83500
H  36.54100 47.37200 33.28800
H  36.22200 55.24200 26.71200
H  35.84400 54.27800 27.99100
H  34.54900 54.79000 26.76800
H  36.05400 56.25600 23.07200
H  36.95000 55.96100 24.43000
H  35.16400 55.82400 24.55000
H  37.60500 49.32700 20.90300
H  36.64000 46.75100 21.28200
H  35.06100 47.95000 20.35800
H  35.92700 49.31900 19.65000
H  34.74500 49.59000 20.97800
H  38.93700 47.30600 23.04600
H  39.11800 47.93700 21.40500
H  39.84900 45.18600 22.06400
H  39.86400 45.93500 20.51900
H  38.33100 45.31900 21.07800
H  36.26600 43.08400 24.77100
H  36.92500 42.62400 26.37200
H  37.91200 43.41900 25.11800
H  37.20900 45.87100 30.46200
H  33.43000 44.57400 32.34700
H  34.51900 45.34800 33.59100
H  34.72500 43.63900 33.20300

