158

Mg 54.22400 24.66100 45.18400
C  51.74000 26.80300 43.86900
C  52.37900 21.98000 44.28100
C  57.02100 22.80000 45.38300
C  56.09900 27.51200 45.91600
N  52.29600 24.51700 44.14800
C  51.39500 25.45500 43.77300
C  50.10500 24.83000 43.27500
C  50.25500 23.40800 43.83300
C  51.73100 23.23900 44.14100
C  49.29900 22.97700 45.10200
C  49.94400 24.90500 41.74500
C  48.53600 24.83300 41.11800
H  48.34200 24.61300 39.61100
N  54.70600 22.64000 44.73700
C  53.75400 21.71800 44.48300
C  54.39200 20.38600 44.44300
C  55.72000 20.55000 44.90500
C  55.91600 22.02100 45.00300
C  53.68900 19.16300 43.99500
C  56.75800 19.46600 45.24800
O  56.31800 18.32400 45.43400
C  58.13700 19.61700 45.56300
N  56.19800 25.09400 45.51900
C  57.19900 24.13200 45.63500
C  58.59700 24.73500 45.94000
C  58.27200 26.16500 46.26800
C  56.79600 26.30100 45.77600
C  59.45700 23.96500 46.99000
C  59.28500 27.23700 45.78500
C  59.35600 27.46000 44.21500
N  53.96200 26.81100 45.12500
C  54.77300 27.82300 45.54300
C  54.05800 29.13500 45.49100
C  52.86700 28.71500 44.85700
C  52.89500 27.32500 44.53900
C  54.48600 30.44400 45.96100
C  51.63200 29.24700 44.35400
O  51.12700 30.35900 44.40600
C  50.82400 27.98900 43.73100
C  50.39200 28.31900 42.41500
O  51.11500 28.47500 41.44400
O  49.03000 28.39600 42.41700
C  48.37900 28.89000 41.24600
H  51.71100 21.11700 44.23500
H  57.86100 22.11800 45.53100
H  56.62400 28.44600 46.12600
H  49.23000 25.26800 43.75600
H  50.01600 22.73600 43.01000
H  50.00700 23.05900 45.92600
H  48.86200 21.98300 45.00400
H  48.52100 23.72400 45.25700
H  50.39200 24.02000 41.29300
H  50.30000 25.84900 41.33100
H  48.20000 25.83800 41.37400
H  48.01100 24.03500 41.64400
H  54.22800 18.30500 43.59500
H  52.91700 19.35300 43.24900
H  53.02400 18.83800 44.79500
H  58.71300 18.70500 45.40300
H  58.19000 19.97800 46.59000
H  58.67500 20.22500 44.83500
H  59.03800 24.70900 44.94400
H  58.18600 26.25600 47.35100
H  60.36900 23.65900 46.47600
H  59.05800 23.03500 47.39400
H  59.80400 24.62800 47.78300
H  60.29900 26.87000 45.94200
H  59.26000 28.12700 46.41300
H  60.26000 27.03300 43.78100
H  59.39600 28.49500 43.87300
H  58.56500 26.94100 43.67400
H  54.83500 30.32300 46.98700
H  53.72100 31.21500 45.86900
H  55.33900 30.76600 45.36500
H  49.91400 27.86300 44.31800
H  48.20100 29.96100 41.34200
H  47.36300 28.55500 41.45500
H  48.70700 28.52700 40.27200
Mg 0.86600 42.59200 26.10100
C  2.45900 42.51200 29.23800
C  -2.11000 41.88700 27.63000
C  -0.50100 41.87200 23.05200
C  4.00000 43.00000 24.62600
N  0.27400 42.38700 28.20300
C  1.08800 42.31900 29.31700
C  0.24800 42.00100 30.62100
C  -1.20900 41.70200 30.03100
C  -1.04900 42.01300 28.51000
C  -1.65100 40.27700 30.35000
C  0.30400 43.17700 31.65800
C  0.88900 42.80800 32.99200
H  0.54000 41.52600 33.74000
N  -1.03700 42.12000 25.43600
C  -2.10900 42.00700 26.27400
C  -3.25600 41.94600 25.43500
C  -2.85500 41.92300 24.04300
C  -1.41200 41.88800 24.10500
C  -4.64900 41.87000 26.06500
C  -3.62100 41.77700 22.76900
O  -3.16200 41.61100 21.68900
C  -5.08400 41.91800 22.84900
N  1.58400 42.46200 24.19800
C  0.85800 42.10600 23.12800
C  1.73800 41.98500 21.88400
C  3.08800 42.73600 22.30300
C  2.88600 42.76300 23.83100
C  1.98200 40.49000 21.57000
C  3.23200 44.13100 21.62900
C  2.63400 45.35000 22.46600
N  2.82700 42.74000 26.80300
C  3.97000 42.99400 26.07300
C  5.06100 43.21800 26.93200
C  4.49600 43.01900 28.22000
C  3.16600 42.75200 28.05200
C  6.48000 43.53500 26.56100
C  4.84200 42.96800 29.55800
O  6.01100 43.06600 30.03400
C  3.51300 42.63500 30.33600
C  3.75400 41.31100 30.93500
O  3.75200 40.24100 30.34500
O  4.06300 41.43000 32.23700
C  4.44900 40.24100 33.09500
H  -2.97600 41.42600 28.10800
H  -0.88800 41.88300 22.03100
H  5.00900 43.09700 24.22100
H  0.73800 41.11000 31.01300
H  -1.95100 42.41300 30.39400
H  -1.69400 39.63800 29.46800
H  -2.66000 40.54000 30.67100
H  -1.13100 39.69200 31.10900
H  -0.72500 43.52400 31.75500
H  0.93700 44.00400 31.33500
H  0.51100 43.55600 33.68900
H  1.97300 42.90200 32.93500
H  -4.54100 42.36200 27.03200
H  -4.97200 40.84500 26.24500
H  -5.33400 42.47600 25.47100
H  -5.44300 41.12500 23.50600
H  -5.39700 41.77300 21.81500
H  -5.43800 42.83100 23.32800
H  1.26400 42.46400 21.02700
H  4.02500 42.22500 22.08400
H  1.48000 40.31700 20.61800
H  1.66000 39.82200 22.36900
H  3.03300 40.21100 21.48800
H  2.74200 44.18200 20.65700
H  4.26000 44.29200 21.30500
H  3.41500 45.99800 22.86300
H  1.95600 44.98900 23.24000
H  2.11300 45.98500 21.74900
H  6.47100 44.26900 25.75500
H  7.00100 42.70200 26.09000
H  7.05300 43.91200 27.40900
H  3.17500 43.38600 31.05100
H  5.51400 40.31800 33.31700
H  4.41600 39.30200 32.54300
H  3.75800 39.92100 33.87500

