158

Mg 9.18100 48.89400 26.22900
C  7.09500 49.36500 28.94700
C  11.83800 49.95500 28.10000
C  11.10300 48.43300 23.51500
C  6.32800 48.17700 24.22700
N  9.38100 49.62300 28.31100
C  8.44800 49.68700 29.26800
C  9.05800 50.17000 30.57000
C  10.49300 50.64500 30.08400
C  10.63000 50.01300 28.73100
C  10.77100 52.19400 30.05100
C  9.22400 49.00000 31.60300
C  8.29500 49.05800 32.84500
H  8.42600 48.01500 33.95100
N  11.20700 49.00700 25.86600
C  12.09300 49.50800 26.79000
C  13.44600 49.33900 26.26200
C  13.34000 48.83700 24.97800
C  11.87000 48.77300 24.66400
C  14.73700 49.68800 26.90300
C  14.36000 48.43700 23.93800
O  14.08800 47.81300 22.89200
C  15.77800 48.67000 24.23700
N  8.75900 48.31400 24.14800
C  9.74400 48.31000 23.20000
C  9.19400 47.84500 21.87200
C  7.64100 47.88900 22.03600
C  7.54500 48.08400 23.58300
C  9.50100 48.68600 20.60300
C  6.95800 46.52800 21.55000
C  6.34300 46.64300 20.15200
N  7.16500 48.78500 26.42300
C  6.08500 48.59100 25.58400
C  4.81600 48.72400 26.21400
C  5.17100 48.96000 27.55000
C  6.59100 48.98500 27.64200
C  3.46600 48.72900 25.50400
C  4.69100 49.19200 28.88400
O  3.50800 49.21600 29.29200
C  5.89100 49.39000 29.81100
C  5.93300 48.21000 30.66700
O  6.65700 47.20100 30.72700
O  4.99400 48.52600 31.69900
C  4.70100 47.46800 32.59700
H  12.69400 50.34100 28.65700
H  11.78300 48.32800 22.66600
H  5.41900 48.06600 23.63300
H  8.40400 50.98500 30.87900
H  11.29400 50.13400 30.61700
H  9.92200 52.83600 30.29000
H  11.11200 52.52700 29.07100
H  11.46700 52.43200 30.85500
H  10.20700 48.89000 32.06200
H  9.21000 48.05300 31.06200
H  7.25600 49.04400 32.51500
H  8.49200 50.01800 33.32100
H  14.73800 49.98100 27.95200
H  15.25400 50.48600 26.37000
H  15.34700 48.78600 26.88300
H  16.01600 48.00800 25.07000
H  15.86000 49.72500 24.49700
H  16.29900 48.27900 23.36300
H  9.70500 46.89900 21.68900
H  7.20500 48.76100 21.54800
H  10.03300 49.58400 20.91900
H  8.70900 48.95200 19.90300
H  10.21900 48.10800 20.02100
H  6.08800 46.20700 22.12300
H  7.59100 45.64500 21.46400
H  5.36000 46.17400 20.11300
H  7.07200 46.14600 19.51200
H  6.30300 47.64100 19.71500
H  3.14000 47.91900 24.85200
H  3.34200 49.68100 24.98900
H  2.65300 48.74700 26.22900
H  5.87200 50.35400 30.32000
H  5.31200 47.39000 33.49600
H  4.47300 46.47200 32.21600
H  3.73300 47.73700 33.02100
Mg -12.71000 37.54100 41.50200
C  -10.61600 35.17600 40.09800
C  -10.65200 39.87800 40.08300
C  -15.14800 39.80700 41.67700
C  -14.84900 35.05700 42.56500
N  -10.89000 37.49200 40.06300
C  -10.17500 36.44500 39.67300
C  -8.95100 36.83900 38.94600
C  -8.84000 38.39800 39.17100
C  -10.17300 38.64300 39.83400
C  -7.68700 38.92600 40.04300
C  -9.11100 36.37100 37.41900
C  -7.75600 35.65700 36.97700
H  -6.79300 36.57400 36.06100
N  -12.85400 39.62100 41.00700
C  -11.87200 40.36300 40.54900
C  -12.32400 41.73700 40.50600
C  -13.67400 41.78900 40.89900
C  -13.95900 40.34800 41.20100
C  -11.39600 42.80900 40.04200
C  -14.53700 43.08800 40.92500
O  -14.15100 44.17300 40.46400
C  -15.98100 42.99000 41.29600
N  -14.67900 37.42800 42.01200
C  -15.51100 38.52100 41.95400
C  -16.94100 38.06100 42.21500
C  -16.81900 36.62400 42.78300
C  -15.41700 36.34300 42.48600
C  -17.82700 38.88200 43.08100
C  -17.82900 35.56600 42.21800
C  -17.61500 35.11100 40.77100
N  -12.68500 35.62400 41.51400
C  -13.56000 34.72100 42.03500
C  -13.03500 33.40600 41.99000
C  -11.88400 33.50300 41.20700
C  -11.74800 34.84200 40.96700
C  -13.71100 32.21100 42.61900
C  -10.69700 32.80000 40.65500
O  -10.34200 31.68300 40.67900
C  -9.93400 33.82000 39.78500
C  -8.57300 33.80800 40.37200
O  -8.26900 34.32900 41.43700
O  -7.75300 33.25800 39.44100
C  -6.29400 33.13600 39.86400
H  -9.95600 40.59500 39.64200
H  -15.96100 40.51500 41.85100
H  -15.56600 34.30700 42.90500
H  -8.15300 36.30500 39.46200
H  -8.88800 38.97100 38.24500
H  -7.92700 39.32200 41.03000
H  -6.97800 39.57500 39.53100
H  -7.05100 38.05700 40.21300
H  -9.37500 37.25200 36.83400
H  -10.00400 35.77500 37.23100
H  -7.98400 34.80500 36.33600
H  -7.22000 35.36300 37.87900
H  -11.58800 43.78300 40.49200
H  -11.28300 42.87800 38.96000
H  -10.36500 42.60500 40.33400
H  -16.46200 42.21400 40.70000
H  -16.48700 43.94800 41.17800
H  -16.05200 42.68300 42.33900
H  -17.37300 38.02700 41.21500
H  -17.06600 36.62200 43.84500
H  -17.31800 39.35900 43.91900
H  -18.69200 38.33300 43.45200
H  -18.19700 39.77100 42.57000
H  -18.82000 36.01000 42.31000
H  -17.95200 34.70800 42.87900
H  -17.05600 34.17700 40.83700
H  -17.03000 35.82200 40.18700
H  -18.63000 34.99900 40.39100
H  -13.79600 31.40900 41.88600
H  -14.71700 32.44200 42.96900
H  -13.18900 31.89300 43.52200
H  -10.05700 33.57400 38.73000
H  -6.16300 32.85500 40.90900
H  -5.68200 34.00200 39.61000
H  -5.73500 32.35400 39.35000

