158

Mg 24.46600 -5.25900 45.99600
C  26.60600 -2.69300 44.33300
C  22.05700 -4.30400 43.83700
C  22.84000 -7.97500 46.98800
C  27.42100 -6.21700 47.66500
N  24.42300 -3.68700 44.25200
C  25.31400 -2.77500 43.78500
C  24.71200 -1.92600 42.67600
C  23.13500 -2.21100 42.76900
C  23.18600 -3.52600 43.63700
C  22.15700 -1.01800 43.25600
C  25.28600 -2.28400 41.28600
C  26.23900 -1.25500 40.55900
H  26.17000 -1.21200 39.02300
N  22.65300 -5.96400 45.53700
C  21.77600 -5.39700 44.69100
C  20.50900 -6.24100 44.71100
C  20.77500 -7.39100 45.56100
C  22.14200 -7.10400 46.12200
C  19.26200 -5.96500 43.84600
C  19.82800 -8.66000 45.83500
O  18.78600 -8.67700 45.22100
C  20.12200 -9.78300 46.69600
N  25.05900 -6.89700 47.13400
C  24.20400 -7.85100 47.43700
C  24.98300 -8.96100 48.38100
C  26.33500 -8.26800 48.65300
C  26.24700 -7.09600 47.72000
C  24.32300 -9.32000 49.72100
C  27.47900 -9.17400 48.21000
C  28.59200 -9.29800 49.16500
N  26.59100 -4.60400 46.08600
C  27.57500 -5.09500 46.86400
C  28.78800 -4.32700 46.57900
C  28.38700 -3.38300 45.66600
C  27.07300 -3.59300 45.34300
C  30.18900 -4.49300 47.11500
C  28.94500 -2.27800 44.85000
O  30.06500 -1.73000 44.81800
C  27.72100 -1.75600 44.08500
C  27.59700 -0.32800 44.49300
O  26.68000 0.07800 45.21000
O  28.37700 0.49300 43.76300
C  27.90400 1.86500 43.73900
H  21.23500 -3.96000 43.20500
H  22.37000 -8.90400 47.32000
H  28.34000 -6.49000 48.18800
H  24.84400 -0.86200 42.87400
H  22.77800 -2.48700 41.77700
H  21.44500 -1.38700 43.99400
H  21.67900 -0.65800 42.34500
H  22.76200 -0.21800 43.68100
H  24.44000 -2.44000 40.61600
H  25.89100 -3.18700 41.35700
H  27.28700 -1.25900 40.85800
H  25.93500 -0.29700 40.98200
H  19.34900 -5.09900 43.19000
H  18.43600 -5.86700 44.55000
H  19.05400 -6.77200 43.14400
H  19.21800 -10.38500 46.79900
H  20.21300 -9.35900 47.69600
H  20.93700 -10.44200 46.39700
H  24.93900 -9.85900 47.76300
H  26.59600 -7.84800 49.62500
H  23.76700 -10.23500 49.52000
H  23.62100 -8.58000 50.10400
H  25.03400 -9.47400 50.53200
H  27.80600 -8.81800 47.23300
H  27.13900 -10.19800 48.05700
H  28.87400 -8.29500 49.48400
H  29.43600 -9.73300 48.62800
H  28.16200 -9.86500 49.99000
H  30.26100 -4.64100 48.19200
H  30.79700 -3.59100 47.04900
H  30.64200 -5.27800 46.50900
H  27.75700 -1.65800 43.00000
H  27.99600 2.20500 44.77000
H  26.90600 1.97300 43.31300
H  28.53400 2.43300 43.05500
Mg 16.66800 52.21800 26.38000
C  18.56700 50.97000 29.05800
C  14.17100 53.04600 28.47800
C  15.27400 53.90100 23.81800
C  19.17700 51.03600 24.19900
N  16.32800 51.81500 28.44200
C  17.31000 51.51400 29.41800
C  16.81900 51.71600 30.85600
C  15.37300 52.06700 30.56100
C  15.24600 52.30800 29.08500
C  14.40100 50.98900 31.04800
C  17.52200 52.90800 31.61100
C  17.36600 52.95600 33.17000
H  16.26300 52.07900 33.74700
N  14.84300 53.15100 26.18000
C  14.05900 53.52300 27.14300
C  13.10200 54.50200 26.65300
C  13.36900 54.68400 25.29700
C  14.54300 53.89400 25.06800
C  12.03200 54.94300 27.51500
C  12.58200 55.50900 24.28300
O  12.83700 55.63100 23.05400
C  11.48100 56.41100 24.84500
N  17.03200 52.36500 24.18700
C  16.44200 53.21700 23.42600
C  17.12000 53.26600 22.07400
C  18.42600 52.37100 22.22500
C  18.24600 51.88600 23.61500
C  16.11500 52.76700 21.02100
C  19.73500 53.15500 21.96600
C  21.01100 52.42400 21.46000
N  18.41700 51.21800 26.53400
C  19.34800 50.74700 25.57600
C  20.45100 50.25200 26.20800
C  20.22900 50.30300 27.60500
C  18.96200 50.87600 27.73100
C  21.68200 49.68000 25.49800
C  20.77100 50.10500 28.87800
O  21.89800 49.68200 29.21300
C  19.70400 50.56300 29.90300
C  19.37800 49.40700 30.73900
O  18.86700 48.31900 30.46200
O  19.65400 49.72000 32.07000
C  19.26900 48.72100 33.04500
H  13.49600 53.34900 29.28000
H  14.96500 54.60400 23.04100
H  20.01200 50.71500 23.57200
H  16.96300 50.74700 31.33300
H  15.06400 53.04100 30.93800
H  13.54100 50.83500 30.39700
H  14.04500 51.38500 31.99900
H  14.90900 50.03700 31.20500
H  17.23600 53.86400 31.17300
H  18.58400 52.72400 31.45400
H  17.23200 54.00300 33.44000
H  18.28500 52.56900 33.61100
H  11.03700 54.61400 27.21600
H  12.00500 56.02600 27.63800
H  12.20500 54.62100 28.54200
H  10.64100 55.80400 25.18300
H  10.98300 56.99900 24.07400
H  11.91800 57.05500 25.60800
H  17.43700 54.29400 21.89700
H  18.43800 51.57400 21.48200
H  16.60500 52.43000 20.10700
H  15.44100 53.55400 20.68300
H  15.57600 51.90500 21.41400
H  20.07200 53.67600 22.86200
H  19.57600 53.91300 21.19900
H  21.66000 52.24600 22.31700
H  21.59100 52.94000 20.69500
H  20.67500 51.43500 21.14700
H  21.28700 49.10800 24.65800
H  22.12300 48.88800 26.10300
H  22.46400 50.38300 25.21000
H  19.97500 51.43900 30.49300
H  18.20100 48.50000 33.03500
H  19.48400 48.93800 34.09100
H  19.87200 47.87900 32.70600

