158

Mg 42.74300 42.30200 27.42700
C  41.96200 44.61200 29.90000
C  43.52200 40.07100 29.74600
C  43.44400 40.29700 24.92700
C  42.42500 44.95300 24.98100
N  42.63900 42.27900 29.59300
C  42.23100 43.35400 30.43500
C  42.24400 42.90600 31.92800
C  42.93300 41.54300 31.83300
C  43.02300 41.22600 30.31500
C  44.29400 41.32200 32.50400
C  40.81400 42.92100 32.39800
C  40.59300 43.75700 33.70000
H  39.91100 42.96100 34.86900
N  43.44800 40.40000 27.32400
C  43.64000 39.64200 28.39500
C  43.99900 38.31400 27.91800
C  43.87800 38.35400 26.45900
C  43.58000 39.73900 26.17100
C  44.42400 37.26900 28.82700
C  44.07100 37.27000 25.41800
O  44.05800 37.42300 24.15100
C  44.50800 35.88100 25.92200
N  42.94300 42.63400 25.24700
C  43.16000 41.55200 24.47400
C  42.95900 41.86400 22.96000
C  42.46300 43.32300 23.09100
C  42.65200 43.71500 24.50900
C  44.23400 41.65100 21.96700
C  40.95800 43.63900 22.59100
C  39.87100 44.05700 23.60200
N  42.23900 44.32900 27.36600
C  42.18400 45.28400 26.32700
C  41.67900 46.55600 26.90800
C  41.60900 46.36300 28.29900
C  41.93400 45.00300 28.52800
C  41.36600 47.86000 26.18100
C  41.31800 46.97300 29.53400
O  40.88800 48.11700 29.77400
C  41.53200 45.90400 30.68200
C  42.48800 46.45100 31.70600
O  43.74100 46.43900 31.53300
O  41.76500 46.89900 32.80600
C  42.45400 47.13600 34.05600
H  43.92700 39.41100 30.51600
H  43.30500 39.60300 24.09500
H  42.26700 45.79100 24.29800
H  42.86800 43.60000 32.49100
H  42.21900 40.79600 32.18200
H  45.07000 41.00200 31.80800
H  44.27000 40.63400 33.34800
H  44.61800 42.28700 32.89500
H  40.43100 41.95200 32.71700
H  40.12200 43.19300 31.60000
H  40.03000 44.65700 33.45000
H  41.56300 44.14600 34.01000
H  43.55900 36.60800 28.88700
H  44.67700 37.65400 29.81500
H  45.29500 36.71200 28.48300
H  43.84800 35.46400 26.68300
H  45.51700 35.98400 26.32200
H  44.44600 35.18500 25.08600
H  42.12700 41.26600 22.58800
H  42.96200 43.85000 22.27700
H  43.93500 41.12200 21.06200
H  45.08100 41.24200 22.51800
H  44.50300 42.65000 21.62200
H  40.63700 42.88000 21.87700
H  41.19200 44.52100 21.99500
H  39.02400 43.69900 23.01600
H  39.70000 45.13200 23.65500
H  39.83400 43.60800 24.59400
H  40.44800 47.68200 25.62000
H  42.16000 48.11200 25.47800
H  41.27900 48.66400 26.91200
H  40.55200 45.77600 31.14200
H  42.51800 46.24300 34.67800
H  41.87200 47.87600 34.60500
H  43.45500 47.51100 33.84500
Mg 1.79100 42.31500 25.44800
C  2.90000 42.71100 28.72600
C  -1.26000 41.18200 26.63500
C  0.82000 41.53800 22.33900
C  4.99800 43.06500 24.38600
N  1.07200 41.90000 27.47500
C  1.58500 42.29000 28.64500
C  0.67900 42.09700 29.84600
C  -0.64700 41.55600 29.16500
C  -0.30500 41.53700 27.59700
C  -1.18900 40.22800 29.76200
C  0.34500 43.34700 30.70300
C  0.89900 43.28800 32.15100
H  -0.08000 43.23100 33.27100
N  0.01400 41.48100 24.62800
C  -1.16100 41.09800 25.25000
C  -2.12800 40.61700 24.31900
C  -1.50200 40.67500 23.03500
C  -0.16500 41.32500 23.28600
C  -3.51600 40.15400 24.83100
C  -2.01900 40.31500 21.66500
O  -1.41000 40.45400 20.60500
C  -3.46800 39.76600 21.55200
N  2.72600 42.40300 23.67800
C  2.16000 42.05500 22.51500
C  3.09500 42.21700 21.30100
C  4.40900 42.84700 21.93700
C  4.04900 42.60100 23.44000
C  3.34400 41.01200 20.35900
C  4.56200 44.31700 21.57000
C  4.86400 44.67800 20.06800
N  3.62100 42.95100 26.33100
C  4.80900 43.19700 25.76600
C  5.72300 43.60800 26.83000
C  5.03900 43.39600 28.03100
C  3.76200 42.98700 27.67200
C  7.15200 44.05600 26.71000
C  5.10400 43.50300 29.44500
O  6.04600 43.84300 30.12200
C  3.68400 43.04500 30.03600
C  4.02100 41.75700 30.81300
O  4.04100 40.61200 30.38700
O  4.38400 42.15500 32.10300
C  4.65300 41.08000 33.07100
H  -2.23100 41.02800 27.11000
H  0.55800 41.39600 21.28800
H  6.03000 43.20900 24.05900
H  1.04300 41.41000 30.61000
H  -1.39900 42.33800 29.27000
H  -1.41400 39.44300 29.04000
H  -2.12100 40.56400 30.21800
H  -0.59200 39.88400 30.60700
H  -0.71100 43.59500 30.81100
H  0.83200 44.20300 30.23500
H  1.44800 44.21200 32.33100
H  1.54900 42.45900 32.42800
H  -3.45300 39.66200 25.80100
H  -3.97100 39.37800 24.21400
H  -4.15500 41.02600 24.97100
H  -3.70800 39.78900 20.48900
H  -4.16500 40.43100 22.06200
H  -3.46900 38.75200 21.95300
H  2.64500 43.01500 20.71000
H  5.37000 42.37800 21.72700
H  3.32200 41.55000 19.41100
H  2.61400 40.20300 20.36200
H  4.33900 40.62300 20.57500
H  5.25800 44.70600 22.31300
H  3.64600 44.88000 21.74700
H  5.26700 43.81200 19.54300
H  5.60800 45.46400 19.93600
H  3.96600 44.89400 19.48900
H  7.10500 44.59600 25.76400
H  7.80500 43.18400 26.75400
H  7.35500 44.77200 27.50600
H  3.34100 43.88700 30.63700
H  4.01600 41.17400 33.95100
H  5.71200 41.09900 33.32900
H  4.53200 40.08300 32.64600

