158

Mg 47.15100 24.99200 28.98600
C  48.26500 27.38400 31.45100
C  46.20500 23.00200 31.63200
C  46.89700 22.49400 26.69600
C  48.67700 26.98600 26.61800
N  47.15700 25.25400 31.32500
C  47.49100 26.34500 32.05200
C  47.00400 26.14900 33.49300
C  46.54500 24.65900 33.52700
C  46.60500 24.26600 32.08700
C  47.33800 23.73900 34.47600
C  45.81400 27.21800 33.91000
C  45.86000 27.78000 35.37600
H  46.65000 26.95500 36.39800
N  46.51400 23.12200 29.13400
C  46.19700 22.48300 30.29700
C  45.75400 21.20400 29.92200
C  45.90000 20.96400 28.52500
C  46.44200 22.24900 28.02900
C  45.26400 20.20100 30.98400
C  45.55500 19.82200 27.66900
O  45.71900 19.82600 26.45200
C  44.83700 18.67000 28.24700
N  47.82100 24.78800 27.08100
C  47.44600 23.72300 26.28900
C  47.91100 23.85800 24.84900
C  48.21700 25.33700 24.79500
C  48.22200 25.75600 26.22100
C  49.06400 22.89300 24.60700
C  47.24500 26.19700 23.92800
C  47.89600 27.00400 22.75200
N  48.26200 26.85600 28.90300
C  48.75500 27.57100 27.88300
C  49.57300 28.61400 28.37400
C  49.37300 28.58700 29.74400
C  48.58800 27.49400 30.04500
C  50.35000 29.60600 27.46700
C  49.72500 29.29900 30.96000
O  50.43300 30.25900 31.13200
C  49.00200 28.54500 32.05700
C  50.04000 28.04700 32.92900
O  50.75700 27.05200 32.76600
O  49.97100 28.81700 34.04300
C  50.90200 28.34100 35.09100
H  45.81200 22.24900 32.31900
H  46.75300 21.78200 25.88100
H  49.09800 27.48800 25.74400
H  47.80100 26.26500 34.22800
H  45.48500 24.60000 33.77600
H  47.82400 24.34500 35.24000
H  48.23600 23.24500 34.10300
H  46.68000 22.98600 34.91100
H  44.86800 26.75500 33.62800
H  46.04000 28.11200 33.32800
H  44.81700 27.99300 35.60900
H  46.39300 28.72100 35.24300
H  45.84800 19.32000 30.71700
H  44.18700 20.04000 30.95600
H  45.54000 20.36300 32.02600
H  45.49100 18.08100 28.88900
H  44.50300 18.06900 27.40100
H  43.94600 18.99400 28.78500
H  47.12600 23.52400 24.17000
H  49.20100 25.61000 24.41500
H  48.81400 22.40600 23.66400
H  49.22400 22.20900 25.44000
H  49.98500 23.47200 24.53700
H  46.87400 26.92200 24.65300
H  46.38800 25.67000 23.50800
H  47.44800 26.91700 21.76200
H  48.93100 26.66500 22.70400
H  47.80100 28.06500 22.98300
H  51.25400 29.04000 27.24200
H  50.62600 30.46100 28.08500
H  49.72700 30.00400 26.66700
H  48.35500 29.33300 32.44200
H  51.96800 28.35900 34.86600
H  50.59200 27.31200 35.27300
H  50.69600 28.87400 36.02000
Mg 0.18700 42.87800 26.74300
C  2.39700 42.92700 29.45200
C  -2.32800 42.26800 29.01500
C  -1.87800 42.38900 24.12900
C  2.86300 43.15200 24.56600
N  0.02800 42.58100 29.00800
C  1.09300 42.74600 29.84400
C  0.63600 42.74700 31.27000
C  -0.88400 42.29700 31.20300
C  -1.09000 42.37100 29.66300
C  -1.07600 40.79600 31.61600
C  0.69900 44.20900 31.94500
C  1.08900 44.34200 33.38400
H  0.94300 43.19900 34.33500
N  -1.86600 42.28100 26.58100
C  -2.74800 42.28600 27.69200
C  -4.12400 42.11300 27.15300
C  -3.95700 42.14700 25.70900
C  -2.51300 42.27700 25.38400
C  -5.23200 41.87300 28.11600
C  -5.01500 42.04300 24.60400
O  -4.83600 42.05600 23.37700
C  -6.46700 41.95900 25.06200
N  0.43000 42.74900 24.66000
C  -0.54500 42.54500 23.78100
C  -0.04400 42.47000 22.23400
C  1.35700 43.27600 22.47600
C  1.59500 43.06200 24.00700
C  -0.01400 41.09200 21.59100
C  1.21800 44.78500 22.06300
C  1.27400 45.92500 23.12700
N  2.19200 43.03000 26.89900
C  3.18400 43.11700 25.93200
C  4.47500 43.14800 26.55800
C  4.22200 43.09500 27.93200
C  2.83500 42.98100 28.13000
C  5.86300 43.29700 25.84300
C  4.87800 43.03700 29.22100
O  6.04400 42.98200 29.62400
C  3.59800 43.00700 30.23600
C  3.85900 41.86100 31.12100
O  3.79900 40.70000 30.75700
O  4.12600 42.30500 32.41800
C  4.63200 41.34800 33.43100
H  -3.13800 42.33100 29.74500
H  -2.58200 42.32500 23.29700
H  3.67400 43.35400 23.86200
H  1.20300 42.04800 31.88500
H  -1.51300 42.96000 31.79600
H  -1.40700 40.24800 30.73500
H  -1.87800 40.74700 32.35200
H  -0.26300 40.25600 32.10200
H  -0.20100 44.74300 31.64000
H  1.46900 44.78200 31.42900
H  0.42800 45.10400 33.79800
H  2.13200 44.64600 33.48100
H  -4.97000 40.91800 28.57000
H  -6.20400 41.68000 27.66300
H  -5.36200 42.52700 28.97800
H  -6.39600 41.09900 25.72800
H  -7.25700 41.76300 24.33700
H  -6.70500 42.75900 25.76200
H  -0.74600 43.05600 21.64100
H  2.17600 42.90400 21.86000
H  -0.41300 40.30200 22.22700
H  1.01600 40.81200 21.37300
H  -0.50400 41.03700 20.61800
H  0.42200 44.94100 21.33400
H  2.09300 44.99700 21.44800
H  0.39700 46.54100 22.92800
H  2.15300 46.55200 22.98200
H  1.11100 45.48600 24.11100
H  5.73300 42.87000 24.84800
H  6.55800 42.73300 26.46500
H  6.22000 44.32100 25.72900
H  3.56000 43.91200 30.84200
H  5.21100 40.56900 32.93400
H  3.83000 40.86300 33.98700
H  5.31000 41.91800 34.06700

