158

Mg 41.17800 7.18700 29.29000
C  42.53800 8.82000 32.10100
C  38.75300 5.87300 31.27600
C  40.03800 5.66400 26.61500
C  44.19500 7.99700 27.58800
N  40.71400 7.27200 31.48000
C  41.31000 8.10800 32.32900
C  40.62600 7.93100 33.68600
C  39.58800 6.83300 33.50600
C  39.66400 6.65400 32.04800
C  39.83200 5.57200 34.32800
C  39.98800 9.19100 34.38700
C  40.19100 9.17200 35.98400
H  40.67700 10.49000 36.62300
N  39.60900 6.01700 28.96500
C  38.73300 5.59500 29.87200
C  37.62800 4.97000 29.17000
C  37.81800 5.03500 27.80400
C  39.22600 5.57700 27.68300
C  36.49900 4.29600 29.91300
C  36.89800 4.75700 26.63600
O  37.30600 4.69200 25.46400
C  35.48900 4.49600 26.98300
N  42.05300 6.75100 27.42500
C  41.34300 6.09900 26.50500
C  42.04800 6.20300 25.10600
C  43.23800 7.10100 25.38400
C  43.22000 7.26900 26.88300
C  42.44300 4.76000 24.52600
C  43.07500 8.48200 24.57300
C  42.16700 9.56000 25.19500
N  43.00200 8.17900 29.67600
C  44.09600 8.41700 28.90300
C  45.00600 9.23700 29.60600
C  44.43300 9.49000 30.86400
C  43.19000 8.72900 30.85100
C  46.31500 9.65300 29.19100
C  44.63300 10.11600 32.13000
O  45.52000 10.86600 32.48800
C  43.45400 9.66200 33.05100
C  44.07700 8.96900 34.25000
O  44.65500 7.85400 34.17300
O  43.67600 9.62500 35.43000
C  44.11700 8.87700 36.59500
H  38.03300 5.41000 31.95300
H  39.53400 5.36300 25.69300
H  45.04700 8.32600 26.99000
H  41.46500 7.64800 34.32000
H  38.57100 7.18500 33.67900
H  39.78300 4.63700 33.77000
H  39.07100 5.44400 35.09700
H  40.72800 5.57700 34.94900
H  38.90300 9.08500 34.38900
H  40.27700 10.16400 33.99000
H  40.79900 8.33100 36.31700
H  39.32000 8.76000 36.49500
H  36.64400 4.10300 30.97600
H  36.38800 3.30300 29.47800
H  35.52300 4.75000 29.74500
H  35.15400 5.28100 27.66100
H  35.27100 3.49100 27.34300
H  34.93800 4.63400 26.05200
H  41.34600 6.70200 24.43800
H  44.21600 6.67300 25.16800
H  42.30300 3.92700 25.21600
H  43.48100 4.69400 24.20000
H  41.83800 4.59400 23.63500
H  42.56600 8.18100 23.65700
H  44.07200 8.87700 24.37900
H  41.88100 9.29200 26.21200
H  41.33500 9.74700 24.51600
H  42.71800 10.49400 25.08500
H  46.64700 8.92700 28.44800
H  47.10300 9.62600 29.94300
H  46.20400 10.62900 28.71900
H  43.03300 10.61100 33.38200
H  43.92700 7.80400 36.55700
H  43.59200 9.19800 37.49500
H  45.16000 9.11700 36.80000
Mg 47.51700 24.75700 29.10200
C  48.05100 27.20200 31.62500
C  46.56000 22.55200 31.52700
C  47.18100 22.32500 26.77200
C  48.92200 26.82700 26.78200
N  47.40000 24.90100 31.31600
C  47.59700 25.98000 32.10700
C  47.19500 25.71300 33.60700
C  46.83600 24.14500 33.52500
C  46.81600 23.84700 32.00900
C  47.83900 23.17800 34.34000
C  46.05800 26.65000 34.13200
C  46.28400 27.37800 35.47200
H  45.20700 27.24500 36.53800
N  46.81600 22.79300 29.10300
C  46.51100 22.08900 30.22400
C  46.20400 20.69200 29.88400
C  46.29400 20.64800 28.46400
C  46.79200 22.00400 28.06400
C  45.72300 19.51700 30.78300
C  46.00900 19.46500 27.52200
O  45.89500 19.55800 26.27800
C  45.76100 18.07900 28.03200
N  48.09100 24.57300 27.11300
C  47.82700 23.50800 26.32200
C  48.08800 23.76100 24.85800
C  48.32300 25.27600 24.87900
C  48.41200 25.61300 26.37300
C  49.31200 23.01000 24.30600
C  47.22200 26.05300 24.13000
C  45.80900 26.16500 24.75500
N  48.37000 26.67100 29.10500
C  48.93500 27.40200 28.10600
C  49.21100 28.76300 28.60200
C  48.88700 28.72200 29.92100
C  48.41600 27.41100 30.23200
C  49.84400 29.81500 27.77800
C  48.91800 29.45400 31.12700
O  49.29900 30.57300 31.29900
C  48.45300 28.47900 32.33800
C  49.62600 28.21900 33.24500
O  50.64400 27.71900 32.87700
O  49.30200 28.74700 34.42600
C  50.15400 28.20700 35.50400
H  46.33700 21.82500 32.31100
H  47.02800 21.61000 25.96100
H  49.38800 27.55500 26.11500
H  48.00800 25.91100 34.30400
H  45.81500 23.96700 33.86300
H  48.55000 22.64700 33.70700
H  47.38100 22.38200 34.92800
H  48.51100 23.77300 34.95900
H  45.19800 25.99400 34.26800
H  45.76600 27.38400 33.38200
H  46.46300 28.41600 35.18900
H  47.26000 27.14900 35.89900
H  46.40700 18.66900 30.80000
H  44.69300 19.27000 30.52300
H  45.83400 19.87300 31.80700
H  46.62200 17.86400 28.66500
H  45.82200 17.31800 27.25400
H  44.76000 18.04500 28.46400
H  47.20700 23.61100 24.23400
H  49.26400 25.51800 24.38300
H  50.18300 23.37100 24.85300
H  49.58700 23.14500 23.26000
H  49.08400 21.96100 24.49000
H  47.10700 25.66700 23.11700
H  47.69900 27.02900 24.03600
H  46.02400 27.06500 25.33200
H  45.54000 25.40100 25.48400
H  45.03400 26.35300 24.01200
H  49.49300 30.81300 28.04300
H  49.72300 29.63600 26.71000
H  50.90900 29.85200 28.00500
H  47.61900 28.95900 32.85000
H  51.10900 28.73300 35.48900
H  50.28500 27.13500 35.36100
H  49.61600 28.29900 36.44700

