158

Mg 23.85200 -4.76400 45.10300
C  26.23900 -2.38400 43.68500
C  21.36400 -3.18100 43.31100
C  21.88900 -7.33900 45.87100
C  26.71500 -6.38300 46.47300
N  23.89600 -3.08800 43.65800
C  24.91700 -2.33100 43.20800
C  24.43100 -1.24000 42.24000
C  22.88300 -1.34800 42.22500
C  22.70200 -2.61600 43.10400
C  22.12100 -0.17200 42.90200
C  25.16100 -1.41200 40.92200
C  25.20200 -0.25100 39.97300
H  24.85400 -0.51000 38.45500
N  21.88800 -5.21300 44.67700
C  21.03700 -4.37300 44.06400
C  19.73000 -5.00100 44.08500
C  19.76700 -6.21800 44.74200
C  21.19300 -6.29000 45.16900
C  18.51100 -4.42800 43.25900
C  18.64300 -7.25200 45.00900
O  17.53400 -7.12500 44.54600
C  18.90500 -8.53200 45.73600
N  24.34100 -6.70400 45.75900
C  23.25900 -7.48500 46.19900
C  23.83900 -8.76700 46.95000
C  25.34300 -8.38400 47.25000
C  25.50200 -7.07500 46.41500
C  23.08800 -9.25800 48.19500
C  26.42100 -9.44200 47.08500
C  27.41900 -9.61200 48.26600
N  26.01000 -4.38100 45.22200
C  26.99300 -5.12600 45.93900
C  28.31600 -4.52300 45.67700
C  28.08500 -3.47500 44.82300
C  26.64100 -3.33400 44.66700
C  29.59000 -4.93600 46.37100
C  28.70800 -2.38900 44.08000
O  29.83400 -2.01500 44.03800
C  27.51100 -1.73500 43.28000
C  27.39700 -0.30300 43.57200
O  26.95100 0.16300 44.60200
O  27.90300 0.46900 42.55500
C  27.73900 1.90700 42.62300
H  20.61300 -2.67900 42.69900
H  21.32000 -8.21000 46.20300
H  27.50900 -6.90500 47.01100
H  24.79600 -0.30800 42.67300
H  22.43500 -1.47000 41.23900
H  21.25400 -0.44900 43.50300
H  21.61500 0.45700 42.17000
H  22.70600 0.43900 43.58900
H  24.75700 -2.33000 40.49500
H  26.19300 -1.75900 40.96600
H  26.17200 0.21700 40.14300
H  24.47400 0.49600 40.28700
H  18.85000 -3.73000 42.49400
H  17.74600 -4.01500 43.91700
H  18.01500 -5.26600 42.77000
H  18.05700 -9.19600 45.90900
H  19.30400 -8.26800 46.71600
H  19.56200 -9.14000 45.11300
H  23.94000 -9.61900 46.27800
H  25.37400 -7.97100 48.25800
H  22.67300 -10.23500 47.94700
H  22.17000 -8.69800 48.37100
H  23.67400 -9.40400 49.10200
H  26.90600 -9.32600 46.11600
H  25.88400 -10.38700 47.01100
H  27.09500 -10.41600 48.92700
H  27.54200 -8.77400 48.95200
H  28.40200 -9.74100 47.81400
H  29.55700 -6.02400 46.32400
H  29.65700 -4.60700 47.40800
H  30.45600 -4.61100 45.79400
H  27.74700 -1.78300 42.21700
H  27.10800 2.26100 43.43800
H  27.22700 2.21500 41.71200
H  28.73200 2.35300 42.68900
Mg -12.76400 38.97000 42.37400
C  -10.83500 35.99300 41.57600
C  -10.68900 40.70800 40.18500
C  -14.69800 41.59000 42.77400
C  -15.16000 36.80500 43.72400
N  -10.92000 38.39700 41.07400
C  -10.25600 37.18800 41.03600
C  -8.96000 37.36800 40.26300
C  -8.95900 38.92400 39.90700
C  -10.31000 39.34800 40.35800
C  -7.75200 39.75800 40.46100
C  -8.83100 36.41100 38.99500
C  -7.57400 35.52700 39.00000
H  -6.65500 35.56300 37.65800
N  -12.66100 40.94400 41.65000
C  -11.74300 41.46600 40.76300
C  -12.13500 42.85000 40.34200
C  -13.34400 43.14100 41.14400
C  -13.63300 41.89700 41.89500
C  -11.73200 43.71200 39.16700
C  -14.12900 44.42100 41.05200
O  -13.75600 45.45700 40.50300
C  -15.42100 44.62300 41.76200
N  -14.64300 39.21800 43.16200
C  -15.21500 40.43800 43.30800
C  -16.63100 40.30600 43.92200
C  -16.78400 38.77800 44.18300
C  -15.48600 38.20000 43.57800
C  -16.86400 41.19200 45.19100
C  -18.10600 38.15600 43.81200
C  -18.78900 37.07100 44.68800
N  -12.87800 36.78500 42.75800
C  -13.95800 36.09700 43.35500
C  -13.70300 34.74500 43.36500
C  -12.46800 34.63800 42.78200
C  -11.97200 35.95700 42.38500
C  -14.65100 33.67500 43.81000
C  -11.47400 33.64700 42.30900
O  -11.40200 32.46400 42.43500
C  -10.40000 34.46100 41.44800
C  -9.05400 34.28600 42.06300
O  -8.26500 33.43600 41.70200
O  -8.73400 35.25000 42.94100
C  -7.42300 35.13700 43.60000
H  -10.03500 41.40400 39.65600
H  -15.49900 42.30200 42.98600
H  -15.86300 36.02200 44.01500
H  -8.15000 37.17800 40.96700
H  -8.85100 39.05300 38.83000
H  -7.00200 39.68000 39.67400
H  -7.31400 39.23600 41.31200
H  -8.01300 40.79600 40.66800
H  -8.80600 36.96300 38.05600
H  -9.69600 35.75300 38.91900
H  -7.93600 34.50300 39.09200
H  -6.99400 35.66700 39.91200
H  -12.58300 43.65400 38.48700
H  -10.78300 43.39600 38.73400
H  -11.50600 44.75500 39.39100
H  -16.08000 43.85200 41.36300
H  -15.79500 45.57300 41.38000
H  -15.37400 44.59700 42.85100
H  -17.41600 40.64300 43.24500
H  -16.66600 38.44300 45.21300
H  -17.43500 42.05900 44.85900
H  -15.91100 41.50400 45.61800
H  -17.29500 40.67200 46.04700
H  -17.98800 37.73900 42.81200
H  -18.92500 38.87100 43.74400
H  -18.84800 36.10200 44.19300
H  -19.80300 37.32600 44.99800
H  -18.23500 36.86900 45.60500
H  -14.67500 33.68300 44.89900
H  -14.32500 32.73700 43.36100
H  -15.58700 33.81200 43.26900
H  -10.25900 34.19600 40.40000
H  -6.89700 36.09200 43.58700
H  -6.78000 34.33400 43.23900
H  -7.46800 34.82600 44.64300

