158

Mg 47.92300 15.13800 27.95600
C  45.50800 14.95300 30.57300
C  49.66800 17.34000 29.81200
C  50.03600 15.46100 25.28600
C  45.49200 13.59700 25.84800
N  47.55200 16.13000 29.86300
C  46.58700 15.79100 30.82900
C  46.87000 16.36500 32.20900
C  47.95000 17.47200 31.79700
C  48.53600 16.84500 30.48300
C  47.39400 19.00800 31.63000
C  47.33700 15.20900 33.08700
C  47.03300 15.45400 34.61700
H  48.20800 15.24600 35.64100
N  49.67500 16.22900 27.60800
C  50.23500 17.05600 28.57900
C  51.49800 17.49300 28.12400
C  51.55800 17.08400 26.77300
C  50.39100 16.17100 26.49400
C  52.34700 18.42500 28.86000
C  52.68600 17.36100 25.80300
O  52.53600 16.95400 24.65500
C  53.92800 18.24900 26.06500
N  47.78200 14.65000 25.85900
C  48.84200 14.76700 25.01100
C  48.43100 14.29100 23.54500
C  47.04900 13.60100 23.78800
C  46.71300 14.06700 25.23200
C  48.25400 15.37800 22.52100
C  47.03500 12.06300 23.77900
C  45.86300 11.34000 23.11300
N  45.98600 14.28400 28.08400
C  45.12300 13.69900 27.19900
C  43.98500 13.12300 27.95400
C  44.17600 13.53100 29.22200
C  45.30200 14.33200 29.29200
C  42.83600 12.29500 27.47500
C  43.63000 13.50100 30.55500
O  42.72500 12.89200 30.93400
C  44.46300 14.40600 31.52400
C  43.58000 15.49000 32.00600
O  42.93700 16.30400 31.32900
O  43.41300 15.37600 33.35600
C  42.59700 16.42200 33.94300
H  50.08000 18.11800 30.45800
H  50.67500 15.52700 24.40300
H  44.66100 13.20500 25.25800
H  46.02000 16.86000 32.67900
H  48.80300 17.51800 32.47500
H  47.27900 19.17600 30.56000
H  48.18700 19.68600 31.94400
H  46.37100 19.16800 31.97300
H  48.42300 15.14500 33.02000
H  47.13600 14.26200 32.58700
H  46.25600 14.71400 34.81200
H  46.72600 16.49700 34.69600
H  52.27700 18.47200 29.94700
H  52.20900 19.45400 28.52900
H  53.38000 18.15200 28.64000
H  53.71600 19.24700 26.45000
H  54.47300 18.32700 25.12400
H  54.42600 17.67800 26.84900
H  49.19600 13.60300 23.18500
H  46.24200 13.96200 23.15000
H  48.59300 16.29900 22.99400
H  47.27900 15.49300 22.04700
H  48.91200 15.20200 21.67000
H  47.25600 11.69500 24.78100
H  47.89000 11.69700 23.21100
H  45.17100 11.97400 22.55800
H  45.21700 10.97100 23.91000
H  46.11900 10.53400 22.42500
H  43.15200 11.90500 26.50700
H  42.05400 13.05400 27.48800
H  42.62900 11.62300 28.30700
H  44.95600 13.89800 32.35300
H  43.15800 17.35500 33.87800
H  42.44900 16.32700 35.01900
H  41.64600 16.45100 33.41200
Mg -4.57700 24.22300 27.25900
C  -3.18400 26.45400 29.61500
C  -5.21500 22.01700 29.86900
C  -5.47300 21.94900 25.00200
C  -3.56300 26.31500 24.66500
N  -4.32700 24.25800 29.46700
C  -3.88200 25.32700 30.21100
C  -3.92300 25.05800 31.72300
C  -4.27700 23.54500 31.79300
C  -4.69000 23.20000 30.29300
C  -3.07000 22.56800 32.26300
C  -5.04400 25.96600 32.35200
C  -4.67400 26.42900 33.71600
H  -5.00400 25.46200 34.78100
N  -5.40200 22.29100 27.44400
C  -5.54200 21.53000 28.64800
C  -6.16700 20.28000 28.30500
C  -6.10200 20.20800 26.92000
C  -5.64000 21.49000 26.38600
C  -6.72600 19.37000 29.38900
C  -6.59000 19.02100 25.95300
O  -6.62800 19.16500 24.75200
C  -7.24700 17.85200 26.61300
N  -4.71200 24.23800 25.10300
C  -5.21500 23.18700 24.39700
C  -5.19000 23.40500 22.95700
C  -4.64600 24.88700 22.82400
C  -4.22300 25.20500 24.24200
C  -4.39100 22.25900 22.19300
C  -5.52000 25.94800 22.12600
C  -4.81900 26.93000 21.20200
N  -3.68700 26.06700 27.11500
C  -3.29400 26.78500 25.97000
C  -2.60700 27.97600 26.44300
C  -2.51400 27.81200 27.83900
C  -3.18800 26.74500 28.21100
C  -1.95300 29.13800 25.67300
C  -2.05600 28.44100 29.03100
O  -1.44900 29.51900 29.22700
C  -2.54900 27.64900 30.28000
C  -1.30200 27.41300 30.98100
O  -0.49300 26.54400 30.71700
O  -1.17100 28.18500 32.05200
C  -0.23300 27.71000 33.05300
H  -5.24200 21.30600 30.69700
H  -5.75300 21.18000 24.28000
H  -3.32600 27.07800 23.92000
H  -2.92100 25.21500 32.12100
H  -5.16700 23.39300 32.40300
H  -3.45800 21.76000 32.88300
H  -2.35300 23.19100 32.79600
H  -2.46700 22.08600 31.49300
H  -6.03200 25.50800 32.40500
H  -5.17800 26.81800 31.68600
H  -5.01700 27.39700 34.08100
H  -3.58800 26.51600 33.66400
H  -6.11900 18.46400 29.38900
H  -7.76600 19.16700 29.13200
H  -6.68300 19.86300 30.36000
H  -7.36400 17.10100 25.83200
H  -8.28400 18.12600 26.80500
H  -6.62400 17.35700 27.35800
H  -6.19700 23.41100 22.53900
H  -3.76200 24.77800 22.19500
H  -3.82700 21.58600 22.83900
H  -3.72000 22.58700 21.40000
H  -5.17600 21.62700 21.77800
H  -6.13800 26.39500 22.90400
H  -6.16000 25.42400 21.41700
H  -5.19000 27.92600 21.44400
H  -4.98000 26.84400 20.12700
H  -3.77100 26.99200 21.49400
H  -2.64800 29.36200 24.86500
H  -0.95500 28.85800 25.33400
H  -1.80700 30.00500 26.31800
H  -3.25100 28.20200 30.90300
H  -0.52100 28.30200 33.92200
H  0.83900 27.77000 32.86400
H  -0.51700 26.68200 33.28000

