158

Mg 48.47400 33.63100 26.72600
C  46.48500 32.23400 29.35400
C  48.80600 36.46400 28.63600
C  50.01000 34.94600 24.17600
C  47.48400 30.90100 24.73500
N  47.69500 34.24000 28.75300
C  47.10100 33.42900 29.71300
C  47.19200 34.14200 31.08500
C  47.57000 35.62400 30.67900
C  48.10300 35.42600 29.22700
C  46.35800 36.63700 30.75600
C  48.33200 33.52500 31.97100
C  48.15800 33.63900 33.56700
H  47.07900 34.46800 34.30600
N  49.26400 35.44100 26.36700
C  49.40400 36.42000 27.29200
C  50.17500 37.49000 26.70300
C  50.61300 37.03400 25.38000
C  49.98800 35.77000 25.25300
C  50.44300 38.77300 27.57700
C  51.35100 37.80500 24.29900
O  51.64000 37.27700 23.17600
C  51.84300 39.10700 24.52300
N  48.41200 33.18400 24.65600
C  49.30900 33.82600 23.88900
C  49.58500 33.10000 22.59100
C  48.86200 31.76300 22.83700
C  48.21500 31.92300 24.15600
C  49.11000 33.80200 21.31800
C  49.90100 30.54300 22.74600
C  49.93500 29.93200 21.37500
N  47.28000 31.96000 26.94400
C  46.97900 30.89500 26.04800
C  46.12700 29.82300 26.72100
C  45.90900 30.38800 27.99400
C  46.65200 31.65100 28.09600
C  45.58200 28.62800 26.09400
C  45.26100 30.11900 29.30600
O  44.64400 29.16800 29.71100
C  45.46400 31.42900 30.21700
C  45.93600 31.06500 31.63900
O  46.99800 30.60100 31.93700
O  44.93200 31.35500 32.55600
C  45.14200 30.64900 33.81300
H  48.98200 37.30300 29.31200
H  50.80600 35.08400 23.44200
H  47.42500 29.98200 24.14800
H  46.31300 34.15700 31.72900
H  48.35200 36.06800 31.29600
H  46.69600 37.55500 31.23700
H  45.54900 36.27200 31.38900
H  45.95800 36.87500 29.77100
H  49.35100 33.82900 31.73600
H  48.36400 32.46900 31.70300
H  49.17100 33.97800 33.78600
H  48.17100 32.62000 33.95200
H  49.57400 39.02100 28.18600
H  50.74800 39.64300 26.99600
H  51.29400 38.62100 28.24100
H  51.04600 39.78800 24.82300
H  52.23100 39.52300 23.59400
H  52.48800 38.96100 25.39000
H  50.67100 33.00700 22.62500
H  48.07900 31.45900 22.14200
H  48.04300 33.69600 21.12200
H  49.53000 33.56200 20.34100
H  49.19400 34.88100 21.44500
H  49.70300 29.72000 23.43300
H  50.93800 30.82500 22.92700
H  50.85400 30.25400 20.88600
H  49.06700 30.15500 20.75500
H  50.07800 28.85200 21.42900
H  46.34600 28.29900 25.38900
H  44.67200 28.92500 25.57300
H  45.30600 27.79700 26.74400
H  44.50700 31.94700 30.27300
H  45.87400 31.19000 34.41200
H  45.44700 29.62000 33.62500
H  44.19100 30.72200 34.34100
Mg -5.57100 25.25200 26.11700
C  -4.31800 26.88100 28.92900
C  -7.11500 23.02500 28.16200
C  -6.31300 23.41500 23.33600
C  -3.58400 27.34100 24.09600
N  -5.68000 24.99100 28.33900
C  -5.19900 25.82800 29.29600
C  -5.97100 25.59300 30.62100
C  -6.68000 24.22100 30.37800
C  -6.54600 24.06100 28.86900
C  -6.02200 23.00600 31.00800
C  -6.84100 26.76300 31.10100
C  -7.08000 26.99900 32.60300
H  -6.39900 26.08900 33.67500
N  -6.70300 23.57100 25.77400
C  -7.30700 22.85600 26.76400
C  -8.11300 21.83200 26.15100
C  -7.89400 21.92300 24.75100
C  -6.94900 23.01900 24.56100
C  -8.96000 20.81200 26.91600
C  -8.44500 21.02400 23.70400
O  -8.25400 21.21000 22.52600
C  -9.28100 19.83500 23.98800
N  -4.82500 25.16600 24.07800
C  -5.39700 24.41500 23.07700
C  -4.70900 24.76700 21.75000
C  -4.17500 26.17300 21.96700
C  -4.15700 26.25800 23.52300
C  -3.56400 23.78600 21.34700
C  -4.95000 27.33800 21.25400
C  -4.24800 28.32800 20.32900
N  -4.19700 26.84100 26.37900
C  -3.56100 27.70800 25.48000
C  -2.82800 28.70100 26.24000
C  -3.07800 28.39300 27.60200
C  -3.96000 27.27400 27.62900
C  -1.91600 29.78100 25.55500
C  -2.81500 28.84800 28.93600
O  -2.06200 29.74400 29.27800
C  -3.66700 27.99200 29.82000
C  -2.86600 27.39300 30.98000
O  -2.31200 26.31800 31.03000
O  -2.98800 28.24700 32.03900
C  -2.29200 27.81700 33.25300
H  -7.56000 22.30000 28.84600
H  -6.67900 22.84400 22.48000
H  -3.10700 28.09900 23.47000
H  -5.21200 25.42200 31.38500
H  -7.73500 24.30200 30.64100
H  -5.28900 23.23400 31.78200
H  -5.46200 22.52400 30.20600
H  -6.76400 22.26100 31.29600
H  -7.84500 26.70300 30.68100
H  -6.34100 27.61700 30.64500
H  -8.14100 26.83200 32.79000
H  -6.71000 28.00600 32.79400
H  -10.03800 20.85500 26.75700
H  -8.76700 20.86200 27.98800
H  -8.60300 19.79600 26.74900
H  -8.64400 19.17400 24.57500
H  -9.46900 19.34400 23.03300
H  -10.18600 20.13000 24.52000
H  -5.39800 24.76900 20.90500
H  -3.13800 26.30300 21.65500
H  -2.61500 24.32200 21.34600
H  -3.67100 23.59100 20.28000
H  -3.49200 22.91200 21.99600
H  -5.42500 28.00200 21.97600
H  -5.67300 26.86100 20.59300
H  -3.19800 28.20700 20.59300
H  -4.50400 29.35000 20.60800
H  -4.46700 28.15100 19.27600
H  -0.87100 29.54400 25.75500
H  -2.13300 30.83600 25.72000
H  -2.04000 29.75900 24.47200
H  -4.42100 28.66400 30.22900
H  -2.95400 27.76700 34.11800
H  -1.48500 28.52800 33.42700
H  -1.85700 26.82300 33.14700

