158

Mg 24.08400 -4.73500 45.98800
C  26.22500 -2.34300 44.56600
C  21.55400 -3.63900 43.95100
C  22.41900 -7.51300 46.77400
C  27.02200 -6.19700 47.51400
N  23.90500 -3.22200 44.41500
C  24.92400 -2.31200 44.06600
C  24.48000 -1.33700 42.92400
C  22.88800 -1.52200 43.09700
C  22.72600 -2.86000 43.85600
C  22.09300 -0.31800 43.62200
C  25.15400 -1.70500 41.60400
C  25.38300 -0.48000 40.78900
H  25.63200 -0.61100 39.25500
N  22.24000 -5.43100 45.48000
C  21.31700 -4.80500 44.64700
C  20.09500 -5.62600 44.51800
C  20.36400 -6.74600 45.37400
C  21.68300 -6.61000 45.96800
C  18.96400 -5.26700 43.83100
C  19.33100 -7.88800 45.52500
O  18.28700 -7.89700 44.86700
C  19.51300 -8.95700 46.63300
N  24.67100 -6.61800 46.94000
C  23.71400 -7.48100 47.17400
C  24.32800 -8.66400 47.86100
C  25.84700 -8.38200 48.07800
C  25.87000 -6.96000 47.58000
C  23.51700 -9.04300 49.15300
C  26.75700 -9.41100 47.42100
C  27.77400 -10.02900 48.34200
N  26.12700 -4.29800 46.15700
C  27.19300 -4.97000 46.80700
C  28.40900 -4.31000 46.64500
C  28.17300 -3.23400 45.71900
C  26.75600 -3.36400 45.40700
C  29.78100 -4.64200 47.24600
C  28.72400 -2.09700 45.00200
O  29.91600 -1.72500 44.98100
C  27.50200 -1.50800 44.18800
C  27.41700 -0.07500 44.57000
O  26.43200 0.39800 45.10500
O  28.53500 0.64200 44.16300
C  28.49600 2.07600 44.58700
H  20.72800 -3.24900 43.35300
H  21.92000 -8.44700 47.04000
H  27.81800 -6.66500 48.09600
H  24.65700 -0.28800 43.16000
H  22.68800 -1.74500 42.04900
H  21.60600 -0.56500 44.56500
H  21.32600 -0.11600 42.87500
H  22.65200 0.61800 43.60800
H  24.53900 -2.34800 40.97400
H  26.13800 -2.16000 41.72200
H  26.24400 0.06500 41.17500
H  24.48000 0.11900 40.90800
H  19.04900 -5.85500 42.91700
H  18.94500 -4.22700 43.50400
H  17.99200 -5.39800 44.30400
H  20.23000 -9.74500 46.40000
H  18.53700 -9.41800 46.78400
H  19.71500 -8.58900 47.63900
H  24.14400 -9.46400 47.14500
H  26.13500 -8.28800 49.12500
H  22.56300 -8.51600 49.17200
H  24.08200 -8.73200 50.03100
H  23.39000 -10.12000 49.26300
H  27.31600 -9.06800 46.55100
H  26.08200 -10.21700 47.13300
H  28.17200 -9.30300 49.05100
H  28.65100 -10.30800 47.75700
H  27.34000 -10.91900 48.79800
H  30.06200 -5.56800 46.74400
H  29.73500 -4.72100 48.33300
H  30.46000 -3.81600 47.03800
H  27.79400 -1.63700 43.14500
H  27.51000 2.54000 44.53900
H  29.00900 2.72700 43.87900
H  28.82100 2.25400 45.61200
Mg 40.97000 9.24600 29.60900
C  42.77600 10.37700 32.46700
C  38.61900 7.84300 31.73800
C  39.32100 8.72000 26.96600
C  43.69300 10.61900 27.67100
N  40.83800 9.03300 31.85100
C  41.70600 9.56600 32.80500
C  41.13000 9.29100 34.21000
C  39.89200 8.31300 33.94900
C  39.71700 8.44000 32.45400
C  40.18400 6.84300 34.38900
C  40.78900 10.55000 35.02200
C  41.27300 10.41700 36.49300
H  41.18000 11.54400 37.40200
N  39.27100 8.37800 29.39000
C  38.41900 7.91100 30.35600
C  37.24100 7.43200 29.64400
C  37.43400 7.71500 28.28300
C  38.75400 8.29600 28.20100
C  36.24200 6.68400 30.38100
C  36.35100 7.64200 27.15600
O  36.48600 8.07800 26.05000
C  35.11200 6.93700 27.47200
N  41.53400 9.47300 27.55900
C  40.55400 9.29700 26.66500
C  41.07400 9.39700 25.17100
C  42.46900 10.09300 25.46300
C  42.55900 10.14300 27.03900
C  41.12500 8.06200 24.42100
C  42.70400 11.49100 24.84400
C  41.65900 12.57500 25.17000
N  42.82100 10.16300 29.95500
C  43.85700 10.62100 29.09200
C  44.92100 11.25900 29.78800
C  44.47500 11.23700 31.09300
C  43.24900 10.57200 31.16000
C  46.14200 12.03800 29.28100
C  44.89800 11.62600 32.36800
O  45.90900 12.19300 32.78100
C  43.77900 11.10900 33.33200
C  44.52100 10.29200 34.36800
O  44.87500 9.16600 34.22800
O  44.87000 11.03200 35.51100
C  45.40600 10.29500 36.63100
H  37.98300 7.36900 32.48900
H  38.68300 8.51900 26.10200
H  44.42100 11.12500 27.03300
H  41.87200 8.76700 34.81300
H  39.08300 8.57900 34.63000
H  39.38400 6.54900 35.07000
H  41.14700 6.87000 34.89800
H  40.20000 6.13100 33.56300
H  39.70200 10.53900 35.09300
H  40.97800 11.47100 34.46900
H  42.30200 10.06000 36.52500
H  40.67300 9.61600 36.92300
H  35.38700 7.33900 30.20900
H  36.34800 6.51700 31.45200
H  36.06900 5.76000 29.83000
H  34.51700 7.56400 28.13600
H  35.20700 6.01700 28.05000
H  34.43200 6.72100 26.64900
H  40.39700 10.04500 24.61400
H  43.31700 9.49400 25.12900
H  41.93200 8.09100 23.68900
H  40.18800 7.75000 23.95900
H  41.35500 7.22700 25.08200
H  42.84900 11.37100 23.77000
H  43.62300 11.92400 25.23800
H  42.21000 13.47300 25.44900
H  40.90000 12.24200 25.87700
H  41.24300 12.85300 24.20200
H  46.33300 11.88800 28.21900
H  46.99700 11.71100 29.87400
H  46.02200 13.09000 29.53800
H  43.34100 11.99900 33.78500
H  45.56500 9.22000 36.54800
H  44.76900 10.36000 37.51200
H  46.34700 10.72000 36.98100

