158

Mg 24.15800 -5.34500 45.63200
C  26.34400 -3.07400 44.31100
C  21.66000 -4.25900 43.48700
C  22.13900 -7.86000 46.68500
C  26.72300 -6.82700 47.44100
N  24.10100 -3.83000 44.13800
C  25.10900 -3.00900 43.74600
C  24.75200 -2.25800 42.40800
C  23.11500 -2.41000 42.36200
C  22.92100 -3.57600 43.37200
C  22.28800 -1.15000 42.71200
C  25.51600 -2.85900 41.21100
C  26.26700 -1.89200 40.24700
H  25.71000 -1.66300 38.84000
N  22.12500 -5.94600 45.24100
C  21.28500 -5.36000 44.30600
C  19.99000 -6.02800 44.33500
C  20.04500 -7.01400 45.39100
C  21.48500 -6.94300 45.84400
C  18.88400 -5.71900 43.37000
C  18.91800 -7.93600 45.71400
O  17.84100 -7.73000 45.18800
C  19.14000 -9.07000 46.68700
N  24.54200 -7.16900 46.71000
C  23.43300 -7.93400 47.11800
C  23.92600 -9.21200 47.91500
C  25.49100 -8.84900 48.15500
C  25.58100 -7.52100 47.42800
C  23.10100 -9.57700 49.19400
C  26.57100 -9.90300 47.63900
C  27.72800 -10.21700 48.54700
N  26.13100 -4.98000 45.96500
C  27.01000 -5.61100 46.79700
C  28.31700 -4.89900 46.74900
C  28.09700 -3.93500 45.73800
C  26.71000 -3.99300 45.33600
C  29.51800 -5.10800 47.63500
C  28.73500 -2.89700 44.90900
O  29.91600 -2.59200 44.78900
C  27.69300 -2.24400 44.01900
C  27.40500 -0.84300 44.51600
O  26.91500 -0.65500 45.59100
O  28.04800 0.07800 43.77700
C  28.42900 1.33800 44.43700
H  20.97000 -3.79100 42.78200
H  21.53700 -8.60400 47.21000
H  27.47000 -7.19200 48.14900
H  25.00600 -1.22500 42.64600
H  22.73500 -2.72900 41.39200
H  22.02600 -1.08000 43.76800
H  21.36200 -1.17300 42.13800
H  22.88100 -0.27600 42.44300
H  24.69600 -3.30200 40.64700
H  26.23500 -3.61300 41.53000
H  27.28000 -2.28600 40.16600
H  26.48200 -0.94700 40.74500
H  18.34900 -6.63400 43.11400
H  19.22800 -5.25500 42.44600
H  18.18300 -5.07000 43.89400
H  18.19700 -9.59100 46.85200
H  19.53600 -8.67600 47.62300
H  19.87400 -9.77600 46.29700
H  23.95600 -10.10300 47.28900
H  25.60300 -8.70500 49.22900
H  23.74800 -9.43400 50.05900
H  22.60800 -10.54900 49.18100
H  22.32500 -8.81600 49.28400
H  26.98300 -9.69200 46.65300
H  26.08000 -10.82900 47.34000
H  27.33200 -10.34400 49.55400
H  28.55500 -9.51500 48.44200
H  28.00900 -11.20300 48.17700
H  29.67200 -6.12300 47.99900
H  29.33100 -4.59700 48.58000
H  30.49500 -4.85700 47.22100
H  27.93400 -2.33200 42.95900
H  28.86600 1.25500 45.43200
H  27.63700 2.08600 44.39100
H  29.17900 1.81500 43.80700
Mg 26.86700 50.86100 26.47000
C  25.04200 51.84000 29.22400
C  29.28000 49.58400 28.52700
C  28.55300 49.82400 23.68800
C  24.59300 52.39300 24.34500
N  27.04600 50.63900 28.66200
C  26.22200 51.08600 29.60800
C  26.72800 50.72800 31.00200
C  28.13000 50.00800 30.73700
C  28.10500 50.06900 29.23700
C  29.35800 50.58600 31.49400
C  25.79900 49.76200 31.90600
C  25.50000 50.38400 33.22900
H  26.65100 50.43400 34.22300
N  28.68700 49.79500 26.19000
C  29.52700 49.30500 27.13800
C  30.64500 48.61100 26.55400
C  30.40500 48.59900 25.15100
C  29.15400 49.38300 24.94800
C  31.82000 47.92400 27.31900
C  31.20300 47.88100 24.06400
O  30.92100 47.97100 22.87400
C  32.36100 46.98300 24.34100
N  26.63700 51.12200 24.26300
C  27.43800 50.55700 23.35500
C  26.97500 50.81300 21.89600
C  25.55300 51.51100 22.15700
C  25.55500 51.66600 23.67300
C  28.05200 51.75800 21.20500
C  24.24800 50.84600 21.58800
C  23.25800 51.95400 21.08500
N  25.22800 52.05000 26.71600
C  24.33900 52.56200 25.76500
C  23.24400 53.18700 26.50500
C  23.56800 53.00100 27.84200
C  24.63900 52.21700 27.90800
C  22.14600 53.82900 25.86100
C  23.01800 53.19500 29.21700
O  21.95300 53.79800 29.46500
C  24.02100 52.48000 30.15600
C  24.54200 53.59600 31.03100
O  25.33200 54.46500 30.67700
O  23.89200 53.54900 32.25100
C  24.16500 54.63700 33.19200
H  30.05500 49.21300 29.20100
H  29.26400 49.59200 22.89200
H  23.89200 52.89200 23.67300
H  27.00600 51.67400 31.46500
H  28.12800 48.95100 31.00500
H  30.02400 49.90400 32.02400
H  29.07100 51.37800 32.18600
H  29.94200 51.09000 30.72300
H  26.24700 48.77700 32.03000
H  24.85500 49.71100 31.36400
H  24.63300 49.86300 33.63500
H  25.26800 51.42100 32.98300
H  31.75700 48.19000 28.37500
H  32.75100 48.21100 26.83200
H  31.79400 46.83700 27.25500
H  33.08200 47.16400 23.54300
H  31.95700 45.98400 24.18000
H  32.98600 47.04700 25.23200
H  26.92600 49.82700 21.43400
H  25.56500 52.55200 21.83200
H  28.79000 51.13200 20.70300
H  28.51900 52.28500 22.03700
H  27.71000 52.59600 20.59700
H  23.79000 50.19000 22.32900
H  24.51600 50.24600 20.71900
H  22.69400 51.48800 20.27600
H  23.79500 52.85100 20.77700
H  22.61600 52.17800 21.93700
H  22.43400 54.86500 25.67800
H  21.21500 53.78800 26.42500
H  22.06800 53.29700 24.91300
H  23.51100 51.70800 30.73200
H  23.23900 55.08600 33.55200
H  24.77300 55.41200 32.72500
H  24.74800 54.19400 33.99900

