158

Mg 35.65300 -0.12100 29.57000
C  33.62500 1.24900 32.07500
C  38.20800 -0.44200 31.83400
C  37.57700 -1.37300 27.16800
C  33.01900 0.43000 27.29500
N  35.86900 0.32600 31.71200
C  34.91500 0.90100 32.50100
C  35.50300 1.14900 33.88800
C  37.06300 0.91400 33.77800
C  37.09300 0.18300 32.41300
C  37.85900 2.16400 33.80200
C  34.87700 0.28100 34.97800
C  34.89800 0.77700 36.41500
H  35.92300 1.84600 36.75300
N  37.50000 -1.06500 29.61000
C  38.35900 -1.03400 30.60000
C  39.58400 -1.83100 30.25600
C  39.32900 -2.20300 28.92000
C  38.08200 -1.55500 28.44900
C  40.73100 -2.02400 31.18700
C  40.28100 -2.99200 28.01900
O  40.03800 -3.16800 26.85500
C  41.55400 -3.78000 28.58200
N  35.29100 -0.43200 27.47100
C  36.34300 -0.88800 26.66800
C  35.99500 -0.52400 25.12500
C  34.41200 -0.26400 25.22200
C  34.21200 -0.06700 26.72600
C  36.68300 0.74800 24.57000
C  33.54100 -1.43700 24.78200
C  32.49000 -1.02300 23.68300
N  33.66400 0.63000 29.66100
C  32.71500 0.74000 28.64500
C  31.57200 1.41100 29.19900
C  31.83700 1.58500 30.56000
C  33.15300 1.09300 30.75100
C  30.34400 1.66500 28.39900
C  31.31000 2.09100 31.81400
O  30.25700 2.63400 32.14700
C  32.45100 1.90300 32.86100
C  32.68100 3.28700 33.35000
O  32.97400 4.29000 32.72300
O  32.45000 3.23500 34.72400
C  32.49700 4.39800 35.53800
H  38.96400 -0.36400 32.61900
H  38.33300 -1.46000 26.38500
H  32.15400 0.66900 26.67400
H  35.34700 2.21600 34.04600
H  37.39700 0.27600 34.59600
H  37.20100 3.02600 33.69400
H  38.57200 2.16500 32.97800
H  38.44800 2.18200 34.71900
H  35.25300 -0.74100 35.00400
H  33.84800 0.12500 34.65600
H  35.03100 -0.05600 37.10500
H  33.93900 1.25400 36.61900
H  41.60000 -1.91600 30.53900
H  40.79200 -2.96300 31.73700
H  40.76800 -1.20400 31.90400
H  41.72900 -4.58000 27.86200
H  41.43900 -4.18400 29.58800
H  42.50400 -3.24800 28.62500
H  36.29400 -1.44300 24.61900
H  34.12600 0.71300 24.83200
H  37.50300 1.07100 25.21200
H  36.04800 1.61300 24.37700
H  37.20300 0.41100 23.67300
H  32.96600 -1.81900 25.62500
H  34.15500 -2.17200 24.26200
H  31.48100 -1.34400 23.94200
H  32.79700 -1.58000 22.79800
H  32.45700 0.06100 23.56600
H  29.62500 2.17500 29.04100
H  29.82800 0.72900 28.18800
H  30.58900 2.26900 27.52500
H  32.06500 1.22700 33.62400
H  32.82300 4.08700 36.53100
H  31.52500 4.83200 35.77000
H  33.01500 5.23300 35.06600
Mg 16.35400 51.65400 25.64000
C  18.07800 50.65200 28.50100
C  13.64300 52.30400 27.59300
C  14.60100 51.81600 22.89400
C  19.08000 50.47100 23.67400
N  15.95300 51.52100 27.86900
C  16.84600 51.17800 28.83800
C  16.21500 51.30000 30.17900
C  14.69800 51.65100 29.91700
C  14.71800 51.83700 28.35100
C  13.65200 50.59200 30.43100
C  17.01100 52.26400 31.04200
C  16.94500 52.11900 32.56500
H  15.92900 51.28100 33.27700
N  14.49100 52.11900 25.33000
C  13.52000 52.39600 26.22400
C  12.28200 52.81000 25.60400
C  12.47900 52.52500 24.23300
C  13.91800 52.12500 24.12300
C  11.07600 53.33200 26.38800
C  11.47000 52.52700 23.09400
O  11.74200 52.19600 21.94700
C  10.09800 52.88300 23.42100
N  16.76000 51.08800 23.54900
C  15.85200 51.40800 22.59200
C  16.42700 51.19700 21.18300
C  17.91900 50.96400 21.48100
C  17.99800 50.89300 22.99100
C  15.72000 50.05300 20.40900
C  18.85200 52.08900 20.80200
C  20.18000 51.56300 20.14800
N  18.24500 50.82900 25.92800
C  19.20700 50.39700 25.09500
C  20.30900 49.71300 25.83500
C  19.87000 49.74900 27.13300
C  18.65400 50.48900 27.14300
C  21.46300 48.93500 25.26900
C  20.27500 49.43400 28.49500
O  21.33000 48.91900 28.93000
C  19.10500 49.93700 29.45400
C  18.61800 48.81300 30.32400
O  17.96000 47.88500 29.93300
O  19.03300 48.97200 31.61900
C  18.41300 48.05000 32.58000
H  12.79700 52.45500 28.26700
H  14.05400 52.01000 21.96900
H  19.95100 50.16200 23.09100
H  16.30100 50.34300 30.69400
H  14.45800 52.61400 30.36800
H  12.82800 51.15200 30.87300
H  14.07700 49.90400 31.16200
H  13.35700 50.02500 29.54900
H  16.65500 53.27000 30.81700
H  18.03400 52.32000 30.67100
H  16.62400 53.04900 33.03500
H  17.94100 51.86800 32.92900
H  10.75000 54.27800 25.95500
H  11.36500 53.50300 27.42500
H  10.21600 52.67800 26.52600
H  9.93300 53.82600 23.94200
H  9.60700 52.07300 23.96000
H  9.46800 53.03400 22.54500
H  16.36500 52.13800 20.63600
H  18.19500 49.98300 21.09400
H  16.46100 49.59600 19.75300
H  14.88300 50.47600 19.85300
H  15.14800 49.37900 21.04600
H  19.11700 52.94300 21.42500
H  18.33500 52.45300 19.91300
H  20.68400 50.70800 20.59700
H  20.93900 52.31700 20.35900
H  19.99600 51.31000 19.10400
H  22.36900 49.51800 25.10500
H  21.18200 48.40700 24.35800
H  21.78100 48.12700 25.92800
H  19.63500 50.65900 30.07500
H  17.32400 48.01700 32.58700
H  18.76400 48.31800 33.57600
H  18.84500 47.05800 32.44600

