158

Mg 40.46700 8.31600 29.03800
C  42.15900 10.17700 31.53100
C  38.48800 6.94800 31.37000
C  39.04200 6.52400 26.54300
C  43.06200 9.18700 26.68100
N  40.32000 8.54900 31.12200
C  41.07600 9.35400 31.92000
C  40.45900 9.43600 33.33500
C  39.53300 8.18800 33.33700
C  39.47200 7.86500 31.86400
C  39.98100 6.93100 34.19000
C  39.99400 10.80400 33.87300
C  39.39700 10.66900 35.27100
H  39.92000 11.69400 36.27000
N  38.91100 6.94200 28.98000
C  38.25000 6.49500 30.05700
C  37.16100 5.67300 29.64700
C  37.20000 5.62100 28.22100
C  38.41800 6.39900 27.82200
C  36.18600 5.05600 30.66100
C  36.31600 5.04300 27.19700
O  36.49700 5.29500 26.01400
C  35.09100 4.17700 27.65300
N  40.98500 7.99300 26.82300
C  40.23000 7.15900 26.06700
C  40.78800 7.04100 24.63200
C  41.90400 8.10000 24.73400
C  42.06700 8.43600 26.18500
C  41.32800 5.66100 24.21600
C  41.61700 9.25400 23.71200
C  40.90300 10.53100 24.22200
N  42.19000 9.38400 29.05100
C  43.19700 9.63200 28.03600
C  44.18700 10.59900 28.64800
C  43.80100 10.77000 30.01000
C  42.65400 10.06300 30.20400
C  45.28600 11.20500 27.88300
C  44.22900 11.39200 31.28200
O  45.08800 12.21400 31.52200
C  43.12800 11.08000 32.27700
C  43.81900 10.29600 33.43500
O  44.43400 9.21500 33.36300
O  43.35200 10.79200 34.58100
C  43.49400 9.99500 35.75800
H  37.87000 6.46200 32.12800
H  38.80600 5.80400 25.75700
H  43.82400 9.49700 25.96300
H  41.27800 8.96500 33.87800
H  38.49000 8.46700 33.48700
H  40.48000 6.32200 33.43600
H  39.14600 6.43800 34.68800
H  40.69800 7.08700 34.99700
H  39.20000 11.16200 33.21700
H  40.78500 11.55300 33.90200
H  39.40300 9.63000 35.60000
H  38.34100 10.88900 35.11600
H  36.01100 5.81400 31.42400
H  36.60300 4.15800 31.11900
H  35.24600 4.72300 30.22300
H  35.52000 3.24000 28.00800
H  34.55700 3.90100 26.74300
H  34.39300 4.69600 28.30900
H  39.93900 7.27200 23.98800
H  42.85500 7.65500 24.44400
H  41.03500 5.64300 23.16600
H  40.70000 4.88900 24.66200
H  42.39000 5.43300 24.12600
H  40.97700 8.90300 22.90200
H  42.57200 9.38800 23.20500
H  40.71200 10.54700 25.29500
H  39.90200 10.66400 23.81200
H  41.53900 11.40400 24.07300
H  45.24200 10.93700 26.82700
H  46.16200 10.66800 28.24700
H  45.21800 12.28700 27.99900
H  42.70100 12.02900 32.60000
H  43.43700 10.75600 36.53700
H  44.45000 9.47400 35.80500
H  42.69300 9.30400 36.02000
Mg 52.73900 24.20600 44.86600
C  49.90300 26.27300 43.86000
C  51.06600 21.64900 43.26300
C  55.50900 22.56000 45.03000
C  54.38500 27.18600 45.74300
N  50.71800 24.03700 43.61400
C  49.80900 24.95400 43.33300
C  48.75400 24.47700 42.33600
C  48.82800 22.91300 42.53600
C  50.26100 22.80600 43.17100
C  47.60100 22.22300 43.28200
C  49.17900 24.92200 40.88000
C  47.95000 25.02200 40.00200
H  47.53700 23.77000 39.18500
N  53.20500 22.33700 44.28200
C  52.37000 21.39000 43.72900
C  53.03600 20.12800 43.68600
C  54.36000 20.35100 44.18300
C  54.44700 21.80600 44.52800
C  52.29400 18.82300 43.24300
C  55.46800 19.28600 44.22400
O  55.26500 18.18000 43.72600
C  56.80300 19.55800 44.96100
N  54.63200 24.75600 45.43100
C  55.65600 23.86900 45.43800
C  56.97100 24.45800 45.89400
C  56.60600 25.97900 45.83400
C  55.10600 25.97300 45.69800
C  57.54400 23.83800 47.29500
C  57.31600 26.68600 44.69700
C  58.30600 27.76400 45.07500
N  52.24700 26.26700 44.91600
C  52.96600 27.35800 45.43400
C  52.23500 28.45800 45.48100
C  50.93000 28.11800 44.98700
C  51.05300 26.77100 44.59400
C  52.80500 29.74900 46.09900
C  49.59600 28.57200 44.69500
O  49.02800 29.63800 44.98400
C  48.91900 27.43400 43.91600
C  48.38000 27.93900 42.58200
O  49.07100 28.27400 41.54600
O  47.00400 28.17900 42.67100
C  46.43300 28.53600 41.37400
H  50.45200 20.80400 42.94500
H  56.47700 22.06300 45.12600
H  54.87600 28.13800 45.95700
H  47.76700 24.83000 42.63600
H  48.68900 22.53800 41.52200
H  46.71000 22.81500 43.49000
H  47.91600 21.69500 44.18200
H  47.24600 21.49700 42.55100
H  49.88700 24.13000 40.63500
H  49.86500 25.76900 40.92100
H  47.97600 25.87600 39.32600
H  47.00400 25.16400 40.52500
H  52.57900 18.70100 42.19800
H  51.20800 18.79200 43.33200
H  52.72700 18.00200 43.81500
H  57.41000 20.04800 44.20000
H  57.29200 18.61800 45.21600
H  56.70400 20.20900 45.83000
H  57.60000 24.17400 45.05100
H  56.78000 26.49900 46.77600
H  57.33800 24.42600 48.19000
H  58.63000 23.74800 47.29100
H  57.06700 22.92000 47.63800
H  56.59200 27.09600 43.99300
H  57.87500 25.97100 44.09200
H  59.31700 27.61800 44.69500
H  58.54400 27.73100 46.13800
H  58.02200 28.75800 44.72900
H  53.61600 30.14100 45.48500
H  53.26100 29.43600 47.03900
H  52.07200 30.53300 46.28700
H  47.98300 27.14700 44.39600
H  45.37400 28.69600 41.57400
H  46.60900 27.70800 40.68700
H  46.84700 29.47300 41.00300

