158

Mg 44.78400 4.00100 47.58200
C  42.30600 6.64600 47.15300
C  42.13800 1.76800 47.29300
C  46.93700 1.73500 47.43100
C  47.32400 6.50800 47.20500
N  42.54200 4.23300 47.23400
C  41.73300 5.35400 47.13400
C  40.25200 5.02000 46.97400
C  40.26300 3.53500 47.33400
C  41.71200 3.10500 47.27700
C  39.50300 3.26700 48.66900
C  39.54600 5.28100 45.58900
C  38.55800 6.46200 45.42400
H  38.42500 7.16100 43.99200
N  44.59500 2.02900 47.52600
C  43.44100 1.19800 47.38300
C  43.84600 -0.12900 47.58500
C  45.27600 -0.17000 47.61100
C  45.66700 1.24500 47.52000
C  42.87100 -1.23900 47.66000
C  46.17500 -1.44700 47.88600
O  45.72200 -2.53100 48.07100
C  47.66900 -1.39100 47.88300
N  46.87200 4.15700 47.29200
C  47.49800 2.98100 47.33800
C  49.05100 3.18700 47.37100
C  49.17300 4.71600 47.24000
C  47.70200 5.17200 47.25300
C  49.94600 2.62200 48.44000
C  49.93900 5.22000 45.94400
C  51.19800 6.00700 46.28300
N  44.89000 6.16900 47.30600
C  45.96200 7.05400 47.18200
C  45.49900 8.40800 46.98200
C  44.07000 8.26000 47.04000
C  43.75800 6.91500 47.27500
C  46.27200 9.73100 46.72000
C  42.85600 9.02800 46.86600
O  42.71600 10.23000 46.66500
C  41.65900 7.97800 46.91200
C  40.63500 8.46700 47.95300
O  40.54400 7.97600 49.09000
O  39.78200 9.42800 47.41800
C  38.65500 9.93800 48.20300
H  41.22600 1.18800 47.14100
H  47.79100 1.06400 47.53700
H  48.17000 7.19500 47.27200
H  39.64400 5.60400 47.66600
H  39.87100 2.91600 46.52700
H  40.23300 2.77600 49.31200
H  38.58200 2.68400 48.65200
H  39.19200 4.16000 49.21100
H  39.03200 4.37700 45.26300
H  40.24000 5.51500 44.78200
H  38.93000 7.17700 46.15800
H  37.52900 6.15300 45.60700
H  41.87100 -0.85200 47.46300
H  43.01200 -1.69300 48.64100
H  42.96800 -1.94800 46.83700
H  48.03300 -1.00100 46.93200
H  48.01500 -2.41600 48.01600
H  48.00700 -0.76800 48.71200
H  49.44300 2.81500 46.42400
H  49.59100 5.02600 48.19800
H  49.33300 1.96900 49.06000
H  50.39800 3.37300 49.08800
H  50.81100 2.10000 48.03100
H  49.31000 5.91800 45.39100
H  50.17900 4.43000 45.23200
H  51.24000 6.36000 47.31300
H  51.42000 6.83500 45.61000
H  52.00300 5.27400 46.33500
H  46.79100 9.65800 45.76500
H  47.08200 9.80600 47.44600
H  45.66600 10.63700 46.73400
H  41.31800 7.92100 45.87800
H  38.39700 10.96800 47.95700
H  38.91800 9.90300 49.26100
H  37.75600 9.33600 48.07400
Mg 40.91400 9.25000 29.50700
C  42.60400 10.53000 32.32900
C  38.83500 7.73200 31.71800
C  39.39500 7.83800 26.97100
C  43.44100 10.34600 27.50400
N  40.71200 9.21300 31.83200
C  41.46300 9.81600 32.70800
C  40.97500 9.75800 34.15800
C  39.83600 8.70400 33.92300
C  39.78300 8.48100 32.42400
C  40.09100 7.38500 34.66300
C  40.64000 11.07400 34.78700
C  40.12600 10.76300 36.19000
H  40.47700 11.71700 37.28200
N  39.29200 7.94400 29.33900
C  38.58300 7.46600 30.37500
C  37.44000 6.75000 29.83300
C  37.50600 6.88400 28.44600
C  38.80000 7.55300 28.16500
C  36.34200 6.04200 30.64100
C  36.43500 6.44900 27.42300
O  36.67600 6.66500 26.27600
C  35.08500 6.11900 27.79900
N  41.43500 9.01600 27.59800
C  40.60000 8.46400 26.67400
C  41.05500 8.68100 25.25000
C  42.44800 9.37000 25.34800
C  42.44800 9.62400 26.89700
C  41.09900 7.33600 24.36600
C  42.56600 10.61000 24.35500
C  41.87700 11.94100 24.75400
N  42.73500 10.21100 29.79800
C  43.64300 10.66000 28.84700
C  44.69700 11.28800 29.53300
C  44.35000 11.35500 30.93400
C  43.14200 10.60800 31.02900
C  45.71400 11.91200 28.87400
C  44.78800 11.80400 32.24400
O  45.70500 12.45100 32.69000
C  43.66400 11.28800 33.12300
C  44.28000 10.64400 34.32700
O  44.80400 9.54200 34.42300
O  44.13500 11.48700 35.46900
C  44.54700 10.91700 36.76200
H  38.15500 7.13300 32.32700
H  38.72600 7.60100 26.14100
H  44.29200 10.60400 26.87000
H  41.77400 9.26200 34.70900
H  38.89500 9.16500 34.22300
H  39.87500 6.55600 33.99000
H  39.43000 7.27900 35.52300
H  41.10200 7.25700 35.05000
H  39.84600 11.59700 34.25400
H  41.44700 11.77100 35.01200
H  40.53400 9.76700 36.35900
H  39.03600 10.74300 36.16800
H  36.24900 5.09200 30.11400
H  35.46500 6.68400 30.73100
H  36.73700 5.70000 31.59700
H  34.43400 6.29900 26.94400
H  34.67600 6.66400 28.65000
H  35.20500 5.06300 28.04200
H  40.23500 9.28100 24.85600
H  43.19700 8.60500 25.14500
H  41.10800 6.44200 24.98800
H  41.88800 7.27800 23.61700
H  40.13100 7.18400 23.88900
H  42.11800 10.39700 23.38400
H  43.64400 10.75500 24.28900
H  41.01100 12.06700 24.10500
H  42.47400 12.83100 24.56000
H  41.44200 12.01100 25.75100
H  45.44000 12.21700 27.86400
H  46.58300 11.27300 28.71700
H  46.11600 12.78800 29.38300
H  43.17700 12.14800 33.58300
H  45.49900 10.39100 36.68900
H  43.80300 10.47800 37.42600
H  44.77300 11.80500 37.35200

