158

Mg 35.65300 0.93100 28.74200
C  33.53800 2.29800 31.39400
C  38.20600 1.04700 31.00500
C  37.68000 0.55200 26.15600
C  33.01000 1.55800 26.52200
N  35.87800 1.70400 30.86700
C  34.87900 2.11300 31.77500
C  35.47500 2.34900 33.13800
C  36.97100 2.10900 32.90800
C  37.02700 1.58300 31.53200
C  37.90200 3.25500 33.17500
C  34.81300 1.38600 34.21000
C  34.85300 2.03000 35.56600
H  35.74200 3.12700 35.96000
N  37.61300 0.45200 28.67000
C  38.53900 0.57500 29.73000
C  39.78100 0.17200 29.16900
C  39.60100 -0.09700 27.80000
C  38.23900 0.34700 27.45000
C  41.02600 0.10000 30.07400
C  40.59200 -0.57600 26.77300
O  40.38700 -0.61500 25.58400
C  41.99800 -0.96300 27.31700
N  35.32300 0.76600 26.64800
C  36.33000 0.62700 25.80900
C  35.92700 0.86100 24.36700
C  34.35100 0.86600 24.39900
C  34.20000 1.08400 25.94300
C  36.62200 2.00400 23.70100
C  33.56100 -0.49600 23.87900
C  32.56900 -0.31000 22.76600
N  33.65100 1.63900 28.95800
C  32.73800 1.85700 27.90500
C  31.48400 2.39200 28.46200
C  31.74400 2.54300 29.87800
C  33.04500 2.11800 30.05500
C  30.19100 2.62000 27.70700
C  31.24800 2.93700 31.06500
O  30.15200 3.43900 31.35900
C  32.37600 2.74500 32.17700
C  32.59500 4.01300 33.00400
O  33.42800 4.86500 32.69800
O  31.75000 4.01800 34.09500
C  31.85100 5.22500 34.87500
H  39.06700 1.07600 31.67500
H  38.33800 0.48200 25.28800
H  32.16400 1.80500 25.87600
H  35.24700 3.34300 33.52300
H  37.31500 1.28900 33.53800
H  38.76800 3.05500 33.80600
H  37.38900 4.15600 33.51100
H  38.17300 3.62200 32.18500
H  35.44900 0.51200 34.35000
H  33.79800 1.09200 33.94500
H  35.06200 1.24500 36.29300
H  33.90000 2.47700 35.85100
H  40.79600 0.26500 31.12700
H  41.73000 0.87900 29.78000
H  41.45800 -0.90000 30.02000
H  42.45100 -1.71000 26.66500
H  41.84100 -1.60600 28.18200
H  42.65900 -0.11300 27.49100
H  36.19700 -0.06200 23.85400
H  34.05600 1.65700 23.70800
H  35.94700 2.70000 23.20300
H  37.32600 1.59800 22.97500
H  37.19400 2.60500 24.40700
H  33.10400 -0.87000 24.79600
H  34.29900 -1.21500 23.52400
H  31.54100 -0.55600 23.03300
H  32.75300 -0.99400 21.93800
H  32.65900 0.72700 22.44300
H  29.61600 1.70900 27.86900
H  30.31000 2.73900 26.63000
H  29.64300 3.51000 28.01600
H  32.16100 1.85900 32.77500
H  31.74600 6.04100 34.16000
H  32.71600 5.36900 35.52300
H  31.01200 5.22500 35.57100
Mg -2.86300 34.87900 26.65300
C  -4.42800 32.87600 28.92900
C  -1.85400 37.02600 29.28400
C  -1.65500 37.04900 24.37400
C  -4.38800 32.99200 24.02600
N  -3.37200 35.06700 28.87900
C  -3.73700 33.94500 29.57100
C  -3.50700 34.16100 31.08600
C  -2.66900 35.46500 31.15100
C  -2.71700 35.95700 29.70900
C  -3.14700 36.54600 32.13700
C  -3.03400 32.97100 31.95100
C  -1.95400 33.12400 33.02100
H  -2.15900 32.28800 34.35200
N  -1.90000 36.71400 26.81800
C  -1.55600 37.39900 27.96300
C  -0.78200 38.57700 27.57400
C  -0.70500 38.55100 26.15500
C  -1.45700 37.40000 25.72000
C  -0.28300 39.59100 28.53600
C  -0.06700 39.55800 25.16100
O  -0.08300 39.52800 23.91600
C  0.94200 40.46800 25.69900
N  -3.25200 35.19100 24.40300
C  -2.46000 36.07900 23.74400
C  -2.68600 35.93600 22.20800
C  -3.33700 34.50400 22.11700
C  -3.73500 34.22000 23.60500
C  -3.68000 36.92700 21.65100
C  -2.37600 33.44600 21.47300
C  -0.85800 33.52500 21.76000
N  -4.26700 33.29800 26.51900
C  -4.72100 32.57500 25.37900
C  -5.40000 31.41500 25.87200
C  -5.41700 31.48100 27.25800
C  -4.61500 32.64400 27.56700
C  -6.12800 30.41000 25.03000
C  -5.81000 30.86900 28.53500
O  -6.44900 29.86600 28.79400
C  -5.29400 31.83700 29.66900
C  -6.41700 32.36400 30.45900
O  -7.30800 33.05300 30.02300
O  -6.30700 31.93400 31.79800
C  -7.28000 32.08800 32.87800
H  -1.29300 37.57400 30.04400
H  -1.34600 37.75200 23.59700
H  -4.62600 32.26900 23.24300
H  -4.48800 34.36900 31.51300
H  -1.61500 35.23600 31.30800
H  -2.56800 37.46900 32.11900
H  -3.04800 36.05800 33.10600
H  -4.18300 36.78100 31.89200
H  -2.58500 32.24900 31.26800
H  -3.92500 32.53500 32.40300
H  -1.98900 34.14200 33.40900
H  -0.98500 32.98600 32.54200
H  0.80200 39.69700 28.56400
H  -0.57600 39.42300 29.57200
H  -0.67700 40.54900 28.19500
H  0.35600 41.18300 26.27700
H  1.38900 40.95400 24.83200
H  1.59700 39.80000 26.25900
H  -1.75300 36.10100 21.66900
H  -4.26500 34.50400 21.54500
H  -4.50500 36.64200 20.99700
H  -3.06400 37.61900 21.07600
H  -4.12900 37.51300 22.45300
H  -2.43400 33.57000 20.39200
H  -2.76900 32.47200 21.76400
H  -0.76700 34.06600 22.70200
H  -0.40600 34.19500 21.02800
H  -0.35100 32.57000 21.62300
H  -6.35600 29.62500 25.75100
H  -5.42700 29.92300 24.35200
H  -6.96100 30.82400 24.46300
H  -4.64500 31.33200 30.38300
H  -6.80900 32.64500 33.68700
H  -7.70500 31.14000 33.20900
H  -7.99400 32.85100 32.56800

