158

Mg -2.00600 16.59400 26.16500
C  -2.29400 14.28100 28.75000
C  -2.41600 19.14200 28.49300
C  -1.97200 18.84600 23.61500
C  -1.83100 14.05000 23.82100
N  -2.34300 16.66400 28.37100
C  -2.39300 15.59400 29.28700
C  -2.70100 15.99900 30.72500
C  -2.92700 17.58800 30.48400
C  -2.62500 17.81900 29.02900
C  -4.30000 18.26000 31.02800
C  -1.55600 15.57500 31.73800
C  -0.98300 16.62300 32.71700
H  -0.43800 16.05500 34.05700
N  -2.17500 18.66000 26.10000
C  -2.30400 19.54600 27.12400
C  -2.49500 20.88200 26.62200
C  -2.21700 20.87600 25.25100
C  -2.07300 19.40200 24.93200
C  -2.99000 21.97800 27.45400
C  -2.11200 22.04800 24.33900
O  -2.00200 21.99600 23.13000
C  -2.04500 23.47700 25.06000
N  -2.03400 16.51600 23.97300
C  -1.87900 17.55700 23.18900
C  -1.83600 17.20800 21.78100
C  -1.57800 15.59600 21.90600
C  -1.82100 15.38100 23.31900
C  -3.12300 17.60000 21.00400
C  -0.21500 14.98300 21.39800
C  -0.23200 14.77000 19.85000
N  -2.05600 14.59500 26.19900
C  -1.91900 13.69300 25.12900
C  -2.11600 12.32000 25.67000
C  -2.23800 12.56800 27.10200
C  -2.20800 13.91600 27.32600
C  -2.24300 11.06200 24.95700
C  -2.42000 11.91400 28.39800
O  -2.31300 10.68500 28.72500
C  -2.48900 13.00300 29.45900
C  -1.59800 12.72500 30.54200
O  -0.36000 12.62000 30.42300
O  -2.34000 12.55500 31.70500
C  -1.47000 12.14200 32.77900
H  -2.47600 19.90300 29.27400
H  -1.92800 19.57700 22.80500
H  -1.83400 13.22000 23.11100
H  -3.65500 15.52600 30.95400
H  -2.01500 18.06500 30.84200
H  -3.94400 18.91300 31.82600
H  -4.97800 17.54100 31.48700
H  -4.98100 18.69100 30.29400
H  -0.67800 15.17000 31.23500
H  -1.90100 14.89800 32.51900
H  -1.69700 17.39700 32.99600
H  -0.15100 17.11500 32.21300
H  -2.19700 22.70600 27.62800
H  -3.35100 21.63400 28.42400
H  -3.86500 22.51300 27.08700
H  -3.04700 23.67900 25.43600
H  -1.85100 24.18900 24.25800
H  -1.29700 23.52900 25.85100
H  -0.98400 17.60200 21.22800
H  -2.46900 15.22000 21.40100
H  -2.75100 18.43100 20.40500
H  -3.94800 17.97500 21.61000
H  -3.60200 16.79100 20.45300
H  -0.01500 14.15600 22.08000
H  0.48500 15.81100 21.50900
H  0.41800 15.46600 19.32000
H  -1.20000 14.78700 19.34900
H  0.18600 13.76600 19.76900
H  -1.36500 11.00400 24.31400
H  -3.13800 11.04100 24.33500
H  -2.22200 10.24100 25.67300
H  -3.43500 13.00900 30.00000
H  -0.60400 12.80000 32.85200
H  -1.25400 11.07600 32.71300
H  -2.04400 12.42500 33.66200
Mg 48.11400 34.60500 27.53500
C  46.33700 33.38900 30.31200
C  48.44100 37.60300 29.21100
C  49.46100 35.81300 24.79900
C  46.93100 31.77100 25.62800
N  47.60500 35.31100 29.60000
C  46.90400 34.66000 30.55300
C  46.72800 35.49500 31.78100
C  47.02600 36.91000 31.16400
C  47.76500 36.60400 29.93600
C  45.74400 37.79200 31.03700
C  47.85200 35.11300 32.88000
C  47.32500 34.64700 34.25000
H  47.68200 35.29500 35.51400
N  48.98100 36.32500 27.16600
C  49.05300 37.49000 27.94600
C  49.85400 38.53900 27.30200
C  50.37400 37.91800 26.07300
C  49.65900 36.56100 25.95800
C  50.17000 39.86200 27.94500
C  51.31200 38.39700 25.09600
O  51.70100 37.68200 24.15700
C  51.91300 39.73600 25.25100
N  48.12100 33.82300 25.41900
C  48.72400 34.61500 24.45300
C  48.76100 33.91000 23.09300
C  48.01300 32.55300 23.33900
C  47.60100 32.69300 24.85700
C  48.21100 34.76800 21.93200
C  48.81500 31.23300 23.11600
C  50.28100 31.23400 23.62800
N  46.89900 32.97300 27.81700
C  46.59600 31.83600 27.01300
C  45.69500 30.95700 27.83100
C  45.51700 31.53000 29.03400
C  46.32900 32.70600 29.03000
C  45.13100 29.65800 27.37100
C  44.90500 31.37100 30.32400
O  44.12800 30.52200 30.77200
C  45.22000 32.63900 31.12600
C  45.60000 32.20600 32.45800
O  46.60900 31.67200 32.86500
O  44.53300 32.49000 33.23500
C  44.58800 31.90400 34.57800
H  48.50100 38.58000 29.69700
H  49.81900 36.21300 23.84800
H  46.59200 30.93900 25.00700
H  45.72500 35.28100 32.15200
H  47.71500 37.40200 31.84900
H  45.68600 38.10600 29.99500
H  45.81400 38.59000 31.77600
H  44.84900 37.24000 31.32600
H  48.45000 35.97100 33.18600
H  48.46400 34.34300 32.41000
H  47.75700 33.66300 34.43700
H  46.24100 34.64300 34.13100
H  51.23300 39.89600 28.18800
H  49.42500 40.16500 28.68100
H  50.00000 40.59100 27.15200
H  51.06000 40.39600 25.09200
H  52.57900 39.91200 24.40600
H  52.33000 39.95500 26.23400
H  49.77500 33.65400 22.78700
H  47.14300 32.57200 22.68400
H  48.16700 35.84200 22.11500
H  47.20300 34.41700 21.71200
H  48.79400 34.65500 21.01800
H  48.66300 31.04200 22.05300
H  48.13700 30.49400 23.54400
H  50.64200 32.20900 23.95300
H  50.92100 30.99200 22.77900
H  50.49600 30.61200 24.49700
H  45.88500 29.00800 26.92600
H  44.39600 29.80500 26.58000
H  44.62000 29.23400 28.23500
H  44.35300 33.28900 31.23700
H  45.18900 32.55000 35.21800
H  45.04300 30.91300 34.59800
H  43.63700 31.80400 35.10000

