158

Mg 54.97100 24.67800 44.18300
C  52.20400 26.33600 43.07100
C  53.66300 21.78400 42.77400
C  57.86200 22.99700 44.95200
C  56.43800 27.73100 45.37200
N  53.25300 24.16100 42.91400
C  52.26400 25.04900 42.55600
C  51.17100 24.36000 41.82100
C  51.31200 22.92200 42.40500
C  52.83800 22.92000 42.64400
C  50.36500 22.58400 43.55200
C  51.41500 24.50500 40.26700
C  50.22300 24.90000 39.29300
H  50.44100 25.23900 37.81800
N  55.66900 22.65100 43.90500
C  54.90600 21.65300 43.30000
C  55.68500 20.46000 43.35100
C  56.89100 20.73900 44.14500
C  56.84900 22.17200 44.41000
C  55.25200 19.23800 42.56300
C  57.97600 19.67900 44.38900
O  57.78300 18.48400 44.19000
C  59.15200 19.93600 45.20600
N  56.87300 25.33900 44.82300
C  57.87800 24.38200 45.14000
C  59.14100 24.96700 45.73400
C  58.80700 26.53200 45.53400
C  57.31400 26.57700 45.23700
C  59.50300 24.45800 47.18700
C  59.70500 27.22800 44.40300
C  60.85000 28.12000 44.81600
N  54.44600 26.62900 44.35000
C  55.02400 27.73000 44.95700
C  54.03700 28.76900 45.02300
C  52.89900 28.31400 44.35200
C  53.21500 26.96000 43.91000
C  54.27500 30.06800 45.58000
C  51.60600 28.66800 43.78300
O  50.95200 29.67000 43.87400
C  51.08800 27.38200 43.05200
C  50.66100 27.73700 41.68000
O  51.40700 28.00300 40.73700
O  49.26500 27.65100 41.66200
C  48.56800 28.21400 40.47900
H  53.08700 20.85700 42.72900
H  58.74900 22.41100 45.20300
H  56.93800 28.53900 45.91000
H  50.18800 24.71400 42.13100
H  51.11900 22.27700 41.54800
H  50.86300 22.15500 44.42200
H  49.58900 21.86200 43.30200
H  49.83500 23.39200 44.05700
H  51.82700 23.58000 39.86300
H  52.16000 25.29000 40.14100
H  49.77700 25.75700 39.79800
H  49.56900 24.02900 39.31900
H  54.96200 19.64400 41.59400
H  54.31700 18.81400 42.93000
H  56.02700 18.48900 42.40100
H  58.80100 20.55400 46.03200
H  59.87400 20.52400 44.63800
H  59.61100 19.03800 45.62000
H  59.85400 24.64200 44.97600
H  58.97800 27.06900 46.46700
H  58.71000 23.86100 47.63700
H  59.82300 25.28500 47.82000
H  60.33700 23.76000 47.12300
H  58.97200 27.79300 43.82600
H  60.18100 26.52800 43.71600
H  61.10200 27.98400 45.86800
H  60.55600 29.16100 44.68100
H  61.72500 27.77900 44.26400
H  53.61500 30.70000 44.98600
H  55.30000 30.41200 45.44200
H  53.92600 30.07100 46.61300
H  50.23100 27.13500 43.67800
H  48.22100 27.36100 39.89500
H  49.31000 28.77300 39.90900
H  47.82300 28.95400 40.76800
Mg 9.11200 48.16600 26.47700
C  7.43100 48.52700 29.54200
C  11.91800 49.20000 28.02900
C  10.54400 48.15300 23.58400
C  6.02800 48.34000 24.89900
N  9.56300 48.78500 28.56300
C  8.77400 48.80700 29.64200
C  9.59600 49.00700 30.94300
C  10.88900 49.62700 30.34100
C  10.83800 49.13000 28.87600
C  11.00700 51.19600 30.28800
C  9.80400 47.69200 31.65600
C  9.39400 47.72200 33.09700
H  9.37300 46.38200 33.94400
N  11.04400 48.37800 25.92200
C  12.06700 48.75600 26.70200
C  13.26600 48.85600 25.92000
C  12.88700 48.54600 24.57400
C  11.45500 48.30900 24.66700
C  14.65300 49.14200 26.64400
C  13.69700 48.34700 23.27600
O  13.17400 48.00200 22.23600
C  15.25200 48.39600 23.49600
N  8.38700 48.26500 24.37200
C  9.16200 48.25300 23.38200
C  8.38100 48.10400 22.04000
C  6.93500 48.40700 22.47900
C  7.11100 48.28900 23.99900
C  8.77900 49.00600 20.87800
C  5.72200 47.61500 21.82000
C  5.31700 48.13800 20.40600
N  7.07800 48.36400 27.04900
C  5.94600 48.34300 26.25200
C  4.79500 48.25200 27.10500
C  5.31400 48.28300 28.41100
C  6.72900 48.34100 28.31900
C  3.33900 48.04700 26.74100
C  5.05900 48.21100 29.83000
O  4.03300 48.01100 30.45900
C  6.41000 48.31500 30.64200
C  6.57500 47.00500 31.32200
O  6.99200 45.94100 30.90300
O  6.05800 47.14100 32.58900
C  5.95600 45.83300 33.23300
H  12.76000 49.65700 28.55300
H  10.98400 48.04200 22.59100
H  5.05200 48.33100 24.40900
H  9.03500 49.75500 31.50500
H  11.84000 49.35400 30.79700
H  10.25800 51.62900 30.95200
H  10.87500 51.56100 29.27000
H  11.98300 51.48300 30.67800
H  10.86100 47.48000 31.49500
H  9.33500 46.86400 31.12600
H  8.35900 48.06400 33.13100
H  10.00400 48.42300 33.66700
H  14.51600 49.32900 27.70900
H  15.20200 49.92500 26.12000
H  15.29500 48.27500 26.49100
H  15.81300 47.51500 23.80700
H  15.44700 49.17600 24.23300
H  15.70500 48.89300 22.63800
H  8.51100 47.03800 21.85400
H  6.91100 49.49100 22.37600
H  9.76500 49.40500 21.11400
H  8.05000 49.74300 20.54100
H  8.88000 48.31700 20.04100
H  4.78100 47.48400 22.35500
H  6.18500 46.65800 21.57700
H  5.71800 47.53300 19.59300
H  5.62700 49.16800 20.23100
H  4.23400 48.06000 20.30700
H  3.04500 48.64900 25.88200
H  2.76000 48.35700 27.61000
H  3.28500 47.01200 26.40200
H  6.33300 49.12500 31.36700
H  4.98200 45.40800 32.98700
H  6.00300 45.84700 34.32200
H  6.72300 45.08400 33.03600

