158

Mg 17.20500 -2.00300 27.66100
C  16.33600 -0.17300 30.68900
C  19.00400 -4.16100 29.61800
C  17.96800 -3.53000 24.95100
C  15.67400 0.66500 25.85500
N  17.58200 -2.12000 29.96100
C  17.10000 -1.31100 30.98200
C  17.64600 -1.76800 32.35800
C  18.35500 -3.11300 31.93200
C  18.26400 -3.17400 30.40400
C  19.82700 -3.27600 32.53500
C  16.58900 -1.89400 33.55000
C  16.92900 -1.25800 34.93000
H  18.33600 -0.67600 35.27000
N  18.42700 -3.65700 27.33200
C  18.99600 -4.51800 28.23600
C  19.68200 -5.54100 27.57200
C  19.39400 -5.34900 26.13700
C  18.57900 -4.12600 26.03400
C  20.48700 -6.54800 28.21100
C  19.81800 -6.21700 24.97800
O  19.54300 -5.95900 23.81200
C  20.65800 -7.47800 25.12700
N  16.87800 -1.46000 25.71900
C  17.34000 -2.26800 24.74100
C  17.14100 -1.65400 23.28800
C  16.31400 -0.36700 23.55600
C  16.22200 -0.39500 25.11900
C  18.55300 -1.31900 22.71400
C  15.00100 -0.40400 22.70600
C  13.75200 -1.01400 23.44900
N  16.11400 -0.15100 28.10300
C  15.63500 0.80600 27.29600
C  14.98000 1.78600 28.04000
C  15.15100 1.39400 29.38100
C  15.91400 0.26300 29.38000
C  14.12600 2.87200 27.45800
C  14.95200 1.84400 30.73100
O  14.45400 2.93500 31.06500
C  15.75000 0.84100 31.63900
C  16.78800 1.54200 32.52500
O  17.94000 1.82100 32.12800
O  16.22400 2.09800 33.67300
C  17.05200 3.05600 34.34900
H  19.52300 -4.89400 30.23800
H  18.13700 -4.16400 24.07800
H  15.18300 1.36700 25.17800
H  18.40100 -1.00200 32.53200
H  17.79700 -3.99400 32.25100
H  20.05700 -4.33800 32.62800
H  19.97900 -2.72500 33.46400
H  20.62400 -2.90500 31.89100
H  16.47600 -2.96900 33.69300
H  15.63800 -1.48200 33.21200
H  16.75600 -2.05300 35.65500
H  16.10000 -0.61500 35.22300
H  20.50300 -6.45700 29.29700
H  21.48600 -6.33500 27.83200
H  20.14700 -7.56500 28.01500
H  21.52000 -7.30700 25.77000
H  20.95400 -7.66300 24.09400
H  20.01500 -8.23000 25.58500
H  16.75500 -2.44600 22.64600
H  16.84300 0.53300 23.24200
H  18.90200 -0.33900 23.03800
H  18.48200 -1.32100 21.62600
H  19.21700 -2.12400 23.02900
H  15.19800 -0.97400 21.79800
H  14.66100 0.61200 22.50300
H  13.26700 -0.21500 24.01100
H  14.10600 -1.71200 24.20700
H  13.02000 -1.47700 22.78700
H  13.14700 2.40900 27.32900
H  14.38500 3.25700 26.47200
H  14.14700 3.58800 28.27900
H  14.98600 0.40700 32.28500
H  16.69000 4.02100 33.99600
H  18.13100 2.94400 34.23900
H  16.74000 2.87100 35.37700
Mg 47.79400 14.61800 28.85400
C  45.67200 14.63400 31.59200
C  49.93300 16.80600 30.68000
C  49.34800 15.63000 26.02800
C  45.32200 12.93400 27.00300
N  47.77000 15.64700 30.91500
C  46.86700 15.38900 31.89300
C  47.32700 15.98400 33.18300
C  48.50100 16.91300 32.78500
C  48.71600 16.52000 31.34100
C  48.25600 18.49700 32.98100
C  47.66500 14.98100 34.36000
C  46.96200 15.25300 35.70700
H  47.46700 16.46700 36.51600
N  49.49600 15.94700 28.36300
C  50.24700 16.60000 29.33400
C  51.38100 17.19100 28.62800
C  51.24000 16.97900 27.19800
C  50.01600 16.14200 27.08700
C  52.51600 17.95500 29.39700
C  52.10700 17.46800 26.06700
O  51.90500 17.26700 24.89100
C  53.38800 18.26800 26.29200
N  47.42700 14.34600 26.84500
C  48.19900 14.89800 25.89200
C  47.81000 14.30100 24.51700
C  46.70400 13.25400 24.92700
C  46.44000 13.47300 26.35400
C  47.42200 15.46000 23.46100
C  47.12800 11.74000 24.68800
C  47.89300 11.10300 25.85200
N  45.85700 13.95800 29.13700
C  44.94300 13.25400 28.29200
C  43.76600 12.85700 29.09700
C  44.00700 13.36400 30.39500
C  45.28700 14.02500 30.38100
C  42.65200 12.04100 28.69500
C  43.39400 13.60600 31.67800
O  42.35900 13.27800 32.22000
C  44.56200 14.28800 32.54100
C  44.00800 15.40200 33.25300
O  43.98700 16.58500 32.85000
O  43.48400 15.01800 34.42200
C  42.44100 16.02000 34.97400
H  50.67200 17.37300 31.24900
H  49.78400 15.97700 25.08900
H  44.59000 12.29400 26.50700
H  46.46600 16.53900 33.55600
H  49.43600 16.71500 33.30900
H  48.95100 18.95500 33.68500
H  47.26100 18.59100 33.41600
H  48.33800 19.04800 32.04500
H  48.74300 14.96600 34.52500
H  47.42800 13.93400 34.17100
H  47.24900 14.39000 36.30700
H  45.88600 15.39100 35.59500
H  52.58400 18.91000 28.87800
H  53.43600 17.37900 29.29200
H  52.35300 18.25200 30.43300
H  53.25500 19.32000 26.54100
H  54.03800 18.19700 25.42000
H  53.80900 17.68800 27.11300
H  48.63500 13.68500 24.16100
H  45.75300 13.49900 24.45500
H  46.34500 15.38800 23.30800
H  47.90800 15.26300 22.50500
H  47.80900 16.43400 23.76000
H  47.61700 11.63400 23.72000
H  46.20200 11.18500 24.53200
H  48.50900 11.89300 26.28300
H  48.68700 10.49800 25.41600
H  47.23800 10.78600 26.66400
H  42.62200 11.85200 27.62200
H  41.80200 12.58200 29.11000
H  42.64300 11.10300 29.25000
H  44.88900 13.55100 33.27400
H  42.52500 17.01400 34.53400
H  42.56200 16.06900 36.05600
H  41.41800 15.70500 34.76600

