158

Mg 47.09700 24.77600 28.84100
C  47.86800 27.25800 31.32500
C  45.94100 22.73800 31.37600
C  46.66600 22.48600 26.55900
C  48.53800 26.95200 26.45200
N  46.87600 24.98500 31.13300
C  47.33100 26.03700 31.92900
C  46.89300 25.77800 33.39800
C  46.69100 24.21900 33.43400
C  46.43600 23.96700 31.89100
C  47.88100 23.37400 34.01600
C  45.73900 26.65100 33.92500
C  45.85200 27.48900 35.23700
H  46.54100 26.73500 36.40800
N  46.22800 22.90200 28.88300
C  45.78300 22.26200 30.03800
C  45.22600 21.00100 29.62400
C  45.49500 20.89100 28.21200
C  46.20200 22.08900 27.83600
C  44.62300 19.99300 30.60000
C  45.19800 19.77500 27.20700
O  45.46300 19.80800 26.01700
C  44.41900 18.65900 27.67200
N  47.40400 24.80200 26.69500
C  47.34100 23.63200 26.06000
C  48.17800 23.62100 24.79200
C  48.51600 25.12000 24.58900
C  48.16300 25.68900 25.98100
C  49.44800 22.66200 24.75800
C  47.63800 25.86100 23.46900
C  48.38700 26.41900 22.23800
N  48.08300 26.65500 28.85700
C  48.36100 27.49200 27.76900
C  48.92000 28.74000 28.28800
C  48.60200 28.70700 29.64000
C  48.14100 27.39900 29.93500
C  49.64500 29.80400 27.52400
C  48.69900 29.45300 30.85900
O  49.12000 30.58200 30.99900
C  48.20500 28.55500 31.98500
C  49.27800 28.34900 33.03400
O  50.21600 27.60900 33.05700
O  49.06700 29.33500 33.97700
C  49.83400 29.13500 35.20700
H  45.54800 22.08300 32.15600
H  46.64200 21.65800 25.84700
H  49.11200 27.48000 25.68800
H  47.79100 26.02800 33.96300
H  45.82300 23.98200 34.04900
H  48.65800 23.94500 34.52400
H  48.34500 22.75100 33.25100
H  47.39100 22.67800 34.69700
H  44.88700 26.04000 34.22200
H  45.32900 27.34400 33.19000
H  44.84300 27.80500 35.50200
H  46.38100 28.38800 34.92000
H  43.89600 19.33400 30.12700
H  44.12800 20.55100 31.39400
H  45.52500 19.61100 31.07900
H  44.94300 18.28600 28.55200
H  44.27300 17.97600 26.83500
H  43.45000 19.10700 27.88700
H  47.57300 23.24200 23.96800
H  49.59600 25.20800 24.47200
H  49.25800 21.74800 24.19400
H  49.66500 22.35900 25.78200
H  50.32500 23.18800 24.38000
H  47.08800 26.65300 23.97600
H  46.91900 25.17800 23.01600
H  48.76200 25.62100 21.59700
H  49.25100 26.97800 22.59800
H  47.77700 27.15900 21.72000
H  49.26100 30.80000 27.74500
H  49.26800 29.71900 26.50500
H  50.68100 29.51800 27.70200
H  47.30400 29.04200 32.35800
H  50.91800 29.16200 35.09000
H  49.45600 28.26500 35.74500
H  49.72000 29.91600 35.95800
Mg 48.24200 45.30200 42.66400
C  44.85100 45.89600 42.08100
C  47.72200 42.02300 42.03400
C  51.58600 44.92900 41.86300
C  48.75300 48.70800 42.79100
N  46.45400 44.14200 41.97300
C  45.19900 44.59000 41.79000
C  44.32500 43.41100 41.34100
C  45.14800 42.18900 41.83500
C  46.51600 42.77800 41.93900
C  44.55700 41.53800 43.12900
C  43.87100 43.41300 39.83800
C  44.75900 44.00200 38.72300
H  44.43100 43.81000 37.30100
N  49.52600 43.64700 42.14300
C  49.07800 42.35700 42.02700
C  50.22700 41.50700 41.99600
C  51.39700 42.31700 41.81800
C  50.88100 43.68800 42.00900
C  50.16400 40.01700 42.09600
C  52.82200 41.80400 41.60800
O  53.11100 40.64500 41.68400
C  53.99500 42.67400 41.30200
N  49.90200 46.62100 42.25500
C  51.14800 46.24300 41.94700
C  52.14600 47.38000 41.86800
C  51.34100 48.56400 42.49700
C  49.89900 47.95300 42.44100
C  53.55800 47.17500 42.49800
C  51.30300 49.99300 41.81400
C  51.55700 51.18500 42.73700
N  47.07100 46.93000 42.73300
C  47.39200 48.23000 42.99200
C  46.19800 49.01500 43.20200
C  45.18500 48.17600 42.79100
C  45.71600 46.92800 42.55100
C  46.07800 50.47600 43.75900
C  43.79100 48.09800 42.63000
O  42.86400 48.90700 42.82700
C  43.62000 46.68700 41.92900
C  42.37200 45.98700 42.58300
O  41.51400 45.34000 41.97200
O  42.32200 46.13300 43.91900
C  41.31500 45.31200 44.53600
H  47.45700 40.96800 42.13300
H  52.66500 44.78400 41.76700
H  48.73100 49.77100 43.03900
H  43.36000 43.50900 41.83700
H  45.13800 41.44000 41.04400
H  44.22100 40.58900 42.71200
H  43.76700 42.12700 43.59600
H  45.36900 41.29500 43.81500
H  42.89400 43.87800 39.70800
H  43.53100 42.40200 39.61300
H  45.74400 43.56000 38.87400
H  44.72400 45.08000 38.87800
H  49.18600 39.77300 41.68200
H  50.08800 39.76500 43.15400
H  50.85200 39.40400 41.51400
H  54.09700 43.42700 42.08400
H  53.87400 43.28200 40.40500
H  54.93200 42.18300 41.03800
H  52.23200 47.70200 40.83000
H  51.70700 48.69800 43.51500
H  53.59800 46.27100 43.10500
H  53.73700 47.91500 43.27800
H  54.36000 47.18000 41.76100
H  50.38500 50.25400 41.28700
H  52.05400 49.85400 41.03600
H  51.05800 51.02800 43.69200
H  51.11600 52.00600 42.17100
H  52.62900 51.38200 42.78200
H  46.56500 51.24400 43.15700
H  46.52700 50.46600 44.75200
H  45.00400 50.66300 43.76800
H  43.49800 46.91700 40.87000
H  41.47300 44.24500 44.37800
H  40.29200 45.51100 44.21700
H  41.41400 45.47200 45.61000

