158

Mg 1.23500 -1.24000 44.40100
C  4.49400 -0.30600 43.71400
C  0.12100 1.78200 43.31400
C  -1.88000 -2.54200 44.39000
C  2.46500 -4.50000 45.02000
N  2.20400 0.48300 43.52600
C  3.49800 0.66200 43.34000
C  3.79500 1.97200 42.60900
C  2.49400 2.68900 42.91400
C  1.52200 1.59500 43.27600
C  2.44800 3.76200 44.04300
C  4.03800 1.77000 41.07700
C  5.09900 2.72300 40.56200
H  4.92500 3.11900 39.06000
N  -0.67700 -0.47600 43.82100
C  -0.92300 0.82100 43.49900
C  -2.36600 1.00300 43.41300
C  -2.94100 -0.32500 43.62800
C  -1.86400 -1.20600 43.95500
C  -3.03000 2.34000 43.04600
C  -4.36600 -0.60500 43.47300
O  -5.16600 0.34200 43.43600
C  -5.03800 -2.01300 43.41000
N  0.44000 -3.30700 44.69700
C  -0.91800 -3.52900 44.62600
C  -1.27700 -5.02500 45.04400
C  0.15100 -5.62700 45.24600
C  1.08800 -4.44900 44.96000
C  -2.26600 -5.25100 46.26300
C  0.50300 -6.75400 44.22800
C  1.46700 -7.88500 44.80200
N  3.11500 -2.20800 44.54900
C  3.47000 -3.51600 44.90200
C  4.92600 -3.57300 45.12400
C  5.36600 -2.31000 44.57100
C  4.22000 -1.55300 44.30200
C  5.72800 -4.68500 45.50100
C  6.55200 -1.50900 44.20200
O  7.74400 -1.77000 44.29400
C  5.97400 -0.15400 43.59100
C  6.49700 0.99100 44.42000
O  6.28800 1.07500 45.61200
O  7.12200 1.95900 43.69200
C  7.63300 3.07100 44.49100
H  -0.12200 2.79200 42.97900
H  -2.84700 -3.04200 44.47200
H  2.83800 -5.46200 45.38000
H  4.55200 2.59100 43.09100
H  2.19500 3.25800 42.03400
H  3.40500 4.00900 44.50200
H  1.94300 3.32000 44.90100
H  1.78100 4.57000 43.74000
H  3.18400 1.85900 40.40600
H  4.42600 0.76000 40.94300
H  6.02000 2.14300 40.50200
H  5.32400 3.65000 41.08900
H  -3.96700 2.52200 43.57300
H  -3.22000 2.29100 41.97400
H  -2.24800 3.06500 43.27000
H  -6.07500 -1.96800 43.07600
H  -5.03500 -2.55700 44.35500
H  -4.39000 -2.68100 42.84300
H  -1.73400 -5.44500 44.14900
H  0.30800 -5.94700 46.27600
H  -2.60500 -4.26500 46.58000
H  -1.87200 -5.79100 47.12400
H  -3.14700 -5.79300 45.91900
H  0.97200 -6.36000 43.32700
H  -0.39700 -7.23800 43.84900
H  1.68600 -7.72500 45.85700
H  2.38500 -7.81500 44.22000
H  1.04700 -8.87900 44.64400
H  5.17800 -5.44800 46.05100
H  6.52900 -4.20300 46.06200
H  6.09600 -5.20600 44.61700
H  6.32300 -0.10800 42.55900
H  6.89300 3.79600 44.82900
H  8.40000 3.61400 43.93900
H  8.03600 2.69200 45.43000
Mg 49.42200 35.86800 27.14700
C  47.37200 34.34400 29.46800
C  50.23000 38.30300 29.39600
C  51.52400 37.21200 24.76400
C  48.83500 33.35800 24.87800
N  48.79100 36.25500 29.16000
C  48.05300 35.47600 30.01300
C  48.23600 35.97900 31.49200
C  48.90100 37.40100 31.41500
C  49.35200 37.33500 29.88000
C  48.16700 38.68700 31.79000
C  49.13800 35.03000 32.34500
C  48.94700 34.89100 33.91200
H  48.06300 35.85500 34.57800
N  50.62500 37.62400 26.98100
C  50.82800 38.47700 28.05000
C  51.74300 39.48200 27.70400
C  52.27900 39.20500 26.40600
C  51.49800 37.92900 25.98400
C  52.05600 40.70100 28.65000
C  53.30800 39.91200 25.51600
O  53.63300 39.43500 24.44100
C  54.04600 41.14500 26.04400
N  49.86900 35.52800 24.97100
C  50.83500 36.14700 24.26900
C  51.06800 35.55900 22.85700
C  50.42400 34.19000 23.08500
C  49.67200 34.38800 24.37200
C  50.26900 36.42800 21.89100
C  51.38400 33.00400 23.19400
C  51.51800 32.26000 21.91400
N  48.21900 34.24800 27.09800
C  48.15600 33.32800 26.14100
C  47.34600 32.19600 26.65700
C  46.94400 32.60000 27.94000
C  47.52200 33.82700 28.19200
C  47.15500 30.88100 25.90300
C  46.21100 32.19900 29.04500
O  45.55800 31.11800 29.23300
C  46.34000 33.42600 30.01700
C  46.51600 32.79600 31.42300
O  47.42000 32.06100 31.85400
O  45.38000 33.17300 32.12300
C  45.37900 32.61900 33.51500
H  50.71200 38.92200 30.15600
H  52.42500 37.49100 24.21300
H  48.70500 32.43700 24.30700
H  47.31200 36.18200 32.03300
H  49.75700 37.41400 32.09000
H  48.63600 39.19100 32.63500
H  47.15100 38.43900 32.09700
H  48.01900 39.40400 30.98300
H  50.17500 35.21200 32.06400
H  49.02000 34.00100 32.00600
H  49.92800 34.95000 34.38400
H  48.52000 33.89400 34.02900
H  52.37900 41.59400 28.11500
H  52.84500 40.49700 29.37500
H  51.15100 41.01800 29.16700
H  53.37400 42.00100 26.10600
H  54.90300 41.53000 25.49100
H  54.44000 40.84400 27.01500
H  52.11100 35.51400 22.54500
H  49.78000 34.15100 22.20600
H  50.50500 37.39500 22.33500
H  49.19400 36.29200 22.01400
H  50.66900 36.50500 20.88000
H  51.09300 32.20200 23.87200
H  52.33700 33.46400 23.45700
H  50.54800 32.20100 21.41900
H  52.01800 31.29300 21.86400
H  52.01600 33.01900 21.31100
H  48.06200 30.47700 25.45500
H  46.39200 31.07000 25.14800
H  46.76700 30.17400 26.63600
H  45.33400 33.84200 29.96000
H  45.29700 31.53300 33.46600
H  44.51500 33.00300 34.05600
H  46.27900 32.96300 34.02600

