158

Mg 50.34600 45.17900 42.70800
C  47.19400 46.05100 41.58800
C  50.02800 42.10100 41.70200
C  53.74800 44.90100 42.94200
C  50.85200 48.78100 43.16600
N  48.86400 44.28000 41.66900
C  47.55200 44.74200 41.37900
C  46.65500 43.67300 40.77600
C  47.64600 42.39800 40.81600
C  48.92000 42.92700 41.46100
C  47.04200 41.18300 41.64900
C  46.27000 44.03200 39.28400
C  47.31900 44.65600 38.35500
H  47.82300 43.86100 37.16100
N  51.71400 43.66900 42.48500
C  51.34400 42.38100 42.09300
C  52.50000 41.48300 41.98800
C  53.61000 42.31600 42.39200
C  53.03500 43.67800 42.67200
C  52.33200 40.02000 41.62600
C  55.04000 41.72200 42.55800
O  55.25800 40.60500 42.19800
C  56.09600 42.47500 43.34800
N  51.99300 46.69400 43.01300
C  53.29900 46.21300 43.20900
C  54.22000 47.48200 43.37600
C  53.28600 48.68100 43.65700
C  51.98300 48.02700 43.17800
C  55.33500 47.46500 44.48900
C  53.65100 50.16300 43.17700
C  53.93400 51.09000 44.33400
N  49.29900 47.11800 42.36500
C  49.57600 48.45800 42.72000
C  48.33200 49.24100 42.67300
C  47.36400 48.28400 42.26900
C  47.96700 47.05700 42.06200
C  48.18200 50.63500 43.24800
C  45.95900 48.16100 41.84700
O  45.09500 48.97300 41.63700
C  45.73500 46.66900 41.54900
C  44.76900 46.07300 42.48800
O  43.56300 45.93600 42.23400
O  45.34300 45.63700 43.68000
C  44.39000 45.07400 44.62300
H  49.82300 41.10500 41.30500
H  54.83000 44.76000 42.89700
H  50.86100 49.85600 43.36100
H  45.78400 43.45800 41.39500
H  47.84900 41.95500 39.84100
H  46.21000 41.54500 42.25200
H  47.74600 40.94100 42.44600
H  46.94900 40.38100 40.91700
H  45.48500 44.77200 39.43900
H  45.81900 43.09500 38.95600
H  48.28800 44.71700 38.85200
H  47.00300 45.61000 37.93300
H  52.95000 39.71600 40.78100
H  51.28400 39.83100 41.39300
H  52.58400 39.49200 42.54500
H  56.61900 43.20900 42.73600
H  56.82500 41.74600 43.70100
H  55.61200 42.92800 44.21400
H  54.74700 47.46600 42.42100
H  53.10000 48.72300 44.73000
H  56.22900 47.12000 43.96900
H  55.08100 46.66700 45.18800
H  55.53200 48.45300 44.90600
H  52.86900 50.55200 42.52600
H  54.54500 50.15700 42.55200
H  54.55700 50.54600 45.04400
H  52.94800 51.29700 44.75100
H  54.46300 51.93000 43.88300
H  48.75000 51.19500 42.50500
H  48.61800 50.77300 44.23700
H  47.14200 50.96100 43.29600
H  45.30600 46.52100 40.55800
H  44.97300 44.55600 45.38500
H  43.63200 44.40300 44.21700
H  43.85700 45.85300 45.16900
Mg 27.43300 50.45100 26.80400
C  25.13500 51.37700 29.16100
C  29.75500 50.27000 29.19700
C  29.73400 50.12100 24.26900
C  25.07900 51.31500 24.33500
N  27.44100 50.76500 28.90400
C  26.34100 50.89000 29.66200
C  26.59600 50.69700 31.16400
C  28.15700 50.30700 31.16000
C  28.48000 50.50000 29.69100
C  29.03800 51.05700 32.17100
C  25.65000 49.63300 31.89400
C  24.85900 50.19400 33.09800
H  24.80300 49.47900 34.40600
N  29.46800 50.04100 26.75100
C  30.24900 50.04300 27.86800
C  31.61200 49.90800 27.49300
C  31.65300 49.80500 26.07500
C  30.21900 49.95400 25.58900
C  32.71400 49.98700 28.48100
C  32.84400 49.62300 25.13300
O  32.76100 49.80200 23.90500
C  34.20000 49.27400 25.78400
N  27.39100 50.56000 24.70800
C  28.40500 50.32900 23.92300
C  28.02600 50.42500 22.43300
C  26.50400 50.66800 22.42100
C  26.32900 50.78600 23.94900
C  28.99100 51.30600 21.62900
C  25.71200 49.53800 21.73000
C  25.66100 48.27400 22.54800
N  25.45600 51.23900 26.70100
C  24.61000 51.52400 25.68600
C  23.37200 52.07900 26.17300
C  23.53400 51.97400 27.55900
C  24.78800 51.51300 27.80100
C  22.21300 52.50400 25.35400
C  22.79300 52.19500 28.78800
O  21.65900 52.59700 28.99500
C  23.84700 51.73800 29.91200
C  24.03700 52.85500 30.84200
O  24.89700 53.74200 30.73800
O  23.22400 52.72600 31.92300
C  23.44400 53.79400 32.94500
H  30.48900 50.14200 29.99600
H  30.52900 49.95300 23.54000
H  24.35300 51.54400 23.55300
H  26.47800 51.61100 31.74600
H  28.22100 49.22700 31.28800
H  29.42100 50.32500 32.88300
H  28.47500 51.85000 32.66300
H  29.91600 51.46900 31.67400
H  26.26500 48.75200 32.08100
H  24.84900 49.33900 31.21600
H  23.82500 50.43200 32.84700
H  25.26200 51.17000 33.36700
H  33.05300 48.99900 28.79500
H  32.36100 50.52000 29.36400
H  33.67400 50.35700 28.12300
H  34.92000 48.94500 25.03600
H  34.11700 48.45900 26.50400
H  34.71100 50.12700 26.23100
H  28.12300 49.39300 22.09600
H  26.49500 51.68100 22.02000
H  29.87000 51.65000 22.17300
H  28.40700 52.10300 21.16700
H  29.26600 50.53600 20.90900
H  26.22100 49.30500 20.79500
H  24.72700 49.91000 21.44800
H  25.64700 47.45700 21.82600
H  24.71400 48.17900 23.08000
H  26.46200 48.13700 23.27400
H  22.22100 53.59000 25.44900
H  21.21100 52.18200 25.63800
H  22.42400 52.33300 24.29900
H  23.46000 50.90300 30.49400
H  23.59900 54.80000 32.55700
H  24.23300 53.40700 33.59000
H  22.49900 54.00700 33.44500

