158

Mg -1.98900 18.15900 27.44800
C  -2.55900 16.02400 30.22000
C  -2.71500 20.88800 29.44300
C  -2.36900 20.02000 24.68100
C  -1.98100 15.32300 25.50300
N  -2.56900 18.40700 29.55600
C  -2.61400 17.37000 30.57100
C  -2.71900 17.91200 31.97800
C  -3.11200 19.43700 31.63700
C  -2.75900 19.62100 30.12200
C  -4.57500 19.79700 32.00200
C  -1.43000 17.87800 32.88600
C  -1.57300 17.10400 34.26000
H  -0.43200 17.15800 35.19000
N  -2.22200 20.22500 27.09900
C  -2.55600 21.16800 28.08100
C  -2.66300 22.49000 27.40800
C  -2.37800 22.23000 26.03600
C  -2.29100 20.76300 25.83000
C  -2.98600 23.74600 28.20300
C  -2.29000 23.27800 24.88900
O  -1.98000 22.94500 23.79500
C  -2.30200 24.74300 25.15900
N  -2.10100 17.69600 25.37200
C  -2.31200 18.68700 24.44700
C  -2.32600 18.08600 22.99000
C  -2.29400 16.59000 23.32600
C  -1.97600 16.49800 24.80800
C  -3.51100 18.46100 22.09600
C  -1.31400 15.71400 22.45000
C  0.15200 15.55200 22.88500
N  -2.11300 16.11800 27.72700
C  -2.06900 15.10400 26.87700
C  -2.06800 13.78800 27.50900
C  -2.30000 14.13700 28.83100
C  -2.27700 15.55700 28.92700
C  -1.92900 12.39400 26.99900
C  -2.53700 13.58000 30.09100
O  -2.65100 12.43900 30.35800
C  -2.70200 14.77700 31.16500
C  -1.73300 14.59000 32.23800
O  -0.62500 15.02600 32.27600
O  -2.26500 13.74000 33.14500
C  -1.28300 13.08000 34.08000
H  -2.90800 21.62900 30.22200
H  -2.54500 20.58500 23.76300
H  -2.19600 14.39000 24.97700
H  -3.55800 17.44100 32.49100
H  -2.48300 20.09500 32.23600
H  -4.63700 20.60300 32.73300
H  -5.11500 18.92000 32.35800
H  -5.01500 20.26700 31.12200
H  -1.11500 18.85300 33.25900
H  -0.59300 17.45900 32.32700
H  -1.99200 16.09900 34.21000
H  -2.29100 17.63600 34.88400
H  -4.00700 23.88600 27.84700
H  -2.33400 24.57400 27.92500
H  -2.97100 23.56900 29.27800
H  -2.48600 25.43600 24.33700
H  -1.35000 24.96500 25.64100
H  -3.11600 25.04200 25.82000
H  -1.33000 18.32400 22.61800
H  -3.26900 16.10800 23.25200
H  -4.27800 17.69100 22.01700
H  -3.20200 18.77000 21.09700
H  -4.11300 19.30600 22.43200
H  -1.24200 16.12200 21.44100
H  -1.79600 14.73800 22.39000
H  0.31100 14.48900 23.06700
H  0.23800 15.92400 23.90700
H  0.90200 15.99000 22.22600
H  -1.02600 12.15600 26.43700
H  -2.85100 12.19400 26.45200
H  -1.96900 11.73400 27.86600
H  -3.71100 14.94700 31.54200
H  -0.77000 12.30300 33.51400
H  -1.83600 12.65000 34.91500
H  -0.50800 13.66500 34.57600
Mg 55.83600 24.40400 45.05200
C  53.12800 26.15700 43.49000
C  54.40300 21.38400 43.96400
C  58.70700 22.85900 45.69500
C  57.29700 27.56400 45.59400
N  54.11200 23.88900 43.64800
C  53.06900 24.72600 43.28500
C  51.85300 23.86600 42.82000
C  52.22400 22.44800 43.23800
C  53.69800 22.53900 43.56400
C  51.29300 21.87700 44.31900
C  51.43600 23.99000 41.29800
C  49.87100 24.06000 41.10400
H  49.48300 23.28600 39.90200
N  56.42800 22.41400 44.91200
C  55.71500 21.34200 44.44300
C  56.47900 20.09400 44.55900
C  57.70700 20.50400 45.03000
C  57.66200 21.98000 45.27900
C  56.01700 18.75100 43.98300
C  58.95500 19.60500 45.19000
O  58.91000 18.42200 44.94000
C  60.29300 20.07600 45.73200
N  57.64300 25.12900 45.86900
C  58.74100 24.25000 46.01000
C  60.01900 25.03700 46.30100
C  59.58400 26.57700 46.14000
C  58.07900 26.45500 45.89600
C  60.79400 24.75900 47.57900
C  60.32400 27.39100 44.94600
C  59.79300 27.18400 43.54900
N  55.31500 26.47300 44.67000
C  55.98900 27.61400 45.05400
C  55.06200 28.79200 44.96900
C  53.96700 28.25400 44.31400
C  54.15100 26.87600 44.11800
C  55.30500 30.20700 45.25800
C  52.63400 28.56000 43.76000
O  51.97300 29.59900 43.73200
C  52.14600 27.17200 43.25600
C  51.82400 27.49700 41.79500
O  52.56600 27.47300 40.86900
O  50.48300 27.68100 41.70000
C  49.83600 27.91100 40.37900
H  53.87700 20.44200 43.79600
H  59.73000 22.48500 45.77000
H  57.86000 28.49400 45.70000
H  51.06800 24.27400 43.45700
H  52.30000 21.76400 42.39300
H  50.39100 22.46800 44.47900
H  51.87200 21.81700 45.24000
H  50.78200 20.96600 44.00500
H  51.94300 23.18500 40.76600
H  51.89900 24.94700 41.05900
H  49.38700 25.03100 41.00100
H  49.54100 23.61700 42.04400
H  56.75600 18.34100 43.29400
H  55.00400 18.80900 43.58400
H  55.93800 18.01300 44.78100
H  60.76000 20.91200 45.21100
H  61.06000 19.31200 45.60800
H  60.05300 20.31800 46.76700
H  60.70300 24.77800 45.49300
H  59.71200 27.14000 47.06400
H  60.77400 23.69300 47.80300
H  60.32400 25.30200 48.39800
H  61.85100 24.99400 47.44700
H  61.40000 27.21700 44.95200
H  60.16300 28.40100 45.32200
H  60.61700 26.90800 42.89000
H  59.34500 28.10600 43.17700
H  59.07100 26.38200 43.39300
H  55.20700 30.62300 44.25500
H  56.36400 30.44700 45.35100
H  54.69100 30.72700 45.99400
H  51.23500 26.81200 43.73400
H  50.54800 28.45500 39.75900
H  48.97300 28.56200 40.51700
H  49.40300 27.09900 39.79400

