158

Mg 16.10300 -1.43700 28.18000
C  15.30000 0.60400 30.92500
C  18.39600 -3.05400 30.08200
C  16.94600 -3.18400 25.39500
C  14.54900 0.86700 26.12000
N  16.81800 -1.12900 30.30400
C  16.22200 -0.38100 31.27600
C  16.92700 -0.64400 32.60300
C  18.04700 -1.66400 32.24800
C  17.73000 -2.03300 30.81100
C  19.57400 -1.27500 32.41800
C  15.99000 -1.11300 33.77300
C  16.53700 -1.62800 35.01500
H  17.72100 -0.87600 35.74700
N  17.37400 -2.95300 27.84800
C  18.24200 -3.48000 28.72900
C  18.96000 -4.54500 28.08600
C  18.44200 -4.72100 26.82900
C  17.55300 -3.58600 26.62300
C  19.94100 -5.34100 28.86000
C  18.77200 -5.75200 25.71400
O  18.31600 -5.73800 24.60800
C  19.71500 -6.81300 25.99900
N  15.95300 -1.10000 26.01800
C  16.37100 -1.96700 25.10000
C  15.93300 -1.65700 23.71600
C  14.97700 -0.45400 23.92400
C  15.14100 -0.23600 25.43900
C  17.15900 -1.34500 22.75600
C  13.48000 -0.71400 23.53400
C  12.88900 0.05200 22.38100
N  15.11300 0.38800 28.47300
C  14.46800 1.16300 27.49300
C  13.77100 2.20300 28.11700
C  14.11500 2.03300 29.48600
C  14.83200 0.91100 29.61900
C  13.22200 3.35400 27.46400
C  13.99900 2.64600 30.76500
O  13.49700 3.62900 31.23100
C  14.71300 1.65200 31.77800
C  15.71500 2.34300 32.50800
O  16.69300 2.89300 31.97100
O  15.45300 2.32600 33.81600
C  16.32000 3.12600 34.69300
H  19.20200 -3.54100 30.63400
H  17.25200 -3.64700 24.45400
H  14.08000 1.60100 25.46200
H  17.32200 0.25600 33.07400
H  17.81700 -2.61300 32.73200
H  20.10900 -2.03400 32.98900
H  19.44800 -0.26900 32.81800
H  20.03700 -1.22100 31.43200
H  15.47800 -1.93300 33.26800
H  15.19700 -0.40000 34.00100
H  16.78300 -2.68500 34.91000
H  15.69500 -1.57500 35.70600
H  19.59300 -6.26900 29.31500
H  20.38000 -4.76900 29.67700
H  20.76600 -5.51300 28.17000
H  20.75800 -6.54300 26.16800
H  19.75300 -7.67800 25.33800
H  19.26800 -7.20400 26.91300
H  15.32800 -2.49100 23.36100
H  15.25300 0.48800 23.45000
H  17.21400 -0.26600 22.61700
H  17.13200 -1.80200 21.76700
H  18.11800 -1.52900 23.24000
H  12.89700 -0.75400 24.45400
H  13.46200 -1.73200 23.14500
H  12.49900 1.01300 22.71500
H  12.06200 -0.44900 21.87800
H  13.66500 0.15300 21.62100
H  13.11500 4.15300 28.19800
H  12.21600 3.11600 27.11800
H  13.75600 3.65300 26.56200
H  14.01000 1.21600 32.48800
H  15.94200 3.19300 35.71300
H  16.43000 4.10200 34.21900
H  17.27200 2.59800 34.72700
Mg 36.09700 49.32400 25.07900
C  36.06400 47.48900 27.98100
C  34.84800 52.03800 26.58400
C  35.77900 50.83700 22.00100
C  36.90700 46.32200 23.35700
N  35.62800 49.70400 27.15800
C  35.71800 48.85200 28.18600
C  35.20600 49.59800 29.43700
C  34.66800 51.02500 28.91000
C  35.06300 50.93400 27.44800
C  33.14700 51.28000 29.21500
C  36.23100 49.65800 30.56400
C  35.61400 49.63900 32.01000
H  34.15100 49.92700 32.36500
N  35.50700 51.22000 24.40300
C  35.06000 52.22000 25.19700
C  34.80400 53.45300 24.41400
C  35.18200 53.09100 23.09600
C  35.51200 51.65500 23.07700
C  34.29600 54.64600 25.11600
C  35.22000 53.99200 21.86100
O  35.58200 53.53900 20.77000
C  34.97000 55.47300 21.97000
N  36.26100 48.63200 22.95700
C  35.98800 49.42400 21.92800
C  36.20100 48.77800 20.62700
C  36.73600 47.38700 21.03900
C  36.67000 47.47300 22.52200
C  34.96500 48.77700 19.65900
C  38.15100 47.03400 20.42500
C  39.39800 47.88600 20.92200
N  36.52000 47.29100 25.54600
C  36.77500 46.24300 24.72500
C  36.89400 45.06500 25.56100
C  36.63900 45.51200 26.84200
C  36.43600 46.86100 26.79300
C  37.33700 43.76400 25.05200
C  36.58700 45.10000 28.20800
O  36.71100 43.98900 28.73400
C  36.21200 46.38100 29.03100
C  34.96200 46.12900 29.88600
O  33.82900 45.94500 29.46900
O  35.26600 46.21200 31.22300
C  34.20900 45.92100 32.19000
H  34.67300 52.93000 27.18900
H  35.81700 51.31700 21.02100
H  37.10100 45.41600 22.77900
H  34.40900 49.01600 29.89900
H  35.26000 51.84200 29.32300
H  32.56500 51.08800 28.31400
H  32.97700 52.32200 29.48400
H  32.79000 50.62700 30.01200
H  36.77300 50.59500 30.43300
H  37.02700 48.92000 30.47100
H  36.23900 50.33700 32.56700
H  35.89000 48.64100 32.35100
H  33.77100 55.42700 24.56500
H  35.16400 55.03300 25.65000
H  33.74500 54.37300 26.01700
H  33.88700 55.58000 21.90800
H  35.58800 55.84200 21.15200
H  35.48200 55.76200 22.88800
H  36.99700 49.22400 20.03000
H  36.12700 46.54200 20.71800
H  34.03400 48.47200 20.13600
H  35.17300 48.25500 18.72500
H  34.81700 49.80000 19.31300
H  38.06700 47.23700 19.35700
H  38.38900 45.97800 20.55400
H  39.81300 48.41200 20.06200
H  40.20800 47.21200 21.19900
H  39.16000 48.61000 21.70000
H  38.23000 43.93600 24.45000
H  36.58800 43.21500 24.48200
H  37.51500 43.12500 25.91600
H  37.09300 46.57000 29.64400
H  34.64600 46.07600 33.17600
H  34.03600 44.85800 32.02000
H  33.25100 46.44100 32.15300

