158

Mg 48.96900 13.94000 27.96500
C  47.21500 14.44400 30.94100
C  51.57300 15.66100 29.19300
C  50.64200 13.47000 25.00900
C  46.24500 12.03800 26.71200
N  49.33300 14.99900 29.82100
C  48.48500 15.07800 30.90300
C  49.17700 15.52000 32.17700
C  50.40500 16.27600 31.43400
C  50.45800 15.63500 30.03500
C  50.28800 17.82800 31.34000
C  49.56200 14.34400 33.11700
C  49.13600 14.60900 34.62100
H  49.10100 16.09200 35.19000
N  50.84200 14.47600 27.18500
C  51.79200 15.14100 27.86000
C  52.90900 15.42500 27.04500
C  52.74800 14.55000 25.94600
C  51.39600 14.08200 26.02300
C  54.06100 16.40000 27.35300
C  53.81100 14.09600 24.89900
O  53.51900 13.33800 23.95700
C  55.27300 14.44800 24.98500
N  48.52400 12.97800 26.03300
C  49.35600 12.93500 24.92100
C  48.77300 12.09200 23.78800
C  47.43100 11.59500 24.42400
C  47.38000 12.28700 25.83700
C  48.66400 12.63900 22.40600
C  47.32300 10.02300 24.52900
C  48.27400 9.32300 25.55400
N  47.07500 13.45500 28.63100
C  46.07900 12.69100 28.03800
C  44.95900 12.54800 28.95300
C  45.33000 13.24600 30.09000
C  46.68200 13.74800 29.82500
C  43.77900 11.68900 28.77400
C  44.82800 13.53000 31.43000
O  43.76700 13.31500 31.99000
C  46.06600 14.38300 31.99700
C  45.38500 15.62900 32.33000
O  44.44900 16.14700 31.70900
O  45.94800 16.19200 33.44200
C  45.60400 17.52900 33.75400
H  52.44200 16.22300 29.54000
H  51.22900 13.37200 24.09400
H  45.41100 11.51700 26.23800
H  48.43700 16.23100 32.54400
H  51.32800 15.97200 31.92700
H  51.20000 18.18700 31.81700
H  49.43900 18.13200 31.95100
H  50.22700 18.23800 30.33100
H  50.62600 14.13000 33.21500
H  49.05300 13.41500 32.86200
H  49.80300 13.97800 35.20900
H  48.12200 14.28300 34.85600
H  54.90100 15.94600 27.87900
H  53.68300 17.33900 27.75700
H  54.55900 16.79300 26.46600
H  55.32300 15.53700 24.97000
H  55.69100 13.89900 24.14100
H  55.45300 13.97700 25.95100
H  49.41000 11.20800 23.75100
H  46.49900 11.92200 23.96200
H  49.23500 11.94400 21.79000
H  49.12300 13.62400 22.48900
H  47.64300 12.63600 22.02500
H  47.71200 9.65800 23.57900
H  46.28400 9.76700 24.73800
H  47.65100 8.80500 26.28300
H  48.87200 10.06300 26.08700
H  48.88200 8.69400 24.90300
H  43.13100 11.72400 29.65000
H  44.21600 10.70900 28.58500
H  43.20700 12.04600 27.91800
H  46.47100 13.92300 32.89800
H  44.52600 17.68200 33.71100
H  46.01700 18.21500 33.01400
H  46.00600 17.70900 34.75100
Mg 41.29000 40.92500 26.10000
C  40.59500 43.28800 28.67100
C  42.45900 38.83000 28.48600
C  42.11900 38.80300 23.66100
C  40.38800 43.36200 23.76400
N  41.36700 41.06100 28.32900
C  41.09000 42.09200 29.19300
C  41.22700 41.70600 30.66600
C  41.97200 40.29900 30.57600
C  41.97500 40.02800 29.03300
C  43.44900 40.28800 31.15100
C  39.85600 41.72700 31.44600
C  39.63100 42.86500 32.39800
H  39.59400 42.24900 33.77000
N  42.08400 39.11700 26.03900
C  42.48800 38.35300 27.13100
C  42.98400 37.03100 26.70000
C  43.13600 37.11000 25.27100
C  42.42900 38.37900 24.86300
C  43.54200 35.97900 27.67500
C  43.60700 36.12900 24.21300
O  43.69100 36.34900 23.02300
C  44.03500 34.85000 24.68400
N  41.27300 41.08500 24.02700
C  41.51600 39.98100 23.24300
C  41.19800 40.32600 21.69400
C  40.38300 41.62100 21.88500
C  40.73200 42.06800 23.31200
C  42.47100 40.51700 20.87100
C  38.82100 41.38300 21.66700
C  38.10200 40.56000 22.81800
N  40.60900 42.91900 26.19400
C  40.28800 43.70300 25.12800
C  39.95700 45.04500 25.64000
C  40.02900 44.84500 27.01200
C  40.45700 43.56700 27.33200
C  39.63200 46.25500 24.76200
C  39.81600 45.59200 28.29200
O  39.45700 46.72300 28.45800
C  40.20500 44.54800 29.40700
C  41.32900 45.18600 30.15000
O  42.44700 44.98000 29.84100
O  40.93400 45.89500 31.24200
C  42.03100 46.40300 32.09000
H  42.78200 38.10700 29.23900
H  42.09700 38.12200 22.80800
H  40.09800 44.10400 23.01800
H  41.92200 42.46900 31.01500
H  41.45600 39.52700 31.14600
H  43.72600 41.24000 31.60600
H  44.09200 40.02000 30.31200
H  43.54500 39.47700 31.87200
H  39.80200 40.77500 31.97300
H  38.99900 41.78700 30.77400
H  38.75800 43.46800 32.15000
H  40.40200 43.63500 32.40100
H  44.60100 36.23100 27.73000
H  43.44400 34.95600 27.31300
H  43.14500 36.17400 28.67100
H  44.69900 35.00100 25.53500
H  44.60100 34.32800 23.91300
H  43.10900 34.30000 24.84900
H  40.48600 39.62600 21.25800
H  40.67300 42.41700 21.19900
H  43.32700 40.16500 21.44700
H  42.55200 41.54800 20.52700
H  42.40400 39.85300 20.00900
H  38.60600 40.82300 20.75700
H  38.33400 42.35700 21.72300
H  38.26100 41.03600 23.78600
H  38.42100 39.52000 22.74900
H  37.02000 40.49400 22.70000
H  38.82500 46.83600 25.20700
H  39.27100 45.75500 23.86300
H  40.45800 46.90000 24.46400
H  39.40300 44.33500 30.11300
H  42.72200 46.90100 31.41000
H  42.57900 45.66600 32.67500
H  41.62600 47.19600 32.71900

