158

Mg -0.07200 8.09500 25.00200
C  0.95900 9.81100 27.96200
C  0.27400 5.15100 26.78800
C  -0.56100 6.42900 22.22100
C  0.63100 11.09800 23.16700
N  0.61000 7.57500 27.21200
C  0.80700 8.39400 28.26300
C  0.94100 7.64100 29.58900
C  0.73500 6.18100 29.09100
C  0.55100 6.28600 27.58300
C  1.87200 5.20800 29.55200
C  -0.06100 8.14700 30.69100
C  0.31800 8.44200 32.06700
H  0.89400 7.28800 32.87000
N  -0.24900 6.05000 24.55300
C  -0.08700 5.01600 25.42600
C  -0.38800 3.85100 24.74600
C  -0.66000 4.21700 23.37700
C  -0.48000 5.61300 23.29500
C  -0.26400 2.53900 25.49500
C  -0.96300 3.28400 22.16600
O  -1.20700 3.70400 21.01200
C  -0.82800 1.77200 22.42700
N  0.03200 8.74600 22.98400
C  -0.36200 7.78900 22.02500
C  -0.43900 8.48500 20.69900
C  -0.18900 10.00300 21.01000
C  0.20900 9.96200 22.45600
C  0.55800 7.89400 19.67000
C  -1.57500 10.74400 20.99600
C  -2.15800 11.20700 19.62500
N  0.51100 10.07700 25.48100
C  0.77700 11.15600 24.63500
C  1.10200 12.26700 25.41100
C  1.10300 11.79100 26.73000
C  0.81000 10.45400 26.68500
C  1.33300 13.66500 24.80300
C  1.33300 12.23500 28.08700
O  1.68400 13.29000 28.64100
C  1.19700 10.95000 28.95400
C  2.37600 10.84300 29.86400
O  3.38800 10.19700 29.63700
O  2.00700 11.40000 31.04200
C  3.05900 11.46300 32.12400
H  -0.04400 4.28900 27.37800
H  -0.97000 6.02900 21.29100
H  0.83300 12.01200 22.60500
H  1.95400 7.88200 29.91000
H  -0.24400 5.83600 29.42200
H  2.49300 5.64900 30.33200
H  2.46900 5.12000 28.64500
H  1.38800 4.27000 29.82500
H  -0.89100 7.44000 30.67700
H  -0.47500 9.06700 30.27800
H  -0.56100 8.88300 32.53700
H  1.01300 9.27000 31.92800
H  0.41300 1.86600 24.97000
H  -1.27100 2.12900 25.57300
H  0.20200 2.63200 26.47600
H  0.17900 1.37700 22.56300
H  -1.22200 1.16800 21.60900
H  -1.26300 1.47500 23.38100
H  -1.45000 8.28000 20.34700
H  0.51000 10.61200 20.43600
H  0.76400 6.85400 19.92500
H  1.48400 8.46900 19.67100
H  0.03000 7.93000 18.71700
H  -1.52700 11.58700 21.68600
H  -2.26100 10.01800 21.43200
H  -1.52000 10.87400 18.80500
H  -2.26800 12.29100 19.65300
H  -3.15800 10.81900 19.43000
H  1.24100 13.68200 23.71700
H  2.33700 13.92200 25.13900
H  0.66500 14.38500 25.27600
H  0.27400 11.21300 29.47000
H  2.65300 11.14000 33.08200
H  3.47200 12.45700 32.29600
H  3.90700 10.81100 31.91200
Mg 35.36600 2.12700 30.22600
C  33.12400 3.25500 32.64500
C  37.91900 2.15900 32.44600
C  37.51000 1.21100 27.69200
C  32.99700 2.71400 27.84700
N  35.47000 2.73300 32.24500
C  34.43200 3.05900 33.11600
C  34.83300 2.84000 34.55400
C  36.38200 2.91900 34.41400
C  36.66600 2.62400 32.90100
C  37.04100 4.30900 34.82400
C  34.23100 1.48600 35.10700
C  33.81700 1.55800 36.58400
H  34.61300 2.48400 37.57300
N  37.38600 1.61500 30.08100
C  38.24500 1.67600 31.12100
C  39.56600 1.20700 30.81600
C  39.49400 1.00000 29.41600
C  38.10100 1.23600 28.99700
C  40.69900 1.05200 31.83800
C  40.61500 0.68700 28.44000
O  40.41700 0.54900 27.24200
C  42.01300 0.45400 29.00900
N  35.35400 1.98100 28.06900
C  36.32700 1.61400 27.19600
C  35.84900 1.49000 25.72500
C  34.36700 1.97500 25.81600
C  34.22000 2.29100 27.32400
C  36.63300 2.43100 24.78500
C  33.33500 0.85600 25.34100
C  33.16700 0.54700 23.81600
N  33.48800 2.78400 30.14800
C  32.66800 3.03500 29.11200
C  31.32400 3.26600 29.61000
C  31.42500 3.39400 31.01500
C  32.80900 3.12400 31.28400
C  30.11000 3.49500 28.79200
C  30.67200 3.70200 32.27000
O  29.52600 4.07300 32.51600
C  31.85100 3.66200 33.36200
C  31.89100 4.92800 34.09200
O  32.23300 6.04300 33.74700
O  31.56500 4.48300 35.39300
C  32.04700 5.47800 36.36900
H  38.67300 2.33800 33.21500
H  38.06700 0.96400 26.78600
H  32.19300 2.79400 27.11200
H  34.54300 3.72900 35.11400
H  36.83000 2.17400 35.07200
H  36.33200 5.03200 35.22600
H  37.55800 4.76600 33.98000
H  37.66700 3.99500 35.65900
H  34.88900 0.61700 35.08400
H  33.39000 1.21900 34.46800
H  33.77900 0.57200 37.04700
H  32.75400 1.79500 36.54900
H  40.78400 -0.02400 31.98900
H  40.43000 1.61000 32.73400
H  41.48800 1.51200 31.24300
H  42.11500 -0.11900 29.93100
H  42.53400 1.40300 29.13700
H  42.51500 -0.11800 28.22800
H  35.79200 0.43800 25.44800
H  34.18300 2.89300 25.25700
H  37.34300 3.04200 25.34200
H  35.97500 3.00000 24.12800
H  37.23800 1.86200 24.07900
H  32.35300 0.97800 25.79800
H  33.67100 -0.12800 25.66600
H  33.76700 -0.33400 23.58800
H  33.61300 1.37700 23.26700
H  32.11800 0.32700 23.62100
H  29.39000 3.92100 29.49100
H  29.73100 2.57400 28.34900
H  30.37600 4.11700 27.93800
H  31.56100 2.80500 33.96900
H  32.03300 4.96200 37.32900
H  31.39900 6.35400 36.34600
H  33.08900 5.76500 36.22900

