158

Mg 26.87900 49.87100 25.79600
C  25.00200 50.76000 28.62100
C  29.27500 48.69800 28.06000
C  29.10700 49.43800 23.24600
C  24.67600 51.48300 23.76600
N  27.09300 49.77100 28.03900
C  26.09600 50.08700 28.92600
C  26.53300 49.78700 30.38400
C  27.97800 49.39700 30.24000
C  28.11200 49.25600 28.76900
C  29.06400 50.43100 30.77700
C  25.65400 48.70200 31.15900
C  25.26600 49.00200 32.67500
H  26.33500 49.40000 33.76100
N  28.96600 49.03600 25.61600
C  29.62900 48.55500 26.67400
C  30.87600 48.01100 26.18700
C  30.88100 48.27900 24.78900
C  29.60400 48.95700 24.47000
C  31.90400 47.41500 27.03400
C  31.88300 47.81700 23.74700
O  31.81400 48.07600 22.55200
C  33.14300 47.05500 24.23600
N  27.02900 50.52200 23.82400
C  28.00400 50.22900 22.91400
C  27.55800 50.56800 21.47800
C  26.09700 51.21800 21.69400
C  25.88600 51.07000 23.17500
C  28.43900 51.58000 20.75200
C  25.09700 50.37400 20.90200
C  24.84300 48.93300 21.26300
N  25.17500 50.92600 26.02800
C  24.37000 51.60000 25.13200
C  23.23600 52.17300 25.81800
C  23.40300 51.80700 27.15800
C  24.62500 51.05800 27.24200
C  22.06300 52.92000 25.28600
C  22.78700 51.96800 28.44700
O  21.76400 52.60400 28.73900
C  23.84900 51.28200 29.48800
C  24.31500 52.26200 30.45500
O  25.14200 53.14900 30.26200
O  23.64400 51.98600 31.67300
C  23.92600 52.99900 32.71400
H  29.98800 48.22800 28.74000
H  29.79500 49.17200 22.44100
H  24.00700 52.07200 23.13500
H  26.42600 50.70800 30.95800
H  28.17500 48.36700 30.53500
H  29.75200 50.77700 30.00600
H  29.65300 49.81400 31.45500
H  28.80900 51.27400 31.42100
H  26.20200 47.76200 31.10700
H  24.74700 48.61300 30.56200
H  24.73900 48.10600 33.00400
H  24.56100 49.83300 32.66400
H  31.58400 47.18800 28.05100
H  32.70200 48.15600 27.06500
H  32.20900 46.47400 26.57600
H  33.80100 47.11100 23.36900
H  32.85000 46.05500 24.55400
H  33.72400 47.50800 25.03900
H  27.59000 49.63800 20.91000
H  26.11500 52.28800 21.48400
H  27.98600 52.57000 20.69500
H  28.73700 51.21200 19.77000
H  29.36200 51.73000 21.31200
H  25.49300 50.50500 19.89500
H  24.16300 50.93100 20.82400
H  25.13400 48.75000 22.29800
H  25.25400 48.28400 20.49000
H  23.76200 48.82400 21.18000
H  21.12600 52.92000 25.84400
H  21.81200 52.69500 24.25000
H  22.37500 53.95700 25.41500
H  23.52300 50.42300 30.07400
H  24.49800 53.85600 32.35800
H  24.45200 52.56700 33.56600
H  23.00400 53.40400 33.13100
Mg 4.85200 53.16900 42.09800
C  5.01400 49.78000 41.25600
C  7.83200 53.69900 40.47300
C  4.39700 56.49300 42.58800
C  1.55500 52.56600 43.30300
N  6.17400 51.92700 40.87900
C  6.06100 50.59300 40.73900
C  7.29800 50.09800 39.93700
C  8.30800 51.18400 40.18800
C  7.38500 52.39100 40.53600
C  9.28400 51.03900 41.42800
C  6.99200 49.92200 38.41300
C  7.62100 48.79400 37.62000
H  6.92000 48.05100 36.38800
N  5.93700 54.85300 41.57800
C  7.18200 54.83500 40.96200
C  7.70500 56.20700 40.93400
C  6.66700 57.04800 41.44200
C  5.61300 56.18000 41.93800
C  9.11100 56.55100 40.49800
C  6.68500 58.53200 41.50200
O  7.71800 59.17700 41.21100
C  5.63700 59.34000 42.10300
N  3.21200 54.33500 42.80100
C  3.31400 55.69700 42.94000
C  2.09100 56.38700 43.39600
C  1.10800 55.14700 43.56800
C  1.97500 53.89900 43.22200
C  2.25100 57.15500 44.73100
C  -0.12600 55.21900 42.57900
C  -1.43700 54.54300 43.21300
N  3.47400 51.55100 42.22300
C  2.28900 51.46700 42.86000
C  1.87200 50.07700 42.95000
C  2.91200 49.36700 42.31000
C  3.83900 50.29700 41.86100
C  0.63200 49.51300 43.44600
C  3.34700 48.06300 41.90600
O  2.80200 47.02300 41.97900
C  4.80500 48.25400 41.30800
C  4.86700 47.54900 40.06700
O  4.21600 47.81100 39.07800
O  5.77600 46.49800 40.15700
C  5.83100 45.53300 39.04200
H  8.82200 53.81100 40.02500
H  4.24100 57.54900 42.81900
H  0.55900 52.42600 43.72900
H  7.58400 49.12900 40.34600
H  9.02200 51.44300 39.40600
H  10.20500 51.49000 41.06100
H  9.37500 49.99100 41.71300
H  8.97800 51.64100 42.28400
H  7.28800 50.86300 37.95200
H  5.92500 49.92400 38.19000
H  7.83100 48.07000 38.40700
H  8.61500 49.02700 37.23900
H  9.66700 55.66200 40.20100
H  9.60300 56.97300 41.37500
H  9.05300 57.29800 39.70600
H  5.80600 60.41000 42.22100
H  5.41300 58.96200 43.10100
H  4.81700 59.12800 41.41700
H  1.81500 57.05800 42.58300
H  0.86300 54.87500 44.59500
H  2.40900 58.18400 44.40800
H  3.11700 56.80700 45.29400
H  1.33300 57.03700 45.30600
H  0.24100 54.59800 41.76200
H  -0.39000 56.23500 42.28300
H  -1.69400 53.63200 42.67200
H  -2.27000 55.22400 43.38600
H  -1.21200 54.14400 44.20200
H  0.66800 49.35300 44.52300
H  0.38900 48.61000 42.88500
H  -0.14800 50.22600 43.17900
H  5.59200 47.79100 41.90300
H  6.85800 45.55600 38.67600
H  5.16800 45.72000 38.19800
H  5.36300 44.58200 39.29800

