158

Mg 47.84100 16.49900 28.87100
C  45.73200 16.18200 31.58300
C  49.99500 18.29800 30.76200
C  49.80500 16.64100 26.14900
C  45.33200 14.86900 26.96400
N  47.82600 17.22600 30.91800
C  46.94700 16.89700 31.89400
C  47.27800 17.35700 33.26800
C  48.61100 18.17000 32.97100
C  48.90400 17.85200 31.47700
C  48.47700 19.66800 33.25000
C  47.45500 16.21100 34.36100
C  47.65200 16.78400 35.87000
H  47.29500 18.25900 36.21100
N  49.64500 17.39400 28.50700
C  50.35700 18.12900 29.46000
C  51.62500 18.50600 28.85200
C  51.56400 18.06100 27.48800
C  50.29400 17.36200 27.33100
C  52.69200 19.32100 29.55200
C  52.66000 18.12900 26.41100
O  52.49000 17.58400 25.37000
C  53.94600 18.90100 26.47700
N  47.61400 15.84600 26.85600
C  48.47900 16.16100 25.89000
C  47.99500 15.79800 24.40300
C  46.63800 15.07900 24.76100
C  46.49300 15.25600 26.28200
C  47.80300 17.09300 23.59500
C  46.41200 13.69500 24.25500
C  45.86500 13.66400 22.84500
N  45.97800 15.73100 29.10500
C  45.07800 15.13100 28.30200
C  43.86500 14.78000 29.07000
C  44.06200 15.14500 30.36300
C  45.32200 15.76200 30.32800
C  42.71600 13.98600 28.51500
C  43.51100 15.15400 31.67900
O  42.48500 14.70300 32.14800
C  44.64600 15.83100 32.55700
C  43.95800 16.97500 33.25800
O  43.29700 17.82700 32.69100
O  43.91400 16.81600 34.66700
C  42.91700 17.59400 35.38500
H  50.64600 18.89100 31.40800
H  50.29100 16.76100 25.17800
H  44.48000 14.41900 26.45100
H  46.46400 18.00600 33.59300
H  49.55900 17.82000 33.38100
H  47.57200 19.99000 33.76500
H  48.71000 20.33800 32.42200
H  49.27200 19.94100 33.94300
H  48.36400 15.69500 34.05300
H  46.56900 15.57700 34.40000
H  48.72900 16.66000 35.97900
H  47.10000 16.13500 36.55000
H  52.35900 19.67100 30.52900
H  53.08100 20.20800 29.05200
H  53.50700 18.60800 29.67900
H  53.79000 19.83800 27.01100
H  54.11800 19.15200 25.43000
H  54.76400 18.23900 26.76300
H  48.64000 15.02500 23.98600
H  45.76800 15.67100 24.47600
H  47.92900 16.98300 22.51800
H  48.56600 17.76800 23.98100
H  46.78300 17.43500 23.77400
H  45.74600 13.11200 24.89200
H  47.35900 13.15800 24.32500
H  46.57700 14.03100 22.10600
H  44.91900 14.20400 22.80300
H  45.49700 12.67000 22.59200
H  42.87300 12.91800 28.36400
H  42.39200 14.39900 27.56000
H  41.87900 14.10100 29.20300
H  44.88700 15.05300 33.28200
H  42.72200 18.58900 34.98500
H  43.12000 17.75900 36.44300
H  41.98400 17.03100 35.34500
Mg 42.97000 41.21500 25.90300
C  41.87200 43.53500 28.41500
C  43.93200 39.18200 28.35300
C  43.97200 39.27000 23.50300
C  42.16600 43.75300 23.57900
N  42.74800 41.32500 28.11500
C  42.19600 42.29800 28.90400
C  42.40000 41.94400 30.38200
C  43.08800 40.54500 30.33600
C  43.32600 40.37100 28.84700
C  44.36700 40.30800 31.25200
C  41.12500 42.05000 31.24700
C  40.96600 41.20900 32.53500
H  40.74000 41.91100 33.86900
N  43.84300 39.43900 25.99000
C  44.26300 38.76800 27.08100
C  44.81500 37.53000 26.70500
C  44.88300 37.55400 25.22900
C  44.23900 38.83900 24.87100
C  45.31200 36.52200 27.62600
C  45.36900 36.47200 24.29500
O  45.20200 36.53200 23.07200
C  46.11400 35.21600 24.73600
N  43.09900 41.51000 23.83900
C  43.52800 40.51900 23.00400
C  43.14100 40.66500 21.53800
C  42.60900 42.10200 21.58900
C  42.63700 42.52100 23.10000
C  44.28600 40.46400 20.46100
C  41.21900 42.35800 20.86400
C  41.16100 43.29700 19.65700
N  42.12800 43.26600 25.93000
C  41.89300 44.14200 24.88800
C  41.48500 45.43200 25.42800
C  41.41100 45.22100 26.81800
C  41.83600 43.89800 27.08500
C  41.17200 46.63700 24.58600
C  41.11100 45.81700 28.07000
O  40.71200 46.96200 28.25700
C  41.31800 44.76600 29.23100
C  42.37900 45.45700 30.01800
O  43.48600 45.78000 29.58800
O  41.90500 45.78500 31.32800
C  42.82100 46.54300 32.18200
H  44.13100 38.43400 29.12200
H  44.11200 38.59600 22.65500
H  42.01500 44.53600 22.83300
H  43.15300 42.63300 30.76400
H  42.38500 39.76100 30.61800
H  45.20700 40.12800 30.58100
H  44.32800 39.40900 31.86700
H  44.61700 41.22900 31.77900
H  40.17700 41.91600 30.72600
H  41.19700 43.09000 31.56600
H  41.73600 40.45400 32.69400
H  40.10000 40.59300 32.29000
H  46.20700 36.91900 28.10400
H  45.32600 35.52400 27.18900
H  44.54100 36.58400 28.39400
H  46.43700 34.55500 23.93200
H  45.44000 34.64600 25.37500
H  46.96100 35.56800 25.32600
H  42.35400 39.94800 21.30500
H  43.28800 42.76400 21.05100
H  45.28500 40.66700 20.84700
H  44.31100 41.13400 19.60200
H  44.20500 39.46900 20.02300
H  40.61300 42.86900 21.61100
H  40.72800 41.44000 20.54000
H  42.19400 43.42100 19.33200
H  40.76200 44.27000 19.94600
H  40.58800 42.82300 18.86000
H  41.10900 47.52400 25.21600
H  40.20300 46.44900 24.12300
H  41.93900 46.85300 23.84300
H  40.41700 44.57600 29.81400
H  42.73000 46.05800 33.15400
H  42.26900 47.48100 32.23600
H  43.86000 46.61200 31.86100

