158

Mg -1.65400 16.96900 27.02900
C  -2.08600 14.79100 29.85100
C  -2.48400 19.59800 29.20500
C  -1.67500 19.10200 24.48700
C  -1.98800 14.28900 24.96400
N  -2.34200 17.14500 29.24400
C  -2.30800 16.12900 30.22500
C  -2.67100 16.68100 31.71900
C  -2.89000 18.22500 31.39900
C  -2.57800 18.31900 29.86100
C  -4.30500 18.70300 31.94000
C  -1.56900 16.38300 32.73000
C  -1.50100 17.41000 33.85400
H  -1.13700 16.79100 35.23700
N  -1.86500 18.99100 26.88200
C  -2.16400 19.90300 27.93400
C  -2.12400 21.28000 27.45800
C  -1.76600 21.11100 26.04500
C  -1.75100 19.67800 25.72700
C  -2.21200 22.49900 28.35900
C  -1.43700 22.16700 25.04600
O  -1.27800 21.97900 23.82700
C  -1.10600 23.53000 25.51700
N  -1.73100 16.73800 25.00000
C  -1.81300 17.77500 24.10500
C  -1.88800 17.27600 22.61900
C  -2.16400 15.73800 22.82800
C  -1.95100 15.56100 24.38100
C  -2.94500 17.92000 21.79400
C  -1.15000 14.80700 22.06800
C  0.36000 14.93100 22.64400
N  -1.76400 14.94100 27.28600
C  -1.88700 13.95400 26.32900
C  -1.94700 12.64000 26.97000
C  -1.95200 12.92900 28.36200
C  -1.87700 14.32500 28.45500
C  -2.17500 11.22700 26.30900
C  -2.03300 12.32600 29.62800
O  -2.10900 11.16000 29.96800
C  -2.10400 13.53600 30.63900
C  -0.91500 13.42300 31.53200
O  0.18700 13.92600 31.40200
O  -1.18900 12.57300 32.57700
C  -0.26600 12.48300 33.72600
H  -2.65500 20.45200 29.86300
H  -1.66900 19.82100 23.66500
H  -2.27000 13.40400 24.39000
H  -3.52800 16.14000 32.11900
H  -2.10100 18.82100 31.85700
H  -5.07000 18.85800 31.17900
H  -4.23600 19.59500 32.56300
H  -4.74700 17.92900 32.56700
H  -0.56900 16.35200 32.29900
H  -1.84900 15.41300 33.14000
H  -2.42400 17.98900 33.89200
H  -0.69000 18.09600 33.60800
H  -1.26100 23.02600 28.43700
H  -2.70700 22.38800 29.32300
H  -2.77000 23.24400 27.79100
H  -0.70200 24.14900 24.71600
H  -0.38100 23.51100 26.33000
H  -2.05400 24.03200 25.71300
H  -0.93200 17.49700 22.14300
H  -3.15200 15.40400 22.51400
H  -3.65800 18.40500 22.46000
H  -3.53000 17.18400 21.24300
H  -2.66600 18.60400 20.99300
H  -1.07700 15.04800 21.00800
H  -1.54900 13.79300 22.10400
H  1.13300 15.00200 21.87900
H  0.45300 14.10700 23.35100
H  0.43200 15.90200 23.13400
H  -2.66400 11.27600 25.33600
H  -2.95300 10.83300 26.96300
H  -1.38000 10.48400 26.24300
H  -3.08600 13.42100 31.09700
H  -1.02500 12.46300 34.50900
H  0.21600 13.46000 33.77000
H  0.41200 11.63100 33.78400
Mg 1.80500 -1.24900 44.09300
C  5.17500 -0.54700 43.36400
C  0.99100 1.59800 42.31100
C  -1.33400 -2.13800 44.49100
C  2.80400 -4.52700 45.35100
N  3.00200 0.22100 42.85800
C  4.29700 0.45500 42.91900
C  4.71100 1.77100 42.16100
C  3.35800 2.46000 41.96900
C  2.34100 1.36500 42.41800
C  3.19300 3.88400 42.60400
C  5.48600 1.51800 40.90200
C  6.41300 2.66500 40.39500
H  6.05700 3.47000 39.16500
N  0.03600 -0.46400 43.42300
C  -0.10000 0.71400 42.75900
C  -1.54300 0.97100 42.58500
C  -2.29700 -0.01100 43.28700
C  -1.21300 -0.91000 43.80200
C  -2.10600 2.27800 41.86600
C  -3.85200 -0.20100 43.32700
O  -4.63200 0.63700 42.85200
C  -4.49700 -1.37200 44.08000
N  0.89500 -3.10100 44.80400
C  -0.40600 -3.21600 44.85500
C  -0.88200 -4.56600 45.32300
C  0.40000 -5.20800 45.74000
C  1.46900 -4.25600 45.27300
C  -2.01600 -4.35600 46.44400
C  0.45100 -6.69500 45.13300
C  0.93000 -7.74600 46.06200
N  3.59400 -2.32300 44.47100
C  3.84300 -3.56800 45.03100
C  5.29000 -3.74800 45.15400
C  5.84700 -2.62200 44.55100
C  4.77000 -1.75400 44.07500
C  6.04100 -4.85500 45.88900
C  7.02600 -1.93000 44.21300
O  8.20500 -2.20000 44.31700
C  6.64900 -0.64900 43.43300
C  7.22200 0.66400 43.94100
O  6.87700 1.11400 45.01700
O  8.09500 1.22700 43.00700
C  8.75600 2.44100 43.56100
H  0.67900 2.48600 41.75600
H  -2.34900 -2.48900 44.68800
H  3.16400 -5.51000 45.66500
H  5.27100 2.41200 42.84100
H  3.14300 2.62800 40.91400
H  4.14500 4.20800 43.02300
H  2.35500 3.86300 43.30100
H  3.04800 4.67400 41.86700
H  4.79800 1.31100 40.08200
H  6.07000 0.59900 40.95600
H  7.43100 2.28900 40.29000
H  6.58800 3.37600 41.20200
H  -2.36300 2.07200 40.82700
H  -1.36500 3.07700 41.83300
H  -3.00700 2.66500 42.34200
H  -5.57700 -1.24300 44.01900
H  -4.10200 -1.38700 45.09600
H  -4.15200 -2.15800 43.40800
H  -1.41300 -5.10000 44.53500
H  0.45900 -5.21800 46.82800
H  -1.82900 -4.87700 47.38300
H  -2.87200 -4.98100 46.19000
H  -2.38500 -3.34000 46.58500
H  1.17100 -6.65900 44.31500
H  -0.52300 -6.95500 44.72100
H  0.25900 -8.59900 46.17500
H  1.01600 -7.35600 47.07600
H  1.90200 -8.17800 45.82400
H  5.43100 -5.54100 46.47700
H  6.72800 -4.30500 46.53200
H  6.40100 -5.39400 45.01300
H  7.06500 -0.86500 42.44900
H  9.14100 2.98900 42.70100
H  9.42000 2.22600 44.39900
H  8.02800 3.02700 44.12200

