158

Mg 17.56800 52.40700 26.02300
C  19.66800 51.10600 28.49800
C  15.36700 53.25000 28.38800
C  15.67900 53.28500 23.47500
C  19.90800 50.97300 23.60600
N  17.46000 51.93600 28.22100
C  18.48400 51.60900 28.99000
C  18.06100 51.71700 30.45600
C  16.55000 52.08200 30.39100
C  16.48000 52.55800 28.94600
C  15.55900 50.80600 30.60800
C  18.89600 52.79000 31.16400
C  19.21100 52.72000 32.62000
H  18.23300 52.00900 33.50600
N  15.66700 53.17100 25.90700
C  14.97300 53.49300 27.01900
C  13.88000 54.30400 26.56700
C  13.86400 54.26700 25.12300
C  15.05300 53.44900 24.75600
C  12.90000 55.03200 27.47400
C  12.97100 55.01600 24.14200
O  13.18400 54.95300 22.95500
C  11.81700 55.93700 24.64000
N  17.68100 52.04300 23.91300
C  16.80100 52.59600 23.09700
C  17.09300 52.50700 21.64200
C  18.45600 51.68600 21.61000
C  18.74100 51.51200 23.09000
C  16.00700 51.62800 20.93300
C  19.55500 52.58200 20.93400
C  20.46400 51.94300 19.83700
N  19.37300 51.26400 26.03500
C  20.22100 50.82900 24.96700
C  21.40900 50.24000 25.55000
C  21.24500 50.40400 26.90800
C  19.99900 50.97800 27.14800
C  22.60800 49.76700 24.82700
C  21.89700 50.31300 28.18500
O  22.99800 49.91400 28.55100
C  20.86100 50.65000 29.26000
C  20.54400 49.41700 30.16400
O  20.13500 48.31400 29.85100
O  20.95300 49.73500 31.44200
C  20.98200 48.62200 32.43000
H  14.68700 53.49100 29.20700
H  15.06500 53.75000 22.70100
H  20.67300 50.69300 22.87900
H  18.27500 50.74900 30.90800
H  16.30000 52.90400 31.06200
H  15.03400 50.55400 29.68600
H  14.71100 50.89300 31.28800
H  16.11000 49.91900 30.91700
H  18.58700 53.81000 30.93400
H  19.84600 52.78800 30.62900
H  19.16700 53.69800 33.09900
H  20.18000 52.25300 32.79800
H  13.02700 56.11300 27.41100
H  13.19200 54.93400 28.52000
H  11.87300 54.74300 27.25000
H  11.08500 55.46800 25.29700
H  11.38700 56.36700 23.73500
H  12.24600 56.71300 25.27500
H  17.07000 53.50800 21.21100
H  18.34800 50.65600 21.27000
H  15.57700 50.85100 21.56500
H  16.39900 51.08100 20.07500
H  15.16600 52.24500 20.61400
H  20.35600 52.91700 21.59200
H  19.07000 53.47500 20.54100
H  20.39200 52.56300 18.94400
H  20.19900 50.92800 19.54200
H  21.46500 51.92800 20.27000
H  23.04100 50.42900 24.07700
H  22.28700 48.87200 24.29400
H  23.45800 49.43200 25.42200
H  21.36100 51.41400 29.85600
H  21.13800 47.62300 32.02500
H  20.07900 48.58200 33.03900
H  21.88500 48.84500 32.99800
Mg 1.95500 41.35900 26.42900
C  3.80100 41.98900 29.20200
C  -0.84200 40.53900 28.20200
C  0.50500 40.30000 23.54500
C  4.84700 42.20500 24.48500
N  1.50400 41.29100 28.49000
C  2.40300 41.64100 29.51500
C  1.71500 41.62700 30.87200
C  0.24700 41.19800 30.51800
C  0.26900 41.04700 28.98800
C  -0.20400 39.81000 31.12300
C  1.77600 43.03000 31.60100
C  2.24300 43.19600 33.07300
H  1.91000 41.97200 33.94800
N  0.13200 40.41700 26.01500
C  -0.92400 40.21200 26.86600
C  -2.02000 39.54900 26.20400
C  -1.56700 39.45500 24.79400
C  -0.24500 39.99800 24.73000
C  -3.35000 39.00900 26.86300
C  -2.30100 38.86600 23.54600
O  -1.84200 38.83000 22.41400
C  -3.73400 38.35200 23.79600
N  2.59200 41.31700 24.24200
C  1.74100 40.88300 23.29300
C  2.39500 40.95400 21.88900
C  3.80600 41.66700 22.15500
C  3.73300 41.75600 23.73600
C  2.58000 39.54800 21.14800
C  3.97300 43.00700 21.35000
C  4.11500 44.43500 22.12600
N  3.87900 42.02100 26.68200
C  4.91500 42.31400 25.84300
C  6.04400 42.77100 26.60500
C  5.66400 42.63200 27.96300
C  4.35700 42.13200 27.93200
C  7.37900 43.34000 26.09700
C  6.00900 42.79100 29.31000
O  7.04500 43.18500 29.85700
C  4.91500 42.23000 30.17400
C  5.45500 40.89500 30.78000
O  6.02000 39.99200 30.13800
O  5.15200 40.74700 32.06600
C  5.40800 39.51000 32.73200
H  -1.81900 40.32200 28.64000
H  0.06000 39.92500 22.62100
H  5.64900 42.56000 23.83400
H  2.27100 40.85000 31.39700
H  -0.52400 41.88200 30.87200
H  0.54300 39.49600 31.85100
H  -0.27400 39.01100 30.38600
H  -1.15400 39.88400 31.65300
H  0.75100 43.39500 31.65500
H  2.48200 43.72300 31.14400
H  1.94600 44.16900 33.46300
H  3.33200 43.18000 33.04100
H  -4.17400 39.70800 26.71900
H  -3.08300 38.87800 27.91100
H  -3.67700 38.05000 26.46100
H  -4.42100 39.05300 24.27000
H  -3.70300 37.44300 24.39700
H  -4.05800 38.11900 22.78200
H  1.78600 41.52300 21.18700
H  4.53300 40.99100 21.70500
H  1.99400 38.76500 21.63000
H  3.55000 39.19900 20.79600
H  1.88600 39.66500 20.31600
H  3.09800 43.10200 20.70800
H  4.82600 42.88900 20.68200
H  3.33600 45.13100 21.81600
H  5.04200 44.90600 21.79900
H  3.84300 44.46900 23.18100
H  8.13000 42.63500 25.74200
H  7.86600 44.03400 26.78200
H  7.12200 44.04500 25.30600
H  4.64000 42.91200 30.97800
H  4.93000 39.64100 33.70300
H  6.44800 39.24300 32.92400
H  4.89600 38.67600 32.25300

