158

Mg 54.20000 24.75700 45.18700
C  51.86600 27.18100 44.21100
C  52.17000 22.40600 43.74900
C  56.76500 22.55400 45.15000
C  56.28600 27.27500 46.31800
N  52.27400 24.82800 44.00600
C  51.47800 25.87200 43.80400
C  50.27200 25.56500 42.94400
C  50.17900 23.99900 43.17100
C  51.63400 23.68600 43.66300
C  49.04000 23.67100 44.20900
C  50.49900 26.18300 41.55200
C  50.79800 25.26800 40.34400
H  52.10200 25.43800 39.55500
N  54.40700 22.68600 44.60600
C  53.44400 21.87900 44.02500
C  53.90800 20.49800 44.00200
C  55.28800 20.59000 44.28100
C  55.56200 21.97900 44.77100
C  53.02300 19.32300 43.61100
C  56.25800 19.37200 44.12700
O  55.89300 18.22600 43.84200
C  57.77900 19.43200 44.25200
N  56.30300 24.89700 45.56200
C  57.15300 23.91000 45.39700
C  58.61500 24.28000 45.96500
C  58.33700 25.75400 46.51000
C  56.89400 26.01800 46.06400
C  59.18200 23.40000 47.15800
C  59.32500 26.84300 45.99100
C  59.84500 27.75600 47.11400
N  54.11500 26.82100 45.32500
C  54.94800 27.67800 46.01500
C  54.30800 28.91000 46.15800
C  53.14700 28.86100 45.39000
C  53.02100 27.51700 44.91900
C  54.96500 30.16800 46.76900
C  51.94600 29.52300 44.87400
O  51.64500 30.72200 44.87700
C  51.06400 28.43700 44.20400
C  50.69500 28.98200 42.85800
O  51.42300 29.59300 42.09800
O  49.29900 28.80900 42.72000
C  48.49700 29.42700 41.62200
H  51.50700 21.58900 43.45600
H  57.67500 21.95100 45.15700
H  57.00700 28.00400 46.69200
H  49.51600 26.10500 43.51400
H  49.84900 23.43700 42.29700
H  48.47500 24.49700 44.64100
H  49.45700 23.20100 45.10000
H  48.35700 22.98800 43.70400
H  51.37500 26.83000 41.59700
H  49.68300 26.83500 41.24200
H  49.98200 25.40700 39.63600
H  50.70400 24.21500 40.60700
H  52.59200 19.73700 42.70000
H  52.27100 19.24300 44.39600
H  53.52800 18.37100 43.44700
H  58.24100 18.46100 44.07400
H  58.04200 19.72300 45.26900
H  58.07400 20.16700 43.50300
H  59.33000 24.27700 45.14200
H  58.27200 25.75300 47.59800
H  58.53800 22.54100 47.34500
H  59.40600 23.95800 48.06700
H  60.12500 22.92100 46.89500
H  58.96200 27.56100 45.25500
H  60.23500 26.37900 45.61100
H  60.92200 27.69600 47.27000
H  59.42500 27.42500 48.06400
H  59.63600 28.77600 46.79100
H  54.13400 30.82300 47.03200
H  55.75800 30.65900 46.20400
H  55.43900 29.88800 47.70900
H  50.20800 28.41200 44.87900
H  48.18000 28.70100 40.87300
H  49.09600 30.23600 41.20500
H  47.63200 29.88000 42.10600
Mg 36.14300 50.06500 24.48800
C  36.59100 48.26200 27.59500
C  34.98500 52.71400 26.36000
C  35.57100 51.54100 21.70000
C  37.39200 47.17700 22.86200
N  35.80600 50.40900 26.84800
C  36.07300 49.54700 27.84200
C  35.75300 50.24000 29.20000
C  35.03400 51.52500 28.75000
C  35.32200 51.60400 27.22100
C  33.55000 51.48600 28.98300
C  37.04900 50.42900 30.02400
C  36.98700 50.42300 31.58900
H  35.60700 50.52900 32.26400
N  35.48300 51.90400 24.09100
C  35.09200 52.87000 24.98600
C  34.66300 53.99300 24.23100
C  34.64600 53.66700 22.82000
C  35.18500 52.28700 22.80700
C  34.29300 55.29600 24.94700
C  34.11700 54.44200 21.63100
O  34.08100 53.96400 20.50700
C  33.54300 55.80200 21.86600
N  36.17800 49.32800 22.56400
C  36.05300 50.24200 21.59100
C  36.56400 49.68600 20.21800
C  37.07500 48.25600 20.61300
C  36.87200 48.19900 22.13700
C  35.43300 49.51700 19.17600
C  38.57300 47.95800 20.08200
C  39.72000 48.64500 20.69000
N  36.75900 48.14700 25.01900
C  37.29200 47.10200 24.27800
C  37.57500 46.00200 25.12700
C  37.37900 46.40300 26.41400
C  36.85900 47.74200 26.34100
C  38.16400 44.71800 24.67700
C  37.46300 45.90800 27.77800
O  37.75600 44.83600 28.27600
C  36.89600 47.08300 28.60200
C  35.70100 46.65200 29.25600
O  34.57900 46.60100 28.76900
O  36.04900 46.32300 30.50200
C  35.22300 45.38600 31.34300
H  34.58700 53.55000 26.93900
H  35.44100 52.00300 20.72000
H  37.92700 46.38100 22.33800
H  35.08200 49.60600 29.77800
H  35.52000 52.38300 29.21500
H  33.25200 52.32300 29.61400
H  33.27100 50.69600 29.68100
H  32.96000 51.33200 28.07900
H  37.50200 51.36100 29.68600
H  37.72400 49.60000 29.81300
H  37.66500 51.16500 32.01000
H  37.46800 49.54700 32.02400
H  34.71300 55.37800 25.95000
H  33.21200 55.42700 24.91600
H  34.65500 56.09600 24.30200
H  32.93400 56.27200 21.09400
H  34.33900 56.53700 21.97900
H  32.88200 55.79600 22.73300
H  37.42600 50.27900 19.91200
H  36.33200 47.54200 20.25700
H  34.43600 49.47400 19.61300
H  35.57100 48.65000 18.53100
H  35.57000 50.37100 18.51200
H  38.54900 48.33200 19.05900
H  38.73400 46.88000 20.11700
H  40.04600 49.53300 20.14800
H  40.58200 47.98900 20.57300
H  39.58000 48.99200 21.71400
H  37.42600 44.10800 24.15600
H  38.66600 44.21500 25.50300
H  38.98600 44.86000 23.97500
H  37.65900 47.42400 29.30100
H  34.42100 45.87600 31.89400
H  35.74700 44.95800 32.19800
H  34.76800 44.53600 30.83500

