158

Mg 50.51900 45.14700 42.19100
C  47.49700 46.14000 40.70400
C  49.87600 42.02200 40.99700
C  53.85900 44.44900 42.67000
C  51.34200 48.56300 42.80200
N  48.84800 44.17500 40.95600
C  47.69700 44.78500 40.52800
C  46.73400 43.77200 39.93600
C  47.45800 42.34500 40.15800
C  48.81000 42.87100 40.72800
C  46.71700 41.26400 41.01300
C  46.19200 44.02000 38.51300
C  44.75300 44.28900 38.40100
H  43.93400 43.35600 37.58000
N  51.63800 43.47700 41.95500
C  51.17800 42.28700 41.42900
C  52.26400 41.28900 41.56100
C  53.41200 41.99900 42.03400
C  52.98300 43.33500 42.27000
C  52.11600 39.86500 40.91900
C  54.82100 41.35900 42.23700
O  54.90900 40.20400 41.99600
C  56.00500 42.11300 42.66000
N  52.37800 46.40600 42.57800
C  53.57400 45.81100 42.78600
C  54.61900 46.91200 43.26800
C  53.78500 48.18800 43.33400
C  52.37400 47.69700 42.98200
C  55.36400 46.53900 44.54700
C  54.34600 49.33400 42.37400
C  54.41800 48.94600 40.87000
N  49.56900 46.93400 42.00600
C  49.98700 48.22400 42.28200
C  48.88000 49.10100 42.02900
C  47.93600 48.38100 41.35300
C  48.40300 47.01800 41.36600
C  48.88000 50.56900 42.13300
C  46.62700 48.38800 40.71100
O  45.82600 49.31100 40.60300
C  46.24800 46.98900 40.29800
C  44.95600 46.56500 41.03200
O  44.96400 46.32200 42.23700
O  43.85300 46.58900 40.14400
C  42.51600 46.64600 40.71900
H  49.68600 40.98000 40.73000
H  54.91700 44.33900 42.91800
H  51.57800 49.60600 43.02500
H  45.86200 43.72200 40.58800
H  47.68000 41.79900 39.24100
H  45.63700 41.30100 40.87200
H  46.96100 41.43300 42.06100
H  47.04000 40.27800 40.67900
H  46.40200 43.11800 37.93800
H  46.75400 44.83900 38.06400
H  44.61900 45.31000 38.04500
H  44.24400 44.25800 39.36500
H  51.51800 39.92000 40.00900
H  51.61200 39.23900 41.65500
H  53.08700 39.46300 40.62800
H  55.83100 42.52500 43.65400
H  56.23500 42.79500 41.84100
H  56.88600 41.47300 42.71600
H  55.35400 47.06100 42.47700
H  53.84200 48.55600 44.35900
H  55.23300 45.47400 44.74300
H  55.11000 47.15100 45.41200
H  56.43100 46.69600 44.38800
H  55.27500 49.80300 42.69700
H  53.61500 50.13800 42.45700
H  54.11000 47.92000 40.66600
H  55.36900 49.30000 40.47200
H  53.57700 49.49200 40.44300
H  47.98200 50.95500 41.65100
H  49.72400 51.02100 41.61100
H  49.00100 51.04600 43.10600
H  45.99000 47.02000 39.23900
H  42.51600 46.95900 41.76300
H  42.02900 45.67700 40.60400
H  41.88500 47.37400 40.20800
Mg -4.94900 25.89700 26.48300
C  -3.79100 27.49000 29.44900
C  -6.66400 23.62600 28.52900
C  -5.78400 24.12100 23.75600
C  -2.87600 27.92900 24.66500
N  -5.28500 25.72000 28.70900
C  -4.71800 26.49100 29.72500
C  -5.24600 26.12300 31.12900
C  -5.78600 24.64100 30.78200
C  -5.92700 24.61600 29.23800
C  -4.86000 23.53000 31.30800
C  -6.43800 27.06600 31.59400
C  -6.76500 26.94800 33.10500
H  -6.21400 25.72100 33.88400
N  -6.11300 24.14000 26.16700
C  -6.73800 23.41600 27.14300
C  -7.64500 22.48300 26.45500
C  -7.39600 22.63100 25.09000
C  -6.43600 23.67500 24.91800
C  -8.74500 21.63000 27.22100
C  -8.14900 22.04800 23.92700
O  -7.81900 22.23400 22.77000
C  -9.34200 21.12200 24.14500
N  -4.49600 26.10100 24.49800
C  -4.86900 25.19600 23.51300
C  -4.16900 25.54800 22.20000
C  -3.53800 26.87600 22.49200
C  -3.60500 26.97000 23.98500
C  -3.26400 24.36500 21.68500
C  -4.37800 28.02400 21.87700
C  -3.73400 28.68600 20.63900
N  -3.61700 27.36100 26.88800
C  -2.88500 28.14100 26.06200
C  -2.18100 29.21900 26.70400
C  -2.49800 28.93800 28.04700
C  -3.37500 27.85200 28.14500
C  -1.29800 30.30000 26.14100
C  -2.23700 29.40000 29.38100
O  -1.48900 30.29100 29.74400
C  -3.12400 28.57200 30.38900
C  -2.31300 28.04900 31.45300
O  -1.28700 27.40300 31.30900
O  -2.94600 28.38800 32.71700
C  -2.47400 27.81600 33.99600
H  -7.16600 22.85200 29.11400
H  -5.91100 23.53700 22.84200
H  -2.28300 28.69500 24.16200
H  -4.48100 26.22700 31.89900
H  -6.74900 24.55800 31.28700
H  -4.02200 23.86600 31.92000
H  -4.55000 23.05500 30.37800
H  -5.34700 22.72500 31.85800
H  -7.35200 26.84600 31.04200
H  -6.12000 28.08300 31.36400
H  -7.85200 26.95900 33.18700
H  -6.41000 27.91900 33.44900
H  -9.53000 22.33900 27.48300
H  -8.37500 21.18200 28.14400
H  -9.27700 20.89300 26.61900
H  -10.12100 21.56300 24.76600
H  -8.98900 20.25800 24.70700
H  -9.63800 20.80000 23.14600
H  -4.95900 25.60000 21.45100
H  -2.47700 27.00200 22.27500
H  -3.19600 23.54200 22.39600
H  -2.22300 24.66600 21.57000
H  -3.71300 24.15400 20.71500
H  -4.55200 28.77800 22.64500
H  -5.40800 27.68300 21.77000
H  -3.17700 29.56300 20.96900
H  -4.52100 28.97900 19.94300
H  -3.06000 28.02300 20.09700
H  -0.72400 29.74400 25.39900
H  -0.61800 30.75200 26.86200
H  -1.95900 31.01400 25.65100
H  -3.99900 29.11900 30.74000
H  -2.91400 26.84300 34.21400
H  -2.70300 28.56500 34.75400
H  -1.39900 27.66300 33.90000

