158

Mg 45.99100 3.74100 46.80500
C  43.95600 6.58200 46.71500
C  43.00000 1.78500 46.42900
C  47.84500 1.05900 46.61500
C  48.75400 5.84300 46.66500
N  43.69200 4.18100 46.44500
C  43.17600 5.45200 46.46600
C  41.69000 5.28700 46.25300
C  41.35400 3.78500 46.70200
C  42.75300 3.16200 46.51500
C  40.72700 3.62600 48.18000
C  41.16600 5.87600 44.90800
C  42.15300 5.99300 43.79000
H  41.57900 6.50200 42.49700
N  45.47500 1.71400 46.43700
C  44.24500 1.11800 46.36300
C  44.47800 -0.32900 46.34700
C  45.86400 -0.62000 46.37200
C  46.43300 0.77200 46.52800
C  43.36600 -1.44500 46.37500
C  46.49900 -1.99400 46.28300
O  45.84100 -3.03500 46.23200
C  47.89300 -2.23100 46.31900
N  47.98600 3.54400 46.29200
C  48.53800 2.29100 46.60700
C  50.09500 2.42000 46.76100
C  50.39200 3.91200 46.49400
C  48.99700 4.47200 46.45600
C  50.65900 1.82400 48.02800
C  51.19900 4.24600 45.23600
C  52.37000 5.19700 45.46500
N  46.32400 5.78300 46.80600
C  47.51500 6.46500 46.88600
C  47.21100 7.87000 47.09600
C  45.88200 7.97100 47.11700
C  45.36700 6.66400 46.90400
C  48.15200 9.00900 47.03700
C  44.75300 8.88500 47.10600
O  44.68500 10.11900 47.22800
C  43.46200 8.05500 46.80000
C  42.48000 8.36300 47.90500
O  42.46700 7.81900 49.00400
O  41.63400 9.34900 47.53100
C  40.46700 9.52400 48.42800
H  42.10000 1.16700 46.46400
H  48.43600 0.15100 46.75500
H  49.62800 6.48500 46.78500
H  41.25000 5.87700 47.05700
H  40.67700 3.28000 46.01300
H  41.47400 3.18600 48.84100
H  39.83200 3.00400 48.19600
H  40.45700 4.56000 48.67300
H  40.68400 6.83600 45.09400
H  40.28700 5.25400 44.73900
H  42.41400 4.94700 43.62500
H  43.08500 6.46200 44.10600
H  42.39900 -0.96300 46.23100
H  43.41700 -2.04800 47.28100
H  43.47200 -2.15100 45.55100
H  48.32500 -2.09100 47.31000
H  48.34200 -1.53500 45.61100
H  48.16000 -3.21700 45.94000
H  50.52700 1.84900 45.93900
H  50.89400 4.37500 47.34300
H  51.38800 1.02400 47.89400
H  49.79200 1.54000 48.62400
H  51.10100 2.56200 48.69700
H  50.63500 4.48300 44.33400
H  51.77700 3.37000 44.94000
H  53.30100 4.64700 45.33100
H  52.35100 5.52100 46.50600
H  52.22200 6.08300 44.84800
H  48.95800 8.93100 47.76600
H  47.65800 9.98000 47.07600
H  48.62400 9.22100 46.07700
H  43.14400 8.37300 45.80700
H  39.89900 8.62000 48.20600
H  39.96000 10.41500 48.05900
H  40.65600 9.61200 49.49800
Mg 41.61800 8.57900 29.78900
C  43.57000 9.81500 32.43000
C  39.36300 7.24900 31.96800
C  39.94000 7.38000 27.14100
C  44.19600 9.69600 27.53800
N  41.57500 8.37100 31.94100
C  42.45300 8.99800 32.84200
C  41.97500 8.62000 34.27700
C  40.81300 7.58800 34.03500
C  40.53600 7.72400 32.54900
C  41.21900 6.19200 34.50800
C  41.51700 9.74000 35.12100
C  41.22800 9.50200 36.63400
H  41.85300 10.52200 37.63100
N  39.86700 7.50600 29.55500
C  39.00100 7.20800 30.61200
C  37.81600 6.62100 30.05700
C  37.90900 6.76000 28.60500
C  39.25800 7.23100 28.39000
C  36.62600 5.96000 30.73100
C  36.92800 6.57300 27.50100
O  37.08100 6.62100 26.28700
C  35.51200 6.54000 27.94800
N  41.99600 8.58900 27.61700
C  41.20500 7.92900 26.77500
C  41.65600 8.13400 25.35000
C  43.02500 8.76000 25.54900
C  43.09900 9.00600 26.98900
C  41.55900 6.83200 24.54000
C  43.26800 10.00600 24.64900
C  42.65900 11.34300 25.21900
N  43.48700 9.59800 29.87900
C  44.36900 10.03700 28.89600
C  45.48600 10.74900 29.59800
C  45.16000 10.78400 30.93500
C  43.95300 10.02600 31.04900
C  46.65000 11.43100 29.02700
C  45.59100 11.18700 32.23800
O  46.57900 11.83500 32.52500
C  44.53900 10.57500 33.19700
C  45.32300 9.79500 34.23400
O  45.64800 8.62800 34.05600
O  45.60100 10.53000 35.35500
C  46.27700 9.82900 36.49800
H  38.58900 6.77000 32.57200
H  39.34400 7.19500 26.24500
H  45.05100 9.92200 26.89700
H  42.91300 8.26700 34.70600
H  39.90800 7.89000 34.56200
H  41.07600 5.44000 33.73200
H  40.59600 5.85200 35.33500
H  42.28200 6.13500 34.74500
H  40.52600 10.03600 34.77600
H  42.11900 10.64300 35.01700
H  41.43000 8.46900 36.91800
H  40.14800 9.60600 36.73000
H  36.96000 5.60700 31.70700
H  36.38300 5.00600 30.26300
H  35.75500 6.61100 30.81100
H  34.91600 6.51300 27.03600
H  35.29700 7.50300 28.41000
H  35.41500 5.64900 28.56900
H  40.81700 8.72700 24.98600
H  43.69500 7.94300 25.28100
H  40.86200 6.93500 23.70800
H  41.18600 6.09800 25.25400
H  42.57800 6.56700 24.26000
H  42.86900 9.74000 23.67100
H  44.33600 10.11800 24.46400
H  43.41800 12.11900 25.11800
H  42.21600 11.29000 26.21300
H  41.83000 11.59800 24.55900
H  47.13300 10.85900 28.23400
H  47.34300 11.70200 29.82400
H  46.31600 12.33900 28.52500
H  43.95800 11.38200 33.64400
H  47.24500 10.27100 36.73400
H  46.52800 8.78600 36.31000
H  45.65300 9.85000 37.39200

