158

Mg 9.60900 4.87800 27.58500
C  10.73200 3.24500 30.53000
C  7.50100 6.78700 29.59600
C  8.26500 6.26400 24.82300
C  11.35900 2.58700 25.67800
N  9.19400 5.01800 29.78500
C  9.86200 4.36600 30.78000
C  9.65700 4.97600 32.18900
C  8.64400 6.13200 31.85600
C  8.37700 5.97400 30.36200
C  7.39200 6.03200 32.75600
C  10.96400 5.43500 32.79100
C  11.34700 4.79900 34.08100
H  11.67300 5.67400 35.32500
N  8.01500 6.23900 27.30300
C  7.31300 6.94900 28.20500
C  6.47500 7.99000 27.50200
C  6.67900 7.82700 26.12900
C  7.69300 6.72600 25.99500
C  5.50500 9.00500 28.17700
C  6.08900 8.66500 25.01800
O  6.29100 8.50500 23.80100
C  5.14300 9.80300 25.30100
N  9.70300 4.39500 25.47200
C  9.16300 5.24500 24.56700
C  9.79600 4.91200 23.12400
C  10.58100 3.57700 23.43500
C  10.63000 3.57600 25.00600
C  8.81200 4.84400 21.90400
C  11.90500 3.50500 22.77000
C  12.12200 2.48000 21.56900
N  10.83700 3.25400 27.99800
C  11.42300 2.35300 27.09400
C  12.13000 1.27900 27.78400
C  11.94400 1.71200 29.11900
C  11.04100 2.79200 29.23700
C  12.84300 0.08500 27.25900
C  12.34900 1.31800 30.45300
O  13.09300 0.41200 30.84300
C  11.58500 2.31100 31.44900
C  10.79400 1.58100 32.49500
O  9.62300 1.26300 32.38300
O  11.63200 1.11100 33.53300
C  10.88900 0.70300 34.63800
H  6.85800 7.45700 30.17000
H  7.88100 6.67200 23.88500
H  11.92100 1.90500 25.03700
H  9.10000 4.23100 32.75700
H  9.22100 7.05100 31.96500
H  6.46200 5.83600 32.22300
H  7.33400 7.06400 33.10200
H  7.48400 5.50200 33.70400
H  10.94800 6.51300 32.95000
H  11.76400 5.26200 32.07100
H  12.28500 4.35100 33.75300
H  10.65900 3.99800 34.34900
H  5.51900 8.77200 29.24200
H  4.49900 9.06100 27.76200
H  5.84400 10.04100 28.21000
H  4.19200 9.46500 25.71400
H  4.96600 10.34000 24.36900
H  5.64400 10.39300 26.06800
H  10.48500 5.73900 22.95100
H  9.91000 2.76900 23.14400
H  7.84200 4.53100 22.29000
H  9.23400 4.13200 21.19400
H  8.88500 5.87500 21.55900
H  12.65300 3.23800 23.51700
H  12.26600 4.44100 22.34400
H  13.11900 2.15900 21.26600
H  11.75100 2.82800 20.60500
H  11.47100 1.64400 21.82600
H  12.94100 0.01700 26.17600
H  12.24500 -0.72300 27.68000
H  13.84000 0.22600 27.67800
H  12.40400 2.80200 31.97400
H  10.06400 1.40200 34.77400
H  11.54800 0.64700 35.50500
H  10.48000 -0.28500 34.42800
Mg -2.42500 35.23000 27.33300
C  -4.27000 33.27600 29.63800
C  -1.83000 37.53700 29.86400
C  -0.57300 36.98100 25.13000
C  -3.60000 33.18200 24.72700
N  -3.07700 35.39500 29.40300
C  -3.63400 34.37500 30.19500
C  -3.74500 34.82600 31.68400
C  -3.10300 36.27800 31.73900
C  -2.70600 36.46000 30.23100
C  -3.96200 37.34000 32.43400
C  -3.01800 33.87400 32.68500
C  -2.85000 34.34700 34.17900
H  -2.60400 33.47700 35.37400
N  -1.21800 36.90700 27.52500
C  -1.11600 37.71100 28.67900
C  -0.19700 38.73800 28.32400
C  0.06800 38.71900 26.94500
C  -0.65400 37.57400 26.44100
C  0.36400 39.71600 29.29100
C  0.74800 39.72300 25.96600
O  0.74800 39.73800 24.71400
C  1.43600 40.98600 26.41500
N  -2.18000 35.16500 25.20400
C  -1.24800 35.92000 24.52600
C  -1.07900 35.41700 23.07500
C  -1.93000 34.13300 22.97900
C  -2.61400 34.16200 24.37100
C  -1.37700 36.53100 22.03900
C  -1.09100 32.77500 22.79800
C  -1.47800 31.66800 21.83900
N  -3.81700 33.67100 27.14300
C  -4.13000 32.86300 26.02900
C  -4.88100 31.71400 26.44000
C  -5.06700 31.90400 27.82500
C  -4.30100 32.99100 28.23300
C  -5.41200 30.64300 25.43600
C  -5.63100 31.35700 29.07900
O  -6.28100 30.36100 29.21800
C  -5.16100 32.30200 30.24300
C  -6.31200 32.79900 30.97200
O  -6.96400 33.77300 30.68600
O  -6.55600 32.07200 32.11400
C  -7.60400 32.70900 32.93100
H  -1.77000 38.32400 30.61800
H  -0.02300 37.57500 24.39700
H  -3.92500 32.54500 23.90100
H  -4.80500 34.81400 31.93500
H  -2.18300 36.28400 32.32300
H  -4.90700 36.91400 32.76900
H  -4.23200 38.14400 31.74800
H  -3.33400 37.62900 33.27600
H  -2.03800 33.76600 32.21900
H  -3.58300 32.94200 32.71000
H  -3.64500 35.00100 34.53800
H  -1.99900 35.02800 34.18700
H  0.23500 39.19000 30.23700
H  -0.07300 40.71100 29.37900
H  1.45200 39.69400 29.22600
H  1.60800 41.70800 25.61700
H  2.34800 40.72200 26.95000
H  0.76400 41.41300 27.16000
H  -0.01100 35.23800 22.95000
H  -2.63000 34.26000 22.15300
H  -0.46100 36.82300 21.52400
H  -1.86600 37.40600 22.46600
H  -2.06400 36.25700 21.23900
H  -1.29600 32.29800 23.75700
H  -0.02700 32.94600 22.63300
H  -0.57500 31.45700 21.26600
H  -2.21000 32.00200 21.10400
H  -1.95800 30.89600 22.44000
H  -4.72200 30.45200 24.61400
H  -6.33700 30.96600 24.96000
H  -5.59600 29.72600 25.99700
H  -4.56100 31.64400 30.87100
H  -7.73000 32.07100 33.80600
H  -8.58700 32.77600 32.46500
H  -7.30900 33.66900 33.35200

