158

Mg 16.55800 51.53300 26.15700
C  18.35600 49.97300 28.81900
C  14.43400 52.88700 28.47200
C  14.73900 52.73100 23.57000
C  18.65700 49.86800 23.85200
N  16.33500 51.32100 28.38600
C  17.21800 50.75500 29.27400
C  16.88800 51.00600 30.77700
C  15.45200 51.69400 30.63500
C  15.34900 51.99400 29.09500
C  14.25900 50.88700 31.12600
C  17.92500 51.82000 31.60500
C  17.58000 52.06500 33.11800
H  16.44600 51.27000 33.77000
N  14.91100 52.76400 26.02800
C  14.13900 53.17600 27.09900
C  13.06200 54.10800 26.63900
C  13.27700 54.12700 25.22500
C  14.37900 53.17500 24.84600
C  11.93400 54.59900 27.55600
C  12.52300 54.96800 24.17600
O  12.80500 54.96500 23.00900
C  11.50900 56.00400 24.64900
N  16.61100 51.23900 24.03900
C  15.72700 51.77900 23.19500
C  15.81600 51.03600 21.82200
C  17.24500 50.50900 21.87300
C  17.53200 50.54900 23.34900
C  14.68000 49.99700 21.69800
C  18.31700 51.39000 21.20100
C  19.58800 50.59200 20.79000
N  18.20500 50.25200 26.28800
C  18.92800 49.62000 25.25900
C  20.09100 48.82400 25.82200
C  19.83400 48.96900 27.21800
C  18.79700 49.86700 27.47000
C  21.20400 48.02300 25.16800
C  20.30600 48.48800 28.53700
O  21.26800 47.77800 28.77500
C  19.44200 49.19500 29.63700
C  18.87900 48.24000 30.56900
O  17.97700 47.46600 30.29200
O  19.47100 48.24400 31.78500
C  18.88800 47.47100 32.85900
H  13.86800 53.44800 29.21900
H  14.01300 53.05200 22.82100
H  19.19400 49.21300 23.16300
H  16.81900 49.97900 31.13700
H  15.39600 52.64000 31.17300
H  13.74900 51.43100 31.92000
H  14.59000 49.93300 31.53600
H  13.49200 50.72600 30.36900
H  18.09100 52.78000 31.11600
H  18.89300 51.32800 31.50900
H  17.29300 53.11700 33.13300
H  18.49400 51.89900 33.68700
H  11.75100 55.66500 27.69700
H  11.99200 54.20300 28.57000
H  10.98900 54.27100 27.12400
H  11.01700 56.46500 23.79300
H  11.95800 56.87200 25.13000
H  10.80700 55.38100 25.20400
H  15.69400 51.90900 21.18000
H  17.26100 49.53500 21.38400
H  14.03300 50.34400 20.89200
H  14.11500 49.87500 22.62200
H  14.97500 48.97900 21.44200
H  18.62300 52.20900 21.85200
H  17.93200 51.95700 20.35400
H  19.73100 50.59100 19.70900
H  19.47200 49.52400 20.97400
H  20.49100 51.03700 21.20800
H  21.94600 48.78100 24.91700
H  20.82400 47.63000 24.22500
H  21.69400 47.25200 25.76300
H  20.17400 49.90600 30.01900
H  19.14300 46.41200 32.82400
H  17.82400 47.69500 32.93100
H  19.15400 47.93900 33.80700
Mg 0.84100 43.00300 24.82400
C  2.98200 42.39400 27.65700
C  -1.89300 42.24200 26.92300
C  -1.26800 42.90500 22.21200
C  3.57400 43.21500 22.88500
N  0.67400 42.40500 27.05300
C  1.61500 42.40000 28.02200
C  0.93600 42.25500 29.43700
C  -0.56500 42.04100 29.09400
C  -0.62900 42.28000 27.55400
C  -1.05200 40.57800 29.45500
C  1.28400 43.46400 30.39400
C  1.82700 43.07200 31.84300
H  0.84600 43.03800 33.01600
N  -1.33500 42.81400 24.65200
C  -2.18500 42.35900 25.59100
C  -3.47900 42.01600 24.95000
C  -3.36800 42.36700 23.59100
C  -1.96300 42.71600 23.44700
C  -4.58400 41.39400 25.71900
C  -4.44200 42.22200 22.50300
O  -4.23800 42.46900 21.32200
C  -5.87700 41.82600 22.86700
N  1.09200 43.07700 22.83700
C  0.13100 43.08200 21.92900
C  0.75100 43.11600 20.49400
C  2.19300 43.58800 20.79900
C  2.31700 43.28600 22.27400
C  0.63300 41.87700 19.57200
C  2.56000 44.99200 20.36600
C  2.85100 45.10400 18.90900
N  2.82800 42.82800 25.14500
C  3.84800 42.97200 24.26700
C  5.20300 42.80000 24.90000
C  4.87600 42.57100 26.27600
C  3.48700 42.62400 26.34800
C  6.45100 42.77900 24.19400
C  5.52800 42.27800 27.58500
O  6.69900 42.28100 27.94900
C  4.25000 42.15200 28.57200
C  4.25200 40.98500 29.39300
O  3.85000 39.93500 28.96000
O  4.57100 41.23200 30.73400
C  4.36800 40.00500 31.58500
H  -2.79200 42.19900 27.54100
H  -1.87000 42.71000 21.32100
H  4.41500 43.38100 22.20900
H  1.37800 41.35000 29.85400
H  -1.21800 42.74100 29.61500
H  -1.36000 39.97800 28.59900
H  -1.98000 40.66000 30.02000
H  -0.26100 40.06300 30.00100
H  0.35900 44.01600 30.55900
H  1.86900 44.19600 29.83700
H  2.44200 43.91600 32.15400
H  2.42200 42.15900 31.80700
H  -4.25400 41.05800 26.70200
H  -5.07800 40.50800 25.32200
H  -5.36600 42.12800 25.91500
H  -5.86000 40.78200 23.18000
H  -6.48800 41.94300 21.97200
H  -6.32900 42.50800 23.58700
H  0.32900 43.98300 19.98600
H  2.83800 42.93300 20.21300
H  -0.39500 41.61600 19.31700
H  1.04600 41.01800 20.09900
H  1.20900 42.08800 18.67100
H  3.45600 45.17000 20.96000
H  1.75300 45.67800 20.62500
H  3.86800 45.33600 18.59300
H  2.18200 45.91200 18.61100
H  2.48300 44.30500 18.26500
H  7.28800 43.20600 24.74600
H  6.37300 43.36900 23.28100
H  6.66600 41.75600 23.88500
H  4.30800 43.02700 29.22000
H  4.53100 40.39000 32.59200
H  5.10100 39.25400 31.29100
H  3.31100 39.75800 31.48500

