158

Mg 28.58300 57.87300 41.45800
C  26.05900 55.86600 40.08000
C  30.96400 55.84100 39.60800
C  31.07800 60.13000 41.99700
C  26.19900 59.97600 42.72500
N  28.51000 56.10900 39.95700
C  27.29900 55.52400 39.60400
C  27.56800 54.30700 38.73800
C  29.03700 54.04300 39.02800
C  29.58500 55.39300 39.58100
C  29.17700 52.83100 39.95100
C  27.31400 54.65900 37.27500
C  26.85500 53.49800 36.36100
H  26.11800 53.96700 35.09000
N  30.64500 58.01100 40.91000
C  31.40700 57.05600 40.19700
C  32.79200 57.49600 40.10500
C  32.87100 58.75700 40.78600
C  31.49900 58.96400 41.30100
C  33.80000 56.73300 39.34800
C  34.14600 59.62700 40.83700
O  35.17800 59.28800 40.23100
C  34.27800 60.86400 41.71500
N  28.60200 59.70900 42.31800
C  29.78900 60.48200 42.38100
C  29.42300 61.95800 42.76600
C  27.89700 61.83200 43.24300
C  27.50400 60.44300 42.75200
C  30.42800 62.61300 43.86100
C  27.11100 63.06300 42.60700
C  25.84000 63.44900 43.35000
N  26.54200 57.85800 41.50400
C  25.71100 58.80500 42.09800
C  24.35300 58.28300 42.01600
C  24.49300 57.06600 41.30200
C  25.78500 56.98200 40.91000
C  23.08900 58.88500 42.68700
C  23.68400 56.00100 40.72900
O  22.46100 55.86100 40.83400
C  24.70200 55.23300 39.85500
C  24.65800 53.78600 40.35000
O  24.89900 53.44500 41.49700
O  24.29400 52.99100 39.33400
C  24.27100 51.61100 39.67400
H  31.69400 55.19900 39.11200
H  31.91000 60.76000 42.31700
H  25.48700 60.69800 43.12800
H  26.96200 53.42800 38.95900
H  29.63100 53.82700 38.14000
H  28.27300 52.59100 40.51000
H  29.86600 53.16500 40.72600
H  29.68400 51.93900 39.58300
H  28.10900 55.18700 36.74900
H  26.42900 55.29700 37.28200
H  26.29200 52.81100 36.99200
H  27.70400 52.91100 36.00800
H  33.71300 57.21800 38.37600
H  33.59600 55.67300 39.19900
H  34.83300 56.66400 39.69100
H  33.53700 61.61300 41.43800
H  35.28700 61.23500 41.54100
H  34.28000 60.43000 42.71500
H  29.61100 62.52200 41.85300
H  27.83600 61.71500 44.32500
H  30.30600 63.69600 43.84400
H  31.46000 62.29800 43.70300
H  30.02000 62.21800 44.79100
H  26.94500 62.79500 41.56300
H  27.82700 63.88400 42.56800
H  25.07400 63.54300 42.58100
H  25.84300 64.45500 43.77100
H  25.56500 62.79600 44.17800
H  23.12200 58.78200 43.77200
H  22.20400 58.44000 42.23100
H  23.08900 59.96100 42.51200
H  24.36800 55.27600 38.81800
H  25.28900 51.27200 39.86600
H  23.82500 51.02100 38.87300
H  23.65100 51.45600 40.55700
Mg 5.98600 54.45500 39.87500
C  5.57000 50.96300 40.24400
C  9.15400 53.82400 38.69400
C  6.18900 57.71200 39.27900
C  2.52500 54.84400 40.68300
N  7.13600 52.47400 39.32700
C  6.73900 51.23200 39.55100
C  7.69200 50.28700 38.85200
C  9.01600 51.19600 38.75700
C  8.44900 52.60400 38.98500
C  10.10300 50.94800 39.93300
C  7.30500 49.65900 37.47100
C  6.38900 50.47400 36.58800
H  6.86400 51.40500 35.47500
N  7.47700 55.61300 39.03600
C  8.70900 55.23300 38.66000
C  9.44900 56.31800 38.10700
C  8.59500 57.46700 38.17100
C  7.34200 56.96800 38.88100
C  10.81800 56.14300 37.38700
C  8.85300 58.80300 37.65800
O  9.80700 59.00400 36.99400
C  8.08400 60.07500 38.09600
N  4.54500 56.07300 39.93100
C  4.91300 57.30400 39.80600
C  3.88600 58.34500 40.16900
C  2.66500 57.41600 40.49600
C  3.25300 56.01700 40.36100
C  4.34800 59.28100 41.27000
C  1.35600 57.76200 39.63000
C  0.39500 58.77300 40.28400
N  4.38700 53.20700 40.52000
C  3.06600 53.53800 40.83000
C  2.49500 52.36500 41.41500
C  3.43900 51.30200 41.21900
C  4.54600 51.86700 40.60200
C  1.09700 52.12600 41.93600
C  3.69400 49.81600 41.24900
O  3.01500 48.83800 41.55800
C  5.02800 49.60900 40.60800
C  4.76300 48.67200 39.52300
O  4.46100 48.95600 38.32300
O  4.82000 47.38900 39.97400
C  4.45700 46.26200 39.06200
H  10.19200 53.66800 38.39200
H  6.22900 58.80200 39.23100
H  1.58600 54.96000 41.22800
H  7.73000 49.38200 39.45800
H  9.57300 51.10000 37.82500
H  11.11800 51.01500 39.54000
H  9.94400 49.96800 40.38200
H  9.97400 51.82400 40.56900
H  6.99800 48.62100 37.60300
H  8.23900 49.47000 36.94200
H  5.69800 51.10600 37.14600
H  5.67000 49.89600 36.00700
H  10.93700 56.90700 36.61800
H  10.88400 55.19300 36.85700
H  11.59700 56.37900 38.11100
H  7.06100 60.15200 37.72600
H  8.61700 61.01300 37.93700
H  7.99900 60.06700 39.18300
H  3.71400 58.95300 39.28100
H  2.53900 57.56400 41.56900
H  4.37500 60.30600 40.90000
H  5.37900 59.09200 41.56900
H  3.75900 59.15700 42.17900
H  0.82900 56.83900 39.38700
H  1.59000 58.14100 38.63400
H  -0.67800 58.59800 40.20200
H  0.49800 59.75700 39.82800
H  0.66500 58.81800 41.33900
H  0.70600 51.30000 41.34200
H  0.43900 52.99400 41.90300
H  1.20700 51.76700 42.95900
H  5.64200 49.12500 41.36800
H  3.38000 46.26800 38.89200
H  4.68700 45.38900 39.67200
H  4.97000 46.32400 38.10200

