158

Mg 35.96000 48.61400 25.72600
C  36.35000 46.89200 28.75600
C  34.51600 51.09500 27.55900
C  35.46200 50.24500 22.91600
C  36.81400 45.80100 23.99700
N  35.50000 48.99100 28.00200
C  35.88100 48.21800 29.01300
C  35.49800 48.78000 30.40200
C  34.69600 50.09000 29.96200
C  34.88500 50.10500 28.45600
C  33.17700 50.18300 30.35600
C  36.75400 49.05400 31.29900
C  36.65500 48.81000 32.79000
H  35.31000 49.02700 33.39400
N  35.15200 50.42200 25.31700
C  34.68600 51.33600 26.22500
C  34.45500 52.57200 25.55600
C  34.68900 52.34100 24.13900
C  35.13500 50.97500 24.08600
C  34.04400 53.87400 26.24400
C  34.43300 53.33200 22.97000
O  34.53900 52.93100 21.86400
C  33.99600 54.73700 23.18100
N  35.97600 48.03800 23.69000
C  35.83300 48.92200 22.67600
C  36.23600 48.29700 21.32600
C  36.87300 46.90900 21.77700
C  36.51900 46.93500 23.25000
C  35.08900 48.11700 20.28400
C  38.33700 46.75900 21.39800
C  39.40400 47.69400 21.92900
N  36.48100 46.73900 26.23600
C  36.82000 45.69300 25.38600
C  37.27600 44.59700 26.21400
C  37.00700 44.95200 27.52900
C  36.59400 46.30800 27.46200
C  37.92700 43.25100 25.83200
C  37.09300 44.55800 28.85900
O  37.43400 43.54800 29.37700
C  36.62100 45.82800 29.73600
C  35.37900 45.52500 30.47600
O  34.31400 45.19900 29.94200
O  35.61200 45.53400 31.87200
C  34.41000 45.11900 32.68200
H  34.18000 51.93600 28.16800
H  35.46200 50.73700 21.94100
H  37.13400 44.94000 23.40500
H  34.80700 48.17400 30.98800
H  35.20000 50.89000 30.50400
H  32.51900 49.74700 29.60500
H  33.01500 51.25600 30.46400
H  33.03800 49.70600 31.32600
H  37.15500 50.05700 31.15000
H  37.45800 48.31700 30.91400
H  37.45400 49.32100 33.32700
H  36.92000 47.75600 32.86800
H  34.93800 54.49700 26.23900
H  33.75500 53.75600 27.28800
H  33.22100 54.40500 25.76400
H  32.92000 54.71300 23.35700
H  34.21300 55.14600 22.19400
H  34.48700 55.34800 23.93800
H  36.99900 48.98700 20.96400
H  36.35300 46.06100 21.33300
H  34.16000 48.26100 20.83400
H  34.96400 47.11000 19.88700
H  35.03200 48.81200 19.44600
H  38.47000 47.01600 20.34700
H  38.69600 45.74000 21.54300
H  39.98000 47.13200 22.66500
H  38.98500 48.63800 22.27500
H  40.02900 48.01400 21.09500
H  38.40900 42.87800 26.73500
H  38.67200 43.58800 25.11100
H  37.23600 42.53000 25.39400
H  37.29800 46.04200 30.56300
H  34.42800 45.51300 33.69800
H  34.35500 44.03900 32.82100
H  33.44900 45.40200 32.25200
Mg 0.46300 43.73700 26.28300
C  2.34100 43.13200 29.16600
C  -2.36700 42.73500 28.14300
C  -1.32500 43.58500 23.38300
C  3.30200 44.27300 24.50400
N  0.05000 43.10100 28.44900
C  0.98000 43.00700 29.43500
C  0.36200 42.72500 30.76800
C  -1.11600 42.32000 30.37700
C  -1.13900 42.75500 28.92500
C  -1.28000 40.79800 30.57100
C  0.44000 44.11400 31.59400
C  0.46300 43.97600 33.13200
H  0.31300 42.55600 33.62400
N  -1.62400 43.37700 25.79700
C  -2.58700 43.04900 26.75200
C  -3.88000 42.99100 26.12100
C  -3.60700 43.20200 24.71900
C  -2.12600 43.44300 24.56000
C  -5.30100 42.70500 26.75300
C  -4.55500 43.17200 23.47900
O  -4.07000 43.33600 22.35000
C  -6.02400 43.14300 23.57900
N  0.87100 43.91400 24.29500
C  0.02600 43.71800 23.23900
C  0.71200 43.73600 21.84500
C  2.13200 44.24400 22.33100
C  2.11600 44.17000 23.83600
C  0.74400 42.28100 21.14700
C  2.46600 45.57500 21.62300
C  2.22600 46.91600 22.49600
N  2.41100 43.63000 26.68000
C  3.41200 43.86900 25.87800
C  4.68500 43.73400 26.60100
C  4.26900 43.38500 27.93900
C  2.87000 43.43800 27.96100
C  6.06800 43.85400 26.15700
C  4.80100 43.01500 29.19600
O  5.97200 42.73600 29.56400
C  3.56300 42.97100 30.09100
C  3.63500 41.70200 30.93300
O  3.04300 40.65100 30.66700
O  4.34200 42.04400 32.04800
C  4.49800 40.86900 33.04600
H  -3.31400 42.51000 28.63700
H  -1.83200 43.57600 22.41600
H  4.21600 44.54600 23.97300
H  0.91100 41.87200 31.16700
H  -1.87100 42.93900 30.86200
H  -1.84100 40.43100 29.71100
H  -2.01100 40.68800 31.37200
H  -0.37900 40.20500 30.72700
H  -0.43100 44.74700 31.42900
H  1.29200 44.72700 31.29800
H  -0.23800 44.61700 33.66700
H  1.48600 44.24400 33.39800
H  -6.07900 43.43500 26.53200
H  -5.26900 42.61200 27.83900
H  -5.49800 41.71400 26.34400
H  -6.42300 44.11500 23.87100
H  -6.30300 42.49600 24.41000
H  -6.37100 42.83500 22.59200
H  0.02900 44.35100 21.25800
H  2.88700 43.52300 22.01700
H  0.14500 41.58200 21.73200
H  1.74400 41.84800 21.19300
H  0.47000 42.36900 20.09600
H  1.91000 45.81300 20.71600
H  3.48900 45.61400 21.25000
H  1.28100 46.94300 23.03800
H  2.30700 47.85100 21.94100
H  2.98200 46.96600 23.28000
H  6.05900 44.29800 25.16200
H  6.63000 42.92300 26.08700
H  6.48700 44.51100 26.91900
H  3.64700 43.92800 30.60600
H  4.50600 39.85400 32.64800
H  3.66600 40.89500 33.74900
H  5.43500 40.93500 33.59800

