158

Mg 46.67700 44.59700 43.36200
C  43.05700 44.32600 43.21700
C  46.81500 41.30400 42.32200
C  49.80000 45.12600 42.81400
C  46.00400 48.18500 43.47900
N  45.07500 43.11900 42.74400
C  43.69600 43.14500 42.74800
C  43.02400 41.83900 42.25000
C  44.26700 40.92000 42.09900
C  45.49800 41.82300 42.45300
C  44.12000 39.56200 42.98000
C  42.00300 41.90900 41.07000
C  42.72800 42.39900 39.80300
H  42.64800 41.52200 38.58400
N  48.19500 43.33400 42.67600
C  48.09400 42.02600 42.39300
C  49.42800 41.51100 42.20500
C  50.33000 42.57200 42.35900
C  49.49800 43.76000 42.62600
C  49.84400 40.06200 41.86400
C  51.90500 42.55700 42.23500
O  52.47000 41.48900 42.02400
C  52.66800 43.79000 42.47300
N  47.67300 46.47300 42.82700
C  49.06800 46.31800 42.99000
C  49.74700 47.69500 43.30500
C  48.51200 48.63800 43.03900
C  47.29400 47.68900 43.23000
C  50.29800 47.71400 44.72500
C  48.47200 49.45200 41.68400
C  48.35900 50.98900 41.83100
N  44.93900 46.01300 43.44400
C  44.91500 47.40500 43.57000
C  43.55300 47.84700 43.78600
C  42.75600 46.65400 43.62100
C  43.68900 45.54300 43.47700
C  43.13900 49.24000 43.94800
C  41.39700 46.18100 43.59100
O  40.34300 46.74700 43.82100
C  41.60700 44.61600 43.33900
C  40.82800 43.89600 44.39600
O  39.70800 43.41000 44.16600
O  41.48800 43.79400 45.59200
C  40.74400 42.95400 46.55600
H  46.75000 40.24600 42.05800
H  50.86400 45.35900 42.72700
H  45.90200 49.27200 43.51200
H  42.38500 41.46600 43.05000
H  44.26400 40.67100 41.03800
H  44.89100 39.35900 43.72300
H  43.99800 38.68800 42.34100
H  43.23800 39.54600 43.62100
H  41.14000 42.51300 41.35100
H  41.58300 40.91100 40.94300
H  43.80500 42.52700 39.90400
H  42.25200 43.34700 39.55300
H  50.60400 40.19700 41.09400
H  48.95400 39.59100 41.44700
H  50.24300 39.46600 42.68500
H  52.50200 44.20700 43.46600
H  52.40800 44.42000 41.62200
H  53.69600 43.48100 42.28800
H  50.50900 47.84700 42.54100
H  48.38200 49.30500 43.89200
H  51.21000 48.30600 44.80200
H  50.53000 46.72300 45.11600
H  49.48400 48.02200 45.38300
H  47.57700 49.23000 41.10300
H  49.32400 49.14700 41.07600
H  47.62300 51.40800 41.14400
H  49.35700 51.32700 41.55400
H  48.14300 51.23800 42.87000
H  42.06200 49.37800 44.04200
H  43.51300 49.88700 43.15400
H  43.65400 49.56900 44.85100
H  41.08200 44.41500 42.40500
H  40.20500 43.70600 47.13100
H  41.54800 42.56100 47.17900
H  39.93000 42.28700 46.27100
Mg 41.16200 41.71800 26.64000
C  40.30500 43.69600 29.34000
C  42.41200 39.40500 29.03700
C  42.80300 39.95900 24.26400
C  40.87700 44.33900 24.53900
N  41.17600 41.52300 29.02200
C  40.78300 42.45800 29.85000
C  40.97100 42.02200 31.32200
C  41.69100 40.64000 31.15600
C  41.83600 40.52000 29.66500
C  42.98600 40.58000 31.92400
C  39.65500 41.95500 32.12600
C  39.59700 41.26900 33.47800
H  39.81500 42.28200 34.73500
N  42.30600 39.84500 26.68100
C  42.57000 38.98200 27.74300
C  43.15800 37.74100 27.27100
C  43.23400 37.94500 25.85500
C  42.82200 39.33500 25.56900
C  43.60400 36.62800 28.19300
C  43.69200 36.97400 24.72900
O  43.75600 37.25400 23.50700
C  44.07400 35.54200 25.14200
N  41.96600 42.17300 24.68900
C  42.46400 41.20600 23.86400
C  42.32700 41.68400 22.41000
C  41.60800 43.07800 22.50000
C  41.35700 43.13400 24.00500
C  43.65900 41.69700 21.57100
C  40.31100 43.29800 21.54500
C  38.92900 43.14300 22.18800
N  40.53600 43.59900 26.76600
C  40.45700 44.60800 25.88400
C  39.97400 45.84700 26.52100
C  39.88900 45.52400 27.86100
C  40.22000 44.11400 27.99600
C  39.85100 47.15900 25.80100
C  39.53100 46.02800 29.11800
O  39.14200 47.10300 29.41200
C  39.76000 44.89400 30.15900
C  40.70700 45.41300 31.19600
O  41.96200 45.43900 30.98300
O  40.11900 45.94500 32.33000
C  41.06700 46.46100 33.39500
H  42.83000 38.65300 29.71000
H  43.07000 39.42600 23.34900
H  40.80000 45.09600 23.75600
H  41.73400 42.69900 31.70400
H  41.12300 39.72800 31.34000
H  43.78900 40.90700 31.26400
H  43.22500 39.52300 32.04500
H  42.99200 41.01400 32.92400
H  38.90700 41.52500 31.46000
H  39.38200 42.95200 32.47100
H  40.28800 40.44000 33.63000
H  38.63700 40.75900 33.55700
H  42.93800 35.80200 27.94400
H  43.50800 36.83000 29.26000
H  44.59900 36.24700 27.96500
H  44.78100 35.48000 25.96900
H  44.55100 35.03200 24.30600
H  43.07500 35.11700 25.24700
H  41.63100 41.01600 21.90200
H  42.24900 43.94400 22.33400
H  43.68700 42.36700 20.71200
H  43.82400 40.71100 21.13400
H  44.56300 41.96600 22.11800
H  40.39300 42.57700 20.73200
H  40.35500 44.32100 21.17100
H  38.30800 42.48900 21.57500
H  38.47700 44.13500 22.17300
H  38.95500 42.81300 23.22600
H  40.14300 47.83600 26.60400
H  38.81800 47.40600 25.55600
H  40.52300 47.26000 24.94900
H  38.77900 44.82500 30.62800
H  42.08900 46.45200 33.01500
H  41.16200 45.79100 34.25000
H  40.82100 47.49800 33.62200

