158

Mg 39.76200 8.76300 29.20900
C  41.66100 10.01200 31.89900
C  37.76200 7.17100 31.36400
C  38.03800 7.48600 26.53800
C  42.23100 9.87900 27.05100
N  39.65300 8.58600 31.40500
C  40.53500 9.28900 32.28100
C  39.97700 9.09700 33.73800
C  38.67500 8.19800 33.52900
C  38.72000 7.89300 32.07000
C  38.53500 6.94800 34.42300
C  39.75400 10.43400 34.44500
C  38.82700 10.59300 35.62600
H  39.27100 11.37300 36.91800
N  38.06000 7.57000 28.98200
C  37.40100 6.96200 30.02300
C  36.23600 6.24600 29.48400
C  36.23500 6.42100 28.10500
C  37.48000 7.22100 27.83000
C  35.26300 5.53700 30.50700
C  35.19900 5.77400 27.18900
O  35.40900 5.76900 26.01600
C  34.05100 5.01000 27.58900
N  40.18600 8.55100 27.14600
C  39.25700 8.13500 26.23700
C  39.78000 8.37800 24.77000
C  40.81400 9.40300 24.97400
C  41.10900 9.33000 26.47400
C  40.40300 7.13700 24.09200
C  40.38800 10.87000 24.59000
C  38.91500 11.26100 24.66600
N  41.67800 9.63400 29.35100
C  42.54700 9.96300 28.43300
C  43.74500 10.47800 29.06600
C  43.49400 10.58200 30.42200
C  42.15300 10.03500 30.56400
C  44.87800 11.05600 28.22000
C  43.88100 11.07100 31.66800
O  44.84000 11.71800 31.97300
C  42.75300 10.70700 32.72900
C  43.40100 9.95500 33.80800
O  43.72700 8.77900 33.65700
O  43.62100 10.83500 34.81700
C  44.38200 10.29300 35.93700
H  37.03100 6.64100 31.97900
H  37.53500 7.16300 25.62400
H  42.94100 10.46100 26.46000
H  40.61900 8.50500 34.39000
H  37.83000 8.86400 33.70400
H  37.52200 6.85400 34.81200
H  39.25100 7.05600 35.23900
H  38.83600 6.12400 33.77600
H  39.20200 10.96000 33.66600
H  40.76300 10.84200 34.50800
H  38.64300 9.63200 36.10500
H  37.89100 11.03200 35.28100
H  34.64600 4.77600 30.03000
H  34.65000 6.32900 30.93700
H  35.91800 5.12800 31.27700
H  33.54200 5.65400 28.30600
H  34.48900 4.07000 27.92500
H  33.37100 4.92400 26.74200
H  38.88900 8.69600 24.22900
H  41.67400 9.24400 24.32300
H  39.89900 7.02900 23.13100
H  40.15500 6.28600 24.72600
H  41.49200 7.19200 24.10800
H  40.58700 10.91100 23.51900
H  40.90700 11.72500 25.02400
H  38.50600 11.36000 23.66000
H  38.91400 12.23500 25.15500
H  38.26800 10.57300 25.21000
H  45.82600 10.98100 28.75300
H  44.72000 12.10200 27.95600
H  45.03500 10.45700 27.32300
H  42.46800 11.69300 33.09700
H  43.71700 9.73100 36.59300
H  44.85900 11.14500 36.42200
H  45.14000 9.55000 35.68900
Mg 52.97700 24.07200 44.56200
C  50.16200 25.97200 43.73500
C  51.50000 21.34800 43.09100
C  55.90600 22.53700 44.89200
C  54.52500 27.07700 45.76900
N  51.20100 23.80400 43.26200
C  50.24200 24.71300 43.06800
C  49.03500 24.10900 42.35300
C  49.36900 22.56000 42.53100
C  50.80500 22.53300 42.95700
C  48.41000 21.84900 43.51100
C  49.22500 24.53900 40.88100
C  47.91200 24.89800 40.12000
H  47.37000 23.74300 39.29400
N  53.56700 22.09300 44.10500
C  52.83600 21.13400 43.56000
C  53.63700 19.94800 43.49000
C  54.95500 20.29400 43.95400
C  54.89100 21.68700 44.42700
C  53.12700 18.64800 42.94100
C  56.11300 19.34400 44.00900
O  56.08000 18.22900 43.61200
C  57.39900 19.68400 44.79200
N  55.00100 24.86400 44.87100
C  55.93900 23.92400 45.11300
C  57.18500 24.56800 45.77700
C  56.86900 26.09600 45.74300
C  55.37900 26.02000 45.45100
C  57.59400 24.04600 47.17300
C  57.56100 26.91300 44.61800
C  58.51700 27.99000 45.00100
N  52.48600 26.13600 44.75300
C  53.12300 27.13400 45.52000
C  52.07000 28.23600 45.75400
C  50.95800 27.85600 45.01500
C  51.24200 26.50500 44.49600
C  52.31300 29.54100 46.51800
C  49.55100 28.25600 44.61600
O  48.92800 29.25100 44.77900
C  48.96100 26.96000 43.85700
C  48.40000 27.51700 42.57400
O  49.08000 28.06300 41.75500
O  46.98300 27.37200 42.61300
C  46.28300 27.86400 41.44700
H  51.09100 20.40900 42.71000
H  56.87300 22.08800 45.12800
H  55.04500 27.92700 46.21500
H  48.05700 24.36300 42.76100
H  49.34400 22.06100 41.56300
H  47.80500 20.98900 43.22600
H  47.70900 22.54000 43.97900
H  49.09900 21.43900 44.24900
H  49.58300 23.63900 40.38100
H  50.06000 25.23200 40.77800
H  48.15000 25.71500 39.44000
H  47.12000 25.02300 40.85900
H  53.88000 18.26400 42.25400
H  52.30700 18.82000 42.24400
H  52.74200 17.92700 43.66200
H  57.99000 18.77500 44.90400
H  57.07800 19.97800 45.79100
H  57.95400 20.48700 44.30600
H  58.05700 24.37900 45.15000
H  57.11400 26.57600 46.69000
H  58.66900 24.13400 47.33300
H  57.29500 23.04600 47.48700
H  57.04900 24.70700 47.84800
H  56.87700 27.46200 43.97100
H  58.04300 26.16100 43.99200
H  59.45400 27.84700 44.46300
H  58.56300 28.14800 46.07800
H  58.21700 28.98700 44.67800
H  52.96400 30.20000 45.94200
H  52.83100 29.26200 47.43600
H  51.40300 30.02800 46.86800
H  48.14300 26.57200 44.46300
H  46.35800 26.98300 40.80900
H  46.85100 28.64300 40.93800
H  45.28500 28.26900 41.61400

