158

Mg 35.85500 49.11200 25.40200
C  36.06600 46.87000 28.26100
C  35.05800 51.56800 27.47700
C  35.83000 50.92400 22.61700
C  36.93300 46.24300 23.43800
N  35.44100 49.12700 27.57200
C  35.68900 48.22400 28.55600
C  35.52700 48.85000 30.00400
C  34.87300 50.23400 29.61500
C  35.15400 50.35300 28.15300
C  33.42300 50.42000 29.92700
C  36.97900 49.00000 30.66000
C  37.14000 48.59000 32.09600
H  35.84200 48.42300 32.82700
N  35.53100 50.97900 25.06000
C  35.22500 51.87600 26.05400
C  35.13600 53.21600 25.47400
C  35.21000 52.98400 24.01800
C  35.58000 51.59900 23.88400
C  34.73700 54.44600 26.22400
C  34.93700 53.89500 22.87600
O  35.03600 53.64100 21.73700
C  34.37200 55.21700 23.18200
N  36.13600 48.63900 23.34300
C  36.08800 49.55700 22.39800
C  36.33000 48.98900 21.00500
C  36.99300 47.62200 21.34600
C  36.63600 47.42600 22.79600
C  35.08000 48.93000 20.18100
C  38.54300 47.58700 21.04500
C  39.19100 46.16600 20.96500
N  36.32700 46.98200 25.70400
C  36.79200 46.03200 24.81900
C  37.19700 44.85700 25.57800
C  36.93300 45.14500 26.93700
C  36.37900 46.44900 26.92900
C  37.83300 43.51100 25.11500
C  36.96400 44.57800 28.24600
O  37.19500 43.43800 28.65900
C  36.48300 45.76400 29.15600
C  35.35100 45.34600 30.06500
O  34.19000 45.13400 29.74900
O  35.82100 45.04600 31.35300
C  34.89800 44.44200 32.30600
H  34.82700 52.40600 28.13700
H  35.77300 51.50000 21.69100
H  37.25100 45.42900 22.78300
H  34.77700 48.27400 30.54600
H  35.35900 51.15400 29.94100
H  33.07800 49.60800 30.56700
H  32.74700 50.39600 29.07200
H  33.13000 51.37500 30.36200
H  37.12400 50.07500 30.56100
H  37.71500 48.37000 30.16100
H  37.63700 49.37900 32.66000
H  37.63900 47.62100 32.12100
H  33.65500 54.56000 26.28200
H  35.21800 55.35400 25.86000
H  34.96100 54.20600 27.26400
H  34.27600 55.85200 22.30100
H  35.02900 55.83200 23.79800
H  33.39400 55.02400 23.62300
H  37.07200 49.71400 20.67000
H  36.46300 46.82100 20.83000
H  34.22300 49.18500 20.80400
H  34.80600 47.89800 19.96200
H  35.04400 49.53800 19.27700
H  38.94400 48.16700 21.87600
H  38.92000 48.25500 20.27000
H  39.67700 45.83700 21.88400
H  39.87900 46.07200 20.12500
H  38.48200 45.34700 20.84000
H  38.02200 43.05300 26.08600
H  38.73200 43.65300 24.51500
H  37.16800 42.82000 24.59700
H  37.35500 46.06100 29.73800
H  34.32900 43.59000 31.93400
H  34.16500 45.13500 32.71800
H  35.42100 44.07700 33.18900
Mg 9.13200 48.16800 26.26200
C  6.81200 48.35200 28.79200
C  11.63500 48.74400 28.42800
C  11.25400 47.79400 23.64700
C  6.58400 47.83400 23.90600
N  9.21000 48.38700 28.33800
C  8.17900 48.40400 29.24900
C  8.63800 48.68200 30.72100
C  10.13300 49.06000 30.45500
C  10.34300 48.65300 29.01600
C  10.58800 50.52800 30.70200
C  8.35100 47.48600 31.67800
C  9.22800 47.53900 33.00600
H  8.49700 47.33800 34.38000
N  11.17700 48.39100 25.99100
C  12.03700 48.62300 27.04500
C  13.36500 48.55400 26.55600
C  13.30900 48.26900 25.21700
C  11.87900 48.19200 24.86300
C  14.52900 48.77100 27.51800
C  14.40500 48.19400 24.20000
O  14.12800 47.98500 23.00400
C  15.87600 48.27600 24.59400
N  8.95800 48.28400 23.98100
C  9.95700 47.95600 23.23200
C  9.63700 47.53300 21.85100
C  8.05800 47.42900 21.91000
C  7.78300 47.86400 23.32400
C  10.15500 48.49500 20.74500
C  7.43100 46.12000 21.49000
C  6.26600 46.12100 20.42400
N  7.13000 48.22300 26.27900
C  6.24100 48.08900 25.25000
C  4.86900 48.22200 25.86800
C  5.09600 48.24800 27.26500
C  6.45300 48.30100 27.43800
C  3.44100 48.12500 25.20000
C  4.37200 48.33000 28.48100
O  3.20900 48.17500 28.74400
C  5.51400 48.40300 29.58400
C  5.22900 47.25700 30.50300
O  5.48700 46.10700 30.23100
O  4.71600 47.66600 31.68900
C  4.64500 46.65000 32.74400
H  12.32800 48.89600 29.25900
H  11.96300 47.32000 22.96500
H  5.76700 47.66000 23.20200
H  8.05200 49.48700 31.16500
H  10.83500 48.39500 30.95800
H  11.55400 50.41900 31.19500
H  9.96200 51.03000 31.43900
H  10.72000 51.07400 29.76700
H  8.35200 46.50600 31.20000
H  7.30500 47.58900 31.96500
H  9.68800 48.52700 33.00500
H  9.97300 46.76200 32.83400
H  14.22600 48.71900 28.56400
H  14.80200 49.75900 27.14700
H  15.37100 48.09300 27.37400
H  16.02500 47.49500 25.34100
H  16.19000 49.29500 24.81700
H  16.38700 47.84600 23.73300
H  9.99200 46.51200 21.71600
H  7.59900 48.26300 21.37900
H  10.50600 49.43300 21.17400
H  9.37300 48.68000 20.00800
H  10.92600 48.04200 20.12200
H  6.98700 45.69800 22.39100
H  8.20100 45.50000 21.03100
H  6.18600 47.14300 20.05500
H  5.31400 45.76700 20.82000
H  6.57800 45.42500 19.64600
H  2.80900 48.88000 25.66700
H  2.99100 47.15600 25.41600
H  3.60100 48.16800 24.12300
H  5.40900 49.31400 30.17300
H  3.76800 46.99000 33.29500
H  5.63400 46.46400 33.16000
H  4.38900 45.68500 32.30500

