158

Mg 17.03800 -0.50800 27.99200
C  16.00000 1.59200 30.63900
C  19.13600 -2.06200 30.18600
C  18.63000 -2.04500 25.35100
C  15.42100 1.66000 25.72700
N  17.56600 -0.14900 30.05500
C  16.92000 0.55500 31.02400
C  17.33600 0.19900 32.41300
C  18.54000 -0.78600 32.25100
C  18.39500 -1.02600 30.71800
C  19.95500 -0.10000 32.43700
C  16.20500 -0.31100 33.39000
C  16.73200 -0.70400 34.78100
H  17.88500 0.05200 35.51800
N  18.52600 -2.07400 27.86200
C  19.32400 -2.55100 28.87300
C  20.17600 -3.60100 28.38400
C  19.96600 -3.61600 26.99300
C  18.99800 -2.57900 26.65700
C  21.21300 -4.29200 29.31400
C  20.61900 -4.44400 25.87600
O  20.30900 -4.31200 24.68800
C  21.44200 -5.58200 26.17100
N  16.87500 -0.29400 25.81300
C  17.75000 -0.98100 25.03900
C  17.63900 -0.38300 23.64600
C  16.46600 0.63600 23.69300
C  16.24700 0.71500 25.16300
C  18.98100 0.18900 23.16400
C  15.22700 0.30300 22.87000
C  14.01100 -0.31300 23.48300
N  15.83100 1.16200 28.10000
C  15.22800 1.92800 27.14100
C  14.51900 3.02200 27.73400
C  14.80000 2.90300 29.09200
C  15.63400 1.81200 29.28200
C  13.65500 3.96300 27.14300
C  14.42900 3.49000 30.35000
O  13.66600 4.38600 30.66400
C  15.21100 2.61400 31.44600
C  15.97700 3.45900 32.35200
O  17.17500 3.64300 32.31100
O  15.16800 3.97000 33.31600
C  15.87600 4.41600 34.50900
H  19.57700 -2.65800 30.98800
H  19.21400 -2.33800 24.47600
H  14.98100 2.42500 25.08400
H  17.73100 1.09600 32.89000
H  18.52900 -1.60800 32.96600
H  20.61100 -0.33300 31.59800
H  20.55700 -0.27600 33.32800
H  19.77300 0.97400 32.42900
H  15.98700 -1.27600 32.93200
H  15.32900 0.33800 33.42400
H  17.04900 -1.74300 34.68900
H  15.90100 -0.62400 35.48200
H  21.23400 -5.37000 29.15300
H  20.83200 -4.28400 30.33600
H  22.23500 -3.93500 29.19500
H  21.14400 -6.15500 27.04800
H  22.41100 -5.18100 26.47000
H  21.51400 -6.20500 25.27900
H  17.40000 -1.24600 23.02400
H  16.79200 1.61000 23.32900
H  19.08100 1.26900 23.27100
H  19.10200 -0.10500 22.12200
H  19.83500 -0.11700 23.76800
H  15.51600 -0.34000 22.03800
H  14.92600 1.26000 22.44300
H  14.10500 -0.82400 24.44100
H  13.54700 -1.08500 22.86900
H  13.29700 0.48400 23.69300
H  13.70200 4.97400 27.54500
H  12.67200 3.50500 27.25100
H  13.88000 4.11500 26.08700
H  14.46800 2.00800 31.96600
H  16.69600 5.09100 34.26400
H  16.33100 3.52900 34.94900
H  15.22800 4.91300 35.23100
Mg 41.46700 9.16500 29.86100
C  43.48500 10.32700 32.45800
C  39.20700 8.14900 32.20000
C  39.69500 7.69200 27.39100
C  43.87200 10.22200 27.57200
N  41.43200 9.23900 32.09500
C  42.26900 9.85900 32.92300
C  41.65500 9.91800 34.36200
C  40.38700 8.97900 34.24400
C  40.34100 8.83400 32.74800
C  40.50400 7.53900 34.91800
C  41.39500 11.42600 34.69300
C  40.54900 11.71600 35.99600
H  41.18700 12.56000 37.15100
N  39.72000 8.04100 29.79800
C  38.87300 7.78100 30.84800
C  37.64900 7.25200 30.30000
C  37.80900 7.00200 28.93600
C  39.14300 7.50500 28.66100
C  36.50200 6.81300 31.19500
C  36.85100 6.43800 27.82600
O  37.14700 6.11800 26.66400
C  35.42700 6.17300 28.32100
N  41.92600 8.80000 27.79000
C  40.91200 8.24400 26.97300
C  41.29700 8.37400 25.48000
C  42.51500 9.37000 25.55700
C  42.80800 9.55800 27.05400
C  41.63900 7.00600 24.73600
C  42.15200 10.72100 24.84300
C  41.36900 11.83500 25.55400
N  43.29400 10.07100 29.98500
C  44.18800 10.36000 28.97200
C  45.37900 10.89100 29.51300
C  45.17600 10.86700 30.91200
C  43.90000 10.33200 31.13600
C  46.57500 11.34100 28.77200
C  45.77200 11.20800 32.21400
O  46.85700 11.69000 32.37700
C  44.63800 10.93300 33.28300
C  45.07300 9.91100 34.24200
O  45.36800 8.74900 33.98100
O  44.84300 10.41200 35.54300
C  44.86600 9.45500 36.64100
H  38.31800 8.14400 32.83300
H  39.18700 7.39000 26.47300
H  44.63000 10.72400 26.96800
H  42.42900 9.40000 34.92900
H  39.50400 9.47600 34.64600
H  40.62100 6.69200 34.24200
H  39.62100 7.32800 35.52300
H  41.43400 7.56100 35.48600
H  40.82500 11.88600 33.88500
H  42.33900 11.95800 34.80800
H  40.18000 10.78700 36.43000
H  39.64000 12.25300 35.72600
H  36.88200 6.68100 32.20900
H  36.18400 5.80000 30.94700
H  35.62000 7.44800 31.11800
H  34.80000 5.85000 27.49000
H  34.90400 7.04800 28.70700
H  35.36200 5.40900 29.09600
H  40.40500 8.81900 25.04000
H  43.47400 9.10400 25.11400
H  41.07500 6.72700 23.84600
H  41.47200 6.16800 25.41300
H  42.69800 7.05200 24.48400
H  41.62200 10.49200 23.91800
H  43.03500 11.15900 24.37800
H  41.27200 11.57100 26.60700
H  40.35900 12.05200 25.20500
H  41.93800 12.76500 25.55100
H  47.35600 11.47000 29.52100
H  46.45700 12.25300 28.18700
H  46.96800 10.65500 28.02000
H  44.42400 11.82100 33.87700
H  44.45000 8.48900 36.35600
H  44.24900 9.88900 37.42800
H  45.83000 9.36500 37.14300

