158

Mg 54.43100 24.78400 45.06800
C  51.48800 26.52700 43.99000
C  52.80400 21.80600 44.06600
C  57.36800 23.17700 45.09100
C  55.90400 27.75900 45.66500
N  52.28400 24.26300 44.20100
C  51.35300 25.08600 43.78500
C  50.23200 24.32900 43.12000
C  50.48100 22.86900 43.58000
C  51.97500 22.94900 43.95000
C  49.68600 22.53300 44.80600
C  50.03000 24.52400 41.57300
C  48.61600 24.91300 41.13600
H  48.24800 24.64000 39.69300
N  54.99600 22.78100 44.85700
C  54.16600 21.75200 44.38400
C  54.96700 20.54900 44.14900
C  56.26900 20.87800 44.56100
C  56.25800 22.27900 44.91700
C  54.38300 19.28900 43.51200
C  57.36800 19.85700 44.60100
O  57.09900 18.66700 44.36200
C  58.76100 20.15900 45.02800
N  56.38400 25.37700 45.30300
C  57.50800 24.52800 45.29500
C  58.81600 25.28800 45.53300
C  58.28500 26.73100 45.79300
C  56.75400 26.59900 45.49100
C  59.73700 24.72700 46.63500
C  59.03700 27.80600 44.96900
C  59.47500 29.09400 45.61800
N  53.85000 26.74400 44.96600
C  54.49900 27.84600 45.46100
C  53.63000 28.95800 45.49600
C  52.46400 28.55100 44.84200
C  52.63200 27.13700 44.57100
C  54.06200 30.28700 46.12700
C  51.09300 28.91300 44.41800
O  50.45000 29.94800 44.56400
C  50.45500 27.64700 43.74100
C  50.32400 27.94800 42.26500
O  51.22200 28.19800 41.46200
O  48.94600 28.22800 42.01400
C  48.69400 28.99400 40.76600
H  52.33500 20.83600 43.88800
H  58.39900 22.82800 45.00800
H  56.33400 28.73700 45.88900
H  49.33500 24.67400 43.63500
H  50.38900 22.13200 42.78200
H  50.24600 21.72300 45.27300
H  48.66300 22.25100 44.55500
H  49.80400 23.36000 45.50600
H  50.38300 23.62100 41.07400
H  50.77900 25.25200 41.26000
H  48.48500 25.98100 41.31000
H  47.84500 24.45900 41.75800
H  54.60100 19.34500 42.44500
H  53.29600 19.23100 43.56600
H  54.67000 18.35800 44.00000
H  59.30800 19.22600 45.16700
H  58.68000 20.70800 45.96600
H  59.22500 20.66200 44.17900
H  59.30000 25.22100 44.55900
H  58.27500 26.93300 46.86400
H  59.32100 23.89200 47.19800
H  60.05000 25.50000 47.33700
H  60.62800 24.40500 46.09700
H  58.47600 28.09700 44.08100
H  59.95500 27.37000 44.57500
H  58.78100 29.87000 45.29500
H  60.49800 29.31200 45.31100
H  59.42200 28.98200 46.70100
H  54.64100 29.94200 46.98300
H  53.21000 30.94400 46.30000
H  54.74900 30.86500 45.50800
H  49.48200 27.41300 44.17200
H  49.24300 28.65300 39.88900
H  49.00000 30.03000 40.91200
H  47.62700 29.07000 40.55500
Mg 26.85700 50.32700 25.74900
C  24.74800 51.19600 28.49200
C  29.29800 49.26800 27.81700
C  28.69000 49.71600 23.07100
C  24.40000 51.85100 23.61400
N  26.92500 50.15700 27.90000
C  25.98500 50.49200 28.80600
C  26.46800 50.01600 30.19300
C  27.97100 49.53400 30.01200
C  28.07600 49.56700 28.44000
C  29.11100 50.32100 30.77000
C  25.47900 48.90600 30.90300
C  25.00000 49.18300 32.31500
H  25.95800 49.87800 33.31100
N  28.78400 49.52900 25.49000
C  29.63300 49.18600 26.43300
C  30.86800 48.81000 25.86500
C  30.79000 48.99100 24.45300
C  29.36200 49.43000 24.27500
C  32.07000 48.45300 26.71200
C  31.84900 48.66600 23.39100
O  31.64400 48.89600 22.20000
C  33.10000 48.00600 23.84000
N  26.67000 50.88600 23.69500
C  27.49300 50.30700 22.79800
C  27.08800 50.74400 21.37900
C  25.67600 51.24800 21.49700
C  25.50200 51.28800 23.04200
C  28.14600 51.72400 20.54000
C  24.69000 50.38800 20.65200
C  23.71100 51.16700 19.85100
N  25.00100 51.43100 25.91000
C  24.12600 51.92700 24.97700
C  22.95800 52.52400 25.60500
C  23.19100 52.30200 27.02300
C  24.45100 51.60900 27.11200
C  21.83500 53.23600 24.97100
C  22.60300 52.47300 28.38500
O  21.59400 53.03000 28.72000
C  23.53900 51.68600 29.31600
C  23.92500 52.35500 30.59000
O  24.75700 53.25200 30.73700
O  23.08300 51.93300 31.55100
C  23.29600 52.45700 32.85700
H  29.96100 48.86800 28.58800
H  29.20500 49.45800 22.14200
H  23.69300 52.31200 22.92100
H  26.34300 50.92000 30.78900
H  28.13400 48.47300 30.19700
H  29.68500 49.62000 31.37700
H  28.81700 51.15800 31.40400
H  29.85000 50.63600 30.03400
H  25.84500 47.90000 30.69900
H  24.60900 48.85200 30.24900
H  24.59100 48.30300 32.81200
H  24.08200 49.75300 32.17300
H  32.32200 47.41500 26.49600
H  31.81900 48.39000 27.77100
H  32.92100 49.10000 26.49800
H  33.80100 48.65300 24.36700
H  33.59400 47.71000 22.91500
H  32.94700 47.07500 24.38700
H  27.04000 49.92000 20.66700
H  25.72400 52.28600 21.16700
H  28.97400 52.02200 21.18200
H  27.80700 52.64100 20.05800
H  28.55300 51.09100 19.75100
H  24.20500 49.71600 21.36000
H  25.18300 49.65500 20.01300
H  22.76700 51.05400 20.38500
H  23.47900 50.67500 18.90700
H  23.94600 52.21600 19.66800
H  20.97000 53.28800 25.63200
H  21.63800 52.67100 24.05900
H  22.20700 54.24400 24.78900
H  22.95300 50.82600 29.63700
H  24.35200 52.41900 33.12300
H  22.65700 51.90000 33.54200
H  22.98100 53.49900 32.90300

