158

Mg 35.61200 0.82800 29.73500
C  33.42100 2.54400 31.97400
C  38.05600 1.20900 32.32900
C  37.90200 -0.17900 27.56600
C  33.25500 1.29900 27.32700
N  35.72300 1.71600 31.90400
C  34.63700 2.26900 32.55700
C  34.88900 2.34500 34.03900
C  36.46600 2.26400 34.10100
C  36.77200 1.62500 32.74900
C  37.25000 3.71600 34.31300
C  34.14300 1.11100 34.78600
C  33.67500 1.41700 36.24100
H  34.15400 2.65500 36.96700
N  37.69100 0.39100 29.95700
C  38.49100 0.63500 31.07800
C  39.86800 0.18000 30.78400
C  39.79200 -0.23600 29.41900
C  38.40700 -0.00000 28.94000
C  40.83900 0.02600 31.90100
C  40.81600 -0.79200 28.49200
O  40.61600 -1.12600 27.33900
C  42.08300 -1.16800 29.08600
N  35.57800 0.64800 27.73300
C  36.64500 0.14200 27.07500
C  36.35400 0.19300 25.54700
C  34.80000 0.47600 25.56600
C  34.48500 0.77700 26.96100
C  37.05600 1.28800 24.71700
C  33.95000 -0.66300 24.92500
C  32.85000 -0.14800 23.87400
N  33.67400 1.67000 29.64800
C  32.82400 1.72200 28.62300
C  31.49100 2.25300 29.01500
C  31.70300 2.66000 30.31000
C  33.02700 2.22400 30.63300
C  30.20900 2.16500 28.22200
C  31.07600 3.25000 31.46000
O  29.92200 3.64400 31.60900
C  32.20600 3.20900 32.63300
C  32.41500 4.61600 32.94700
O  33.24700 5.35400 32.52700
O  31.59200 4.89600 34.02400
C  31.68000 6.25400 34.60500
H  38.81500 1.27700 33.11100
H  38.60500 -0.50400 26.79600
H  32.58400 1.29100 26.46500
H  34.54900 3.33300 34.34900
H  36.82300 1.56900 34.86100
H  36.54200 4.47900 34.63300
H  37.61900 4.07300 33.35100
H  38.01400 3.67500 35.08900
H  34.76800 0.21800 34.75000
H  33.21500 0.84000 34.28100
H  33.94300 0.48800 36.74400
H  32.59100 1.52900 36.26900
H  41.64000 0.75600 32.01800
H  41.48900 -0.83000 31.72000
H  40.52100 -0.11800 32.93400
H  41.95900 -2.08200 29.66800
H  42.57700 -0.39200 29.67100
H  42.73500 -1.49300 28.27500
H  36.48500 -0.80700 25.13400
H  34.53100 1.39600 25.04800
H  37.90800 1.75400 25.21200
H  36.37300 2.12100 24.55200
H  37.27000 0.71200 23.81700
H  33.52500 -1.34200 25.66500
H  34.66300 -1.24200 24.33800
H  33.25900 -0.34000 22.88200
H  32.55700 0.89700 23.97000
H  31.87100 -0.57300 24.09500
H  30.38300 1.26200 27.63700
H  30.03100 3.03000 27.58300
H  29.36100 2.16500 28.90700
H  31.76400 2.59000 33.41400
H  32.13000 6.17800 35.59500
H  30.65900 6.63200 34.65500
H  32.33900 6.94100 34.07400
Mg 7.31500 53.39400 41.04800
C  6.99700 49.78500 40.72700
C  10.55500 53.03800 40.44200
C  7.41300 56.62400 40.95600
C  3.72100 53.52500 41.20900
N  8.54100 51.47900 40.65500
C  8.28000 50.16400 40.55000
C  9.58400 49.34700 40.49100
C  10.76200 50.42000 40.67700
C  9.93500 51.77500 40.59100
C  11.68800 50.15500 41.96200
C  9.68800 48.39300 39.22800
C  9.64100 49.13200 37.84600
H  8.39800 48.80600 36.99200
N  8.81300 54.68300 40.69200
C  10.10400 54.36400 40.35200
C  10.84200 55.54900 40.08500
C  9.99400 56.63100 40.38800
C  8.67700 56.06100 40.70300
C  12.29700 55.63600 39.71900
C  10.34400 58.16900 40.32500
O  11.47800 58.52300 39.92200
C  9.47400 59.21100 41.05200
N  5.79400 54.87200 41.00000
C  6.08300 56.13100 41.04500
C  4.79500 57.04300 41.20100
C  3.63100 56.03500 41.24900
C  4.41600 54.73300 41.10000
C  4.86700 57.99600 42.41100
C  2.54400 56.26500 40.25100
C  1.46500 57.28500 40.60200
N  5.68100 52.00200 41.03300
C  4.29500 52.20700 41.21200
C  3.64400 50.92500 41.41000
C  4.67800 50.01200 41.25400
C  5.88600 50.67000 40.91500
C  2.22300 50.74300 41.62100
C  4.93900 48.63000 41.34100
O  4.19600 47.74000 41.76500
C  6.41100 48.41700 40.87500
C  6.29600 47.62600 39.68200
O  5.97100 48.02900 38.57100
O  6.52700 46.32400 40.08900
C  6.37100 45.34000 38.99600
H  11.62300 52.85000 40.31700
H  7.31300 57.71200 40.94500
H  2.64400 53.51000 41.38700
H  9.51800 48.61900 41.29900
H  11.44800 50.36400 39.83200
H  11.27000 49.36800 42.58900
H  11.40000 51.00800 42.57600
H  12.74400 50.01400 41.73100
H  8.76600 47.81100 39.19700
H  10.54400 47.75900 39.45600
H  10.52400 48.74400 37.33800
H  9.84000 50.20300 37.81700
H  12.71200 54.63500 39.83600
H  12.83300 56.39700 40.28500
H  12.35900 55.86700 38.65500
H  8.62800 59.43700 40.40300
H  10.08500 60.10600 41.17500
H  9.31300 58.84300 42.06600
H  4.90600 57.54400 40.23900
H  3.24500 56.06600 42.26800
H  5.46600 57.56000 43.21000
H  3.85500 58.19200 42.76700
H  5.26500 58.93100 42.01700
H  2.13100 55.31200 39.91900
H  2.88300 56.72100 39.32100
H  2.03400 57.98500 41.21400
H  0.69900 56.81100 41.21700
H  1.04700 57.81500 39.74600
H  1.71200 51.67300 41.87400
H  1.92400 49.88600 42.22400
H  1.89500 50.50200 40.61000
H  6.86500 47.87800 41.70700
H  6.65900 44.38500 39.43700
H  7.12100 45.63600 38.26200
H  5.38900 45.22700 38.53800

