158

Mg 9.51900 48.54000 25.26400
C  7.58100 48.93500 28.07200
C  12.11600 49.95100 27.04700
C  11.46300 48.25800 22.58200
C  6.73700 47.99900 23.34500
N  9.74500 49.30600 27.26800
C  8.89700 49.26400 28.27800
C  9.43600 49.88100 29.61900
C  10.64000 50.63800 29.00400
C  10.84100 49.94000 27.68400
C  10.49200 52.18100 28.92100
C  9.79600 48.82900 30.69700
C  9.25500 49.14600 32.19400
H  9.97900 50.09500 33.12900
N  11.55700 48.89700 24.93700
C  12.43100 49.48200 25.81200
C  13.72300 49.43000 25.21400
C  13.62000 48.95400 23.94900
C  12.18800 48.65700 23.74500
C  15.00400 49.74600 25.96600
C  14.67100 48.81000 22.85000
O  14.38600 48.44600 21.70200
C  16.20200 49.17500 23.04300
N  9.11300 48.40200 23.22200
C  10.11300 48.07900 22.35600
C  9.54500 47.78700 20.92000
C  8.00600 47.62800 21.16800
C  7.91000 48.09400 22.67200
C  10.13800 48.76200 19.83300
C  7.40000 46.20900 20.93000
C  6.78300 46.12300 19.48400
N  7.48800 48.46900 25.59800
C  6.46100 48.21800 24.74300
C  5.19200 48.15600 25.50600
C  5.62200 48.36800 26.80600
C  6.99100 48.63000 26.78400
C  3.83400 47.92400 24.94100
C  5.16900 48.58000 28.18000
O  4.02900 48.54400 28.70200
C  6.42700 48.94000 28.99700
C  6.54300 47.89300 30.00900
O  7.01800 46.78300 29.74300
O  6.16500 48.22000 31.29300
C  6.18000 47.10400 32.21800
H  12.86700 50.37200 27.71900
H  11.98200 48.04100 21.64600
H  5.92400 47.64800 22.70600
H  8.67000 50.56200 29.99000
H  11.55000 50.42200 29.56400
H  9.77800 52.54000 29.66300
H  9.87300 52.40300 28.05200
H  11.45900 52.68100 28.97400
H  10.85800 48.58200 30.68900
H  9.36700 47.92400 30.26700
H  9.06700 48.22500 32.74600
H  8.27700 49.59800 32.02400
H  15.00300 50.15700 26.97600
H  15.41900 50.57000 25.38500
H  15.67900 48.89000 25.96600
H  16.81500 48.64600 23.77300
H  16.05500 50.23400 23.25200
H  16.71700 49.01700 22.09500
H  9.89300 46.76300 20.78600
H  7.49300 48.30900 20.49000
H  9.37500 49.54000 19.82400
H  10.20400 48.32000 18.83800
H  11.13700 49.16600 19.99300
H  6.58300 46.08200 21.64000
H  8.15100 45.43100 21.07400
H  7.52100 45.72600 18.78700
H  6.22200 46.95400 19.05600
H  6.13300 45.24900 19.46400
H  3.75800 46.91200 24.54400
H  3.70800 48.60900 24.10200
H  3.03300 47.92300 25.68000
H  6.26700 49.91000 29.46800
H  7.18200 46.67800 32.26400
H  5.39500 46.43000 31.87600
H  5.83700 47.49600 33.17600
Mg -1.20700 34.87000 27.47300
C  -2.89400 33.09800 29.95900
C  -0.05400 37.07500 29.81300
C  -0.12200 36.88100 24.97300
C  -2.52200 32.67300 25.06300
N  -1.57500 35.08900 29.71200
C  -2.17800 34.19500 30.52200
C  -2.06600 34.67000 32.00500
C  -1.30800 36.01300 31.82600
C  -0.87900 36.06000 30.38700
C  -2.12800 37.29400 32.31300
C  -1.32200 33.61900 32.91600
C  -1.92700 33.44700 34.31600
H  -0.97600 33.43300 35.46100
N  -0.07500 36.57800 27.43100
C  0.29500 37.32900 28.50200
C  1.10800 38.43300 28.04300
C  1.01400 38.51500 26.65100
C  0.30600 37.27100 26.28200
C  1.85300 39.36500 29.02400
C  1.70200 39.44300 25.62900
O  1.40300 39.44300 24.44400
C  2.96800 40.23700 25.98100
N  -1.27300 34.76400 25.35900
C  -0.82900 35.78000 24.49500
C  -1.34300 35.62600 23.10900
C  -1.77700 34.13900 23.16000
C  -1.89200 33.85000 24.60100
C  -2.56300 36.57400 22.87400
C  -0.98000 33.12900 22.31800
C  0.31700 32.55800 22.82800
N  -2.45900 33.27100 27.42600
C  -2.82400 32.40100 26.40700
C  -3.71900 31.41000 26.92200
C  -3.70400 31.51300 28.31900
C  -3.02000 32.74700 28.60100
C  -4.38500 30.35700 25.98800
C  -4.09300 30.94400 29.62200
O  -4.73100 29.89300 29.85100
C  -3.66800 31.95700 30.76900
C  -4.82400 32.41300 31.51000
O  -5.76600 33.09200 31.08500
O  -4.67800 31.99700 32.81100
C  -5.81500 32.42300 33.66200
H  0.30100 37.73100 30.61100
H  0.14700 37.59200 24.19000
H  -2.77900 31.98100 24.25900
H  -3.09800 34.77600 32.34000
H  -0.33600 36.04800 32.31800
H  -1.40900 37.99800 32.73200
H  -2.83400 37.05900 33.10900
H  -2.72400 37.72200 31.50700
H  -0.40300 34.14500 33.17400
H  -1.26900 32.68300 32.36000
H  -2.39200 32.46100 34.30400
H  -2.81500 34.07600 34.37500
H  2.93200 39.21700 29.07900
H  1.54400 39.08500 30.03100
H  1.58500 40.37100 28.70100
H  2.71500 40.90300 26.80500
H  3.32000 40.92300 25.21100
H  3.86500 39.71300 26.31300
H  -0.59800 35.85300 22.34700
H  -2.80800 34.01600 22.82600
H  -2.50000 37.42000 23.55900
H  -3.55300 36.11900 22.87900
H  -2.59600 37.03700 21.88800
H  -0.77300 33.55100 21.33400
H  -1.66300 32.29800 22.14300
H  0.76700 33.18700 23.59600
H  0.94000 32.47100 21.93800
H  0.06700 31.56300 23.19600
H  -4.50400 29.43600 26.55900
H  -3.76900 30.04300 25.14500
H  -5.32500 30.65800 25.52500
H  -2.93400 31.41500 31.36500
H  -6.58400 33.08200 33.26000
H  -5.37800 32.73200 34.61200
H  -6.33900 31.54300 34.03600

