158

Mg 0.33300 8.00900 26.75700
C  1.00900 10.15300 29.42700
C  -0.02800 5.41400 29.13000
C  0.00900 5.74500 24.25400
C  1.37300 10.54800 24.56000
N  0.44700 7.88000 29.04700
C  0.54400 8.94900 29.93700
C  0.27300 8.54700 31.37900
C  0.19600 6.94600 31.17500
C  0.11900 6.69100 29.67500
C  1.28500 6.09300 31.88300
C  -0.90600 9.25300 31.99800
C  -0.75500 9.69000 33.46500
H  0.18000 8.84100 34.30700
N  -0.08900 5.89700 26.71800
C  -0.15700 5.03900 27.81900
C  -0.36100 3.68500 27.30200
C  -0.47900 3.82700 25.88500
C  -0.21400 5.19100 25.53600
C  -0.49300 2.41000 28.13000
C  -0.86400 2.70800 24.89800
O  -0.87400 2.92400 23.71800
C  -1.33700 1.31000 25.36900
N  0.77700 8.08900 24.69000
C  0.60800 6.98600 23.87000
C  0.87000 7.40600 22.41200
C  1.11900 8.97100 22.52500
C  1.05800 9.26600 24.07400
C  2.00600 6.69200 21.64700
C  0.12700 9.90400 21.77800
C  0.82900 11.06700 20.92100
N  1.07400 9.95100 26.92600
C  1.51900 10.85100 25.91400
C  1.98500 12.08400 26.57000
C  1.76100 11.82100 27.90200
C  1.25000 10.50700 28.03000
C  2.36000 13.42500 25.98900
C  1.97900 12.43800 29.21400
O  2.54200 13.49900 29.48200
C  1.48500 11.40500 30.27700
C  2.60000 11.08500 31.11300
O  3.72200 10.63500 30.80000
O  2.31700 11.33700 32.41200
C  3.43200 11.31100 33.34400
H  -0.00600 4.71800 29.97100
H  -0.11800 4.99100 23.47500
H  1.52100 11.40500 23.89900
H  1.15000 8.79400 31.97700
H  -0.65400 6.37100 31.54200
H  0.79300 5.17500 32.20500
H  1.72500 6.50800 32.79100
H  2.07000 5.79700 31.18700
H  -1.74900 8.56300 32.02600
H  -1.27600 10.15400 31.50700
H  -1.69400 9.69000 34.01800
H  -0.57300 10.76000 33.36400
H  -0.26100 2.50800 29.19100
H  0.28400 1.77800 27.70200
H  -1.52900 2.07700 28.05800
H  -1.66400 0.60600 24.60300
H  -2.20000 1.50700 26.00400
H  -0.52000 0.78400 25.86300
H  0.00500 7.16600 21.79300
H  2.14300 9.33400 22.43900
H  2.60300 6.12300 22.36000
H  2.73900 7.33600 21.16100
H  1.48000 6.10000 20.89800
H  -0.61300 10.35600 22.43900
H  -0.55600 9.32700 21.15400
H  0.61800 10.81200 19.88200
H  1.87700 11.09000 21.21900
H  0.44800 12.00400 21.32800
H  2.37300 14.17800 26.77700
H  1.59900 13.88400 25.35800
H  3.37900 13.53600 25.61800
H  0.62100 11.82200 30.79500
H  4.37800 11.74400 33.01600
H  3.67300 10.28800 33.63400
H  3.04400 11.74100 34.26700
Mg 42.22200 41.77800 26.56300
C  41.42300 44.34500 28.92900
C  43.13200 39.79600 29.20600
C  43.10400 39.42800 24.33000
C  41.67600 44.03900 24.06800
N  42.35300 42.06800 28.81800
C  41.92700 43.14400 29.58900
C  42.08100 42.84500 31.11000
C  42.78000 41.42700 31.09800
C  42.73200 41.05700 29.63600
C  44.17800 41.43000 31.80400
C  40.73900 42.83900 31.90200
C  40.80700 43.56700 33.28200
H  40.12100 42.84100 34.39300
N  43.05100 39.87700 26.72600
C  43.26800 39.20800 27.88600
C  43.77300 37.85100 27.59100
C  43.91600 37.78600 26.16000
C  43.40100 39.10900 25.70200
C  44.24900 36.91700 28.65000
C  44.46100 36.76300 25.25700
O  44.55200 36.78200 23.99900
C  44.74100 35.44800 25.82100
N  42.59700 41.76200 24.45100
C  42.71700 40.63600 23.80900
C  42.36300 40.82300 22.27700
C  41.73700 42.26600 22.22900
C  41.90700 42.70800 23.70000
C  43.62000 40.49100 21.40100
C  40.26200 42.39300 21.78700
C  39.16600 41.38000 22.25800
N  41.68800 43.76400 26.44600
C  41.59500 44.60000 25.32400
C  41.27800 45.87900 25.76600
C  41.23200 45.87800 27.13900
C  41.47000 44.52400 27.53700
C  41.15400 47.00400 24.74900
C  41.00800 46.66500 28.28500
O  40.74500 47.84800 28.45500
C  41.09700 45.75300 29.50200
C  42.09100 46.28500 30.51200
O  43.26200 46.37700 30.21200
O  41.54800 46.66000 31.71600
C  42.54000 46.77900 32.77900
H  43.29200 39.11500 30.04500
H  43.26200 38.63100 23.60000
H  41.31500 44.73800 23.31100
H  42.76500 43.52600 31.61500
H  42.12400 40.74200 31.63500
H  44.10900 40.81700 32.70300
H  44.39200 42.43900 32.15700
H  44.83300 41.11400 30.99200
H  40.36900 41.84400 32.14900
H  39.96000 43.36500 31.35000
H  40.41000 44.57900 33.21000
H  41.82500 43.70800 33.64800
H  43.79100 35.94900 28.44700
H  43.88500 37.28800 29.60800
H  45.33400 36.82500 28.70800
H  45.40400 35.55000 26.68000
H  45.09400 34.83300 24.99200
H  43.83500 35.04200 26.27100
H  41.52700 40.17700 22.00800
H  42.40200 42.91700 21.66200
H  43.92500 41.45200 20.98900
H  43.43700 39.74200 20.63100
H  44.49700 40.12900 21.93700
H  40.30300 42.22800 20.71000
H  40.03200 43.42500 22.05100
H  38.75800 41.85000 23.15300
H  39.59000 40.43600 22.59900
H  38.51900 41.32200 21.38200
H  40.22300 46.83400 24.21000
H  42.04800 47.10300 24.13300
H  41.07000 47.85400 25.42600
H  40.11300 45.61400 29.94900
H  43.04900 45.83700 32.98500
H  42.02500 47.18000 33.65200
H  43.31400 47.50300 32.52600

