158

Mg 48.26900 35.03900 26.72200
C  46.40000 34.00700 29.48600
C  49.08100 37.95500 28.49300
C  49.68600 36.06600 23.83700
C  46.90900 32.32100 24.95300
N  47.94500 35.80600 28.85100
C  47.11400 35.21300 29.80500
C  47.27300 35.97700 31.16400
C  47.88200 37.37200 30.65900
C  48.36900 37.05300 29.27700
C  46.85100 38.53500 30.61000
C  48.38600 35.16400 32.00700
C  48.10500 34.71400 33.40300
H  47.15200 35.59600 34.16500
N  49.28600 36.73300 26.24800
C  49.50200 37.84700 27.12200
C  50.43000 38.64700 26.49200
C  50.86200 37.96000 25.29700
C  49.90600 36.85800 25.07200
C  50.97600 39.96400 27.18600
C  51.99800 38.30500 24.23800
O  52.16700 37.58500 23.25700
C  52.88400 39.46500 24.41700
N  48.27700 34.40000 24.70300
C  48.86000 34.96200 23.57800
C  48.87100 34.13900 22.34400
C  48.15000 32.87800 22.83000
C  47.76800 33.20900 24.26800
C  48.38500 34.72300 21.05900
C  48.97500 31.56800 22.71600
C  48.44100 30.36100 21.90800
N  47.04100 33.39900 27.12500
C  46.53000 32.39700 26.24700
C  45.54200 31.63000 26.95700
C  45.47100 32.23500 28.23500
C  46.46200 33.26000 28.31500
C  45.04100 30.33300 26.53900
C  44.79500 32.13200 29.47600
O  43.90200 31.34400 29.85100
C  45.31800 33.29000 30.35100
C  45.83000 32.78400 31.58700
O  46.84800 32.17000 31.68500
O  44.99600 33.13600 32.54700
C  45.02100 32.38400 33.79800
H  49.17700 38.91000 29.01300
H  50.36200 36.05100 22.98000
H  46.55500 31.42100 24.44600
H  46.31200 36.15100 31.64800
H  48.74900 37.66900 31.24900
H  45.85200 38.12000 30.74200
H  46.85400 38.99200 29.62000
H  46.95500 39.35800 31.31800
H  49.30500 35.74900 31.97900
H  48.56300 34.25500 31.43100
H  49.01900 34.73500 33.99600
H  47.76100 33.68100 33.44800
H  50.59500 40.20600 28.17800
H  50.54000 40.71200 26.52400
H  52.06600 39.98400 27.20400
H  52.33700 40.40500 24.34800
H  53.76500 39.44700 23.77600
H  53.32300 39.35700 25.40900
H  49.93400 33.95600 22.18500
H  47.18100 32.72100 22.35600
H  47.64700 33.99900 20.71300
H  49.16100 34.64400 20.29700
H  47.96500 35.72200 21.17600
H  49.18200 31.01100 23.63000
H  49.97200 31.84200 22.37100
H  49.29400 29.90200 21.40900
H  47.64700 30.62200 21.20800
H  48.12800 29.48900 22.48100
H  44.67300 30.36000 25.51400
H  44.11300 30.11200 27.06700
H  45.70100 29.46800 26.60800
H  44.63100 34.09300 30.61700
H  44.39000 31.49600 33.82200
H  44.54100 32.91300 34.62200
H  46.01700 32.05400 34.09000
Mg 30.03500 57.72400 40.20500
C  27.22000 55.67800 39.23000
C  32.01000 55.25000 38.91800
C  32.54900 59.86800 40.50200
C  27.69600 60.32200 40.96400
N  29.56800 55.70600 38.93400
C  28.41900 54.98900 38.89000
C  28.64100 53.56700 38.38100
C  30.16700 53.56900 38.09900
C  30.64400 54.86700 38.69500
C  31.01100 52.34500 38.63500
C  27.80900 53.06600 37.10600
C  27.58200 54.10000 35.99300
H  28.19900 53.85600 34.63200
N  32.08000 57.47600 39.96800
C  32.71900 56.38500 39.37400
C  34.15400 56.69400 39.31500
C  34.30800 58.08000 39.71900
C  32.93700 58.57100 40.07800
C  35.14100 55.61300 38.82800
C  35.63900 58.88200 39.79200
O  36.66800 58.41000 39.38600
C  35.70700 60.26900 40.31700
N  30.07400 59.81900 40.66200
C  31.28200 60.44500 40.91200
C  31.13100 61.97900 41.19900
C  29.55500 62.00600 41.54700
C  29.03600 60.64900 40.94700
C  32.04100 62.39300 42.36000
C  28.83900 63.22100 40.95000
C  28.00400 63.91500 42.08700
N  27.89600 57.99300 40.20900
C  27.13900 59.09200 40.54600
C  25.78800 58.79500 40.44700
C  25.77600 57.41600 39.94100
C  27.08800 57.02600 39.74200
C  24.51300 59.72100 40.77400
C  24.83800 56.31000 39.68700
O  23.64100 56.17800 39.81200
C  25.76800 55.13900 39.17900
C  25.50400 53.94500 40.00200
O  25.96500 53.61900 41.13000
O  24.62700 53.13400 39.37500
C  24.54700 51.73500 39.84700
H  32.61600 54.53500 38.35800
H  33.35800 60.58600 40.34700
H  26.96500 61.09700 41.20400
H  28.48100 52.93900 39.25700
H  30.23400 53.82300 37.04200
H  30.30100 51.55100 38.86800
H  31.53200 52.52400 39.57600
H  31.63700 52.05200 37.79200
H  26.81400 52.72500 37.39300
H  28.23200 52.14200 36.71200
H  27.96600 55.04500 36.37600
H  26.50800 54.26300 35.89900
H  35.54600 55.82800 37.83900
H  34.59000 54.67700 38.74100
H  35.91400 55.39200 39.56400
H  36.72200 60.65500 40.41200
H  35.42100 60.19200 41.36600
H  35.26800 61.06800 39.72000
H  31.39700 62.48200 40.26900
H  29.46300 61.95000 42.63200
H  32.36900 61.45100 42.79900
H  31.54300 62.92900 43.16800
H  32.89000 62.99200 42.02900
H  28.19900 62.83200 40.15900
H  29.52000 63.91000 40.45000
H  28.08100 63.61900 43.13300
H  26.97100 63.82800 41.75100
H  28.09800 65.00100 42.08500
H  23.68800 59.29500 40.20300
H  24.78200 60.72100 40.43400
H  24.23800 59.59900 41.82200
H  25.55000 54.89200 38.14000
H  25.43600 51.16000 39.58900
H  23.78700 51.27600 39.21500
H  24.34700 51.68800 40.91800

