158

Mg 35.63300 1.75100 29.08000
C  33.60500 2.83700 31.65100
C  38.18700 1.30800 31.30900
C  37.70400 1.31300 26.61600
C  32.96200 2.24100 26.83500
N  35.83600 2.27200 31.21700
C  34.88900 2.54000 32.14300
C  35.39700 2.32300 33.57500
C  36.90500 2.11000 33.31800
C  37.00100 1.92000 31.84500
C  37.72600 3.38000 33.75000
C  34.69100 1.20300 34.40800
C  34.05800 1.59600 35.77400
H  34.64600 2.79000 36.50400
N  37.62500 1.16800 28.93500
C  38.46900 0.95900 29.98900
C  39.72200 0.59200 29.54500
C  39.66100 0.76200 28.09100
C  38.28500 1.05400 27.81800
C  40.93700 0.26800 30.49700
C  40.70200 0.48500 27.00800
O  40.48800 0.74000 25.88200
C  42.07300 -0.13800 27.32900
N  35.31500 1.83800 26.99800
C  36.42300 1.64900 26.19100
C  36.04700 1.75900 24.65800
C  34.52000 1.91000 24.77300
C  34.19000 1.92300 26.27100
C  36.75600 2.87600 23.83200
C  33.71400 0.83800 23.98600
C  33.06400 1.42800 22.71000
N  33.65600 2.47500 29.14500
C  32.66200 2.54200 28.21100
C  31.54200 3.18200 28.75600
C  31.80700 3.28100 30.12000
C  33.15500 2.77700 30.30400
C  30.24300 3.56400 27.99900
C  31.27500 3.62000 31.40600
O  30.11600 3.86100 31.75600
C  32.43200 3.36700 32.52200
C  32.67600 4.60000 33.34000
O  33.58300 5.42100 33.15600
O  31.69700 4.66200 34.32000
C  31.86400 5.89400 35.08900
H  38.89700 1.06600 32.10300
H  38.36400 1.17900 25.75700
H  32.24200 2.44700 26.04100
H  35.24000 3.20600 34.19500
H  37.33700 1.20700 33.74700
H  38.31500 3.63700 32.87000
H  38.46000 3.18500 34.53200
H  37.11300 4.27000 33.89000
H  35.43100 0.42300 34.58700
H  33.85500 0.84500 33.80800
H  34.27800 0.74500 36.41900
H  33.01400 1.69100 35.47400
H  41.18600 -0.79200 30.46000
H  40.71500 0.44700 31.54900
H  41.71100 0.94300 30.13200
H  42.08600 -0.78100 28.20900
H  42.76000 0.68100 27.54200
H  42.35300 -0.77400 26.49000
H  36.23300 0.76800 24.24400
H  34.23500 2.89700 24.41100
H  36.09100 3.45300 23.19000
H  37.40200 2.30100 23.16800
H  37.29400 3.64800 24.38300
H  33.02800 0.39400 24.70700
H  34.42900 0.08700 23.65000
H  33.37500 2.45300 22.50800
H  31.98300 1.40200 22.84600
H  33.40300 0.76800 21.91100
H  30.37900 4.23300 27.15000
H  29.42400 4.05400 28.52600
H  29.81700 2.71800 27.45800
H  32.08100 2.63100 33.24500
H  30.99900 6.01800 35.74000
H  31.98600 6.82600 34.53700
H  32.64100 5.54100 35.76700
Mg 47.59300 16.15300 29.02000
C  45.35500 15.93300 31.63400
C  49.90200 17.53500 30.93700
C  49.35900 17.05100 26.16200
C  45.17000 14.80600 26.91500
N  47.58800 16.63400 30.99400
C  46.61500 16.46900 31.95800
C  47.08500 16.70300 33.34700
C  48.39700 17.44700 33.07500
C  48.68400 17.17600 31.59100
C  48.36900 18.99600 33.42000
C  47.24500 15.30300 34.04700
C  47.32200 15.37600 35.57200
H  46.95500 16.66500 36.24900
N  49.48900 17.09000 28.61600
C  50.28500 17.56000 29.57100
C  51.54000 18.03300 28.95400
C  51.36600 17.87400 27.58200
C  49.98900 17.32300 27.42400
C  52.72200 18.45300 29.76200
C  52.31100 18.26900 26.42600
O  52.08800 18.04500 25.32000
C  53.67700 18.80900 26.64300
N  47.34500 15.82800 26.90300
C  48.21300 16.27500 25.95200
C  47.64800 16.11200 24.54400
C  46.37000 15.16000 24.80100
C  46.28900 15.21800 26.32100
C  47.38900 17.42300 23.76200
C  46.61300 13.68500 24.31200
C  46.34800 13.54000 22.79700
N  45.63400 15.35700 29.19900
C  44.77300 14.87500 28.28200
C  43.61400 14.44700 28.89100
C  43.73600 14.84900 30.27600
C  44.96400 15.38700 30.36400
C  42.35400 14.05300 28.10900
C  43.11000 14.91800 31.53200
O  41.96300 14.60700 31.83200
C  44.13200 15.58500 32.59900
C  43.43200 16.76800 33.14700
O  43.19800 17.83400 32.55100
O  42.84800 16.42500 34.31900
C  41.95000 17.47500 34.97200
H  50.64700 17.95300 31.61600
H  49.85500 17.38700 25.24900
H  44.48500 14.30100 26.23000
H  46.44800 17.39900 33.89300
H  49.14500 16.99800 33.72900
H  48.55500 19.53000 32.48900
H  49.11500 19.39400 34.10800
H  47.41800 19.33100 33.83500
H  48.26500 15.02200 33.78700
H  46.58700 14.48800 33.74600
H  48.35600 15.15100 35.83200
H  46.82800 14.50200 35.99500
H  53.55200 18.05100 29.18200
H  52.72000 18.21100 30.82500
H  52.78500 19.54100 29.74400
H  54.17900 19.16900 25.74500
H  54.35900 18.13400 27.15900
H  53.59200 19.56900 27.42000
H  48.48500 15.51000 24.19000
H  45.46700 15.50800 24.29700
H  46.33500 17.70200 23.75600
H  47.83700 17.36500 22.76900
H  47.94000 18.17700 24.32400
H  45.98400 13.03400 24.92000
H  47.60400 13.28300 24.51800
H  45.88600 12.55600 22.71800
H  47.34600 13.50300 22.36000
H  45.77700 14.37700 22.39400
H  41.94300 14.81100 27.44200
H  41.62000 13.79200 28.87100
H  42.58600 13.19000 27.48500
H  44.22700 14.76300 33.30900
H  41.05500 17.66000 34.37900
H  42.47000 18.40100 35.21900
H  41.67500 17.10400 35.95900

