158

Mg 8.38900 2.91200 27.95700
C  9.83100 1.66900 30.80100
C  6.27800 4.82500 29.93700
C  6.67000 3.69300 25.12100
C  9.96400 0.22000 26.11400
N  8.10200 3.20700 30.14000
C  8.97500 2.71200 31.08200
C  8.65500 3.36800 32.41400
C  7.33400 4.16300 32.17400
C  7.24200 4.12000 30.63000
C  6.11400 3.58600 32.89000
C  9.97600 4.11700 32.96300
C  10.72600 3.50600 34.24800
H  11.03700 4.48700 35.46200
N  6.71600 4.16600 27.56600
C  6.03200 4.85300 28.51700
C  5.11600 5.79600 27.73900
C  5.29200 5.50400 26.36400
C  6.21500 4.37900 26.29900
C  4.18600 6.82300 28.43300
C  4.74900 6.23500 25.16100
O  4.96100 5.97200 23.96800
C  3.82100 7.37900 25.36100
N  8.35800 2.06700 25.93000
C  7.57900 2.61800 24.94900
C  7.62200 1.90400 23.60000
C  8.78300 0.81400 23.86500
C  9.07300 1.01000 25.39200
C  6.21400 1.25500 23.28600
C  10.09700 0.97000 23.01000
C  10.33200 -0.14600 22.02500
N  9.72600 1.34300 28.27800
C  10.32800 0.38100 27.51300
C  11.23500 -0.40600 28.25200
C  11.07900 0.11700 29.58200
C  10.10600 1.14200 29.49900
C  11.95400 -1.55000 27.84600
C  11.48200 -0.07900 30.95000
O  12.23100 -0.97700 31.36300
C  10.76400 1.01600 31.76500
C  10.02800 0.39400 32.90500
O  8.89600 -0.11500 32.89400
O  10.76200 0.43300 34.07800
C  10.10200 0.03500 35.34900
H  5.70200 5.54200 30.52600
H  6.29200 4.13300 24.19500
H  10.36000 -0.61000 25.52600
H  8.46100 2.57200 33.13200
H  7.50800 5.18600 32.50700
H  6.07100 2.61100 33.37600
H  5.39800 3.58600 32.06800
H  5.80900 4.32600 33.63000
H  9.64300 5.10200 33.29200
H  10.71600 4.16800 32.16500
H  11.53200 2.80500 34.03300
H  10.00300 2.78900 34.63800
H  4.59300 7.82400 28.57300
H  4.12600 6.51000 29.47500
H  3.20700 6.80800 27.95400
H  2.89600 7.03700 25.82500
H  3.60700 7.85100 24.40300
H  4.22100 8.11100 26.06300
H  8.01200 2.66200 22.92000
H  8.41400 -0.19800 23.70000
H  5.75000 1.95700 22.59300
H  5.50000 1.05700 24.08500
H  6.38000 0.33700 22.72300
H  10.99600 1.18300 23.58900
H  10.06600 1.87200 22.39900
H  10.89500 0.17000 21.14700
H  9.34600 -0.49200 21.71600
H  11.03900 -0.89300 22.38700
H  12.21200 -1.51300 26.78800
H  11.49400 -2.47300 28.19800
H  12.93900 -1.65000 28.30300
H  11.42100 1.76200 32.21300
H  9.83600 -1.01700 35.25100
H  9.14700 0.54400 35.47800
H  10.70400 0.19000 36.24500
Mg 27.02000 49.95000 26.04200
C  25.49700 51.45900 28.67200
C  29.81000 49.35700 27.96500
C  28.80000 49.13800 23.17800
C  24.51100 51.28100 23.91500
N  27.55300 50.48100 28.04300
C  26.70200 50.94500 28.99000
C  27.08100 50.55100 30.38400
C  28.56600 50.12300 30.15100
C  28.65000 49.95700 28.67100
C  29.75900 50.93000 30.76900
C  26.17100 49.44100 31.11700
C  25.64000 49.64400 32.55800
H  26.48000 50.37400 33.62000
N  28.99900 49.22900 25.66800
C  29.97500 49.03400 26.59900
C  31.13100 48.51300 26.00200
C  30.94600 48.49000 24.59200
C  29.48200 48.96500 24.42200
C  32.25500 48.05400 26.81700
C  31.94200 48.17500 23.56100
O  31.63300 48.15800 22.36700
C  33.34700 47.82200 23.92000
N  26.76500 50.24800 23.82400
C  27.53400 49.61600 22.92900
C  26.91000 49.48200 21.49200
C  25.50600 50.15400 21.77500
C  25.52000 50.53900 23.26400
C  27.64200 50.23900 20.31300
C  24.27900 49.23200 21.63600
C  23.01000 49.98200 21.11400
N  25.33600 51.11400 26.24700
C  24.39500 51.61000 25.29500
C  23.33900 52.33300 25.97600
C  23.64100 52.25900 27.33100
C  24.88500 51.49600 27.43500
C  22.01800 52.76800 25.47100
C  23.22400 52.56000 28.68500
O  22.16200 53.04200 29.10400
C  24.49300 52.12800 29.61500
C  25.00300 53.22700 30.46800
O  25.87400 53.95800 30.12300
O  24.27400 53.34000 31.59300
C  24.72500 54.13700 32.69600
H  30.60300 49.14700 28.68600
H  29.35900 48.71200 22.34200
H  23.79400 51.58600 23.14900
H  27.09500 51.47800 30.95800
H  28.72500 49.11300 30.53000
H  30.27600 51.57000 30.05400
H  30.47700 50.20600 31.15500
H  29.36500 51.58800 31.54300
H  26.70600 48.49200 31.10200
H  25.32900 49.21400 30.46200
H  25.45300 48.63900 32.93800
H  24.62800 50.04200 32.48500
H  32.02500 47.99900 27.88100
H  33.04600 48.78600 26.65700
H  32.60300 47.09100 26.44300
H  33.36800 46.95900 24.58500
H  33.72300 48.75500 24.34100
H  33.83800 47.51800 22.99600
H  26.82700 48.46500 21.10800
H  25.33100 51.14800 21.36300
H  28.63400 49.82700 20.12600
H  27.71500 51.30600 20.52700
H  27.10700 50.14000 19.36900
H  24.01900 48.79000 22.59800
H  24.54800 48.40700 20.97700
H  23.26700 50.99700 20.80900
H  22.34200 50.14000 21.96100
H  22.53200 49.38600 20.33700
H  21.81300 52.35700 24.48300
H  21.85700 53.84200 25.57100
H  21.21200 52.34900 26.07300
H  24.19600 51.40200 30.37200
H  24.01600 54.02000 33.51500
H  24.67200 55.19600 32.44200
H  25.71500 53.78700 32.99000

