158

Mg 2.07500 -2.45500 44.23900
C  5.40000 -1.76600 43.55100
C  1.18700 0.20500 42.08000
C  -1.13000 -3.28300 44.43000
C  3.07300 -5.57700 45.66100
N  3.11900 -1.08500 42.83300
C  4.51000 -0.89000 42.87300
C  4.99600 0.31200 41.88800
C  3.61700 0.91100 41.44100
C  2.54400 -0.04700 42.11900
C  3.32100 2.40900 41.94000
C  5.93800 -0.07000 40.66900
C  7.13200 0.93800 40.48600
H  8.06600 0.72500 39.23700
N  0.24900 -1.56700 43.55600
C  0.12800 -0.46200 42.74200
C  -1.29600 -0.19600 42.54700
C  -2.02700 -1.13300 43.33100
C  -0.95000 -2.02700 43.82200
C  -1.85200 0.92300 41.66200
C  -3.60500 -1.15000 43.51300
O  -4.34600 -0.33100 42.96200
C  -4.28200 -2.13500 44.43200
N  1.08200 -4.23700 44.89100
C  -0.28500 -4.26700 44.92700
C  -0.76000 -5.65500 45.39400
C  0.52200 -6.21700 46.09600
C  1.66600 -5.34900 45.51500
C  -2.11800 -5.79300 46.20900
C  0.80400 -7.74500 45.87700
C  0.28300 -8.68100 47.05400
N  3.78300 -3.50600 44.58700
C  4.08600 -4.68400 45.25800
C  5.51600 -4.73800 45.44600
C  6.02400 -3.58400 44.84500
C  4.95300 -2.89900 44.33400
C  6.24000 -5.83900 46.14000
C  7.23500 -2.83300 44.69500
O  8.35000 -3.07300 45.17900
C  6.92600 -1.65700 43.78400
C  7.31400 -0.52300 44.61000
O  7.05100 -0.32600 45.76800
O  7.98300 0.39100 43.75200
C  8.18500 1.74300 44.25600
H  0.95700 1.14600 41.57600
H  -2.14400 -3.68700 44.40800
H  3.35600 -6.48100 46.20400
H  5.50400 1.01500 42.54800
H  3.49000 0.97900 40.36100
H  2.80800 2.95100 41.14600
H  4.25400 2.90800 42.20300
H  2.82700 2.37200 42.91100
H  5.37000 -0.19000 39.74700
H  6.35500 -1.05200 40.89400
H  7.82100 0.85300 41.32600
H  6.77900 1.96900 40.50000
H  -2.33000 0.53000 40.76500
H  -1.10700 1.62900 41.29400
H  -2.63000 1.55400 42.09100
H  -4.45800 -3.15100 44.08100
H  -5.21200 -1.71600 44.81800
H  -3.64100 -2.20800 45.31000
H  -0.85200 -6.21200 44.46100
H  0.65800 -6.03700 47.16300
H  -1.96200 -6.07000 47.25100
H  -2.76000 -6.54500 45.75000
H  -2.55300 -4.79500 46.14400
H  1.88300 -7.87300 45.78900
H  0.36300 -7.99800 44.91300
H  -0.39100 -8.16400 47.73600
H  1.09100 -9.03800 47.69300
H  -0.14600 -9.58500 46.62000
H  5.94800 -6.73500 45.59300
H  5.91200 -5.72200 47.17200
H  7.31200 -5.64100 46.11700
H  7.44700 -1.80600 42.83800
H  8.87300 1.69700 45.10100
H  7.18700 2.07200 44.54500
H  8.56000 2.52700 43.59800
Mg 17.43600 -1.80200 27.83200
C  15.98500 0.04000 30.62400
C  19.47300 -3.34200 30.17200
C  19.09100 -3.18200 25.29900
C  15.36800 -0.01400 25.81000
N  17.70000 -1.58700 30.09200
C  16.96500 -0.84400 31.03400
C  17.45300 -1.11800 32.47600
C  18.79000 -2.02300 32.24200
C  18.64000 -2.36100 30.70800
C  20.07600 -1.21700 32.51100
C  16.41200 -1.79900 33.32300
C  16.30800 -1.20900 34.79500
H  17.47500 -0.42200 35.31000
N  19.08400 -3.12200 27.73800
C  19.71000 -3.65000 28.82100
C  20.65600 -4.69300 28.30700
C  20.60600 -4.65700 26.86800
C  19.53600 -3.65600 26.54300
C  21.32800 -5.61800 29.15500
C  21.38500 -5.49800 25.83500
O  21.03700 -5.46100 24.62000
C  22.53500 -6.39600 26.21500
N  17.32000 -1.62500 25.91000
C  18.18000 -2.20400 24.97500
C  17.98200 -1.66100 23.57100
C  16.59200 -0.96900 23.72200
C  16.32600 -0.89300 25.21000
C  19.21000 -0.82200 23.04600
C  15.40000 -1.63800 22.94700
C  15.26600 -1.07400 21.46900
N  15.88800 -0.41700 28.12800
C  15.06100 0.21400 27.18300
C  14.08200 1.11200 27.77400
C  14.41100 1.00300 29.09600
C  15.51400 0.11900 29.25900
C  13.05800 1.96000 27.12300
C  14.07500 1.50600 30.36800
O  13.25400 2.30200 30.76100
C  15.11500 1.01500 31.37200
C  15.94700 2.23900 31.74100
O  16.72500 2.87600 31.02100
O  15.56300 2.42100 33.07200
C  16.44200 3.39600 33.78300
H  20.02600 -3.88800 30.94000
H  19.52000 -3.66100 24.41700
H  14.80000 0.56700 25.08200
H  17.66100 -0.11800 32.85700
H  18.76600 -3.00700 32.71200
H  20.64400 -1.87000 33.17400
H  20.02600 -0.32300 33.13300
H  20.64500 -0.84400 31.66000
H  16.70200 -2.84700 33.39300
H  15.46100 -1.66900 32.80700
H  16.16700 -1.99600 35.53500
H  15.35600 -0.70800 34.96700
H  21.54900 -6.58000 28.69300
H  20.76300 -5.81000 30.06800
H  22.24600 -5.12400 29.47400
H  23.35600 -5.83100 26.65600
H  22.97300 -6.85600 25.32900
H  22.29500 -7.17100 26.94300
H  17.83600 -2.49600 22.88500
H  16.69200 0.06800 23.40300
H  18.97200 0.17500 22.67600
H  19.94200 -1.40000 22.48200
H  19.68300 -0.57000 23.99500
H  14.48800 -1.44500 23.51200
H  15.66700 -2.69400 22.99400
H  16.15200 -0.45100 21.34300
H  14.42300 -0.42400 21.23300
H  15.33900 -1.84400 20.70100
H  13.00000 2.90100 27.66900
H  12.06700 1.54900 27.31200
H  13.17700 2.18400 26.06300
H  14.64000 0.55300 32.23700
H  16.08900 4.42800 33.80200
H  17.51200 3.27600 33.61500
H  16.38200 3.18400 34.85000

