158

Mg 35.68700 49.15100 24.85100
C  35.68200 47.26500 27.72200
C  34.19600 51.78100 26.79000
C  35.40100 51.04200 22.04200
C  36.70200 46.47900 23.08000
N  34.95100 49.41100 27.00300
C  35.23500 48.55100 28.00500
C  35.00700 49.15500 29.40100
C  34.27300 50.50800 29.02900
C  34.49700 50.54800 27.49900
C  32.77000 50.66000 29.44700
C  36.30300 49.16700 30.22700
C  36.10100 48.75900 31.70600
H  34.79900 49.07200 32.37500
N  34.76300 51.10000 24.41100
C  34.35500 52.00700 25.34900
C  33.91000 53.14100 24.65200
C  34.25100 53.00500 23.30100
C  34.86600 51.71100 23.20400
C  33.48700 54.47300 25.34700
C  34.11000 54.06300 22.16200
O  34.71500 53.94700 21.09900
C  33.19900 55.18600 22.32800
N  35.94900 48.74400 22.77800
C  35.83100 49.74500 21.82700
C  36.18300 49.14500 20.48200
C  36.90800 47.80800 20.88400
C  36.50300 47.65700 22.35000
C  35.01700 48.83000 19.42600
C  38.40600 47.69600 20.56800
C  38.91200 46.30000 20.06700
N  36.20500 47.30900 25.23700
C  36.56100 46.29400 24.44000
C  36.77800 45.03600 25.26500
C  36.47000 45.45100 26.56000
C  36.09000 46.82200 26.45700
C  37.14200 43.60600 24.86700
C  36.32900 44.88100 27.84100
O  36.62100 43.78400 28.25800
C  35.81300 46.04800 28.69600
C  34.55400 45.49400 29.28100
O  33.63100 44.96200 28.69500
O  34.69300 45.61500 30.59700
C  33.67300 45.17900 31.52700
H  33.69300 52.51400 27.42400
H  35.43500 51.54500 21.07400
H  37.13500 45.66800 22.49100
H  34.21300 48.60800 29.90800
H  34.82800 51.35800 29.42700
H  32.53000 50.27100 30.43600
H  32.19200 50.33000 28.58300
H  32.71900 51.74100 29.31900
H  36.74100 50.15700 30.10500
H  36.94400 48.45500 29.70700
H  36.91500 49.26100 32.22800
H  36.28200 47.69800 31.87400
H  33.46100 54.40500 26.43500
H  32.56600 54.93700 24.99400
H  34.23700 55.24400 25.16900
H  33.39600 55.89600 23.13200
H  32.19700 54.80400 22.52300
H  33.08900 55.72400 21.38700
H  36.94700 49.73500 19.97700
H  36.40700 46.97700 20.38700
H  35.15900 49.47200 18.55700
H  34.09000 49.17900 19.88300
H  34.91500 47.75900 19.25100
H  38.82000 47.89000 21.55700
H  38.74300 48.44600 19.85300
H  39.71600 45.97600 20.72800
H  39.41900 46.35200 19.10400
H  38.19800 45.48300 20.17300
H  37.12000 43.51900 23.78100
H  36.41200 42.94300 25.33200
H  38.06500 43.34400 25.38400
H  36.55900 46.22000 29.47200
H  33.86600 44.19700 31.95900
H  32.72600 45.07300 30.99700
H  33.60100 45.84000 32.39100
Mg 9.19900 48.75200 26.08700
C  7.64100 48.94200 29.10700
C  12.21600 49.51700 27.66800
C  10.85400 48.13800 23.15500
C  6.25800 48.09300 24.41400
N  9.83900 49.21500 28.11800
C  9.00600 49.25100 29.23200
C  9.66900 49.68400 30.46600
C  10.99500 50.34900 29.88900
C  11.07700 49.66000 28.48400
C  10.97800 51.89700 29.73500
C  9.93200 48.48700 31.44200
C  9.45400 48.60300 32.86500
H  9.43000 47.23600 33.68600
N  11.23800 48.74300 25.50800
C  12.31700 49.03500 26.31500
C  13.52600 48.86500 25.63900
C  13.19500 48.54300 24.29600
C  11.72300 48.45500 24.26900
C  14.86100 49.03100 26.35200
C  14.14100 48.40700 23.12600
O  13.64600 48.21100 22.05000
C  15.63900 48.44500 23.28200
N  8.62600 48.11400 24.03200
C  9.48200 48.08200 23.02100
C  8.78300 47.68500 21.63300
C  7.27600 47.40900 22.08900
C  7.36800 48.01500 23.56200
C  8.91300 48.75100 20.56100
C  6.72300 45.94800 22.07200
C  5.49400 45.62800 21.19400
N  7.25000 48.71600 26.57300
C  6.12700 48.36100 25.80300
C  4.98500 48.32400 26.72300
C  5.55800 48.45700 27.98200
C  6.92400 48.75000 27.84600
C  3.65200 47.93000 26.26700
C  5.24600 48.36000 29.43400
O  4.17900 48.11900 29.99400
C  6.56100 48.60900 30.20900
C  6.81700 47.36900 30.95400
O  7.34000 46.34200 30.45000
O  6.26200 47.41200 32.25400
C  6.23100 46.16300 33.01700
H  13.06800 49.95400 28.19300
H  11.24200 47.94500 22.15200
H  5.28400 47.81000 24.00900
H  8.97100 50.35400 30.96800
H  11.82000 50.14800 30.57200
H  11.95800 52.23900 30.06800
H  10.21900 52.23200 30.44200
H  10.90400 52.19700 28.69000
H  10.98400 48.37500 31.70600
H  9.72700 47.59700 30.84600
H  8.43200 48.97100 32.77500
H  9.99100 49.33200 33.47100
H  15.51700 49.80600 25.95500
H  15.40000 48.08400 26.36800
H  14.69300 49.32100 27.39000
H  16.14300 47.81400 22.55000
H  16.02500 47.89400 24.14000
H  16.02800 49.46200 23.31700
H  9.24200 46.77700 21.24100
H  6.65000 48.04100 21.45900
H  8.36300 48.47100 19.66300
H  9.95900 48.85600 20.27400
H  8.48300 49.68500 20.92300
H  6.54700 45.53800 23.06600
H  7.53300 45.32800 21.68700
H  4.94600 46.54300 20.96900
H  4.86300 44.92000 21.72900
H  5.89500 45.13300 20.30900
H  3.50800 46.85400 26.37200
H  3.57900 48.15300 25.20300
H  3.00400 48.58400 26.85100
H  6.45300 49.47700 30.86000
H  6.62600 46.42600 33.99900
H  7.01100 45.43400 32.79600
H  5.26100 45.66800 33.05100

