158

Mg 35.32200 2.46400 29.82700
C  33.09900 3.32400 32.46700
C  37.93700 2.29000 32.21400
C  37.47100 2.10900 27.28700
C  32.67400 3.09700 27.60000
N  35.53400 2.87700 32.12200
C  34.46300 3.02500 32.92300
C  34.90800 3.13300 34.41600
C  36.45300 3.03200 34.25900
C  36.69200 2.71000 32.79600
C  37.16700 4.26900 34.87600
C  34.30300 1.95000 35.31400
C  34.17400 2.13800 36.80700
H  34.86800 3.29500 37.53200
N  37.45200 2.20000 29.78700
C  38.29200 2.05900 30.85300
C  39.52900 1.73900 30.32600
C  39.49100 1.79200 28.86800
C  38.10300 2.14400 28.58800
C  40.60600 1.39700 31.23600
C  40.58800 1.71300 27.83700
O  40.41400 2.03200 26.65800
C  41.93100 1.27500 28.23600
N  35.10300 2.65400 27.75900
C  36.14700 2.37700 26.83300
C  35.68800 2.48100 25.37500
C  34.15500 2.50300 25.53500
C  33.92300 2.81300 27.01700
C  36.24600 3.70400 24.42100
C  33.30700 1.34000 24.88400
C  33.10100 0.07500 25.64400
N  33.27100 3.06700 29.96400
C  32.36200 3.28800 28.93400
C  31.15100 3.79300 29.49700
C  31.33700 3.74200 30.90700
C  32.69300 3.33400 31.12500
C  29.87200 4.21500 28.68700
C  30.79200 3.86800 32.21000
O  29.64600 4.20800 32.48700
C  31.88900 3.68300 33.28500
C  31.79400 4.93400 34.10000
O  32.23800 6.05900 33.80300
O  31.21500 4.67000 35.27800
C  30.94400 5.87000 36.10500
H  38.71300 2.18100 32.97500
H  38.17000 1.71900 26.54400
H  31.83700 3.35800 26.94900
H  34.59300 4.08800 34.83600
H  36.81700 2.15200 34.78900
H  38.07100 4.55300 34.33800
H  37.38300 4.05600 35.92300
H  36.60400 5.19900 34.80300
H  34.96200 1.11700 35.06900
H  33.30100 1.66800 34.99100
H  34.64600 1.27800 37.28300
H  33.14500 2.17000 37.16300
H  40.60900 2.14600 32.02800
H  41.61500 1.45000 30.82900
H  40.43800 0.43400 31.71900
H  41.87800 0.26200 28.63300
H  42.30200 2.04200 28.91600
H  42.45900 1.36400 27.28600
H  35.85300 1.52400 24.88100
H  33.88900 3.42700 25.02100
H  36.83000 3.18900 23.65800
H  37.03600 4.24900 24.93900
H  35.47900 4.36800 24.02300
H  33.95400 1.14900 24.02800
H  32.32200 1.70800 24.59600
H  33.37300 -0.85500 25.14600
H  32.09500 0.01700 26.06100
H  33.64300 0.07300 26.58900
H  30.18000 5.10300 28.13500
H  28.90500 4.39700 29.15800
H  29.91000 3.33300 28.04800
H  31.53200 2.84600 33.88600
H  30.39400 5.54500 36.98800
H  30.34000 6.66800 35.67300
H  31.83400 6.41600 36.41700
Mg 36.42900 50.04400 25.42900
C  36.80000 48.08400 28.32200
C  35.23200 52.59000 27.44100
C  35.99200 51.80500 22.68100
C  37.44700 47.31900 23.57600
N  36.15100 50.31500 27.57500
C  36.37700 49.39200 28.58600
C  36.14500 50.04200 29.95200
C  35.50100 51.32500 29.58800
C  35.64900 51.45600 28.11500
C  34.03000 51.56000 30.07500
C  37.50100 50.09400 30.80600
C  37.46900 49.92300 32.33000
H  36.04600 49.89900 32.94800
N  35.68100 51.94100 25.07900
C  35.31200 52.87600 26.03600
C  34.87000 54.10600 25.28700
C  35.09800 53.90200 23.95100
C  35.64100 52.49600 23.85800
C  34.28200 55.29100 25.99300
C  34.87000 54.86800 22.75200
O  35.18400 54.65300 21.58900
C  34.41000 56.29400 23.05400
N  36.57700 49.59600 23.43700
C  36.41400 50.49800 22.47700
C  36.74700 49.97700 21.02600
C  37.06700 48.50700 21.31000
C  37.13700 48.48500 22.89000
C  35.67200 50.20500 19.96900
C  38.39400 48.01700 20.65400
C  39.68500 48.55600 21.41400
N  37.01700 48.09700 25.84400
C  37.38500 47.11700 24.98700
C  37.70900 45.89500 25.71300
C  37.49900 46.18600 27.09500
C  37.03000 47.59900 27.03100
C  38.13200 44.57500 25.12300
C  37.44200 45.67200 28.47500
O  37.73300 44.53800 28.86700
C  37.09300 46.91300 29.34600
C  35.83900 46.60800 30.05500
O  34.74000 47.00200 29.67300
O  36.04600 45.95400 31.23100
C  34.85200 45.74500 32.04600
H  34.84500 53.35800 28.11400
H  35.84700 52.28800 21.71200
H  37.63500 46.43100 22.96800
H  35.46800 49.40800 30.52400
H  35.99100 52.17100 30.07100
H  33.55800 50.79400 30.69000
H  33.41500 51.60900 29.17600
H  34.06900 52.52900 30.57300
H  37.93800 51.08400 30.67800
H  38.15200 49.35800 30.33300
H  38.00200 50.80800 32.67800
H  38.05500 49.04500 32.59900
H  34.98600 56.10900 25.83600
H  34.27700 55.01200 27.04600
H  33.31200 55.61600 25.61600
H  35.14900 56.93400 23.53600
H  33.48100 56.26400 23.62400
H  34.15900 56.86000 22.15700
H  37.64600 50.54700 20.79200
H  36.20600 47.85700 21.15300
H  35.51200 49.36200 19.29700
H  35.93700 51.06300 19.35100
H  34.72900 50.37600 20.48900
H  38.30000 48.34700 19.62000
H  38.41600 46.92700 20.65100
H  39.41500 49.25500 22.20500
H  40.28900 48.93300 20.58900
H  40.17300 47.70100 21.88300
H  39.00300 44.85700 24.53200
H  37.32000 44.08500 24.58700
H  38.41400 43.90400 25.93500
H  37.95000 46.98800 30.01700
H  34.40700 46.64900 32.46100
H  35.19600 45.05700 32.81800
H  34.10500 45.11500 31.56200

