158

Mg 0.85900 42.03100 26.24000
C  2.17100 42.13200 29.51300
C  -2.03500 40.78900 27.80900
C  -0.24400 41.35600 23.29700
C  4.05000 42.65500 25.10100
N  0.13700 41.57500 28.45400
C  0.79700 41.94300 29.56100
C  -0.15800 41.78300 30.83400
C  -1.49100 41.21500 30.23200
C  -1.11000 41.21900 28.72500
C  -2.10300 39.91900 30.92500
C  -0.36800 43.09000 31.66400
C  -0.26800 43.02000 33.15300
H  -0.77500 41.72500 33.90000
N  -0.92100 41.21900 25.62400
C  -2.05800 40.89200 26.38500
C  -3.08200 40.48500 25.42400
C  -2.62600 40.67600 24.09500
C  -1.21300 41.07200 24.27900
C  -4.44400 39.95100 25.95200
C  -3.28300 40.53200 22.75700
O  -2.69900 40.68500 21.67500
C  -4.64000 40.01600 22.75000
N  1.77900 41.88700 24.44900
C  1.06700 41.72700 23.37100
C  1.99200 41.90500 22.12100
C  3.30300 42.48500 22.70700
C  3.03700 42.27000 24.16800
C  2.13200 40.62000 21.20000
C  3.61500 43.98700 22.37400
C  4.30400 44.21000 20.92700
N  2.76400 42.44100 27.08200
C  3.99700 42.72800 26.47100
C  4.97700 42.82900 27.45600
C  4.33500 42.56700 28.64900
C  2.96000 42.34300 28.37200
C  6.42800 42.97200 27.31000
C  4.47900 42.48300 30.08200
O  5.50300 42.63200 30.71900
C  3.18300 42.16300 30.71400
C  3.36500 40.82400 31.42100
O  3.44900 39.73300 30.85100
O  3.65600 41.07000 32.77700
C  4.30200 39.95300 33.59000
H  -2.95500 40.39600 28.24600
H  -0.52300 41.08300 22.27800
H  5.01200 42.85600 24.62500
H  0.31300 41.02000 31.45300
H  -2.29100 41.93700 30.40300
H  -3.04400 40.29500 31.32600
H  -1.40200 39.60400 31.69700
H  -2.21200 39.07700 30.24100
H  -1.38500 43.43100 31.46800
H  0.43000 43.75700 31.34000
H  -0.97800 43.74700 33.54800
H  0.74300 43.16800 33.53100
H  -5.33700 40.24000 25.39800
H  -4.55800 40.42500 26.92700
H  -4.45500 38.86600 26.05500
H  -4.87900 40.08400 21.68900
H  -5.33400 40.67300 23.27300
H  -4.61300 39.02300 23.20000
H  1.54500 42.70500 21.53000
H  4.08700 41.81500 22.35400
H  1.55200 40.74800 20.28700
H  1.71200 39.78700 21.76500
H  3.17500 40.39000 20.98500
H  4.19000 44.54000 23.11700
H  2.65500 44.50100 22.42800
H  3.46600 44.51100 20.29900
H  4.70500 43.24400 20.62300
H  4.97600 45.03300 21.17100
H  6.90300 42.02000 27.54900
H  6.81800 43.76700 27.94600
H  6.67300 43.11600 26.25800
H  2.96200 42.90500 31.48100
H  5.35400 40.04100 33.31800
H  3.91100 38.94800 33.43300
H  4.38300 40.21000 34.64600
Mg -2.42700 33.81600 27.39400
C  -4.35100 31.87100 29.58200
C  -1.24500 35.60300 30.22400
C  -1.24500 36.15000 25.40600
C  -4.22600 32.47500 24.66400
N  -2.91400 33.84500 29.61600
C  -3.59600 32.85000 30.30500
C  -3.52200 33.02100 31.83700
C  -2.69800 34.34900 31.96100
C  -2.34000 34.69300 30.51200
C  -3.36100 35.64800 32.65600
C  -2.95000 31.84900 32.68500
C  -3.53100 31.64100 34.09500
H  -2.70500 31.40400 35.40000
N  -1.09400 35.42900 27.75100
C  -0.76300 36.00900 28.92500
C  0.25000 37.08000 28.59300
C  0.25400 37.24600 27.18800
C  -0.63600 36.25300 26.65700
C  0.99500 37.84400 29.56700
C  1.21400 38.13900 26.34100
O  1.10600 38.08400 25.09500
C  2.20400 39.14900 26.96200
N  -2.67200 34.21500 25.42100
C  -2.12500 35.30300 24.84400
C  -2.35000 35.37800 23.36200
C  -3.16000 34.09000 23.03800
C  -3.37400 33.54200 24.46400
C  -3.08600 36.67500 23.00800
C  -2.51400 33.06700 22.08500
C  -1.24600 32.26500 22.61000
N  -3.89400 32.42000 27.07500
C  -4.48900 31.89100 25.97300
C  -5.35200 30.77300 26.33500
C  -5.29400 30.72400 27.70100
C  -4.50000 31.81200 28.16600
C  -6.21000 29.98200 25.36900
C  -5.78000 30.03500 28.87700
O  -6.57200 29.09100 29.00900
C  -5.04500 30.72900 30.17600
C  -6.14600 31.19900 31.15200
O  -6.93500 32.04200 30.94200
O  -6.01000 30.49400 32.37200
C  -7.13400 30.70400 33.36500
H  -0.79700 36.12100 31.07500
H  -0.84500 36.95400 24.78400
H  -4.78300 31.98200 23.86400
H  -4.53600 33.25000 32.16600
H  -1.77300 34.22200 32.52300
H  -2.83300 35.90900 33.57300
H  -4.38200 35.42300 32.96300
H  -3.38100 36.50400 31.98200
H  -1.96800 32.14600 33.05500
H  -2.76300 30.94200 32.11000
H  -4.09600 30.71100 34.16100
H  -4.29300 32.40900 34.22800
H  2.05100 37.57200 29.56100
H  0.59900 37.60000 30.55300
H  0.76600 38.89900 29.41500
H  1.74800 39.84600 27.66500
H  2.52900 39.80200 26.15200
H  2.92800 38.51700 27.47400
H  -1.42100 35.30200 22.79700
H  -4.09000 34.43700 22.58700
H  -2.40800 37.43800 22.62500
H  -3.64400 37.04900 23.86500
H  -3.92700 36.56700 22.32300
H  -2.24700 33.53400 21.13700
H  -3.28400 32.35000 21.80200
H  -0.45600 32.29600 21.86000
H  -1.57500 31.23300 22.73600
H  -0.96300 32.50300 23.63500
H  -5.99500 28.91600 25.43100
H  -6.15200 30.33600 24.33900
H  -7.25300 30.10900 25.65800
H  -4.54100 29.92700 30.71500
H  -6.89500 31.58500 33.96100
H  -7.21000 29.78900 33.95300
H  -8.10100 30.87100 32.89100

