158

Mg 41.42500 8.82600 29.16000
C  43.15200 9.77900 32.12200
C  38.83500 7.54200 31.04900
C  40.15700 7.60200 26.31000
C  44.44100 9.83300 27.37900
N  41.02700 8.65800 31.32900
C  41.83200 9.21300 32.32400
C  41.04000 9.03800 33.65300
C  39.90800 8.02600 33.33700
C  39.85900 8.07700 31.79200
C  40.18600 6.58000 33.72100
C  40.75500 10.46100 34.19000
C  40.10900 10.55100 35.62900
H  40.90500 11.31800 36.70400
N  39.73700 7.73000 28.76400
C  38.72900 7.32900 29.62100
C  37.67200 6.67600 28.89600
C  37.93400 6.84800 27.53900
C  39.33100 7.38500 27.50000
C  36.42500 6.15500 29.68300
C  37.07300 6.47900 26.28800
O  37.60500 6.49800 25.18500
C  35.62400 6.03800 26.44600
N  42.28100 8.50800 27.21200
C  41.49900 8.05200 26.19700
C  42.25900 8.13300 24.77000
C  43.55500 8.96700 25.13900
C  43.42100 9.07000 26.71300
C  42.49000 6.69400 24.16900
C  43.46300 10.35900 24.43300
C  42.59500 11.45300 25.05700
N  43.43100 9.62500 29.59200
C  44.48200 10.02400 28.75200
C  45.52700 10.62300 29.57900
C  45.04900 10.51700 30.88900
C  43.77000 9.94300 30.86100
C  46.73200 11.25400 29.05100
C  45.45000 10.75900 32.25500
O  46.44200 11.22600 32.78600
C  44.16100 10.32600 33.10600
C  44.47300 9.37500 34.20400
O  44.96900 8.23900 34.05100
O  43.95400 9.85300 35.36300
C  44.02000 8.97600 36.56500
H  38.16700 6.94900 31.67700
H  39.80200 7.10700 25.40300
H  45.30200 10.17500 26.80100
H  41.78600 8.56500 34.29100
H  39.06300 8.31700 33.96100
H  40.18300 5.83200 32.92800
H  39.37200 6.33500 34.40200
H  41.08800 6.56200 34.33300
H  39.98200 10.83900 33.52000
H  41.64500 11.09000 34.17800
H  40.10100 9.54800 36.05700
H  39.08700 10.92000 35.54800
H  36.51800 6.18300 30.76900
H  36.09500 5.21200 29.24800
H  35.64100 6.82200 29.32500
H  35.30800 5.36600 25.64800
H  35.04700 6.96200 26.48400
H  35.45600 5.48500 27.37000
H  41.66700 8.68500 24.04000
H  44.52800 8.53700 24.90300
H  42.09800 5.96200 24.87500
H  43.52900 6.40600 24.00800
H  42.12800 6.55100 23.15100
H  43.09800 10.16700 23.42400
H  44.46300 10.79300 24.42800
H  41.76300 11.48200 24.35400
H  43.07300 12.43200 25.03100
H  42.17100 11.26900 26.04400
H  47.29100 11.73700 29.85200
H  46.40400 11.95300 28.28200
H  47.27400 10.45400 28.54500
H  43.97300 11.27500 33.60800
H  43.29600 9.28800 37.31800
H  45.03100 8.92600 36.96800
H  43.74000 7.94400 36.35300
Mg 48.63300 24.81600 28.67000
C  49.45400 26.87200 31.43800
C  48.10800 22.26900 31.10600
C  48.01000 22.77600 26.33800
C  49.71500 27.24800 26.55700
N  48.74800 24.69100 31.06100
C  49.08800 25.64600 31.95100
C  48.87800 25.27800 33.41300
C  48.63100 23.68700 33.26800
C  48.51600 23.48300 31.69700
C  49.62400 22.81200 34.03400
C  47.79400 26.04700 34.18800
C  48.04700 26.51900 35.63000
H  46.96200 26.23200 36.68300
N  48.01700 22.76300 28.70400
C  47.87300 21.91000 29.76900
C  47.54100 20.52500 29.23000
C  47.38600 20.76200 27.87600
C  47.83200 22.09700 27.58600
C  47.27500 19.32100 29.97800
C  46.73200 19.94100 26.78600
O  46.61400 20.34800 25.58300
C  46.05900 18.51300 27.15300
N  48.89800 24.97800 26.69900
C  48.50800 23.97300 25.88600
C  48.71800 24.31400 24.33800
C  48.99800 25.81700 24.43100
C  49.32500 26.00400 25.96300
C  49.79600 23.51700 23.53700
C  47.80800 26.72900 24.11300
C  47.23300 26.58900 22.71600
N  49.38100 26.74600 28.91100
C  49.84600 27.57700 27.92900
C  50.41200 28.70400 28.58700
C  50.16900 28.52900 29.88800
C  49.62700 27.22800 30.10200
C  50.93200 29.90600 27.89600
C  50.32400 29.12900 31.14500
O  50.66500 30.26100 31.42600
C  49.77800 28.16100 32.19300
C  50.81800 27.93700 33.29800
O  51.83500 27.31000 33.30400
O  50.46900 28.60100 34.45300
C  51.31500 28.34900 35.63600
H  47.86600 21.53300 31.87600
H  47.81300 22.15600 25.46100
H  50.00700 28.03900 25.86200
H  49.65700 25.49200 34.14400
H  47.67100 23.32300 33.63300
H  50.38100 22.53600 33.30000
H  49.09300 21.99500 34.52400
H  50.10700 23.38200 34.82800
H  46.84100 25.51900 34.16800
H  47.60000 26.88100 33.51200
H  47.89800 27.59800 35.57800
H  49.06300 26.30000 35.95800
H  47.62400 19.45000 31.00300
H  47.70600 18.46900 29.45400
H  46.19900 19.14800 29.98500
H  45.44900 18.66200 28.04400
H  46.87000 17.78700 27.10700
H  45.38500 18.35500 26.31200
H  47.72100 24.16100 23.92500
H  49.87400 26.07300 23.83700
H  50.76100 24.01600 23.45600
H  49.39500 23.49000 22.52400
H  49.95200 22.49100 23.87100
H  48.05300 27.79100 24.12300
H  46.86600 26.55600 24.63400
H  47.86500 25.89200 22.16600
H  47.37700 27.51400 22.15800
H  46.17100 26.35700 22.64600
H  51.29200 30.58300 28.67100
H  50.22000 30.34500 27.19700
H  51.67400 29.55700 27.17900
H  48.96700 28.78400 32.56800
H  51.81200 27.37900 35.62500
H  50.82700 28.42600 36.60700
H  52.13900 29.06200 35.62600

