158

Mg 49.75100 35.58700 26.52700
C  47.68800 34.34500 29.27500
C  50.39600 38.39100 28.34800
C  51.62100 36.55000 23.93100
C  48.66000 32.74100 24.68400
N  49.02500 36.31300 28.60600
C  48.30600 35.60900 29.59200
C  48.40900 36.29100 30.92400
C  48.86700 37.79300 30.44400
C  49.46100 37.48500 29.06000
C  47.78800 38.84100 30.33200
C  49.44900 35.64700 31.77800
C  49.07300 35.49000 33.24000
H  48.02500 36.36300 33.87300
N  50.90000 37.25200 26.18000
C  51.08700 38.33500 27.04900
C  52.03600 39.23600 26.42800
C  52.49000 38.64500 25.18500
C  51.65700 37.42200 25.05100
C  52.37000 40.59900 27.08400
C  53.42200 39.34600 24.19900
O  53.68200 38.81400 23.09500
C  54.18800 40.64500 24.54200
N  50.00900 34.82100 24.54700
C  50.86200 35.37900 23.75100
C  51.07500 34.51900 22.44800
C  50.31400 33.28900 22.78200
C  49.60100 33.62700 24.05800
C  50.88700 35.13900 21.04900
C  51.22500 32.07200 23.08800
C  50.68800 30.68200 22.92900
N  48.37800 33.96100 26.81200
C  48.12300 32.86300 25.99900
C  47.33100 31.88400 26.72400
C  47.06900 32.47400 27.96000
C  47.79400 33.70800 28.01900
C  46.69700 30.68800 26.12000
C  46.37300 32.21100 29.19500
O  45.70400 31.28400 29.56900
C  46.64600 33.47800 30.07100
C  47.01100 32.98900 31.48700
O  48.13500 32.57000 31.78300
O  45.92200 32.84200 32.27900
C  46.20500 32.19700 33.60800
H  50.64400 39.16600 29.07600
H  52.28100 36.88400 23.12800
H  48.40500 31.84800 24.11000
H  47.40300 36.27500 31.34300
H  49.55000 38.28500 31.13600
H  48.14600 39.72000 30.86900
H  46.95400 38.41300 30.88800
H  47.52300 39.13100 29.31600
H  50.35000 36.25300 31.68400
H  49.53900 34.60400 31.47500
H  49.92500 35.38900 33.91200
H  48.70300 34.46500 33.24200
H  51.50800 40.84300 27.70600
H  52.37700 41.42500 26.37300
H  53.34900 40.62700 27.56200
H  53.76500 41.63200 24.35900
H  55.01200 40.60700 23.83000
H  54.44400 40.50800 25.59300
H  52.14500 34.31700 22.48600
H  49.55700 32.99400 22.05600
H  50.13200 34.58800 20.48800
H  51.81900 35.17900 20.48700
H  50.56700 36.16900 21.21000
H  51.74800 32.12100 24.04400
H  51.95300 32.06400 22.27700
H  51.14900 30.04700 23.68600
H  51.02700 30.30900 21.96200
H  49.61100 30.52000 22.95700
H  47.28700 30.19800 25.34600
H  45.71300 30.95500 25.73400
H  46.69900 29.97300 26.94300
H  45.65700 33.93600 30.06600
H  47.11200 31.59600 33.67800
H  45.36600 31.50500 33.68900
H  46.06900 32.86400 34.45900
Mg 6.53100 53.71000 41.28700
C  3.87300 51.57300 40.85600
C  8.69400 51.12600 40.21900
C  8.89600 55.98800 40.98200
C  4.28800 56.26300 42.11500
N  6.28500 51.72600 40.31800
C  5.06000 51.03600 40.26300
C  5.27100 49.67500 39.63500
C  6.80400 49.41700 39.81900
C  7.32200 50.84100 40.14500
C  7.08100 48.34400 40.89200
C  4.94500 49.77700 38.12800
C  4.27500 48.50700 37.53800
H  4.88100 47.87100 36.21100
N  8.49800 53.62500 40.65400
C  9.18500 52.49000 40.27800
C  10.57000 52.90300 39.98000
C  10.58800 54.33500 40.08100
C  9.27800 54.73600 40.53800
C  11.61200 51.96500 39.35000
C  11.74900 55.28100 39.54700
O  12.80500 54.77000 39.19300
C  11.62900 56.72300 39.33400
N  6.58400 55.93300 41.30200
C  7.70700 56.57500 41.46100
C  7.58300 58.01100 41.98400
C  6.02900 58.11600 41.98700
C  5.58100 56.70800 41.83500
C  8.25300 58.34700 43.43100
C  5.34200 59.01200 40.88200
C  5.24300 60.52800 41.22800
N  4.59800 53.95300 41.56300
C  3.72600 54.99000 41.97200
C  2.41200 54.55200 42.23000
C  2.44700 53.22000 41.79600
C  3.79200 52.91500 41.37100
C  1.32700 55.41100 42.89200
C  1.64000 52.05500 41.71400
O  0.50900 51.83000 42.18500
C  2.54800 50.93200 41.12800
C  1.93800 50.33800 39.92100
O  1.62400 50.95700 38.93200
O  1.69300 49.00700 40.10000
C  0.76400 48.45600 39.16900
H  9.43000 50.41000 39.84900
H  9.69800 56.69500 41.20800
H  3.67300 57.12300 42.38800
H  4.67900 48.86100 40.05400
H  7.20100 48.98600 38.90000
H  7.49500 48.84800 41.76600
H  7.93900 47.72000 40.64500
H  6.16300 47.80400 41.12400
H  5.84900 49.94600 37.54400
H  4.30900 50.63400 37.90600
H  3.30000 48.91300 37.26800
H  4.14200 47.70800 38.26700
H  12.18600 51.43000 40.10600
H  12.24000 52.49300 38.63300
H  11.07100 51.25600 38.72300
H  10.59300 56.93500 39.06900
H  12.23000 57.08200 38.49900
H  11.87100 57.21200 40.27800
H  8.11400 58.60400 41.24000
H  5.70000 58.42700 42.97800
H  9.13400 57.71200 43.53000
H  7.42000 58.05500 44.07000
H  8.52500 59.39800 43.53100
H  4.31400 58.65600 40.82600
H  5.83800 58.88600 39.92000
H  5.41300 60.71900 42.28800
H  4.32200 61.01300 40.90400
H  6.07500 61.02600 40.73000
H  1.54400 55.31800 43.95600
H  0.29300 55.18200 42.63100
H  1.48100 56.46200 42.65100
H  2.55700 50.08900 41.81900
H  0.52400 47.43100 39.45100
H  0.97500 48.62700 38.11400
H  -0.11700 49.08700 39.28300

