158

Mg 1.36000 -2.16600 43.90100
C  4.61400 -0.86100 43.58000
C  0.19600 0.78900 42.42100
C  -1.73200 -3.44400 44.05800
C  2.84600 -5.23400 45.04500
N  2.34900 -0.34400 42.95200
C  3.68800 -0.01400 42.92600
C  3.86700 1.42800 42.32600
C  2.41200 2.01300 42.44200
C  1.59200 0.75500 42.53500
C  2.30500 3.07100 43.58800
C  4.53000 1.44400 40.93800
C  5.79600 2.36600 40.82200
H  6.95300 1.49900 40.45800
N  -0.55600 -1.38400 43.35200
C  -0.75500 -0.20100 42.72400
C  -2.17800 -0.11100 42.43500
C  -2.78800 -1.26900 42.86300
C  -1.70000 -2.12600 43.47700
C  -2.61700 1.08000 41.72700
C  -4.27100 -1.56500 42.70200
O  -4.98200 -0.80200 42.07800
C  -4.88100 -2.79000 43.49900
N  0.69200 -4.18600 44.20200
C  -0.69100 -4.32000 44.41100
C  -0.95400 -5.62200 45.09700
C  0.46600 -6.18300 45.48800
C  1.41700 -5.17500 44.85800
C  -1.75300 -5.44700 46.36600
C  0.66900 -7.65700 45.12100
C  1.23600 -8.63800 46.18600
N  3.32000 -2.92800 44.30000
C  3.69500 -4.10600 44.85700
C  5.09700 -4.07500 45.03300
C  5.53000 -2.79300 44.57800
C  4.38700 -2.14800 44.13900
C  6.02500 -5.19900 45.41100
C  6.66800 -1.89900 44.41400
O  7.81200 -2.07400 44.71600
C  6.13400 -0.60800 43.76000
C  6.33500 0.59700 44.66500
O  6.07600 0.63400 45.86700
O  6.89700 1.63200 44.01000
C  7.46000 2.73600 44.71900
H  -0.09900 1.77900 42.06800
H  -2.72200 -3.82700 44.31600
H  3.23500 -6.12500 45.54100
H  4.53100 1.95600 43.01000
H  2.13500 2.52700 41.52200
H  1.44100 2.74700 44.16700
H  1.96100 4.01500 43.16400
H  3.15600 3.23900 44.24900
H  3.77400 1.83300 40.25700
H  4.67600 0.42000 40.59200
H  6.11600 2.74900 41.79100
H  5.48500 3.10200 40.08100
H  -2.16200 1.17500 40.74100
H  -2.44600 2.08600 42.11000
H  -3.63400 0.94100 41.36100
H  -4.35700 -3.66600 43.11600
H  -5.92900 -2.83600 43.20300
H  -4.84100 -2.70900 44.58500
H  -1.46200 -6.28200 44.39500
H  0.70800 -6.09100 46.54600
H  -2.81900 -5.36200 46.15400
H  -1.46600 -4.58900 46.97300
H  -1.53300 -6.31300 46.99000
H  1.25600 -7.59200 44.20400
H  -0.23600 -8.06100 44.66900
H  0.78400 -9.61500 46.01600
H  1.02400 -8.32200 47.20800
H  2.31100 -8.78500 46.07300
H  6.85000 -4.75200 45.96600
H  6.35500 -5.68700 44.49300
H  5.52900 -5.91000 46.07000
H  6.69800 -0.42400 42.84600
H  7.71900 2.43800 45.73500
H  6.74700 3.55300 44.82600
H  8.33200 2.98300 44.11300
Mg 47.99400 25.57800 29.98000
C  48.81500 28.03300 32.33000
C  46.77200 23.68200 32.60000
C  47.37700 23.19700 27.79100
C  49.45800 27.50800 27.53200
N  47.83500 25.90000 32.27400
C  48.20400 26.92100 33.00900
C  47.80000 26.77900 34.48500
C  47.35500 25.29100 34.51600
C  47.36000 24.90900 32.99800
C  48.29500 24.40000 35.31900
C  46.81200 27.79600 35.04600
C  47.33000 28.45300 36.39800
H  46.18800 28.60600 37.43400
N  47.12900 23.81100 30.19100
C  46.66800 23.18500 31.29900
C  45.95800 21.96900 30.94500
C  46.04600 21.85500 29.57200
C  46.94300 22.94900 29.12100
C  45.20600 21.12500 32.07000
C  45.43900 20.84800 28.71300
O  45.64100 20.84800 27.48800
C  44.58200 19.78600 29.29700
N  48.19800 25.45200 27.91900
C  48.01600 24.30300 27.27300
C  48.45500 24.38300 25.85900
C  48.81000 25.93900 25.72800
C  48.83200 26.33900 27.14100
C  49.59600 23.45100 25.44700
C  47.73700 26.87300 24.96300
C  48.44700 28.02000 24.19400
N  48.91800 27.37300 29.90500
C  49.55300 28.05600 28.84400
C  50.05700 29.32600 29.31700
C  49.81600 29.31500 30.63800
C  49.09600 28.13700 30.97200
C  50.85300 30.32500 28.45800
C  50.01600 30.10500 31.82200
O  50.52700 31.17600 31.99300
C  49.37000 29.30000 32.97400
C  50.45300 29.04100 34.00500
O  51.53700 28.48300 33.84300
O  50.03300 29.58600 35.22800
C  51.02200 29.71900 36.31500
H  46.65800 22.95200 33.40400
H  47.16000 22.38700 27.09100
H  49.83200 28.20200 26.77600
H  48.72200 26.72300 35.06400
H  46.33200 25.10900 34.84500
H  47.99700 23.35400 35.37400
H  48.50800 24.76800 36.32200
H  49.22600 24.46000 34.75400
H  45.86000 27.26500 35.06700
H  46.59800 28.57700 34.31600
H  47.62500 29.43300 36.02400
H  48.20800 28.01000 36.86800
H  45.61500 20.13400 32.26400
H  44.21800 20.89200 31.67200
H  44.93500 21.74200 32.92700
H  43.56100 20.08100 29.53700
H  45.06200 19.31800 30.15600
H  44.51400 18.99500 28.54900
H  47.60600 24.18300 25.20600
H  49.77700 26.08000 25.24500
H  50.49300 23.93800 25.06300
H  49.24300 22.81400 24.63500
H  49.91600 22.88800 26.32400
H  47.01500 27.37500 25.60800
H  47.24100 26.15000 24.31600
H  48.23100 28.01600 23.12600
H  49.52800 27.89700 24.24500
H  48.17500 28.98500 24.62300
H  50.89800 29.97100 27.42800
H  51.85000 30.50100 28.86200
H  50.34300 31.28400 28.36600
H  48.58500 29.93400 33.38600
H  52.03900 29.58500 35.94700
H  50.80100 28.95600 37.06100
H  50.87900 30.71900 36.72500

