158

Mg 30.00500 58.18800 40.42900
C  27.38100 56.17500 39.54200
C  32.24100 55.68300 39.28800
C  32.53000 60.26700 40.59500
C  27.79600 60.83400 40.97900
N  29.86800 56.25800 39.38900
C  28.63500 55.62700 39.26400
C  28.77400 54.27300 38.56300
C  30.31200 53.96300 38.94000
C  30.86700 55.40600 39.15800
C  30.43000 53.12900 40.20500
C  28.49000 54.54700 37.04200
C  27.78300 53.44500 36.18600
H  27.26100 53.97000 34.84900
N  32.11600 58.00500 40.21200
C  32.81900 56.92500 39.73800
C  34.22600 57.16700 39.68800
C  34.29800 58.57900 40.01200
C  32.96200 58.99900 40.29100
C  35.31300 56.16400 39.24300
C  35.53400 59.42600 39.93700
O  36.56200 58.91800 39.52000
C  35.70600 60.94100 40.34800
N  30.11100 60.26400 40.52300
C  31.30900 60.86100 40.83100
C  31.22300 62.28100 41.25300
C  29.59800 62.51400 41.18300
C  29.07600 61.11100 40.81500
C  31.82600 62.63300 42.61700
C  29.15500 63.61800 40.23300
C  27.77700 64.23400 40.49700
N  27.95700 58.53500 40.33400
C  27.18900 59.59800 40.68100
C  25.82900 59.24000 40.53500
C  25.88200 57.85300 40.07600
C  27.23000 57.50500 40.03300
C  24.62700 60.17000 40.62500
C  25.05200 56.73000 39.75600
O  23.82900 56.61600 39.68900
C  26.03100 55.67200 39.31300
C  25.69900 54.38000 40.05500
O  26.18200 54.01200 41.15400
O  24.72700 53.70100 39.35800
C  24.35200 52.40400 39.91000
H  32.94700 54.92200 38.95100
H  33.27200 61.05900 40.72000
H  27.13500 61.68700 41.14800
H  28.19900 53.45900 39.00400
H  30.83900 53.45900 38.12900
H  31.06400 53.49900 41.01200
H  30.82100 52.15400 39.91400
H  29.48300 53.07600 40.74200
H  29.42900 54.79200 36.54500
H  27.99800 55.51900 37.01100
H  27.00800 52.94900 36.77000
H  28.57900 52.75000 35.91900
H  35.21300 55.27400 39.86400
H  36.31100 56.46600 39.56000
H  35.23800 56.00700 38.16700
H  35.34900 61.01700 41.37500
H  35.03900 61.57900 39.76800
H  36.77000 61.17200 40.29400
H  31.76600 62.88400 40.52400
H  29.25600 62.69900 42.20200
H  31.04600 63.02000 43.27300
H  32.56300 63.43100 42.52700
H  32.20000 61.70900 43.05600
H  29.29400 63.33600 39.18900
H  29.80000 64.45600 40.49900
H  27.92400 65.31400 40.49500
H  27.37700 63.88800 41.45000
H  27.11400 63.98600 39.66800
H  24.94200 61.06500 40.08800
H  24.23400 60.33400 41.62800
H  23.84900 59.71100 40.01500
H  25.75900 55.47400 38.27600
H  24.05500 52.37100 40.95900
H  25.05600 51.61500 39.64600
H  23.42800 52.17800 39.37800
Mg 0.51000 42.38200 26.88400
C  2.08100 42.41500 29.97400
C  -2.34800 41.23600 28.25500
C  -0.69200 41.72200 23.78600
C  3.64900 43.20500 25.37300
N  -0.02800 41.99000 28.83600
C  0.72700 42.15700 29.98800
C  -0.18100 41.96400 31.20100
C  -1.55500 41.35200 30.71400
C  -1.30400 41.59100 29.14100
C  -1.79000 39.90500 31.18300
C  -0.39400 43.25500 32.03100
C  -0.01200 43.11500 33.56800
H  -0.31200 41.84400 34.39900
N  -1.24600 41.60400 26.11400
C  -2.39600 41.23900 26.84700
C  -3.48500 40.82200 25.94900
C  -2.96000 40.92300 24.65100
C  -1.54500 41.45000 24.79300
C  -4.90300 40.37400 26.39900
C  -3.70500 40.73300 23.35400
O  -3.21500 41.04300 22.27300
C  -5.10400 40.22900 23.23800
N  1.31500 42.41900 24.87100
C  0.64700 42.14300 23.78700
C  1.43500 42.46400 22.53200
C  2.73500 43.12600 23.02000
C  2.52600 43.02700 24.57500
C  1.65500 41.25500 21.61200
C  2.95800 44.60300 22.48600
C  3.78200 44.73800 21.13800
N  2.42600 42.81000 27.51000
C  3.61000 43.04400 26.78800
C  4.75300 43.20000 27.73600
C  4.13100 42.99900 29.04400
C  2.80300 42.69600 28.82400
C  6.15900 43.51800 27.41100
C  4.36600 42.85500 30.51700
O  5.41200 42.93800 31.17700
C  3.02100 42.61500 31.23800
C  3.06800 41.34400 32.01000
O  2.92000 40.24900 31.51600
O  3.54000 41.55700 33.30700
C  3.74500 40.36600 34.23800
H  -3.27600 40.96600 28.76400
H  -1.11700 41.53400 22.79800
H  4.59100 43.62100 25.01100
H  0.42400 41.30600 31.82600
H  -2.41000 41.90700 31.09800
H  -2.77300 39.71100 31.61400
H  -0.95100 39.51700 31.76100
H  -1.93400 39.33100 30.26800
H  -1.37900 43.70800 31.91900
H  0.30800 43.95500 31.57700
H  -0.63200 43.87500 34.04500
H  1.04800 43.30700 33.73400
H  -5.73300 41.04500 26.17700
H  -4.81300 40.35900 27.48500
H  -5.05400 39.35000 26.05600
H  -5.26900 39.25700 23.70300
H  -5.30100 40.08300 22.17600
H  -5.92500 40.93000 23.38900
H  0.87700 43.27900 22.07200
H  3.57800 42.50700 22.71300
H  1.18700 41.51700 20.66400
H  1.06700 40.43200 22.01900
H  2.70900 40.98400 21.53600
H  3.41400 45.17300 23.29600
H  1.98100 45.06100 22.33600
H  3.23300 45.29600 20.37900
H  4.08600 43.78800 20.69900
H  4.68100 45.33200 21.30400
H  6.39200 43.23300 26.38400
H  6.82600 42.97600 28.08100
H  6.31400 44.57800 27.61000
H  2.82700 43.47900 31.87300
H  4.72000 40.38000 34.72400
H  3.62100 39.34100 33.88700
H  2.96300 40.54800 34.97500

