158

Mg 53.57200 23.41400 44.63400
C  51.15800 25.78400 43.90600
C  51.69300 21.06700 43.00900
C  56.08200 21.08300 45.02000
C  55.78700 25.89400 45.33800
N  51.74500 23.42800 43.66800
C  50.91600 24.52200 43.39900
C  49.79700 24.17200 42.37300
C  49.76500 22.60700 42.59400
C  51.18600 22.36100 43.06600
C  48.66500 22.14600 43.51400
C  50.30000 24.44400 40.93100
C  49.33200 24.66200 39.78500
H  49.90200 25.20800 38.49300
N  53.82100 21.31900 44.28900
C  52.91600 20.56900 43.51800
C  53.38800 19.15600 43.54000
C  54.65100 19.13200 44.20400
C  54.90400 20.54000 44.57900
C  52.54200 18.05800 43.02000
C  55.43900 17.89800 44.32300
O  55.25900 16.85900 43.73400
C  56.72900 17.93600 45.25300
N  55.61600 23.42100 45.07400
C  56.49500 22.39600 45.27500
C  57.94100 22.85700 45.66500
C  57.79400 24.36900 45.51700
C  56.28100 24.58600 45.30400
C  58.54400 22.35600 46.99100
C  58.75400 25.09400 44.43300
C  58.98600 26.63800 44.36800
N  53.49000 25.45000 44.90200
C  54.47500 26.34300 45.15900
C  53.80500 27.65700 45.24300
C  52.58100 27.52600 44.69300
C  52.39600 26.11600 44.57200
C  54.44900 28.95100 45.69900
C  51.27400 28.17000 44.31000
O  50.92100 29.36500 44.41100
C  50.30800 27.09900 43.80200
C  49.90100 27.58200 42.46300
O  50.52500 27.88000 41.46300
O  48.55900 27.63900 42.49300
C  47.76600 27.91300 41.28000
H  51.14600 20.30600 42.45000
H  56.86200 20.32700 44.91100
H  56.43600 26.73400 45.59400
H  48.85200 24.62700 42.66900
H  49.74800 22.17300 41.59400
H  47.90100 22.90300 43.69200
H  48.97000 21.69600 44.45900
H  48.08400 21.45700 42.90200
H  50.95800 23.60800 40.69400
H  50.93400 25.33100 40.93900
H  48.51800 25.28000 40.16200
H  49.00400 23.62900 39.66700
H  52.50000 17.22800 43.72400
H  52.78900 17.63700 42.04500
H  51.47500 18.27300 43.07500
H  56.45200 18.60200 46.07000
H  57.63000 18.13600 44.67300
H  56.72500 16.92500 45.66000
H  58.58000 22.55300 44.83600
H  57.93000 24.93600 46.43800
H  58.02800 22.85800 47.80900
H  59.59600 22.61100 47.12000
H  58.45800 21.27100 47.05100
H  58.27400 24.87600 43.47800
H  59.67000 24.51600 44.31700
H  59.97100 26.97200 44.69200
H  58.39400 26.95300 45.22800
H  58.73500 27.03400 43.38400
H  55.30600 29.27900 45.11100
H  54.68300 29.08900 46.75500
H  53.71400 29.70000 45.40400
H  49.41100 27.07100 44.42000
H  48.19500 27.45900 40.38800
H  47.58200 28.98700 41.23400
H  46.87000 27.32400 41.47400
Mg -2.70300 34.71000 26.59100
C  -3.97900 32.85200 29.42200
C  -1.13000 36.70500 29.03300
C  -2.08500 36.80800 24.23300
C  -4.59900 32.69900 24.50700
N  -2.58400 34.77900 29.02400
C  -3.11800 33.85100 29.90900
C  -2.61900 34.06300 31.32000
C  -1.84600 35.37200 31.16600
C  -1.82900 35.67000 29.67900
C  -2.36600 36.52000 32.02200
C  -1.66100 32.89600 32.00500
C  -2.10400 32.33100 33.37200
H  -1.25400 32.24000 34.62700
N  -1.67200 36.50000 26.57700
C  -1.16200 37.17700 27.64900
C  -0.37200 38.28900 27.17700
C  -0.61300 38.29900 25.75000
C  -1.50700 37.18200 25.43300
C  0.62600 39.03000 28.06600
C  -0.26900 39.32600 24.69500
O  -0.59100 39.21900 23.52900
C  0.53200 40.48900 25.17100
N  -3.35700 34.80400 24.73700
C  -2.85000 35.74700 23.82500
C  -3.28000 35.51700 22.37000
C  -3.86200 34.08600 22.53100
C  -4.03000 33.87700 24.02200
C  -4.25600 36.65000 21.89200
C  -2.87600 33.00900 21.93600
C  -3.38500 32.08800 20.84100
N  -4.01900 33.11500 26.87000
C  -4.68000 32.33900 25.93200
C  -5.38800 31.28300 26.52500
C  -5.16400 31.46700 27.87500
C  -4.39400 32.63500 28.09800
C  -6.18900 30.22800 25.82300
C  -5.54400 30.93600 29.12300
O  -6.13900 29.96900 29.42600
C  -4.76500 31.75500 30.23700
C  -5.78700 32.43200 31.06200
O  -6.71600 33.02500 30.55400
O  -5.57700 32.25800 32.43900
C  -6.58400 32.87900 33.30900
H  -0.61800 37.36100 29.74000
H  -1.94900 37.47100 23.37600
H  -5.22300 32.01500 23.93000
H  -3.44200 34.21800 32.01700
H  -0.82200 35.21800 31.50600
H  -2.87400 36.23800 32.94400
H  -3.06000 37.13100 31.44400
H  -1.47400 37.03800 32.37200
H  -0.65700 33.30400 32.12300
H  -1.67800 32.05400 31.31200
H  -2.33500 31.29400 33.12800
H  -3.06000 32.76100 33.66800
H  0.23200 39.97100 28.45000
H  1.63500 39.17200 27.67700
H  0.86700 38.39300 28.91700
H  0.71000 41.04400 24.25000
H  1.41800 40.02200 25.59900
H  -0.13000 40.98200 25.88400
H  -2.44100 35.56000 21.67600
H  -4.88900 33.94200 22.19700
H  -4.56800 37.38600 22.63300
H  -5.23000 36.28500 21.56300
H  -3.85100 37.23200 21.06400
H  -2.55500 32.44800 22.81300
H  -1.91800 33.40700 21.60200
H  -3.76000 31.17200 21.29700
H  -2.56200 31.83300 20.17400
H  -4.24600 32.43700 20.27000
H  -5.75700 29.24300 26.00200
H  -6.26400 30.31300 24.73900
H  -7.18700 30.31100 26.25400
H  -4.14200 31.11100 30.85700
H  -7.41200 33.37900 32.80700
H  -6.08000 33.55800 33.99600
H  -7.04800 32.03200 33.81400

