158

Mg 2.04000 -0.43000 44.15900
C  5.42900 0.13400 43.29000
C  1.26000 2.47800 42.52800
C  -1.12100 -1.47000 44.40700
C  3.11000 -3.70500 45.23800
N  3.18600 1.12600 43.03900
C  4.51700 1.11300 42.81700
C  4.87700 2.26900 41.88000
C  3.67300 3.26500 42.09800
C  2.59600 2.28500 42.58600
C  4.08200 4.36600 43.15300
C  5.05500 1.83500 40.42400
C  6.19800 2.48500 39.65300
H  5.74600 3.18400 38.36900
N  0.27900 0.55200 43.76300
C  0.11400 1.67800 43.03000
C  -1.27300 2.07000 42.85100
C  -1.91700 0.96800 43.51200
C  -0.92200 -0.07800 43.94700
C  -1.78200 3.31400 42.10400
C  -3.35200 0.84400 43.54400
O  -4.11900 1.68000 43.04600
C  -4.05100 -0.24600 44.28300
N  1.12600 -2.30700 44.78200
C  -0.22600 -2.41500 44.79700
C  -0.54800 -3.88900 44.96300
C  0.75200 -4.52100 45.54800
C  1.72400 -3.53400 45.06100
C  -1.89900 -4.26900 45.67900
C  0.93300 -5.97000 45.13300
C  1.66500 -6.91700 46.07500
N  3.87500 -1.58700 44.32200
C  4.13100 -2.83800 44.85100
C  5.62000 -3.00100 44.81600
C  6.13600 -1.84600 44.22000
C  5.03200 -1.02900 43.95800
C  6.39400 -4.19900 45.28000
C  7.35800 -1.14600 43.78500
O  8.52400 -1.32900 43.94600
C  6.95200 0.13400 43.10900
C  7.48400 1.28600 43.90500
O  6.88300 1.74500 44.90500
O  8.57400 1.85300 43.34000
C  9.13500 3.04200 43.92300
H  0.99900 3.33600 41.90600
H  -2.07800 -1.93400 44.16200
H  3.34000 -4.71900 45.57100
H  5.83300 2.62800 42.26300
H  3.48700 3.69100 41.11200
H  3.15800 4.64400 43.65900
H  4.57900 5.22800 42.70700
H  4.67400 3.88800 43.93400
H  4.20000 1.96000 39.76000
H  5.15200 0.75200 40.50400
H  6.94300 1.72900 39.40600
H  6.77300 3.11800 40.32900
H  -2.39300 2.79200 41.36800
H  -0.93100 3.76100 41.59000
H  -2.31700 4.04500 42.71000
H  -4.98500 0.05000 44.76100
H  -3.42100 -0.71700 45.03700
H  -4.22200 -0.94900 43.46700
H  -0.69500 -4.43200 44.02900
H  0.72100 -4.39800 46.63000
H  -2.65900 -4.50600 44.93500
H  -2.15300 -3.42600 46.32000
H  -1.70100 -5.19100 46.22600
H  1.56500 -5.93200 44.24600
H  0.01400 -6.44800 44.79200
H  2.40800 -7.42200 45.45800
H  0.89100 -7.56200 46.49100
H  2.09100 -6.47600 46.97600
H  6.30900 -4.31700 46.36100
H  7.44900 -4.04800 45.04800
H  6.06900 -5.09400 44.74900
H  7.37200 0.31900 42.12100
H  9.96200 3.39600 43.30700
H  9.48500 2.85700 44.93800
H  8.35100 3.80000 43.88900
Mg 40.62800 8.29000 29.76400
C  42.31700 9.61200 32.68900
C  38.23300 7.03500 31.83700
C  39.41700 7.06700 27.09200
C  43.69400 9.27700 27.96100
N  40.31700 8.40700 32.03200
C  41.11200 8.97400 33.02100
C  40.48700 8.93600 34.42200
C  39.18600 8.04700 34.11200
C  39.22600 7.78900 32.55600
C  39.10400 6.83100 35.06100
C  40.15500 10.32900 34.94600
C  40.05700 10.35700 36.45800
H  40.91900 11.26800 37.30100
N  39.00500 7.21000 29.50700
C  38.11000 6.78800 30.44800
C  37.05700 6.09900 29.77700
C  37.27100 6.24100 28.37700
C  38.63800 6.84300 28.26100
C  35.88700 5.54500 30.53300
C  36.41600 5.81300 27.20700
O  36.63600 6.13400 26.02300
C  35.26000 5.04200 27.50600
N  41.56800 8.03700 27.80100
C  40.74300 7.54700 26.88400
C  41.34700 7.70300 25.44300
C  42.75100 8.45000 25.66800
C  42.68000 8.63500 27.23700
C  41.44300 6.39000 24.74400
C  42.88900 9.74700 24.95200
C  41.77300 10.73700 25.11500
N  42.56400 9.21400 30.17400
C  43.65500 9.55300 29.31500
C  44.70400 10.09600 30.08200
C  44.27100 10.08800 31.41600
C  42.91600 9.65800 31.39600
C  45.98900 10.56200 29.45900
C  44.65000 10.33900 32.78600
O  45.72400 10.77600 33.27500
C  43.41400 10.01100 33.66800
C  43.77400 8.90400 34.67500
O  44.32200 7.84300 34.43900
O  43.32800 9.25300 35.96500
C  43.55300 8.32000 37.06700
H  37.49900 6.60400 32.52200
H  38.98300 6.72900 26.14800
H  44.57600 9.65300 27.43700
H  41.26300 8.40300 34.97100
H  38.27800 8.64700 34.15700
H  38.68100 5.99700 34.50000
H  38.47900 7.04300 35.92900
H  40.11100 6.50900 35.32700
H  39.23800 10.75500 34.53700
H  40.92700 10.97900 34.53400
H  40.15800 9.33700 36.82800
H  39.06200 10.66400 36.77800
H  35.61900 4.54400 30.19400
H  34.95800 6.09900 30.39800
H  36.15600 5.34700 31.57000
H  35.53300 4.18600 28.12400
H  34.89700 4.58300 26.58700
H  34.45200 5.59200 27.98900
H  40.60000 8.35800 24.99500
H  43.57300 7.81200 25.34300
H  42.33400 6.15600 24.16200
H  40.69500 6.52600 23.96300
H  41.34300 5.53600 25.41400
H  42.85700 9.41900 23.91300
H  43.85900 10.16600 25.21900
H  41.20000 10.69800 24.18900
H  42.18900 11.70800 25.38600
H  41.03000 10.54000 25.88800
H  45.98400 11.24500 28.61000
H  46.70300 9.74100 29.38400
H  46.35700 11.14300 30.30400
H  43.17700 10.95300 34.16100
H  43.08300 8.90400 37.85800
H  44.62900 8.22800 37.22100
H  43.08500 7.35400 36.87900

