158

Mg 6.65300 54.22200 41.36000
C  6.04100 50.75800 41.39700
C  9.63900 53.52200 39.62800
C  6.89200 57.46800 40.44400
C  3.47300 54.73800 42.64300
N  7.75900 52.34900 40.56600
C  7.27600 51.04600 40.72400
C  8.22100 50.05700 40.09600
C  9.55200 50.89300 40.00100
C  8.92200 52.32800 39.95900
C  10.58000 50.79500 41.13800
C  7.64200 49.40300 38.76100
C  6.82600 50.27400 37.80900
H  6.09400 49.58400 36.70600
N  8.08400 55.27700 40.38300
C  9.20000 54.83500 39.77200
C  10.00600 55.91000 39.28500
C  9.37900 57.11500 39.68900
C  8.05200 56.69600 40.17400
C  11.29700 55.76500 38.59500
C  10.05800 58.48900 39.56600
O  11.24500 58.60000 39.18500
C  9.40200 59.70100 40.11600
N  5.26900 55.87800 41.32400
C  5.70500 57.14500 41.07800
C  4.67800 58.16400 41.49400
C  3.55800 57.32100 42.17000
C  4.17000 55.87300 42.16300
C  5.26200 59.30900 42.47400
C  2.09500 57.28400 41.44300
C  1.05900 58.20700 42.22300
N  5.09400 53.01400 41.94500
C  3.92800 53.45100 42.57800
C  3.27900 52.24200 42.91500
C  4.01100 51.13800 42.51500
C  5.09900 51.69400 41.86800
C  1.95400 52.14400 43.62700
C  4.12500 49.70200 42.49800
O  3.42300 48.85200 42.97100
C  5.41700 49.39800 41.70500
C  5.04800 48.53800 40.56500
O  4.57300 48.89900 39.48300
O  5.38000 47.23300 40.81800
C  5.13200 46.27100 39.74400
H  10.56800 53.36800 39.07500
H  7.05800 58.51500 40.18500
H  2.52100 54.87400 43.16000
H  8.42700 49.23200 40.77800
H  9.97900 50.73700 39.01000
H  10.52200 49.74700 41.43000
H  10.28200 51.40600 41.99000
H  11.58900 51.08300 40.84500
H  7.09800 48.47000 38.90900
H  8.56900 49.10900 38.26900
H  7.38000 51.00900 37.22500
H  6.22800 50.99900 38.36100
H  11.35300 56.58100 37.87500
H  11.39200 54.82700 38.04700
H  12.15300 55.77800 39.26900
H  9.04700 59.33700 41.08000
H  8.51400 59.99800 39.55800
H  10.08300 60.55100 40.16200
H  4.26700 58.52600 40.55200
H  3.30500 57.55300 43.20500
H  5.28400 60.30700 42.03600
H  6.28700 58.99100 42.66600
H  4.76000 59.35700 43.44000
H  1.86300 56.22800 41.30600
H  2.13500 57.51000 40.37700
H  1.54100 59.17600 42.34800
H  0.80700 57.70700 43.15800
H  0.09100 58.31600 41.73200
H  1.68900 51.09300 43.51100
H  1.28000 52.87600 43.18200
H  2.03600 52.42000 44.67800
H  6.06100 48.87400 42.41200
H  4.14000 45.91300 40.02000
H  5.81100 45.43200 39.89100
H  5.16600 46.63500 38.71700
Mg -9.71800 40.17200 42.54100
C  -8.48400 37.11500 41.37700
C  -7.02500 41.66100 41.03300
C  -11.24700 43.03300 42.91800
C  -12.76500 38.44100 43.10900
N  -7.89900 39.49400 41.30100
C  -7.65700 38.20400 41.05300
C  -6.25600 38.02700 40.34600
C  -5.62700 39.53700 40.37000
C  -6.91700 40.27000 40.87700
C  -4.53700 39.69000 41.44300
C  -6.39100 37.49600 38.91300
C  -5.66200 36.21100 38.57900
H  -4.77000 36.04800 37.36200
N  -9.10100 42.03100 42.29600
C  -7.95900 42.49500 41.67700
C  -7.99300 43.94800 41.57200
C  -9.19700 44.39800 42.23700
C  -9.95600 43.15700 42.49100
C  -7.01000 44.87200 40.87200
C  -9.56400 45.81200 42.49700
O  -8.77600 46.68700 42.10000
C  -10.90900 46.27200 43.13300
N  -11.69500 40.67400 42.91000
C  -12.08000 41.94100 43.04000
C  -13.59200 42.07700 43.12100
C  -14.09100 40.60900 43.31500
C  -12.78400 39.82100 43.10400
C  -14.05500 43.03800 44.30600
C  -15.16500 40.19000 42.19900
C  -16.40400 41.12100 42.13100
N  -10.50800 38.18200 42.42700
C  -11.73400 37.63700 42.73600
C  -11.64200 36.18100 42.63200
C  -10.44100 36.00000 42.11600
C  -9.74800 37.16200 41.97400
C  -12.61700 35.24400 43.15200
C  -9.47300 34.95700 41.72000
O  -9.57000 33.77800 41.78000
C  -8.21600 35.65800 41.19500
C  -7.11200 35.10200 41.91700
O  -6.77200 35.52200 43.01300
O  -6.33300 34.25700 41.17700
C  -5.04700 33.83300 41.70600
H  -6.10700 42.13100 40.67300
H  -11.78400 43.98100 42.84300
H  -13.68200 37.86600 43.25200
H  -5.78000 37.30000 41.00300
H  -5.39400 40.00100 39.41100
H  -3.61100 39.81600 40.88200
H  -4.59500 38.75700 42.00500
H  -4.55900 40.53500 42.13100
H  -6.04100 38.21900 38.17600
H  -7.44900 37.29800 38.74100
H  -6.40100 35.41500 38.48900
H  -4.95700 36.15000 39.40900
H  -7.52100 45.18800 39.96200
H  -6.20600 44.18500 40.60700
H  -6.48100 45.66400 41.40200
H  -11.05200 47.28600 43.50600
H  -11.23500 45.72100 44.01500
H  -11.67900 46.14500 42.37200
H  -13.86500 42.45600 42.13700
H  -14.50500 40.53400 44.32100
H  -13.25400 43.64800 44.72300
H  -14.50500 42.49600 45.13800
H  -14.81500 43.62900 43.79500
H  -15.42300 39.13800 42.32800
H  -14.51600 40.37900 41.34500
H  -16.48000 41.51200 41.11700
H  -16.40200 41.99600 42.78100
H  -17.24500 40.45100 42.30800
H  -13.64800 35.50200 42.91200
H  -12.54800 35.27400 44.24000
H  -12.49200 34.22700 42.78000
H  -7.98900 35.42400 40.15500
H  -4.51300 33.33900 40.89400
H  -5.25500 33.07000 42.45600
H  -4.44100 34.65800 42.08000

