158

Mg 24.46200 -5.96100 47.57000
C  27.06200 -3.90000 46.38400
C  22.46300 -4.47500 45.11800
C  22.05700 -8.30100 48.31500
C  26.70200 -7.68300 49.45800
N  24.81000 -4.46900 45.78900
C  25.90100 -3.66900 45.66500
C  25.66300 -2.67500 44.48300
C  24.13700 -2.62800 44.35900
C  23.74000 -3.95100 45.11900
C  23.48900 -1.18100 44.71900
C  26.41900 -3.22500 43.13900
C  27.25400 -2.08800 42.46300
H  26.96500 -1.77500 40.97400
N  22.44900 -6.28400 46.88100
C  21.89400 -5.64100 45.76400
C  20.54900 -6.24100 45.53900
C  20.42100 -7.25700 46.56900
C  21.57900 -7.31000 47.38600
C  19.59700 -5.69000 44.45800
C  19.14800 -8.04100 46.81100
O  18.14800 -7.85200 46.14900
C  19.01300 -9.13500 47.91200
N  24.40400 -7.63500 48.69800
C  23.31100 -8.41200 48.93600
C  23.66700 -9.81800 49.53900
C  25.13800 -9.49500 50.15100
C  25.45500 -8.21100 49.38000
C  22.72100 -10.41200 50.68900
C  26.17100 -10.69200 50.10000
C  26.71100 -11.12400 51.45000
N  26.50000 -5.84600 47.93200
C  27.24500 -6.59400 48.79400
C  28.59300 -6.08300 48.75800
C  28.53000 -5.04300 47.91600
C  27.24000 -4.93600 47.36900
C  29.76000 -6.41200 49.57700
C  29.28100 -3.86700 47.39600
O  30.37500 -3.40200 47.63100
C  28.36800 -3.21000 46.30800
C  28.41300 -1.70300 46.35800
O  28.75900 -0.97900 45.44500
O  27.97600 -1.20600 47.56900
C  27.51400 0.14200 47.40400
H  21.81500 -4.02500 44.36300
H  21.35800 -9.13300 48.42000
H  27.37700 -8.30000 50.05500
H  26.01500 -1.70900 44.84500
H  23.82300 -2.69400 43.31700
H  24.33300 -0.50200 44.84200
H  22.84400 -1.37900 45.57500
H  22.85900 -0.95400 43.85900
H  25.69300 -3.75100 42.51800
H  27.18200 -3.91200 43.50300
H  28.31900 -2.29500 42.57000
H  27.15000 -1.15600 43.01900
H  18.84500 -4.95000 44.73300
H  19.16100 -6.49800 43.87200
H  20.17500 -5.16600 43.69700
H  18.01900 -9.56800 47.80200
H  19.03000 -8.85600 48.96600
H  19.76500 -9.88500 47.66800
H  23.77200 -10.57000 48.75700
H  25.04400 -9.16600 51.18600
H  22.44500 -11.43100 50.41800
H  21.84400 -9.78200 50.84100
H  23.24200 -10.30000 51.64000
H  27.01500 -10.42600 49.46300
H  25.58600 -11.52000 49.69900
H  27.72200 -11.47900 51.25200
H  26.18400 -12.03200 51.74100
H  26.65800 -10.35600 52.22200
H  29.59400 -7.36000 50.09000
H  29.73600 -5.63700 50.34300
H  30.69400 -6.48000 49.02000
H  28.71800 -3.49600 45.31600
H  28.27300 0.89200 47.62600
H  26.66900 0.20400 48.09000
H  27.00000 0.46000 46.49700
Mg 6.06800 54.24500 40.58300
C  5.23700 50.88100 40.29000
C  9.43100 53.42800 39.93800
C  6.73900 57.45400 40.12000
C  2.69300 54.96500 40.87000
N  7.09200 52.43600 40.01800
C  6.56800 51.12900 39.89600
C  7.68900 50.14300 39.62200
C  9.05400 50.94500 39.78900
C  8.49400 52.35700 39.98100
C  10.01600 50.48500 40.92700
C  7.53500 49.26000 38.35200
C  7.54800 50.03200 36.93900
H  6.55500 49.57200 35.86500
N  7.89100 55.25600 40.24000
C  9.12000 54.77200 39.97000
C  10.02000 55.88700 39.83600
C  9.35600 57.12200 40.10600
C  7.93500 56.66800 40.18000
C  11.56300 55.44900 39.50700
C  9.97000 58.52600 40.19300
O  11.21000 58.67300 39.97200
C  9.15800 59.71600 40.53800
N  4.88600 55.89600 40.35100
C  5.41600 57.14800 40.22500
C  4.30400 58.23000 40.13300
C  3.06700 57.43300 40.46200
C  3.56200 56.00500 40.58900
C  4.49500 59.44000 41.08600
C  1.87800 57.74600 39.46200
C  0.52400 58.25600 40.07400
N  4.23100 53.18700 40.65100
C  2.91500 53.62600 40.84700
C  2.09700 52.48800 41.06700
C  2.99300 51.41500 40.85700
C  4.25300 51.83900 40.62300
C  0.59200 52.34900 41.35400
C  2.92600 49.94200 40.79200
O  1.99500 49.11400 40.86600
C  4.47100 49.53200 40.50700
C  4.36500 48.56200 39.40200
O  3.90100 48.67000 38.26500
O  4.73500 47.36300 39.97400
C  4.42500 46.11600 39.25700
H  10.42700 52.99000 39.84300
H  6.97500 58.51000 39.97300
H  1.68100 55.25800 41.15800
H  7.71800 49.45200 40.46500
H  9.53000 50.84100 38.81400
H  10.93400 50.04600 40.53700
H  9.65700 49.72400 41.62000
H  10.27800 51.41700 41.42900
H  6.78000 48.47600 38.40600
H  8.46600 48.69900 38.42100
H  8.55700 49.89900 36.55000
H  7.43800 51.10400 37.10600
H  12.08300 55.03800 40.37200
H  12.23800 56.20400 39.10300
H  11.47600 54.65500 38.76600
H  8.63000 60.10200 39.66600
H  9.87700 60.46500 40.86800
H  8.46900 59.48700 41.35100
H  4.40100 58.55400 39.09700
H  2.61700 57.75400 41.40100
H  5.12500 60.19600 40.61700
H  5.02900 59.06800 41.96000
H  3.55600 59.94400 41.31400
H  1.66900 56.85200 38.87300
H  2.15900 58.51600 38.74300
H  -0.23600 57.48600 39.93500
H  0.12800 59.18100 39.65500
H  0.63800 58.45300 41.14000
H  -0.10100 53.08500 40.94600
H  0.47400 52.31200 42.43700
H  0.32600 51.45200 40.79500
H  4.75800 49.00300 41.41500
H  4.65200 45.18600 39.77800
H  4.81700 46.24600 38.24800
H  3.34300 46.03100 39.15700

