158

Mg 41.17200 41.73100 27.21800
C  39.85200 43.94600 29.75200
C  42.02700 39.56600 29.71800
C  42.01300 39.70200 24.90300
C  40.18500 44.19600 24.86500
N  41.10300 41.87900 29.48600
C  40.39800 42.75100 30.27100
C  40.33800 42.32300 31.76900
C  41.13400 40.98400 31.67100
C  41.46100 40.80200 30.18300
C  42.40300 40.82900 32.60100
C  38.86900 42.27100 32.21800
C  38.59400 41.55900 33.49600
H  37.96000 42.44700 34.63200
N  42.05600 39.89700 27.32700
C  42.33900 39.16000 28.43400
C  42.91200 37.91700 28.01900
C  42.94300 37.95100 26.55400
C  42.36800 39.23100 26.18100
C  43.42800 36.89300 28.99500
C  43.51600 36.88600 25.65800
O  43.51100 36.98300 24.40000
C  44.07800 35.66200 26.25400
N  41.11000 41.91300 25.16900
C  41.47300 40.87400 24.41500
C  41.11800 41.10600 23.01400
C  40.26700 42.48000 22.99400
C  40.47900 42.88300 24.43800
C  42.32500 40.97400 22.00600
C  38.75900 42.29700 22.60400
C  37.88000 41.47100 23.46400
N  40.32300 43.70700 27.25400
C  40.04200 44.58000 26.23900
C  39.52500 45.86300 26.78200
C  39.39700 45.61100 28.14800
C  39.88900 44.33500 28.40200
C  39.17200 47.01300 25.93800
C  39.02100 46.25800 29.37500
O  38.56500 47.39000 29.57900
C  39.32400 45.14300 30.42400
C  40.34200 45.71800 31.31700
O  41.46800 46.10800 31.05200
O  39.88300 45.90100 32.59100
C  40.84900 46.65400 33.47400
H  42.31200 38.85000 30.49200
H  42.14800 38.98100 24.09400
H  39.82000 44.84500 24.06700
H  40.86400 43.05900 32.37800
H  40.48300 40.14100 31.90000
H  42.81700 41.76800 32.96900
H  43.16300 40.40000 31.94700
H  42.36600 40.11200 33.42100
H  38.36100 41.72800 31.42200
H  38.51200 43.29700 32.31500
H  39.53300 41.33800 34.00300
H  37.93400 40.71500 33.29800
H  42.90800 35.97300 28.72800
H  43.23600 37.13100 30.04100
H  44.49000 36.83800 28.75800
H  44.96400 35.90300 26.84100
H  44.36300 35.06000 25.39100
H  43.28800 35.28000 26.89900
H  40.39100 40.31900 22.81500
H  40.79300 43.17500 22.34000
H  42.19900 40.00700 21.51900
H  43.23200 40.86500 22.60100
H  42.38000 41.83400 21.33900
H  38.85900 41.84900 21.61500
H  38.35800 43.24900 22.25800
H  38.25300 41.02500 24.38600
H  37.59300 40.62000 22.84700
H  37.10600 42.21900 23.63400
H  38.97900 47.91300 26.52100
H  38.31500 46.72400 25.32900
H  39.96500 47.26300 25.23300
H  38.41400 44.93100 30.98500
H  41.82300 46.90200 33.05300
H  40.96100 46.10000 34.40700
H  40.39000 47.63500 33.58900
Mg 25.46800 51.18600 27.06100
C  23.34200 52.23000 29.73500
C  27.79900 50.46500 29.44100
C  27.63600 50.90300 24.58000
C  23.11800 52.41700 24.82100
N  25.66900 51.57800 29.32400
C  24.62900 51.75900 30.18500
C  24.96200 51.44600 31.65900
C  26.53800 51.18600 31.54300
C  26.76100 51.15800 30.03900
C  27.46900 52.13700 32.36700
C  24.06400 50.30800 32.22200
C  23.49700 50.58400 33.64000
H  24.40600 51.27200 34.69800
N  27.32400 50.46700 26.96600
C  28.11300 50.25100 28.04700
C  29.39300 49.69500 27.59400
C  29.38500 49.76200 26.20400
C  28.05900 50.37600 25.84400
C  30.50500 49.20500 28.57700
C  30.60600 49.54500 25.23000
O  30.51700 49.72900 24.03500
C  31.89800 48.88100 25.68800
N  25.39700 51.76600 24.88300
C  26.49700 51.59200 24.14100
C  26.23000 52.13100 22.71000
C  24.63900 52.10300 22.72300
C  24.39200 52.05800 24.26200
C  26.87600 53.41600 22.29400
C  23.85100 51.00300 21.89900
C  22.78400 51.37000 20.94500
N  23.67300 52.25300 27.23400
C  22.80000 52.60900 26.21300
C  21.53400 53.01200 26.79800
C  21.74100 52.88700 28.17200
C  23.03000 52.40300 28.38900
C  20.37700 53.30600 26.01100
C  20.98200 52.89800 29.41500
O  19.85900 53.16500 29.57500
C  22.06300 52.54800 30.51500
C  22.25700 53.67800 31.42400
O  23.06200 54.61400 31.23000
O  21.50900 53.60200 32.57600
C  21.93900 54.64600 33.59700
H  28.47800 50.11500 30.22100
H  28.33400 50.64100 23.78300
H  22.36000 52.74100 24.10400
H  24.78700 52.30100 32.31100
H  26.73700 50.14700 31.80200
H  28.26600 52.51300 31.72600
H  27.96700 51.67200 33.21700
H  26.91100 53.05000 32.57600
H  24.63500 49.38300 32.13900
H  23.23300 50.02800 31.57500
H  23.18900 49.60100 33.99500
H  22.70600 51.33100 33.57100
H  30.97000 48.25600 28.30900
H  30.38800 49.32000 29.65500
H  31.26200 49.94900 28.33200
H  31.66000 47.92100 26.14500
H  32.33600 49.54600 26.43200
H  32.59700 48.71200 24.86900
H  26.54200 51.32100 22.05100
H  24.38800 53.11500 22.40600
H  27.47300 53.18900 21.41100
H  27.44800 53.72700 23.16800
H  26.19300 54.10400 21.79600
H  23.38900 50.31500 22.60700
H  24.50900 50.36500 21.30800
H  23.08200 50.95900 19.98000
H  22.82100 52.45100 20.80400
H  21.73900 51.18600 21.19100
H  19.58000 52.57400 26.14000
H  20.64100 53.20000 24.95900
H  20.10200 54.34400 26.19800
H  21.60500 51.68000 30.99000
H  21.93000 55.68300 33.26300
H  22.93000 54.38800 33.97200
H  21.29300 54.51300 34.46500

