158

Mg 26.06100 50.59900 25.79800
C  23.90300 51.45600 28.46100
C  28.21200 49.41200 28.23300
C  28.04400 49.59700 23.32100
C  23.74100 51.71500 23.52500
N  26.01400 50.41600 28.23200
C  25.02200 50.80900 29.03300
C  25.40300 50.62700 30.48000
C  26.89500 50.03300 30.37700
C  27.09000 49.94100 28.85300
C  28.05500 50.76900 31.13100
C  24.36700 49.71600 31.27000
C  24.88800 49.17400 32.56500
H  24.11300 49.42100 33.79600
N  27.87500 49.78200 25.77300
C  28.57500 49.23500 26.88300
C  29.89700 48.78900 26.38000
C  29.89300 48.92600 24.98400
C  28.52900 49.48000 24.62600
C  30.96000 48.13000 27.31600
C  30.92800 48.61900 23.94100
O  30.92900 48.95100 22.76000
C  32.16200 47.99500 24.45800
N  25.90200 50.63100 23.71400
C  26.84200 50.13300 22.85800
C  26.36600 50.09000 21.36500
C  24.91400 50.68800 21.46500
C  24.83400 51.02300 22.98000
C  27.35800 50.68800 20.31200
C  23.87700 49.75300 20.79900
C  23.57400 48.46400 21.42100
N  24.19800 51.50500 25.88800
C  23.33400 51.87500 24.86500
C  22.09200 52.32700 25.45900
C  22.24100 52.24700 26.89100
C  23.55000 51.66700 27.10400
C  21.01100 52.80300 24.47700
C  21.68400 52.52600 28.18800
O  20.60900 52.93000 28.60900
C  22.73500 52.13100 29.18500
C  23.16400 53.32900 30.01000
O  24.16200 53.96200 29.73600
O  22.39200 53.40400 31.13400
C  22.72600 54.47100 32.01400
H  29.00900 49.14500 28.93000
H  28.67300 49.20200 22.52000
H  22.98200 52.08200 22.83100
H  25.30500 51.61200 30.93500
H  26.96200 49.03200 30.80500
H  28.67600 50.17200 31.79800
H  27.58100 51.56300 31.70800
H  28.79000 51.24800 30.48400
H  24.20100 48.81000 30.68700
H  23.35500 50.11300 31.33700
H  25.84300 49.64600 32.79700
H  24.95900 48.08800 32.50600
H  31.10700 47.06900 27.11600
H  30.72800 48.23800 28.37600
H  31.92600 48.63500 27.29700
H  32.78200 47.64100 23.63400
H  31.90800 47.10600 25.03500
H  32.68300 48.78400 25.00000
H  26.31700 49.04600 21.05700
H  25.05100 51.63000 20.93300
H  28.17100 51.18600 20.84000
H  26.91900 51.45400 19.67300
H  27.83000 49.93400 19.68200
H  24.33200 49.42600 19.86400
H  22.97900 50.30700 20.53100
H  22.48700 48.42100 21.48900
H  24.11300 48.26600 22.34700
H  23.89500 47.67000 20.74600
H  20.12100 52.97200 25.08300
H  20.76900 51.98800 23.79500
H  21.27600 53.73600 23.97900
H  22.31400 51.32500 29.78500
H  23.69700 54.24000 32.45400
H  21.95300 54.51900 32.78100
H  23.03600 55.43600 31.61400
Mg 6.86300 53.90400 41.73800
C  6.24500 50.39400 41.65800
C  10.06000 53.33600 41.12800
C  7.16800 57.25500 41.29500
C  3.43900 54.37700 42.54200
N  7.89600 52.06500 41.31800
C  7.57400 50.78500 41.49500
C  8.79600 49.87600 41.33400
C  9.99300 50.83400 41.53000
C  9.27800 52.20400 41.38100
C  10.79500 50.72600 42.81100
C  8.87000 49.13100 39.96900
C  8.75200 49.96200 38.70700
H  7.36200 49.96800 38.12000
N  8.34900 55.06500 41.03600
C  9.64000 54.67400 40.96000
C  10.46800 55.80000 40.58300
C  9.69400 56.97600 40.76200
C  8.31000 56.47700 40.94600
C  11.93400 55.63800 40.14400
C  10.22700 58.42500 40.59300
O  11.39300 58.57000 40.34900
C  9.49700 59.69600 40.83400
N  5.36900 55.62700 41.66200
C  5.89900 56.87200 41.77000
C  4.83000 57.82200 42.32200
C  3.49900 56.95900 42.44100
C  4.12200 55.55100 42.30200
C  5.21500 58.62000 43.60600
C  2.46200 57.34400 41.32300
C  1.19200 56.49200 41.31200
N  5.20200 52.72000 42.00200
C  3.89100 53.03900 42.35100
C  3.11500 51.84100 42.57400
C  4.00700 50.71800 42.30600
C  5.20700 51.35500 41.97300
C  1.66500 51.67600 42.88400
C  4.14300 49.29300 42.35800
O  3.35400 48.39300 42.69300
C  5.57500 49.01400 41.80900
C  5.29900 48.35400 40.45000
O  4.59500 48.83800 39.49900
O  5.83700 47.06100 40.50200
C  5.52600 46.20100 39.40300
H  11.13000 53.11800 41.10000
H  7.25900 58.34000 41.37800
H  2.45500 54.43300 43.01500
H  8.85200 49.24200 42.22000
H  10.58500 50.68100 40.62800
H  11.75900 50.22200 42.74700
H  10.37300 50.16800 43.64600
H  10.98000 51.74500 43.15100
H  8.07300 48.38800 39.97700
H  9.73300 48.46700 39.89900
H  9.49600 49.57600 38.01000
H  9.03700 50.99900 38.88100
H  12.31400 54.62600 40.00400
H  12.51200 56.38700 40.68500
H  11.91100 56.11200 39.16300
H  8.86100 59.91200 39.97600
H  10.25100 60.47700 40.93500
H  8.98900 59.66300 41.79800
H  4.54900 58.48300 41.50200
H  2.98500 57.00200 43.40200
H  4.89200 58.18500 44.55100
H  4.87800 59.65300 43.68400
H  6.30200 58.56700 43.66400
H  2.87500 57.39700 40.31600
H  2.22800 58.39200 41.51100
H  1.47200 55.68900 40.63000
H  0.45200 57.10700 40.79900
H  0.76900 56.13700 42.25100
H  1.35400 50.80800 42.30300
H  1.28400 52.68900 42.75600
H  1.66500 51.35500 43.92600
H  5.94300 48.31300 42.55800
H  4.45900 45.99200 39.49200
H  6.07300 45.26400 39.50900
H  5.80700 46.75200 38.50500

