158

Mg 54.06900 23.99500 44.06600
C  51.38400 26.18100 43.25600
C  52.15000 21.39500 42.82900
C  56.77000 22.15800 43.90300
C  55.69400 26.71700 45.45400
N  52.17400 23.92400 42.88000
C  51.25900 24.86700 42.69800
C  50.05100 24.31100 41.92300
C  50.08100 22.77500 42.27700
C  51.53400 22.67500 42.75400
C  49.00700 22.07300 43.10000
C  50.01100 24.67800 40.39500
C  51.35300 24.89500 39.57400
H  51.22900 25.85600 38.42500
N  54.35000 21.99100 43.67700
C  53.43000 21.09100 43.20000
C  54.00200 19.76800 43.21500
C  55.36400 19.94400 43.58500
C  55.57900 21.38800 43.69400
C  53.31200 18.59900 42.63500
C  56.37300 18.83400 43.72200
O  56.06000 17.69700 43.44100
C  57.81700 19.08400 44.20100
N  56.00000 24.42700 44.31900
C  57.08000 23.50900 44.26000
C  58.36000 24.05900 44.89200
C  57.91600 25.39500 45.47200
C  56.42300 25.53200 45.16500
C  59.00400 23.20000 46.02800
C  58.65700 26.70400 44.97000
C  58.13600 27.41500 43.72900
N  53.78600 26.12100 44.23900
C  54.43900 27.05700 44.91600
C  53.65400 28.29300 45.05000
C  52.48000 28.01000 44.36100
C  52.54200 26.68400 43.88700
C  54.07400 29.58000 45.68500
C  51.22700 28.58300 43.92300
O  50.74600 29.66400 44.13200
C  50.46000 27.40300 43.32100
C  49.88800 27.82400 42.03000
O  50.47000 27.78800 40.99100
O  48.65200 28.15600 42.17100
C  47.94200 28.34100 40.92000
H  51.42800 20.59800 42.63800
H  57.71500 21.61700 43.97700
H  56.29400 27.45400 45.99200
H  49.25400 24.91900 42.35100
H  50.09100 22.26400 41.31400
H  48.09200 22.40200 42.61000
H  49.03900 22.46800 44.11600
H  48.99900 20.98400 43.14400
H  49.34900 25.53400 40.26300
H  49.48600 23.88800 39.85800
H  51.83300 23.96300 39.27500
H  52.04300 25.41600 40.23800
H  53.99700 18.11000 41.94200
H  52.51300 18.84200 41.93500
H  52.83000 17.92300 43.34100
H  57.67200 19.55000 45.17600
H  58.34900 19.76800 43.54000
H  58.41200 18.17900 44.32400
H  59.13800 24.18900 44.14000
H  58.02200 25.50200 46.55100
H  58.41600 22.32700 46.31100
H  59.24900 23.78900 46.91200
H  59.89100 22.71800 45.61700
H  59.71000 26.51500 44.76500
H  58.69300 27.43600 45.77700
H  57.94600 28.47400 43.90300
H  57.37200 26.88300 43.16200
H  58.89100 27.48900 42.94600
H  55.03800 29.33100 46.12900
H  53.31500 29.82300 46.42800
H  54.27100 30.37800 44.96900
H  49.70400 27.14900 44.06400
H  48.04900 27.53100 40.19900
H  48.21500 29.30500 40.49200
H  46.88700 28.33500 41.19500
Mg 48.79500 44.95900 42.79800
C  45.27600 45.24400 42.01700
C  48.85500 41.99400 41.31500
C  52.07700 45.28000 43.00100
C  48.59900 48.51400 43.66800
N  47.17300 43.74600 41.93500
C  45.91800 44.05700 41.58300
C  45.31200 42.91900 40.70700
C  46.31900 41.71300 41.03700
C  47.54300 42.53300 41.38800
C  45.93100 40.78700 42.25200
C  45.16300 43.31300 39.19100
C  43.75000 43.08800 38.60300
H  43.36700 43.99400 37.44700
N  50.26500 43.69200 42.35100
C  50.10700 42.51500 41.72100
C  51.44000 41.86900 41.57700
C  52.39800 42.71600 42.20200
C  51.62000 43.97800 42.48300
C  51.63600 40.41700 40.97300
C  53.87400 42.37000 42.41700
O  54.37700 41.35100 41.93800
C  54.82000 43.30800 43.09300
N  50.06800 46.70700 43.14700
C  51.43300 46.48200 43.16600
C  52.16800 47.74300 43.36400
C  51.14800 48.81800 43.73400
C  49.84800 47.99100 43.57100
C  53.47400 47.60400 44.20700
C  51.25300 50.07600 42.93200
C  52.11900 51.20500 43.54100
N  47.31300 46.52200 42.98400
C  47.37100 47.85700 43.41600
C  46.07100 48.50300 43.35800
C  45.25000 47.45900 42.80700
C  46.04000 46.30300 42.60400
C  45.73700 49.92600 43.71300
C  43.94900 47.30000 42.26400
O  42.99100 48.08900 42.26000
C  43.92500 45.83100 41.68400
C  42.74800 44.99400 42.12500
O  41.88900 44.54700 41.43100
O  42.74900 44.84600 43.51200
C  41.45900 44.73500 44.12300
H  49.01800 40.99200 40.91200
H  53.16400 45.31800 42.90700
H  48.40900 49.48400 44.13100
H  44.36200 42.63200 41.15700
H  46.51700 41.08900 40.16600
H  44.97500 41.06500 42.69700
H  46.74700 40.94300 42.95900
H  45.90600 39.73500 41.96900
H  45.80300 42.83500 38.44900
H  45.27400 44.39700 39.20900
H  42.99600 43.17300 39.38500
H  43.58100 42.04700 38.32800
H  52.56500 40.25000 40.42800
H  50.82800 40.31200 40.25000
H  51.63800 39.64400 41.74100
H  55.20600 44.04600 42.39100
H  55.72000 42.74400 43.34000
H  54.40500 43.79200 43.97800
H  52.54900 47.94800 42.36400
H  51.32300 49.11300 44.76900
H  53.55800 48.41300 44.93200
H  54.26100 47.77100 43.47100
H  53.61600 46.62200 44.65900
H  50.28000 50.54900 42.79700
H  51.65400 49.79200 41.95900
H  52.31100 51.08700 44.60700
H  51.63600 52.16900 43.37900
H  53.06900 51.29400 43.01500
H  45.26700 50.33400 42.81800
H  46.59700 50.50500 44.05100
H  44.99800 49.88600 44.51400
H  44.04300 45.99800 40.61300
H  41.46200 43.87400 44.79200
H  40.60500 44.80600 43.45100
H  41.36900 45.56700 44.82200

