158

Mg 48.78500 45.22400 43.29100
C  45.30800 45.34900 42.64000
C  48.69700 41.75300 42.54300
C  52.08700 45.23300 43.04900
C  48.67300 48.66700 43.76500
N  47.13900 43.87200 42.60600
C  45.85900 44.04600 42.48600
C  45.09000 42.74600 42.07600
C  46.13900 41.61000 42.34800
C  47.43700 42.44100 42.42600
C  45.85400 40.71000 43.58900
C  44.35900 42.72100 40.65200
C  45.03200 43.26200 39.42500
H  45.05200 42.41700 38.08000
N  50.19600 43.64500 42.88300
C  49.98400 42.33400 42.62300
C  51.22200 41.70400 42.40500
C  52.25400 42.70400 42.53100
C  51.49100 43.92500 42.87600
C  51.44700 40.25300 42.13100
C  53.75400 42.47200 42.15200
O  54.13700 41.35000 41.88200
C  54.71600 43.66100 41.80600
N  50.21700 46.70300 43.32100
C  51.53400 46.50200 43.19300
C  52.30500 47.83700 43.23200
C  51.20500 48.96800 43.44700
C  49.91800 48.04400 43.54100
C  53.43700 47.83800 44.35600
C  50.94100 50.02500 42.24700
C  51.52600 51.38600 42.59500
N  47.32900 46.72700 43.34900
C  47.41600 48.06800 43.59300
C  46.15700 48.63900 43.56200
C  45.28600 47.61400 43.24500
C  46.06600 46.48900 43.05500
C  45.90600 50.04400 43.52600
C  43.87400 47.28800 42.82100
O  42.86600 47.93700 42.69000
C  43.88900 45.77500 42.41400
C  42.81000 44.98100 43.18200
O  41.99400 44.23900 42.62600
O  42.77000 45.35900 44.46800
C  41.68300 44.82700 45.29200
H  48.64300 40.66700 42.44500
H  53.17700 45.17800 43.09500
H  48.54300 49.75200 43.77900
H  44.24600 42.58900 42.74700
H  46.19800 41.00300 41.44500
H  45.50000 39.82000 43.06900
H  45.11100 41.18500 44.23000
H  46.74400 40.54500 44.19700
H  43.38600 43.20300 40.74700
H  44.13900 41.65500 40.59100
H  46.04800 43.57800 39.65700
H  44.42600 44.11000 39.10700
H  51.97800 40.20600 41.18000
H  50.51400 39.69600 42.04800
H  52.03900 39.84800 42.95200
H  55.08900 44.19400 42.68100
H  54.09000 44.31600 41.19900
H  55.50200 43.13400 41.26600
H  52.74800 48.02400 42.25400
H  51.33900 49.39100 44.44200
H  53.20400 48.52500 45.17000
H  54.36700 48.11700 43.86100
H  53.56300 46.83400 44.76000
H  49.90600 50.19900 41.95300
H  51.32300 49.74500 41.26500
H  50.84500 52.20100 42.34900
H  52.34600 51.55900 41.89700
H  51.77400 51.45800 43.65400
H  45.25500 50.35800 44.34100
H  45.44000 50.33500 42.58400
H  46.81800 50.63900 43.57200
H  43.62800 45.78300 41.35600
H  41.58900 43.74900 45.16400
H  40.68600 45.17500 45.02300
H  41.75800 45.03400 46.36000
Mg 47.76200 35.16200 27.69600
C  45.90000 33.45600 30.16000
C  47.78000 37.92500 29.87700
C  49.15700 36.79500 25.38900
C  46.98800 32.51900 25.52600
N  47.05700 35.55100 29.78400
C  46.56600 34.58800 30.63500
C  46.70900 35.07000 32.09900
C  46.79400 36.60500 31.95100
C  47.24000 36.72500 30.45200
C  45.42300 37.31800 32.21300
C  47.96000 34.42600 32.85300
C  48.07500 34.56800 34.37100
H  47.35000 35.78100 35.06500
N  48.46400 37.12700 27.74100
C  48.43300 38.06700 28.66100
C  49.30900 39.16900 28.22100
C  49.83200 38.77400 26.97000
C  49.12700 37.53400 26.67000
C  49.61900 40.45900 28.99300
C  50.86100 39.46100 26.04500
O  51.26700 38.88600 25.05300
C  51.57600 40.69400 26.38000
N  48.06400 34.68600 25.70200
C  48.67800 35.55900 24.88600
C  48.59900 35.13600 23.41000
C  48.04600 33.71100 23.56400
C  47.69700 33.64500 25.05400
C  47.83100 36.08700 22.41800
C  49.13800 32.68200 23.12700
C  48.65400 31.54300 22.23600
N  46.83500 33.28000 27.78900
C  46.49400 32.33600 26.80900
C  45.78900 31.20100 27.42200
C  45.48300 31.67500 28.69200
C  46.12500 32.92800 28.87800
C  45.34500 29.92400 26.78800
C  44.77400 31.38700 29.88400
O  44.10200 30.43700 30.10700
C  44.87800 32.59500 30.82800
C  45.08500 32.20700 32.30200
O  46.06200 31.63900 32.75200
O  44.07500 32.71500 33.15000
C  44.45800 32.56500 34.59300
H  47.73900 38.83800 30.47500
H  49.66000 37.38000 24.61600
H  46.64900 31.80800 24.77100
H  45.79400 34.77600 32.61400
H  47.56100 36.91200 32.66200
H  45.40500 37.85300 33.16300
H  44.58300 36.63300 32.10400
H  45.25300 38.05800 31.43100
H  48.86900 34.70000 32.31600
H  47.85500 33.36900 32.60900
H  49.06800 34.62300 34.81600
H  47.70200 33.64800 34.82200
H  50.70300 40.51000 29.09700
H  49.27200 40.35000 30.02100
H  49.30600 41.42400 28.59500
H  52.14900 40.59400 27.30200
H  50.83300 41.47000 26.56400
H  52.27400 40.97000 25.58900
H  49.61600 35.03200 23.03100
H  47.15400 33.76400 22.94100
H  48.53900 36.80600 22.00600
H  47.33900 36.75800 23.12200
H  47.04600 35.61500 21.82600
H  49.45900 32.19700 24.04900
H  50.11000 33.11600 22.89100
H  47.89000 30.92900 22.71300
H  49.54500 30.94600 22.04400
H  48.31600 31.97600 21.29400
H  45.77400 29.88900 25.78700
H  44.25600 29.90500 26.76400
H  45.62700 29.02800 27.34200
H  43.88500 33.04500 30.81500
H  45.37700 33.09100 34.85100
H  44.57800 31.52700 34.90300
H  43.79100 33.11400 35.25700

