158

Mg 8.64300 3.85900 28.04900
C  9.77500 2.29600 30.97300
C  6.52000 5.73000 29.98200
C  7.24600 5.01000 25.08400
C  10.44900 1.44400 26.15400
N  8.32100 3.97100 30.22600
C  8.92100 3.31600 31.23000
C  8.30200 3.74300 32.63300
C  7.25900 4.77200 32.22100
C  7.33900 4.82100 30.68700
C  5.75600 4.64500 32.70600
C  9.44400 4.11900 33.69400
C  9.18600 5.17400 34.71300
H  9.58400 4.90300 36.17400
N  7.20200 5.24500 27.61500
C  6.42200 5.89600 28.54100
C  5.56800 6.86100 27.83800
C  5.79200 6.70000 26.47300
C  6.75300 5.59000 26.36100
C  4.50000 7.63100 28.57200
C  5.15100 7.42200 25.27300
O  5.49900 7.16200 24.14900
C  4.16200 8.57700 25.46400
N  8.65600 3.17400 25.95500
C  8.09900 3.93100 24.97800
C  8.67200 3.50300 23.61400
C  9.95200 2.71000 24.01700
C  9.68700 2.39900 25.44700
C  7.61300 2.73800 22.82100
C  11.32300 3.43000 23.91400
C  11.25600 4.96700 23.83300
N  9.91900 2.18100 28.44400
C  10.56100 1.31200 27.57500
C  11.18500 0.24200 28.40400
C  11.03900 0.66600 29.73200
C  10.13800 1.76400 29.68900
C  11.87700 -1.03600 27.91000
C  11.35700 0.35100 31.08600
O  12.08000 -0.58800 31.52200
C  10.53200 1.37600 32.07300
C  9.60000 0.50300 32.81300
O  8.50800 0.15300 32.43600
O  10.16000 0.27700 34.02800
C  9.44400 -0.72000 34.86800
H  6.07600 6.46500 30.65700
H  6.94100 5.47000 24.14200
H  11.20100 0.88700 25.59200
H  7.79000 2.85100 32.99300
H  7.52100 5.74400 32.64000
H  5.64600 5.37900 33.50400
H  5.62600 3.64400 33.11700
H  5.01000 4.85600 31.93900
H  10.37400 4.38500 33.19200
H  9.64500 3.23700 34.30200
H  8.09800 5.17300 34.65200
H  9.55100 6.15000 34.39400
H  4.35600 7.43600 29.63500
H  3.60700 7.27500 28.05800
H  4.74400 8.67900 28.40000
H  3.60300 8.72000 24.54000
H  4.64500 9.54000 25.63100
H  3.47200 8.42900 26.29400
H  8.98700 4.41300 23.10400
H  9.97800 1.77800 23.45200
H  6.75800 2.45900 23.43600
H  8.02900 1.86800 22.31300
H  7.15600 3.49800 22.18700
H  11.74200 3.32500 22.91300
H  12.09800 3.16300 24.63300
H  11.19200 5.37900 22.82600
H  12.09700 5.52000 24.25100
H  10.35500 5.27500 24.36200
H  12.83500 -0.75200 27.47400
H  11.20700 -1.65100 27.30900
H  12.15500 -1.52500 28.84300
H  11.26600 1.91800 32.67000
H  9.30200 -1.70200 34.41500
H  8.44700 -0.36400 35.12500
H  10.07200 -0.80500 35.75500
Mg 6.23600 53.85700 41.26500
C  5.35500 50.39400 40.95900
C  9.29300 53.05100 40.35500
C  6.72500 57.06000 41.11500
C  2.68100 54.41700 41.82100
N  7.07600 51.99000 40.53800
C  6.62000 50.68600 40.54500
C  7.68300 49.64700 40.03900
C  8.93800 50.48400 40.43600
C  8.40200 51.95100 40.48400
C  9.73300 50.02100 41.73500
C  7.50500 49.13800 38.56500
C  6.80100 50.01100 37.56900
H  6.28600 49.44700 36.22600
N  7.84200 54.93600 40.87600
C  9.02100 54.41400 40.38400
C  9.92600 55.53400 40.09800
C  9.22200 56.72600 40.38500
C  7.90200 56.28400 40.81000
C  11.34300 55.44000 39.51700
C  9.67600 58.14500 40.27600
O  10.84700 58.41700 39.91800
C  8.84800 59.47300 40.47900
N  4.81500 55.48700 41.35000
C  5.37300 56.76200 41.22900
C  4.23200 57.78000 41.35700
C  2.89600 56.96500 41.24300
C  3.44000 55.56100 41.50800
C  4.12100 58.60900 42.68600
C  2.21600 56.92500 39.88300
C  0.84800 57.62500 39.77800
N  4.41000 52.68400 41.43600
C  3.08400 53.08800 41.77100
C  2.25600 51.94000 41.90400
C  3.17500 50.83900 41.73800
C  4.45000 51.35600 41.36000
C  0.84000 51.97300 42.39300
C  3.24700 49.42000 41.70700
O  2.40200 48.52600 41.95200
C  4.62200 49.08400 41.13400
C  4.27100 48.34900 39.81300
O  3.89500 48.86900 38.74500
O  4.31800 47.03900 40.03700
C  4.19000 46.16700 38.90200
H  10.34700 52.84100 40.16100
H  6.86100 58.12100 41.33500
H  1.63100 54.68300 41.95800
H  7.57100 48.83600 40.75900
H  9.56800 50.55100 39.54900
H  9.93500 50.88000 42.37400
H  10.70600 49.60700 41.47200
H  9.21600 49.27900 42.34300
H  6.89900 48.23300 38.61100
H  8.45100 48.80300 38.13900
H  7.48100 50.82500 37.31900
H  6.00200 50.60700 38.01200
H  11.09400 55.85600 38.54000
H  11.76200 54.44900 39.34100
H  12.13700 56.01300 39.99400
H  9.50300 60.34300 40.44400
H  8.46300 59.33400 41.49000
H  7.97500 59.48800 39.82700
H  4.34300 58.48900 40.53600
H  2.14100 57.18100 42.00000
H  3.91100 57.98500 43.55500
H  3.26500 59.28300 42.68400
H  5.05000 59.13000 42.92000
H  2.17600 55.87900 39.58100
H  2.90900 57.46100 39.23400
H  0.82800 58.11200 40.75300
H  0.07100 56.86200 39.72200
H  0.86500 58.35000 38.96500
H  0.21000 52.19800 41.53200
H  0.71100 52.72000 43.17600
H  0.55200 50.97600 42.72700
H  5.11100 48.41700 41.84400
H  4.97300 46.32600 38.16000
H  3.21800 46.14500 38.40800
H  4.37400 45.15100 39.25100

