158

Mg 39.62800 10.31400 29.95500
C  41.52500 11.35800 32.67600
C  37.40300 8.89400 32.30600
C  37.72300 8.90600 27.43300
C  42.12700 11.14600 27.75900
N  39.58100 10.06400 32.18400
C  40.33200 10.73100 33.08300
C  39.87900 10.69700 34.52500
C  38.71700 9.66400 34.33600
C  38.53200 9.58200 32.84500
C  38.88500 8.21800 35.00000
C  39.50900 12.11100 35.09800
C  40.31700 12.74100 36.27500
H  39.55200 13.19900 37.47900
N  37.82700 9.03800 29.90600
C  37.00300 8.67400 30.96100
C  35.74900 7.98300 30.41300
C  35.83500 7.99100 29.01200
C  37.17700 8.63100 28.73700
C  34.78100 7.34500 31.42300
C  34.82100 7.43300 27.99800
O  34.99400 7.46900 26.80500
C  33.51000 6.88800 28.56900
N  39.91400 9.98500 27.94100
C  38.99100 9.45900 27.03800
C  39.54900 9.61800 25.55100
C  40.78300 10.61400 25.72900
C  40.96900 10.57900 27.24900
C  39.84000 8.29700 24.76200
C  40.47200 12.11700 25.39500
C  41.75000 12.80800 24.73600
N  41.45600 11.06100 30.08800
C  42.35300 11.42200 29.14900
C  43.47200 11.97700 29.75300
C  43.17700 12.10700 31.12700
C  41.96800 11.41700 31.29700
C  44.68400 12.42000 29.00300
C  43.62200 12.65900 32.42200
O  44.65500 13.26600 32.65600
C  42.63700 12.13900 33.47200
C  43.33500 11.20600 34.46400
O  43.76000 10.09800 34.20800
O  43.49400 11.89100 35.68500
C  43.99800 11.10800 36.83000
H  36.70900 8.67300 33.12000
H  37.17800 8.57800 26.54500
H  42.92300 11.38200 27.05000
H  40.73000 10.18900 34.97900
H  37.84300 10.13300 34.78800
H  38.00700 7.88800 35.55600
H  39.73500 8.43800 35.64500
H  39.29600 7.48900 34.30200
H  38.45700 12.01300 35.36800
H  39.59500 12.84500 34.29700
H  40.86400 13.63200 35.96800
H  41.05600 11.97400 36.50400
H  34.36700 6.43700 30.98400
H  33.92000 8.00900 31.50300
H  35.33300 7.12900 32.33700
H  33.23400 7.68700 29.25800
H  33.80000 6.01100 29.14800
H  32.71800 6.60700 27.87500
H  38.82100 10.07500 24.88100
H  41.64200 10.30800 25.13200
H  40.92600 8.25500 24.67900
H  39.35800 7.96400 23.84300
H  39.57000 7.46800 25.41800
H  40.10200 12.70500 26.23500
H  39.65400 12.20700 24.68000
H  41.42900 12.98100 23.70900
H  42.60300 12.13500 24.81900
H  41.94600 13.77400 25.20100
H  44.58800 12.02200 27.99200
H  45.65300 12.10400 29.38600
H  44.86000 13.49500 28.96200
H  42.27200 13.02900 33.98400
H  43.49200 11.27900 37.78000
H  45.07800 11.24400 36.88700
H  43.74100 10.05400 36.72300
Mg 48.57100 35.84100 27.52400
C  46.67300 34.28100 29.76100
C  49.15800 38.47500 29.69600
C  50.40800 37.39100 25.07300
C  47.93000 33.22400 25.22700
N  48.06300 36.15500 29.52400
C  47.24100 35.40200 30.30900
C  46.84200 36.15600 31.56900
C  47.53300 37.57700 31.36100
C  48.31300 37.41300 30.11700
C  46.58900 38.83300 31.32800
C  47.20900 35.54700 32.92400
C  48.63700 34.93800 33.04100
H  49.57800 35.85900 33.73500
N  49.60600 37.65400 27.38200
C  49.70700 38.60500 28.42500
C  50.55300 39.71900 27.92700
C  51.10300 39.34100 26.63700
C  50.39300 38.06600 26.32200
C  50.93900 40.84900 28.77400
C  52.25900 39.89600 25.78100
O  52.48700 39.42800 24.68700
C  52.95200 41.24600 26.26800
N  49.03400 35.43000 25.46700
C  49.76000 36.20300 24.63900
C  49.66700 35.74900 23.15800
C  49.32000 34.25900 23.38700
C  48.73600 34.27400 24.79900
C  48.69000 36.59500 22.38200
C  50.36500 33.20500 23.14700
C  50.51300 32.60000 21.71800
N  47.53800 34.10400 27.50000
C  47.37400 33.10300 26.54100
C  46.45600 32.12600 26.99300
C  46.10700 32.51400 28.24000
C  46.82100 33.75000 28.47300
C  45.89100 30.97500 26.22400
C  45.32300 32.21800 29.38100
O  44.58700 31.28500 29.61900
C  45.60200 33.35500 30.40000
C  46.00700 32.71500 31.66900
O  47.09400 32.22500 31.95700
O  44.91000 32.67600 32.50700
C  45.06700 32.34100 33.88800
H  49.41100 39.28600 30.38400
H  50.90600 37.98200 24.30100
H  47.61100 32.61400 24.38000
H  45.75600 36.25800 31.58100
H  48.25900 37.88500 32.11400
H  46.68400 39.42100 30.41500
H  46.55800 39.37200 32.27500
H  45.59000 38.40000 31.29200
H  46.40700 34.82800 33.09400
H  46.97300 36.29700 33.67800
H  49.02000 34.69100 32.05100
H  48.54800 33.97100 33.53500
H  51.63300 40.68600 29.59800
H  50.07500 41.30400 29.25900
H  51.31700 41.68700 28.18800
H  53.32900 40.96100 27.25100
H  52.23300 42.06500 26.26300
H  53.85900 41.38700 25.68000
H  50.65200 35.89400 22.71400
H  48.49600 33.96900 22.73500
H  48.01300 35.91500 21.86600
H  49.19800 37.11500 21.57000
H  48.16100 37.28600 23.03800
H  50.22200 32.44300 23.91300
H  51.33800 33.64700 23.36100
H  49.76300 33.03700 21.05800
H  50.15800 31.58700 21.91100
H  51.55800 32.65700 21.41500
H  45.63700 31.26400 25.20400
H  44.99000 30.81000 26.81500
H  46.59100 30.14100 26.25700
H  44.62200 33.79900 30.57900
H  45.43900 33.19300 34.45800
H  45.73700 31.48500 33.97000
H  44.09700 32.14300 34.34300

