158

Mg 47.13900 34.47900 28.18000
C  45.63000 32.62200 30.79300
C  47.49600 37.19200 30.28700
C  48.14800 36.28600 25.48000
C  46.42200 31.84000 26.00300
N  46.63100 34.84300 30.30200
C  46.16300 33.86100 31.20300
C  46.34700 34.46800 32.64200
C  46.53300 36.04200 32.37600
C  46.97400 36.05200 30.94100
C  45.30800 36.99900 32.63000
C  47.56500 33.89400 33.36900
C  47.50900 33.57500 34.82000
H  46.51900 34.36700 35.71200
N  47.85800 36.39200 27.91300
C  47.95300 37.35600 28.94800
C  48.58200 38.52700 28.39400
C  48.73300 38.33900 26.96700
C  48.22200 37.01600 26.71100
C  48.97800 39.75400 29.26100
C  49.21800 39.30100 25.91800
O  49.34500 38.92600 24.77400
C  49.51300 40.74400 26.23900
N  47.13900 34.14700 26.03700
C  47.66600 35.01900 25.18400
C  47.89100 34.45400 23.77100
C  47.14300 33.12600 23.83000
C  46.92800 33.01500 25.39600
C  47.51500 35.29400 22.55600
C  48.00100 31.97100 23.22700
C  47.21600 30.96900 22.50400
N  46.29900 32.61900 28.32700
C  46.06300 31.67400 27.34400
C  45.54000 30.44700 27.91600
C  45.41100 30.82000 29.26000
C  45.84600 32.07200 29.46300
C  45.03200 29.11500 27.26600
C  44.90100 30.30300 30.53900
O  44.54200 29.19600 30.81200
C  44.82800 31.56200 31.49500
C  45.31800 31.09800 32.85500
O  46.35600 30.49400 33.03000
O  44.32200 31.34500 33.73300
C  44.39900 30.45900 34.89800
H  47.65900 38.02900 30.96900
H  48.50600 36.77800 24.57300
H  46.29900 31.00600 25.30800
H  45.39800 34.43000 33.17700
H  47.27200 36.38000 33.10200
H  45.64500 37.67000 33.42000
H  44.37900 36.47200 32.84900
H  45.10300 37.54000 31.70700
H  48.46100 34.46000 33.11500
H  47.62400 32.92100 32.88100
H  48.51900 33.80100 35.16300
H  47.35000 32.49900 34.88300
H  49.98400 40.10500 29.03200
H  48.97900 39.56300 30.33400
H  48.23100 40.51100 29.02500
H  49.57600 41.49900 25.45500
H  50.52100 40.71800 26.65300
H  48.79300 41.16200 26.94300
H  48.97100 34.33200 23.69600
H  46.14400 33.29800 23.42900
H  47.12200 36.21200 22.99200
H  46.73600 34.87800 21.91700
H  48.33700 35.55800 21.89000
H  48.50600 31.56300 24.10300
H  48.79400 32.29500 22.55300
H  47.31900 31.13900 21.43300
H  46.16200 31.05400 22.77000
H  47.54000 29.95100 22.72000
H  45.95200 28.62100 26.95500
H  44.40100 29.33800 26.40600
H  44.52900 28.62200 28.09800
H  43.81400 31.94100 31.62400
H  44.69900 29.43200 34.68900
H  43.34900 30.49600 35.18800
H  45.13600 30.90300 35.56700
Mg 30.57900 59.42200 39.72000
C  27.59700 57.73700 38.66300
C  32.32400 56.69400 38.60400
C  33.27400 61.17700 40.07000
C  28.52400 62.31200 39.86100
N  30.05800 57.48700 38.69800
C  28.79200 57.00600 38.30200
C  28.85100 55.65800 37.51300
C  30.31200 55.19100 37.82700
C  30.98000 56.50600 38.49900
C  30.42400 53.90500 38.71600
C  28.41800 55.71700 36.01300
C  27.30500 54.72600 35.51600
H  26.07200 55.22300 34.86900
N  32.54700 58.96500 39.54800
C  33.07700 57.75300 39.12200
C  34.54500 57.84100 39.29000
C  34.85600 59.16700 39.80200
C  33.49100 59.82600 39.84600
C  35.43700 56.78200 39.07200
C  36.25500 59.72400 40.25600
O  37.30200 59.05400 40.22700
C  36.33200 60.93600 41.12500
N  30.88100 61.51000 39.93200
C  32.08600 61.98000 40.18800
C  32.04100 63.42900 40.40200
C  30.54200 63.76600 40.15600
C  29.91300 62.44100 39.93300
C  32.63600 63.95600 41.73900
C  30.25800 64.74700 38.95000
C  29.14500 65.80200 39.23800
N  28.53000 59.93100 39.49300
C  27.86600 61.14800 39.62200
C  26.41700 60.99500 39.50000
C  26.28400 59.64200 39.13500
C  27.58100 59.02200 39.15900
C  25.28500 62.02300 39.78700
C  25.29500 58.62100 38.77500
O  24.07300 58.65800 38.69600
C  26.10500 57.34500 38.36400
C  25.50100 56.13600 39.07800
O  25.64000 55.85300 40.26700
O  24.76500 55.34100 38.22100
C  24.13300 54.13200 38.81400
H  32.89600 55.80600 38.32600
H  34.16200 61.79600 40.21700
H  27.85300 63.13400 40.11700
H  28.14100 55.06900 38.09400
H  30.82800 55.04300 36.87900
H  30.56400 53.02800 38.08400
H  29.56200 53.63900 39.32800
H  31.21500 53.96300 39.46400
H  29.28100 55.35000 35.45600
H  28.32400 56.72900 35.61900
H  26.86800 54.10200 36.29600
H  27.68100 54.00200 34.79300
H  36.26100 56.68600 39.78000
H  35.97200 56.89300 38.12800
H  34.88700 55.84300 39.13100
H  37.15700 60.75400 41.81400
H  35.36300 60.96600 41.62400
H  36.43900 61.83500 40.51800
H  32.59800 63.98200 39.64600
H  30.01800 63.96700 41.09000
H  32.86700 63.29500 42.57500
H  31.98400 64.76500 42.06600
H  33.55000 64.44900 41.40600
H  29.88700 64.07000 38.18100
H  31.14300 65.35300 38.75700
H  29.16500 65.97100 40.31500
H  28.12800 65.52800 38.95800
H  29.35600 66.76700 38.77600
H  24.31100 61.70000 39.42100
H  25.50800 62.95000 39.25900
H  25.23600 62.19900 40.86200
H  26.05800 57.22300 37.28200
H  23.27400 54.36900 39.44100
H  24.75700 53.54800 39.49100
H  23.63100 53.51200 38.07200

