158

Mg 43.97500 4.40100 46.58900
C  41.80700 7.09700 46.39300
C  41.11400 2.35200 46.37500
C  46.01700 1.70300 46.05500
C  46.66400 6.57200 45.97500
N  41.81400 4.70200 46.39900
C  41.11600 5.90000 46.26600
C  39.60500 5.76100 46.00500
C  39.41100 4.22300 46.33200
C  40.86900 3.73200 46.36000
C  38.89800 3.83600 47.71500
C  39.15500 6.11400 44.58200
C  40.03500 5.68900 43.40400
H  40.23700 6.68400 42.23700
N  43.61600 2.35900 46.28700
C  42.38300 1.73400 46.24100
C  42.54600 0.32000 46.12100
C  43.97600 0.07300 45.82600
C  44.64600 1.37700 46.12200
C  41.43300 -0.68300 46.14000
C  44.57500 -1.23800 45.36200
O  43.84400 -2.17800 45.03000
C  46.09200 -1.34500 45.16700
N  45.99200 4.21100 46.07900
C  46.62600 2.97700 46.17000
C  48.16900 3.04600 46.16700
C  48.33800 4.58200 46.16200
C  46.94100 5.17800 46.09300
C  48.95200 2.32000 47.33700
C  49.26400 5.15000 45.03500
C  48.86500 4.95700 43.56800
N  44.26800 6.45600 46.49300
C  45.41900 7.20500 46.18200
C  45.02500 8.66300 46.27800
C  43.61400 8.65700 46.45600
C  43.22000 7.29500 46.49600
C  45.80400 9.84100 46.18000
C  42.42300 9.46100 46.49600
O  42.30800 10.69300 46.52600
C  41.25400 8.52600 46.53200
C  40.36100 8.78600 47.74900
O  40.35000 8.15000 48.77800
O  39.49300 9.68900 47.35100
C  38.36500 9.92600 48.24100
H  40.22600 1.77300 46.11300
H  46.74800 0.89400 46.01100
H  47.58700 7.15300 46.02800
H  39.07500 6.42100 46.69200
H  38.85400 3.78000 45.50700
H  38.58300 4.77100 48.17800
H  39.58100 3.45200 48.47400
H  38.05100 3.15800 47.60500
H  38.85300 7.16100 44.54100
H  38.32800 5.42400 44.41500
H  39.75400 4.73300 42.96200
H  41.05600 5.60500 43.77600
H  41.81200 -1.61600 46.55600
H  41.13800 -0.89500 45.11200
H  40.59200 -0.23100 46.66600
H  46.51900 -1.23900 46.16400
H  46.56000 -0.59300 44.53100
H  46.39200 -2.35700 44.89500
H  48.56200 2.66600 45.22400
H  48.80600 5.00000 47.05300
H  49.82600 1.83700 46.89900
H  48.33500 1.50700 47.72100
H  49.43500 2.93400 48.09700
H  50.18400 4.57500 45.13900
H  49.31100 6.23100 45.16300
H  48.26000 5.83800 43.35500
H  48.33300 4.03700 43.32500
H  49.78100 4.98600 42.97800
H  45.48900 10.63600 45.50300
H  46.83500 9.58000 45.94500
H  45.84100 10.31500 47.16100
H  40.67800 8.74700 45.63300
H  38.20000 9.06200 48.88500
H  37.43400 10.03600 47.68500
H  38.59100 10.78000 48.88000
Mg 47.63300 16.00000 28.80700
C  45.41600 15.69600 31.39900
C  49.75800 17.66900 31.02300
C  49.59700 16.92900 26.23800
C  45.27100 14.65500 26.66100
N  47.53400 16.65200 30.84900
C  46.59700 16.21900 31.82600
C  47.00200 16.66000 33.24300
C  48.22600 17.62900 33.02400
C  48.52100 17.30800 31.54600
C  48.00400 19.11000 33.24700
C  47.29000 15.48100 34.23100
C  46.89200 15.67400 35.65000
H  46.51500 17.11300 36.06500
N  49.48800 17.09900 28.65900
C  50.18100 17.69800 29.65500
C  51.50000 18.09300 29.21400
C  51.50500 17.83300 27.76000
C  50.18800 17.25500 27.45400
C  52.57700 18.77400 30.04900
C  52.58800 18.12500 26.81700
O  52.43900 17.75500 25.69400
C  53.80800 18.86600 27.07200
N  47.43300 15.73700 26.75800
C  48.40200 16.20900 25.87700
C  47.86500 16.14200 24.44900
C  46.64100 15.20000 24.56100
C  46.42300 15.19000 26.06600
C  47.63900 17.55600 23.82400
C  46.83500 13.79600 23.92000
C  45.93300 13.52100 22.71100
N  45.74800 15.35100 28.91100
C  44.90700 14.80000 28.01100
C  43.70900 14.37400 28.64100
C  43.79400 14.75500 29.95400
C  45.05200 15.38600 30.05100
C  42.59900 13.62900 27.94400
C  43.12700 14.70600 31.27500
O  42.13500 14.10700 31.65900
C  44.18400 15.38900 32.21800
C  43.53800 16.56000 32.77000
O  43.27300 17.58600 32.15600
O  43.00100 16.27400 33.96700
C  42.12700 17.28200 34.58400
H  50.39200 18.04900 31.82700
H  50.13300 17.26400 25.34800
H  44.57300 14.27300 25.91300
H  46.16300 17.24800 33.61500
H  49.11800 17.24100 33.51600
H  46.98200 19.26300 33.59300
H  48.04600 19.54700 32.24900
H  48.69300 19.54500 33.97100
H  48.37500 15.41600 34.15100
H  46.90700 14.57800 33.75600
H  47.63400 15.27500 36.34100
H  46.06300 14.98900 35.83000
H  52.22600 18.76100 31.08000
H  52.73400 19.79200 29.69100
H  53.48900 18.18700 29.93700
H  53.70400 19.56500 27.90200
H  54.13500 19.29000 26.12300
H  54.57300 18.11600 27.27400
H  48.69700 15.76700 23.85200
H  45.82300 15.76400 24.11400
H  47.90200 18.28400 24.59100
H  46.59300 17.65900 23.53500
H  48.23200 17.72600 22.92500
H  46.63100 13.09700 24.73100
H  47.88600 13.59000 23.71700
H  46.54000 13.12300 21.89800
H  45.43000 14.42000 22.35600
H  45.09500 12.85000 22.90000
H  42.78500 12.56700 27.78400
H  42.43300 14.19600 27.02800
H  41.64800 13.66500 28.47500
H  44.51900 14.83300 33.09300
H  41.50900 17.91600 33.94800
H  42.71500 17.95600 35.20700
H  41.41100 16.86400 35.29200

