158

Mg -0.43900 7.72900 27.66200
C  0.27400 9.89100 30.16200
C  -0.55300 5.03500 29.89300
C  -1.34500 5.78700 25.06000
C  0.13200 10.40100 25.38700
N  -0.05500 7.46300 29.74800
C  0.04100 8.53500 30.60200
C  -0.11500 8.06000 32.03600
C  0.17600 6.46700 31.88600
C  -0.26000 6.28100 30.42900
C  1.65400 5.97200 32.18400
C  -1.50400 8.48100 32.63700
C  -1.64400 8.57500 34.20000
H  -0.37900 8.43600 35.01200
N  -0.98300 5.71200 27.48100
C  -0.96600 4.75600 28.55500
C  -1.33700 3.45000 28.00600
C  -1.43900 3.66600 26.56500
C  -1.32100 5.08700 26.30100
C  -1.35200 2.14800 28.83400
C  -1.57200 2.60100 25.48900
O  -1.51700 2.87100 24.27900
C  -1.72800 1.16000 25.80400
N  -0.60000 8.05200 25.49800
C  -1.04600 7.04000 24.67700
C  -0.95300 7.51200 23.20900
C  -0.73100 9.07100 23.41900
C  -0.41500 9.25700 24.85600
C  0.08800 6.71000 22.36900
C  -1.85500 10.06000 22.92800
C  -1.58100 10.88400 21.64600
N  0.30400 9.72700 27.68900
C  0.47400 10.67300 26.73500
C  0.91800 11.92100 27.32500
C  0.83800 11.66200 28.72800
C  0.33400 10.31800 28.87200
C  1.30300 13.22600 26.69100
C  1.09400 12.13400 30.06600
O  1.49400 13.19700 30.39300
C  0.71000 11.00700 31.04400
C  1.90600 10.67200 31.88500
O  2.83900 9.99800 31.51400
O  1.80100 11.25600 33.13600
C  2.89900 11.05600 34.00900
H  -0.41000 4.19300 30.57300
H  -1.69000 5.21900 24.19400
H  0.33600 11.17800 24.64800
H  0.70600 8.51400 32.59200
H  -0.56000 5.91000 32.46600
H  2.07100 6.87900 32.62300
H  2.09600 5.63800 31.24500
H  1.60800 5.16300 32.91200
H  -2.12800 7.63400 32.35400
H  -1.86100 9.39200 32.15700
H  -2.46600 7.99800 34.62300
H  -2.06000 9.56600 34.37400
H  -0.62300 1.49700 28.35200
H  -2.36800 1.75300 28.81300
H  -1.04100 2.37100 29.85400
H  -2.55500 1.25700 26.50700
H  -0.77400 0.68700 26.03800
H  -2.18100 0.59100 24.99200
H  -1.91100 7.36500 22.71000
H  0.24600 9.31300 23.00000
H  -0.29600 6.18000 21.49700
H  0.59700 5.94600 22.95600
H  0.73600 7.43700 21.87900
H  -2.02200 10.84200 23.66800
H  -2.82900 9.57400 22.97500
H  -1.16600 11.85200 21.92600
H  -2.48300 10.83900 21.03500
H  -0.77700 10.39900 21.09200
H  1.39000 13.02400 25.62300
H  2.32800 13.51600 26.92000
H  0.54200 13.94600 26.99200
H  -0.16100 11.20600 31.66800
H  3.84600 10.85300 33.51000
H  2.56100 10.39000 34.80300
H  3.09700 12.05000 34.41100
Mg 46.77900 16.62600 28.10300
C  45.07800 16.07200 31.17700
C  49.14400 18.33300 30.02300
C  48.25400 17.55200 25.27300
C  44.15000 15.23300 26.36200
N  47.06900 17.16400 30.38100
C  46.34200 16.64600 31.39300
C  46.97800 17.00000 32.75800
C  48.11100 18.10200 32.34700
C  48.18200 17.85900 30.81900
C  47.85700 19.56900 32.88100
C  47.32700 15.80800 33.65100
C  47.38800 15.99900 35.14200
H  47.19800 17.31200 35.76200
N  48.54900 17.65300 27.70000
C  49.37000 18.23200 28.63100
C  50.58100 18.77600 27.95400
C  50.23500 18.66600 26.51900
C  48.98800 17.95200 26.42900
C  51.75400 19.35900 28.65600
C  51.05600 19.16500 25.40700
O  50.68400 19.23300 24.25000
C  52.38300 19.73100 25.64100
N  46.33500 16.21800 26.06300
C  47.11700 16.71900 25.11200
C  46.53300 16.41200 23.67800
C  45.27400 15.62100 24.01100
C  45.21700 15.64300 25.57500
C  46.31900 17.68300 22.84500
C  45.29000 14.12200 23.31700
C  44.09400 13.69200 22.43300
N  44.93500 15.84900 28.55600
C  43.99900 15.23800 27.76100
C  42.92800 14.78800 28.58400
C  43.29300 15.07000 29.89300
C  44.56900 15.68800 29.87000
C  41.60900 14.18800 27.99500
C  42.89300 14.91000 31.23600
O  41.87300 14.43300 31.70200
C  43.98400 15.63200 32.14800
C  43.43200 16.88600 32.90900
O  42.91500 17.89400 32.44700
O  43.57200 16.58300 34.20500
C  42.99100 17.49700 35.21100
H  49.86500 18.92900 30.58600
H  48.72000 17.89200 24.34500
H  43.28100 14.97600 25.75300
H  46.15400 17.45100 33.31000
H  49.10000 17.84200 32.72300
H  48.60800 19.93800 33.57900
H  46.88400 19.56900 33.37100
H  47.70500 20.27800 32.06800
H  48.33700 15.56400 33.32300
H  46.56500 15.06400 33.41800
H  48.26300 15.44300 35.47800
H  46.48400 15.50500 35.49800
H  52.69300 19.12200 28.15700
H  51.82200 18.88000 29.63300
H  51.69200 20.42900 28.85600
H  52.25700 20.58200 26.31000
H  52.90200 20.19000 24.80000
H  52.88400 18.88100 26.10400
H  47.25800 15.76500 23.18500
H  44.39600 16.14000 23.62800
H  46.28900 18.64200 23.36100
H  45.36000 17.50400 22.35800
H  47.12000 17.83100 22.12200
H  45.32000 13.38800 24.12200
H  46.16400 14.14800 22.66500
H  43.72000 12.75200 22.83700
H  44.44100 13.62200 21.40200
H  43.33000 14.45200 22.60100
H  41.12300 14.97700 27.42200
H  40.95700 13.67800 28.70500
H  41.86400 13.37500 27.31500
H  44.33100 14.87900 32.85400
H  43.38700 17.25700 36.19800
H  41.90300 17.43100 35.23000
H  43.23600 18.53700 34.99800

