158

Mg 40.14700 8.26900 29.97800
C  41.48200 9.45300 32.98500
C  37.61300 6.77200 31.69100
C  39.14800 6.93800 27.16100
C  43.09000 9.58200 28.35600
N  39.65300 8.09200 32.05900
C  40.23700 8.82600 33.09000
C  39.42300 8.64700 34.38500
C  38.14800 7.80700 34.00700
C  38.49500 7.50200 32.52300
C  37.89900 6.56600 34.83300
C  39.12100 10.03800 35.07700
C  38.96300 9.95000 36.57600
H  39.94700 10.76100 37.43900
N  38.49100 7.11100 29.47600
C  37.54900 6.62400 30.33300
C  36.67100 5.78400 29.58000
C  37.03300 5.89400 28.24200
C  38.32500 6.72000 28.23900
C  35.55800 4.88900 30.25600
C  36.36300 5.28700 27.02000
O  36.92000 5.19200 25.94900
C  34.94600 4.62500 27.12500
N  41.08200 8.10700 28.08400
C  40.37700 7.60900 27.09900
C  41.15500 7.70800 25.74800
C  42.21700 8.78200 26.07400
C  42.11400 8.81900 27.60500
C  41.77200 6.35200 25.33800
C  42.03300 10.15900 25.26000
C  40.68600 10.69500 24.81300
N  41.91000 9.27800 30.49400
C  42.98100 9.79000 29.73000
C  43.90300 10.53100 30.53600
C  43.38600 10.37700 31.80800
C  42.21700 9.60100 31.78600
C  45.13100 11.31700 30.14900
C  43.65900 10.64900 33.17800
O  44.65500 11.24100 33.68500
C  42.42800 10.11900 33.96400
C  42.86800 9.03600 34.91700
O  43.41700 7.92900 34.63300
O  42.54800 9.41500 36.26200
C  42.60500 8.25500 37.17100
H  36.73900 6.44900 32.26000
H  38.93500 6.32300 26.28400
H  43.89300 10.09900 27.82700
H  40.06600 8.00100 34.98300
H  37.27700 8.46000 34.05900
H  36.86800 6.50900 35.18100
H  38.48800 6.65600 35.74600
H  38.12800 5.57800 34.43500
H  38.13900 10.42800 34.80700
H  39.86400 10.81100 34.88100
H  38.98700 8.90900 36.89800
H  37.95200 10.24800 36.85400
H  35.76400 4.89600 31.32700
H  35.63600 3.85900 29.91000
H  34.56400 5.29900 30.07600
H  34.91700 3.83900 27.88100
H  34.77300 4.26000 26.11300
H  34.30100 5.46900 27.36900
H  40.49400 8.02500 24.94200
H  43.19200 8.36700 25.82200
H  42.72000 6.50300 24.82200
H  41.12500 5.87700 24.60100
H  41.90600 5.62400 26.13800
H  42.64700 10.14700 24.36000
H  42.50300 10.91100 25.89300
H  40.35100 10.14600 23.93300
H  40.75900 11.78100 24.75800
H  39.87100 10.40200 25.47400
H  44.81800 11.70900 29.18200
H  46.07300 10.77000 30.09800
H  45.19800 12.13700 30.86400
H  41.91000 11.00900 34.32200
H  43.63600 7.90500 37.12800
H  41.81900 7.57300 36.84800
H  42.38800 8.58200 38.18800
Mg 46.85200 46.48000 43.91000
C  43.51900 46.40200 43.04500
C  47.19100 43.35200 42.30600
C  50.08700 46.64700 44.43200
C  46.49500 49.96900 44.39200
N  45.60700 45.23500 42.68600
C  44.21400 45.26900 42.64000
C  43.67700 44.25700 41.62800
C  44.79100 43.19200 41.68800
C  46.00500 43.98800 42.22200
C  44.33600 41.93500 42.56100
C  43.34000 44.91400 40.20300
C  42.05500 44.48900 39.56400
H  42.22900 43.42200 38.50500
N  48.40900 45.12800 43.48200
C  48.40900 43.90600 42.78200
C  49.74100 43.35500 42.75600
C  50.61500 44.31600 43.31200
C  49.70500 45.41100 43.80900
C  50.08200 41.97100 42.02000
C  52.11100 44.17100 43.50700
O  52.66300 43.19000 43.10900
C  52.95100 45.37400 43.95000
N  48.08600 48.09400 44.27100
C  49.43900 47.87300 44.60200
C  50.12700 49.24300 45.05200
C  48.95800 50.28100 44.80200
C  47.73800 49.41000 44.45900
C  50.60500 49.27200 46.50200
C  49.25400 51.29700 43.66600
C  49.02800 50.90600 42.18600
N  45.24900 48.00500 43.92600
C  45.26900 49.36600 44.06800
C  43.89700 49.81400 44.05800
C  43.15400 48.68800 43.66500
C  44.01400 47.61900 43.56200
C  43.48900 51.24100 44.23200
C  41.88700 48.16900 43.26900
O  40.89600 48.76700 43.06600
C  42.01400 46.68900 42.95000
C  41.05800 45.88500 43.74600
O  40.03200 45.49400 43.29500
O  41.46000 45.76400 45.06400
C  40.57100 44.99200 45.93900
H  47.25400 42.37500 41.82300
H  51.08800 46.71800 44.86200
H  46.46600 51.04100 44.59500
H  42.71400 43.86600 41.95700
H  45.09900 42.75300 40.74000
H  44.43200 41.01100 41.99100
H  43.29900 41.94700 42.89700
H  44.88700 41.97900 43.50100
H  44.06500 44.56300 39.46800
H  43.43700 45.99600 40.28800
H  41.58800 45.32900 39.04900
H  41.32100 44.07200 40.25400
H  49.18500 41.44700 41.69000
H  50.62300 41.27100 42.65800
H  50.70400 42.28000 41.18000
H  52.75000 46.27100 43.36400
H  54.00300 45.09100 43.96900
H  52.65500 45.55700 44.98300
H  51.00100 49.48900 44.44900
H  48.67100 50.87100 45.67300
H  51.67500 49.47900 46.49700
H  50.42400 48.33600 47.03100
H  50.14300 50.06200 47.09400
H  50.15500 51.91000 43.69300
H  48.52100 52.09400 43.78400
H  47.97800 50.74600 41.94300
H  49.58600 49.99200 41.98400
H  49.41700 51.69200 41.53800
H  44.29900 51.96900 44.20500
H  42.88600 51.29200 45.13800
H  42.97400 51.41600 43.28700
H  41.67800 46.55000 41.92300
H  40.86400 45.34300 46.92800
H  40.77200 43.93000 46.07500
H  39.52500 45.06600 45.64400

