158

Mg 6.27000 54.79000 40.87100
C  3.37900 52.96800 39.84100
C  8.25700 52.33100 39.82300
C  8.79100 57.01100 40.98000
C  4.09000 57.41100 41.69400
N  5.79900 53.00400 39.77300
C  4.57000 52.35900 39.56400
C  4.93000 51.01100 38.97100
C  6.38900 50.67500 39.40500
C  6.87700 52.11500 39.74500
C  6.56200 49.77300 40.64200
C  4.74100 50.79400 37.44700
C  4.21800 49.37100 37.10300
H  4.22000 48.81600 35.67000
N  8.23900 54.72000 40.30400
C  8.88500 53.54100 39.91600
C  10.28200 53.89300 39.80500
C  10.39400 55.24500 39.91500
C  9.14600 55.72700 40.42100
C  11.32100 52.81100 39.57000
C  11.65300 56.07000 39.72700
O  12.69900 55.59600 39.26200
C  11.61500 57.59600 39.85800
N  6.36600 56.92500 41.21700
C  7.57200 57.54800 41.32600
C  7.43700 58.91900 42.08100
C  5.86600 59.15400 42.09400
C  5.34100 57.77200 41.61600
C  8.12800 58.96800 43.44200
C  5.41600 60.26800 41.08200
C  4.80200 61.46800 41.73900
N  4.18000 55.08900 40.99800
C  3.47400 56.16300 41.43500
C  2.07000 55.85800 41.41100
C  1.95200 54.58300 40.82300
C  3.27700 54.16800 40.50200
C  0.99500 56.78700 41.83500
C  0.99000 53.48900 40.35000
O  -0.22400 53.44600 40.33100
C  1.97100 52.30500 39.79500
C  1.49200 52.08200 38.39400
O  1.62000 52.93200 37.50800
O  0.98100 50.81600 38.17500
C  0.86500 50.47200 36.75600
H  8.96800 51.52400 39.63400
H  9.59300 57.56300 41.47400
H  3.44600 58.13600 42.19600
H  4.22600 50.29100 39.38700
H  6.88800 50.07800 38.64100
H  7.04000 48.84000 40.34400
H  5.56900 49.42900 40.93100
H  7.11900 50.31500 41.40500
H  5.70900 50.79500 36.94700
H  4.10000 51.57200 37.03200
H  3.20100 49.39100 37.49400
H  4.91000 48.76400 37.68700
H  12.30300 53.09600 39.94800
H  11.30400 52.40300 38.56000
H  11.03300 51.95600 40.18200
H  10.64200 58.00400 39.58500
H  12.34600 58.00000 39.15800
H  11.94300 57.84700 40.86600
H  7.94200 59.66700 41.47000
H  5.52400 59.29700 43.11900
H  8.04000 57.99400 43.92200
H  7.62700 59.78900 43.95500
H  9.17400 59.26900 43.38500
H  4.80300 59.82100 40.30000
H  6.32400 60.63500 40.60400
H  3.81700 61.72100 41.34600
H  5.46700 62.32700 41.64800
H  4.68600 61.33800 42.81400
H  0.07700 56.32800 41.46800
H  1.02700 57.78300 41.39600
H  1.01100 56.84400 42.92400
H  1.84800 51.41400 40.41100
H  0.82500 49.39400 36.59900
H  1.71600 50.86500 36.19900
H  0.03000 51.02500 36.32700
Mg 1.56800 41.59600 25.09800
C  2.22400 42.00100 28.40000
C  -1.48700 40.11100 25.95700
C  0.90300 41.01900 21.83500
C  4.55200 43.13700 24.21700
N  0.50400 41.04800 26.95000
C  0.97700 41.38000 28.20400
C  -0.14900 41.11200 29.28800
C  -1.22600 40.28300 28.45100
C  -0.64600 40.35000 27.02600
C  -1.46400 38.82700 28.88900
C  -0.73700 42.42300 29.83900
C  -1.13400 42.50400 31.28500
H  -1.84400 41.28700 31.88900
N  0.08800 40.72300 24.09100
C  -1.20200 40.29200 24.59300
C  -2.12600 39.95400 23.51400
C  -1.38100 40.05300 22.32500
C  -0.00700 40.56900 22.72200
C  -3.54800 39.50400 23.79800
C  -1.71400 39.65300 20.96600
O  -1.00300 39.90600 19.94300
C  -3.12500 39.17400 20.63300
N  2.54000 42.13300 23.31700
C  2.12300 41.61800 22.08800
C  3.18900 41.84700 20.98200
C  4.28100 42.67700 21.75500
C  3.76800 42.72300 23.20600
C  3.74500 40.59000 20.24500
C  4.37400 44.10700 21.06500
C  5.10300 44.22000 19.73400
N  2.99700 42.60400 26.11100
C  4.27600 43.02200 25.63300
C  5.04400 43.49600 26.82800
C  4.26200 43.16600 27.93800
C  3.12200 42.53600 27.43200
C  6.49500 44.09500 26.86300
C  4.21500 43.12900 29.38900
O  5.04000 43.46100 30.20400
C  2.84600 42.41900 29.72000
C  3.21200 41.24000 30.47300
O  4.08800 40.46400 30.23700
O  2.32800 41.14100 31.59500
C  2.72500 40.13300 32.59800
H  -2.40100 39.54500 26.14800
H  0.80400 40.87800 20.75700
H  5.50200 43.51100 23.83000
H  0.27900 40.45800 30.04800
H  -2.21800 40.73100 28.50200
H  -2.47300 38.61400 29.24200
H  -0.85400 38.72700 29.78600
H  -1.21100 38.06800 28.14900
H  -1.66200 42.72500 29.34700
H  0.04800 43.16600 29.69500
H  -1.62600 43.43600 31.56300
H  -0.18500 42.43500 31.81600
H  -3.88500 39.88900 24.76000
H  -3.56200 38.41500 23.85700
H  -4.24300 39.72000 22.98700
H  -3.80900 40.02300 20.60700
H  -3.48000 38.44800 21.36500
H  -3.27700 38.80000 19.62100
H  2.79500 42.46600 20.17600
H  5.22200 42.12800 21.72400
H  4.78000 40.47000 20.56500
H  3.56900 40.63800 19.17000
H  3.25200 39.68300 20.59600
H  4.86200 44.79300 21.75700
H  3.36200 44.47900 20.90500
H  4.31200 44.31200 18.99000
H  5.56400 43.25000 19.55000
H  5.83800 45.01600 19.61700
H  6.41600 44.75900 27.72300
H  6.75700 44.80800 26.08200
H  7.30600 43.38100 27.00700
H  2.16400 43.04000 30.29900
H  3.50400 40.57400 33.21900
H  3.04500 39.22500 32.08600
H  1.83200 39.92800 33.18900

