158

Mg 35.08900 2.60800 29.45200
C  32.97300 3.53800 31.93700
C  37.67200 2.30700 31.72400
C  37.15700 1.61300 26.91600
C  32.50100 3.24800 27.15300
N  35.31300 2.95900 31.56500
C  34.25300 3.26500 32.43300
C  34.74200 3.41700 33.91600
C  36.35300 3.24400 33.74100
C  36.50700 2.84300 32.24900
C  37.31300 4.43800 34.19300
C  33.96900 2.34500 34.82600
C  33.49700 2.79000 36.26000
H  34.35900 3.78000 36.96800
N  37.11000 1.94300 29.35000
C  37.93800 1.80500 30.45200
C  39.12700 1.08900 30.00300
C  39.07000 0.98300 28.56700
C  37.73600 1.51400 28.19700
C  40.16100 0.79100 31.04400
C  40.15400 0.45500 27.67300
O  40.21100 0.66900 26.50200
C  41.34000 -0.23300 28.26200
N  34.76600 2.34200 27.39200
C  35.81500 2.00000 26.55700
C  35.38800 2.14400 25.09800
C  33.78600 2.39300 25.21000
C  33.68800 2.72400 26.68000
C  36.08200 3.42000 24.38600
C  32.90300 1.27400 24.68800
C  32.26400 0.23800 25.69000
N  33.14000 3.32200 29.45600
C  32.21600 3.58000 28.48700
C  30.96700 3.95000 29.10200
C  31.21000 4.05000 30.44400
C  32.55500 3.61700 30.61700
C  29.73200 4.05600 28.30100
C  30.58300 4.25000 31.67200
O  29.43000 4.56000 31.98600
C  31.71100 3.99200 32.74200
C  31.79800 5.22100 33.56900
O  32.50800 6.17000 33.33200
O  30.94500 5.12800 34.64700
C  30.93400 6.25500 35.52600
H  38.41500 2.14000 32.50600
H  37.81800 1.32600 26.09500
H  31.70900 3.43600 26.42500
H  34.45300 4.44100 34.15300
H  36.67800 2.41900 34.37500
H  38.03600 4.67600 33.41300
H  37.89500 4.12400 35.05900
H  36.70400 5.29900 34.47100
H  34.47900 1.39300 34.97300
H  33.09800 1.97600 34.28300
H  33.50400 1.88000 36.85900
H  32.45400 3.10600 36.23900
H  39.75200 0.71100 32.05200
H  41.01200 1.47000 30.98900
H  40.58400 -0.20500 30.91600
H  42.04800 -0.54200 27.49300
H  41.04800 -1.12500 28.81600
H  41.97000 0.34500 28.93800
H  35.58500 1.21300 24.56600
H  33.51500 3.29600 24.66400
H  35.37000 4.11000 23.93400
H  36.73500 2.96700 23.63900
H  36.66300 3.96300 25.13200
H  33.50000 0.67300 24.00200
H  32.03900 1.69300 24.17300
H  31.19200 0.04300 25.65000
H  32.47800 0.55300 26.71200
H  32.67600 -0.74600 25.46700
H  29.78800 3.31300 27.50500
H  29.66800 5.01300 27.78400
H  28.80800 3.91500 28.86100
H  31.33900 3.18400 33.37100
H  30.60800 7.19800 35.08700
H  31.92800 6.51000 35.89300
H  30.30300 6.08500 36.39800
Mg -11.30900 37.77500 41.97800
C  -9.31000 35.04600 41.21000
C  -9.12200 39.71400 40.12800
C  -13.41900 40.33700 42.34500
C  -13.70300 35.61600 43.22000
N  -9.63400 37.29500 40.46700
C  -8.89400 36.17100 40.57400
C  -7.64600 36.30300 39.65400
C  -7.39700 37.83600 39.73500
C  -8.79800 38.35300 40.08000
C  -6.23600 38.28700 40.69400
C  -7.85200 35.68900 38.21700
C  -6.73500 34.68800 37.92200
H  -5.52900 35.32900 37.14300
N  -11.29700 39.78400 41.22100
C  -10.28300 40.37000 40.58500
C  -10.68100 41.72700 40.39200
C  -11.86900 41.97300 41.10600
C  -12.23400 40.65300 41.62300
C  -9.90900 42.74000 39.71800
C  -12.54200 43.43100 41.09500
O  -12.02800 44.43900 40.64900
C  -13.99400 43.50400 41.61500
N  -13.40600 37.87900 42.34100
C  -13.89900 39.05500 42.68700
C  -15.42600 38.90900 43.08600
C  -15.60000 37.33300 43.21000
C  -14.14600 36.88200 42.86100
C  -15.74100 39.69400 44.43400
C  -16.70400 36.57400 42.37600
C  -16.82100 36.92000 40.97700
N  -11.51600 35.71100 42.22800
C  -12.46000 35.07200 42.89600
C  -11.94600 33.72500 43.09500
C  -10.72600 33.64300 42.48700
C  -10.58300 34.88500 41.86400
C  -12.51400 32.69900 43.98000
C  -9.60300 32.82400 42.16000
O  -9.48100 31.57800 42.32900
C  -8.65300 33.60800 41.20500
C  -7.21800 33.62100 41.78700
O  -6.44400 32.69400 41.64500
O  -6.96400 34.74000 42.47300
C  -5.71300 34.85200 43.20400
H  -8.40200 40.37700 39.64400
H  -14.10400 41.12300 42.66900
H  -14.41900 34.96900 43.73100
H  -6.73700 35.88500 40.08800
H  -7.05900 38.17000 38.75400
H  -6.68100 38.91500 41.46600
H  -5.55200 38.93600 40.14700
H  -5.51700 37.56500 41.08200
H  -7.98500 36.48400 37.48400
H  -8.72500 35.03500 38.20100
H  -7.07800 33.83900 37.33000
H  -6.34900 34.21500 38.82500
H  -9.68900 43.45900 40.50800
H  -10.65400 43.08000 39.00000
H  -9.00200 42.54000 39.14800
H  -13.94300 43.29800 42.68400
H  -14.51300 42.76900 41.00000
H  -14.31700 44.52300 41.40600
H  -16.08300 39.18300 42.26100
H  -15.89000 37.07800 44.23000
H  -15.71800 40.74900 44.16100
H  -14.89300 39.36500 45.03500
H  -16.69300 39.33800 44.82600
H  -17.63800 36.84400 42.86900
H  -16.64500 35.49000 42.46400
H  -15.93200 37.42200 40.59500
H  -17.62600 37.64500 40.85700
H  -17.01200 36.01600 40.39900
H  -13.01800 31.86300 43.49400
H  -13.19000 33.15800 44.70200
H  -11.67900 32.26600 44.53100
H  -8.55700 33.22700 40.18900
H  -4.88400 35.10500 42.54400
H  -5.46100 33.87200 43.60900
H  -5.93100 35.57200 43.99300

