158

Mg 54.79800 23.31800 44.44200
C  52.50900 25.71800 42.99200
C  52.74100 20.78800 43.33000
C  57.29100 21.13300 44.74300
C  56.97200 26.01200 45.06900
N  52.81700 23.36900 43.26300
C  52.11800 24.39600 42.75800
C  50.77900 23.87300 42.11500
C  50.85600 22.33700 42.37900
C  52.24000 22.10500 43.05400
C  49.67000 21.81100 43.14700
C  50.59500 24.20500 40.58900
C  49.16500 24.57000 40.16700
H  48.72000 24.17600 38.77800
N  54.88800 21.23700 44.26500
C  53.93600 20.36100 43.83700
C  54.34600 18.99800 43.90800
C  55.72600 19.06300 44.16700
C  56.05000 20.51700 44.43900
C  53.36900 17.86100 43.80300
C  56.60700 17.82700 44.34800
O  56.18100 16.72600 44.09800
C  57.93900 17.91700 44.82600
N  56.86300 23.53900 44.82200
C  57.66100 22.47900 44.86600
C  59.16400 22.90100 45.01500
C  59.02500 24.38600 45.62200
C  57.58100 24.74800 45.10700
C  60.13600 22.00900 45.85700
C  60.15100 25.38200 45.21200
C  61.24900 25.65600 46.28700
N  54.73000 25.41200 44.23900
C  55.68200 26.32300 44.56300
C  55.06200 27.69400 44.36600
C  53.86900 27.46400 43.71700
C  53.73700 26.07400 43.60400
C  55.76200 29.08800 44.83400
C  52.70100 28.10800 43.18300
O  52.39400 29.25900 43.18300
C  51.82000 27.03000 42.59300
C  51.81500 27.40100 41.10500
O  52.71100 27.09700 40.39200
O  50.61400 27.96300 40.74900
C  50.41200 28.16700 39.33800
H  52.10600 19.98300 42.95700
H  58.08700 20.38800 44.79800
H  57.57500 26.86500 45.38700
H  50.04600 24.34700 42.76700
H  50.81500 21.88300 41.38900
H  49.12600 21.22000 42.41100
H  49.01300 22.59200 43.53100
H  50.10900 21.18100 43.92000
H  50.75400 23.27700 40.04000
H  51.22400 24.99400 40.17500
H  49.00100 25.64200 40.27700
H  48.56900 24.05300 40.92000
H  53.49000 17.19000 42.95300
H  52.33900 18.20600 43.89400
H  53.62300 17.25600 44.67400
H  58.53600 18.43000 44.07100
H  58.45200 16.98900 45.07700
H  57.81300 18.56700 45.69200
H  59.49100 22.99600 43.97900
H  59.01600 24.33600 46.71100
H  60.67200 21.40400 45.12600
H  59.62300 21.30600 46.51400
H  60.81600 22.54400 46.51900
H  59.71000 26.37500 45.12600
H  60.59800 24.93000 44.32600
H  62.23100 25.76800 45.82700
H  61.39400 24.87800 47.03600
H  61.05600 26.60300 46.79200
H  55.40600 29.88800 44.18400
H  56.81900 29.15400 44.57600
H  55.53100 29.24100 45.88800
H  50.87200 27.06300 43.12900
H  50.73900 29.17200 39.07000
H  49.35600 28.00700 39.12100
H  50.83900 27.32300 38.79600
Mg 47.94700 15.91300 28.21100
C  45.36500 15.98600 30.69400
C  50.15700 17.13500 30.49300
C  50.12700 16.31600 25.69700
C  45.46700 15.08800 25.93600
N  47.69600 16.63100 30.33200
C  46.61500 16.38200 31.16900
C  46.96800 16.75700 32.60300
C  48.36000 17.56300 32.35500
C  48.79700 17.10500 30.97000
C  48.25600 19.10100 32.48200
C  47.04800 15.45100 33.46200
C  46.98000 15.52900 35.01300
H  46.62500 16.84700 35.66500
N  49.88700 16.49700 28.13100
C  50.63300 16.91000 29.18900
C  51.98800 17.08600 28.85300
C  52.06000 16.87300 27.39000
C  50.65200 16.53300 27.02000
C  53.08200 17.55400 29.85000
C  53.28200 16.95400 26.58700
O  53.29500 16.74500 25.38500
C  54.60900 17.31800 27.16800
N  47.80600 16.12000 26.05600
C  48.88100 16.14900 25.22700
C  48.47600 15.77000 23.76700
C  47.07200 15.12700 24.00100
C  46.74300 15.48200 25.43300
C  48.63600 16.92300 22.70600
C  46.88400 13.63900 23.64000
C  47.11700 12.62200 24.83700
N  45.87600 15.56500 28.24700
C  45.07400 15.13100 27.29000
C  43.74000 14.67600 27.83400
C  43.80800 15.08800 29.14600
C  45.15000 15.53500 29.41800
C  42.63500 14.00100 27.07100
C  43.02400 15.23400 30.31600
O  41.86700 15.05200 30.41800
C  44.06500 15.74100 31.44000
C  43.52900 16.85400 32.25300
O  43.56700 18.05500 31.99800
O  42.90600 16.38100 33.41700
C  42.48300 17.40600 34.47000
H  50.83300 17.36400 31.32000
H  50.83800 16.13100 24.88900
H  44.78800 14.69000 25.17900
H  46.30600 17.43600 33.14000
H  49.09600 17.27900 33.10700
H  47.23200 19.47400 32.46600
H  48.77100 19.47700 31.59800
H  48.88700 19.45100 33.29900
H  48.04800 15.03300 33.35100
H  46.25400 14.77800 33.13700
H  47.92500 15.16000 35.41200
H  46.24400 14.83800 35.42400
H  52.75800 17.73900 30.87400
H  53.23600 18.57500 29.50000
H  53.94800 16.89800 29.77500
H  54.55600 18.33500 27.55800
H  55.45000 17.26600 26.47700
H  54.95900 16.61300 27.92200
H  49.12000 14.94400 23.46400
H  46.31100 15.62300 23.39900
H  47.64800 17.04100 22.26200
H  49.42300 16.64200 22.00600
H  48.81800 17.87300 23.20800
H  47.42000 13.30200 22.75200
H  45.86000 13.52900 23.28400
H  47.37700 13.11300 25.77500
H  47.89500 11.92400 24.52400
H  46.17700 12.08500 24.96200
H  42.93300 13.81500 26.03900
H  41.76500 14.65200 27.15100
H  42.69900 13.06900 27.63200
H  44.18700 14.95500 32.18500
H  42.80700 17.01100 35.43300
H  41.40500 17.48900 34.60900
H  43.04700 18.33800 34.41900

