158

Mg 25.48400 1.65300 29.87000
C  27.62600 1.52500 32.76900
C  22.91400 2.08700 31.95500
C  23.51900 1.61800 27.27100
C  28.23700 0.62500 27.98200
N  25.46700 1.64300 32.21400
C  26.36700 1.83100 33.16900
C  25.79600 2.21600 34.50500
C  24.24700 2.31600 34.23100
C  24.19300 1.95300 32.71100
C  23.41300 1.30600 35.16200
C  26.47700 3.54900 35.04700
C  27.30400 3.41600 36.34100
H  27.09900 4.42000 37.49100
N  23.50800 1.79900 29.66200
C  22.60600 1.97800 30.65900
C  21.26200 2.10800 30.08900
C  21.44000 2.00200 28.66500
C  22.83500 1.82900 28.46200
C  20.05300 2.36500 30.90700
C  20.34600 2.06500 27.56600
O  20.61700 2.02000 26.37000
C  18.84900 2.08800 27.84400
N  25.79900 1.20300 27.93600
C  24.88900 1.36600 27.00300
C  25.48800 1.36600 25.62700
C  26.96900 0.98000 25.79600
C  27.02400 0.96500 27.35600
C  24.74800 0.42000 24.54500
C  28.03600 1.82700 25.17000
C  28.14700 3.34100 25.51000
N  27.49800 1.19400 30.22200
C  28.52000 0.76600 29.38000
C  29.76000 0.56300 30.14200
C  29.44100 0.82500 31.45400
C  28.12900 1.29100 31.44700
C  31.00300 0.08700 29.54300
C  29.92000 0.89600 32.79400
O  31.05500 0.64400 33.18700
C  28.81200 1.40200 33.70000
C  28.67900 0.47400 34.78400
O  28.20400 -0.69100 34.76400
O  29.22000 1.08200 35.86200
C  29.37000 0.24500 37.00200
H  22.13100 2.42100 32.63800
H  22.82400 1.69600 26.43200
H  29.04900 0.16100 27.41900
H  26.08400 1.30700 35.03400
H  23.94400 3.32700 34.50100
H  22.76000 0.72700 34.51100
H  22.75100 1.92000 35.77400
H  23.99400 0.66100 35.82100
H  25.65000 4.22600 35.26600
H  27.09400 3.99700 34.26700
H  28.36700 3.44900 36.10100
H  26.98200 2.42700 36.66900
H  19.15400 1.87600 30.53300
H  19.93000 3.42800 30.70000
H  20.22300 2.20100 31.97100
H  18.72200 3.00200 28.42400
H  18.63600 1.29100 28.55600
H  18.25900 1.99000 26.93300
H  25.35500 2.38900 25.27500
H  27.12200 -0.03800 25.43900
H  23.83200 -0.05100 24.90100
H  25.28600 -0.46200 24.19500
H  24.58200 1.01200 23.64500
H  27.80300 1.89900 24.10800
H  28.99900 1.31900 25.21100
H  29.03000 3.31100 26.14800
H  27.19100 3.67400 25.91400
H  28.32800 3.90300 24.59300
H  31.09900 0.36600 28.49300
H  31.18200 -0.97800 29.69100
H  31.79500 0.57100 30.11300
H  29.07800 2.40100 34.04500
H  29.59600 -0.80600 36.82400
H  28.37600 0.29900 37.44700
H  30.13000 0.68600 37.64800
Mg -12.96500 16.41300 42.33500
C  -9.85400 14.81900 41.72300
C  -11.95200 19.10000 40.51300
C  -16.13800 17.41200 42.30900
C  -14.08400 13.21500 43.61000
N  -11.07100 16.95500 41.37800
C  -9.91400 16.19000 41.23900
C  -8.83600 17.00700 40.50100
C  -9.53000 18.38600 40.31700
C  -10.93200 18.14800 40.70800
C  -8.90600 19.43900 41.33300
C  -8.48200 16.40000 39.10800
C  -6.94100 16.30000 38.87100
H  -6.39000 15.09600 38.16300
N  -13.91000 18.09200 41.59500
C  -13.27500 19.09200 40.89600
C  -14.29100 20.12800 40.56800
C  -15.50700 19.76400 41.18400
C  -15.22700 18.35500 41.70300
C  -13.97700 21.41100 39.81100
C  -16.80900 20.57600 41.21800
O  -16.85400 21.70800 40.69900
C  -18.00500 20.02400 41.90500
N  -14.80600 15.44900 42.75400
C  -16.05300 16.09800 42.79800
C  -17.23500 15.16600 43.12000
C  -16.51600 13.95900 43.69300
C  -15.02700 14.13500 43.19300
C  -18.29200 15.84500 44.13300
C  -17.07500 12.53000 43.34500
C  -16.95400 11.44700 44.36800
N  -12.20300 14.37700 42.63700
C  -12.74300 13.22600 43.23300
C  -11.68300 12.25100 43.41900
C  -10.53600 12.88600 42.86500
C  -10.96600 14.12700 42.37800
C  -11.90700 10.98100 44.13400
C  -9.08300 12.77900 42.66700
O  -8.31500 11.88400 42.97200
C  -8.57500 14.08100 41.91700
C  -7.53900 14.66200 42.81000
O  -7.75800 15.03400 43.95100
O  -6.35800 14.96700 42.18100
C  -5.39600 15.86200 42.81800
H  -11.79200 19.99900 39.91400
H  -17.16500 17.77600 42.23600
H  -14.29600 12.22400 44.01600
H  -7.88900 17.00100 41.04000
H  -9.38800 18.82600 39.33000
H  -9.70100 19.93500 41.88900
H  -8.51200 20.24600 40.71600
H  -8.17300 18.98600 42.00000
H  -8.83800 16.97700 38.25400
H  -8.86400 15.38700 38.98300
H  -6.36300 16.39500 39.79000
H  -6.70600 17.22800 38.34900
H  -14.81300 21.68300 39.16700
H  -13.21500 21.20800 39.05800
H  -13.66800 22.21300 40.48100
H  -18.37400 19.20300 41.29100
H  -18.80100 20.76300 41.81400
H  -17.89600 19.75300 42.95500
H  -17.73700 14.93200 42.18100
H  -16.48800 14.06000 44.77800
H  -19.25800 15.36800 43.96700
H  -18.32600 16.91900 43.95100
H  -17.95400 15.66500 45.15300
H  -16.37600 12.29200 42.54300
H  -18.07800 12.77900 43.00000
H  -17.92600 10.99800 44.57200
H  -16.56100 11.95800 45.24700
H  -16.22300 10.68100 44.11000
H  -10.90400 10.61100 44.34600
H  -12.47800 10.29600 43.50600
H  -12.42600 11.09400 45.08500
H  -8.12700 13.60500 41.04500
H  -4.83000 15.36700 43.60600
H  -5.88900 16.77400 43.15400
H  -4.57000 16.18000 42.18200

