158

Mg 16.82600 -2.62100 28.87900
C  15.60600 -0.24300 31.14300
C  18.58800 -4.09300 31.36700
C  17.99600 -4.60400 26.52100
C  15.04100 -0.91500 26.22400
N  17.27100 -1.98800 30.99000
C  16.54600 -1.08700 31.76500
C  16.93400 -1.25000 33.24000
C  18.04800 -2.39900 33.22600
C  17.94800 -2.86400 31.75500
C  19.54900 -1.87300 33.62900
C  15.73800 -1.48900 34.16600
C  15.55700 -0.73800 35.49000
H  16.83300 -0.07600 35.97500
N  18.07000 -4.22300 28.95400
C  18.69100 -4.70900 30.05000
C  19.45300 -5.81400 29.70200
C  19.43200 -5.99100 28.28400
C  18.40000 -4.99400 27.85100
C  20.27300 -6.54400 30.75000
C  20.21300 -6.83600 27.31800
O  19.96100 -6.69400 26.09800
C  21.20900 -7.85000 27.78900
N  16.56500 -2.65900 26.63700
C  17.21700 -3.60400 25.92500
C  17.12100 -3.24800 24.42800
C  15.95100 -2.24400 24.36200
C  15.84200 -1.90800 25.79900
C  18.38400 -2.68600 23.86300
C  14.65300 -2.84000 23.60600
C  14.45500 -2.32300 22.14800
N  15.49400 -1.01100 28.72400
C  14.85600 -0.42400 27.60000
C  14.12100 0.76600 28.02200
C  14.30400 0.82900 29.39700
C  15.10400 -0.24700 29.81100
C  13.26100 1.66500 27.19300
C  13.93200 1.50200 30.64800
O  13.17800 2.39700 30.86500
C  14.77000 0.85400 31.80300
C  15.63100 1.91800 32.34300
O  16.62400 2.48200 31.87100
O  15.13000 2.17300 33.57600
C  15.68000 3.28100 34.32500
H  18.98600 -4.72300 32.16500
H  18.46300 -5.18700 25.72400
H  14.57700 -0.29600 25.45300
H  17.33300 -0.27600 33.52200
H  17.81600 -3.18500 33.94500
H  19.74700 -2.36500 34.58100
H  19.53500 -0.81300 33.88200
H  20.18000 -1.95600 32.74400
H  15.58900 -2.55700 34.32300
H  14.83100 -1.37200 33.57300
H  15.11700 -1.31600 36.30300
H  14.89600 0.10300 35.28200
H  20.41600 -6.02700 31.69800
H  21.30400 -6.59900 30.40000
H  19.92400 -7.57000 30.86900
H  20.94500 -8.35200 28.71900
H  22.20000 -7.39600 27.82900
H  21.17100 -8.58400 26.98400
H  16.85200 -4.19000 23.94900
H  16.21900 -1.36300 23.77800
H  18.58400 -1.65300 24.14700
H  18.38800 -2.71000 22.77300
H  19.24700 -3.32200 24.06300
H  13.68400 -2.70200 24.08500
H  14.66500 -3.91300 23.41600
H  15.12800 -1.47900 21.99600
H  13.52200 -1.77500 22.01400
H  14.35700 -3.10600 21.39600
H  12.88000 1.33200 26.22700
H  13.87800 2.54900 27.03000
H  12.37900 1.89200 27.79100
H  14.08000 0.49200 32.56600
H  16.71700 3.49300 34.06600
H  15.70200 3.02600 35.38400
H  14.97900 4.09800 34.15400
Mg -1.69900 34.40500 26.83900
C  -3.35600 32.46300 29.25500
C  -0.30300 36.16100 29.34500
C  -0.37700 36.25100 24.47600
C  -3.07500 32.24400 24.28800
N  -2.03300 34.33900 29.09300
C  -2.69000 33.50400 29.88200
C  -2.52000 33.81100 31.37500
C  -1.69900 35.18000 31.27900
C  -1.30100 35.22700 29.83200
C  -2.40600 36.49200 31.71500
C  -1.77100 32.74600 32.27700
C  -2.44500 32.50900 33.65900
H  -1.63800 32.27200 35.01800
N  -0.57900 36.05800 26.95100
C  -0.00600 36.62200 28.05400
C  1.02900 37.64900 27.67900
C  0.93200 37.70800 26.22500
C  -0.05700 36.61500 25.80400
C  1.82100 38.40400 28.65200
C  1.65200 38.76000 25.31700
O  1.50900 38.77500 24.09800
C  2.58200 39.83000 25.99000
N  -1.70600 34.25500 24.70800
C  -1.24700 35.30100 23.98100
C  -1.58800 35.14800 22.48600
C  -2.16000 33.67500 22.39400
C  -2.34600 33.33400 23.89300
C  -2.58100 36.23100 21.90500
C  -1.35000 32.60400 21.63300
C  -0.55500 31.60800 22.44500
N  -3.00300 32.75700 26.71900
C  -3.35400 31.90700 25.64800
C  -4.09200 30.79200 26.14400
C  -4.16300 31.04900 27.53000
C  -3.42200 32.17700 27.80800
C  -4.80200 29.78400 25.38100
C  -4.68200 30.41100 28.76500
O  -5.28400 29.35400 28.86400
C  -4.10900 31.27500 29.95200
C  -5.17400 31.66200 30.91200
O  -5.55800 32.82500 31.03500
O  -5.60300 30.65200 31.78400
C  -6.39800 31.26800 32.90100
H  0.19400 36.59800 30.21300
H  0.08100 36.98500 23.80900
H  -3.36400 31.54700 23.49900
H  -3.51400 34.09600 31.71900
H  -0.76100 35.08900 31.82600
H  -3.41600 36.25800 32.05200
H  -2.42100 37.21000 30.89500
H  -1.86900 36.90000 32.57100
H  -0.75400 33.11900 32.39400
H  -1.63400 31.77600 31.79800
H  -3.05300 31.61000 33.55600
H  -3.19500 33.26500 33.89300
H  2.11900 37.82000 29.52200
H  1.25500 39.27800 28.97400
H  2.76700 38.80500 28.28900
H  2.09900 40.40300 26.78200
H  3.02200 40.42100 25.18700
H  3.33100 39.13700 26.37300
H  -0.67900 35.10200 21.88600
H  -3.18100 33.57500 22.02700
H  -3.56600 35.80300 21.71800
H  -2.18900 36.53000 20.93300
H  -2.56100 37.05800 22.61600
H  -0.62800 33.11400 20.99600
H  -1.99700 32.01600 20.98300
H  0.13300 31.08100 21.78400
H  -1.31900 30.92900 22.82400
H  0.03200 32.08200 23.23100
H  -4.31300 29.61800 24.42100
H  -5.81500 30.14600 25.20800
H  -4.85200 28.84900 25.93800
H  -3.45000 30.67100 30.57600
H  -5.79200 32.03900 33.37700
H  -6.77900 30.52100 33.59800
H  -7.33900 31.60800 32.47000

