158

Mg 35.73500 1.25100 30.25400
C  33.48800 2.19100 32.74600
C  38.24100 1.10500 32.52600
C  37.83500 0.43600 27.67600
C  33.07100 1.48900 27.85200
N  35.82900 1.77200 32.38200
C  34.78600 2.02000 33.27200
C  35.31200 2.12900 34.71400
C  36.86800 2.00200 34.56600
C  37.01000 1.56700 33.07200
C  37.66000 3.26300 34.90200
C  34.72500 0.96900 35.56500
C  34.16300 1.25800 37.00800
H  34.45900 2.55500 37.59700
N  37.84400 1.05200 30.07800
C  38.65900 0.84600 31.14000
C  39.89700 0.28700 30.70500
C  39.88700 0.31000 29.29500
C  38.46400 0.63700 28.91400
C  41.01500 -0.02700 31.73200
C  40.93200 -0.05000 28.36400
O  40.77700 0.01100 27.15800
C  42.32500 -0.41600 28.90500
N  35.54400 1.10500 28.09100
C  36.59100 0.68300 27.24600
C  36.15000 0.41800 25.85100
C  34.55300 0.63400 25.95400
C  34.28600 0.95600 27.41300
C  36.73000 1.39800 24.85400
C  33.71900 -0.62400 25.50800
C  33.08600 -0.59000 24.10300
N  33.71000 1.80300 30.20200
C  32.84300 1.95200 29.18400
C  31.56700 2.37600 29.78400
C  31.75900 2.48700 31.14100
C  33.08200 2.14000 31.36000
C  30.28700 2.57200 29.02500
C  31.17000 2.87300 32.37500
O  30.02500 3.17500 32.64200
C  32.19400 2.71500 33.48900
C  32.37400 4.07600 34.00900
O  33.30900 4.83900 33.72900
O  31.32700 4.31300 34.92500
C  31.29000 5.69700 35.34900
H  38.88800 0.95700 33.39400
H  38.48600 0.27200 26.81400
H  32.28500 1.46300 27.09400
H  35.09800 3.08700 35.18900
H  37.26600 1.16000 35.13100
H  37.01000 4.06400 35.25700
H  38.21700 3.59700 34.02600
H  38.41600 2.89700 35.59600
H  35.49000 0.21500 35.75000
H  33.90100 0.44300 35.08200
H  34.51800 0.43300 37.62700
H  33.09300 1.12800 36.84700
H  41.97900 0.45100 31.55600
H  41.14100 -1.09900 31.88600
H  40.79200 0.35900 32.72700
H  42.15000 -1.32000 29.48900
H  42.58600 0.44500 29.52000
H  43.09100 -0.52700 28.13800
H  36.30800 -0.62700 25.58400
H  34.25600 1.43100 25.27200
H  37.53300 0.77500 24.46100
H  37.07700 2.33100 25.29900
H  36.03800 1.48200 24.01600
H  32.95500 -0.88700 26.24000
H  34.28900 -1.55000 25.43100
H  33.33700 0.35800 23.62600
H  32.01600 -0.74700 24.24000
H  33.49500 -1.41400 23.51800
H  30.03600 3.61800 29.20700
H  29.64000 1.77700 29.39300
H  30.46200 2.33700 27.97500
H  31.66600 2.11700 34.23200
H  30.31900 5.89300 35.80400
H  31.33700 6.28300 34.43100
H  32.14700 6.05000 35.92300
Mg -1.93400 34.90000 26.85400
C  -3.20400 32.92600 29.50800
C  -0.53300 36.94200 29.17100
C  -1.08900 36.92100 24.29700
C  -3.37800 32.63400 24.62300
N  -2.02600 34.95900 29.11800
C  -2.51700 34.03300 30.02000
C  -2.23200 34.43600 31.52400
C  -1.42000 35.79400 31.33800
C  -1.23100 35.88300 29.78700
C  -1.99800 37.08300 31.89500
C  -1.44400 33.33100 32.37600
C  -2.18300 32.98100 33.66700
H  -1.27700 32.96600 34.90600
N  -1.03300 36.75200 26.75500
C  -0.52200 37.43100 27.81000
C  0.18200 38.61700 27.35100
C  -0.06100 38.68700 25.90500
C  -0.73000 37.39000 25.60500
C  0.75800 39.64400 28.31100
C  0.25900 39.80200 24.90100
O  -0.16600 39.78300 23.76000
C  0.97400 40.99600 25.42100
N  -2.19800 34.69500 24.75100
C  -1.77000 35.73000 23.89300
C  -2.12800 35.29300 22.41800
C  -2.44100 33.81300 22.55300
C  -2.73400 33.68700 24.01700
C  -3.29500 36.12800 21.71200
C  -1.29500 32.80500 22.09400
C  -0.04800 32.76200 22.96500
N  -3.08500 33.19800 26.98900
C  -3.60700 32.38600 25.99100
C  -4.36100 31.33500 26.58000
C  -4.18600 31.51700 27.97400
C  -3.33400 32.58400 28.12400
C  -5.44500 30.54000 25.93500
C  -4.61100 31.01300 29.26600
O  -5.37800 30.11200 29.50900
C  -3.86700 31.87400 30.35100
C  -4.82600 32.56600 31.28800
O  -5.60100 33.42800 30.97200
O  -4.79600 31.93700 32.47800
C  -5.76200 32.26200 33.47900
H  -0.11800 37.63000 29.91100
H  -0.77900 37.56100 23.46800
H  -3.69700 31.81900 23.97000
H  -3.20100 34.72300 31.93300
H  -0.41800 35.67300 31.74900
H  -2.90800 36.98700 32.48800
H  -2.29200 37.72800 31.06800
H  -1.23300 37.61900 32.45700
H  -0.42300 33.64600 32.59200
H  -1.48700 32.42000 31.77900
H  -2.78100 32.08300 33.51800
H  -2.93600 33.75700 33.80700
H  0.09900 40.51200 28.32100
H  1.73900 40.04800 28.06100
H  0.93000 39.23900 29.30800
H  1.00800 41.69700 24.58700
H  2.00900 40.76900 25.67400
H  0.36800 41.33800 26.26100
H  -1.24100 35.34500 21.78600
H  -3.26600 33.56600 21.88400
H  -3.46900 37.01900 22.31500
H  -4.29000 35.70600 21.57900
H  -2.82100 36.38200 20.76300
H  -1.03900 33.11200 21.08000
H  -1.71800 31.80400 22.17300
H  0.83600 33.01900 22.38200
H  0.13600 31.77200 23.38200
H  -0.22100 33.45800 23.78600
H  -5.00600 29.79500 25.27100
H  -6.09700 31.11700 25.27900
H  -6.03300 30.07700 26.72700
H  -3.09700 31.27800 30.84100
H  -6.61000 32.83600 33.10700
H  -5.44300 32.79100 34.37600
H  -6.10200 31.31900 33.90600

