158

Mg 8.69400 3.68200 27.24100
C  10.12300 1.98900 29.85100
C  6.94400 5.61800 29.42100
C  7.15300 5.08900 24.63200
C  9.77800 1.15700 25.02200
N  8.52100 3.72000 29.45300
C  9.40700 3.05800 30.30500
C  9.22400 3.58500 31.63300
C  8.05600 4.70800 31.57200
C  7.81500 4.72300 30.05500
C  6.79100 4.29500 32.40500
C  10.56100 4.13200 32.21600
C  11.08500 3.63100 33.56500
H  10.97800 4.69300 34.74300
N  7.36900 5.30000 27.01900
C  6.66700 5.96200 28.06600
C  5.82000 6.96300 27.59400
C  5.95100 6.88500 26.16200
C  6.87700 5.74800 25.85600
C  4.97100 7.85500 28.42800
C  5.37400 7.86400 25.02600
O  5.75600 7.76100 23.85800
C  4.42500 8.98000 25.36900
N  8.41700 3.17300 25.17300
C  7.86900 4.02100 24.32400
C  8.02700 3.47600 22.78000
C  9.07900 2.32900 22.94800
C  9.04900 2.19200 24.44700
C  6.71600 3.03600 22.05200
C  10.48700 2.56000 22.38200
C  11.22200 1.36700 21.83800
N  9.70500 1.87300 27.33100
C  10.17700 0.95400 26.36900
C  11.00500 -0.02200 27.00700
C  11.05100 0.40100 28.40600
C  10.19700 1.51500 28.52500
C  11.80100 -1.11200 26.39900
C  11.62500 0.15300 29.65200
O  12.33600 -0.76400 30.07000
C  10.99700 1.09000 30.64300
C  10.37800 0.24200 31.75400
O  9.50700 -0.58200 31.68800
O  11.03300 0.50100 32.89100
C  10.53300 -0.05500 34.16300
H  6.41200 6.35400 30.02700
H  6.62300 5.50100 23.77100
H  10.10500 0.32400 24.39700
H  8.99500 2.71900 32.25400
H  8.28100 5.72900 31.88000
H  6.02100 3.98900 31.69800
H  6.48500 5.14100 33.02100
H  7.05000 3.42000 33.00100
H  10.39700 5.20900 32.22000
H  11.36500 3.95100 31.50200
H  12.16500 3.54600 33.44200
H  10.61000 2.72200 33.93300
H  5.00000 7.67000 29.50200
H  3.93100 7.76300 28.11400
H  5.37100 8.86400 28.33200
H  3.49000 8.59200 25.77300
H  4.13800 9.53400 24.47600
H  4.99200 9.66700 25.99900
H  8.59700 4.22300 22.22600
H  8.74300 1.39800 22.49100
H  5.87000 3.41300 22.62700
H  6.65300 1.94900 21.99500
H  6.69300 3.42700 21.03500
H  11.17600 2.82400 23.18500
H  10.45500 3.31100 21.59300
H  12.23900 1.34900 22.22800
H  11.34900 1.34300 20.75600
H  10.74700 0.42200 22.10400
H  11.40800 -1.46500 25.44600
H  11.90900 -1.96200 27.07300
H  12.81400 -0.71000 26.37000
H  11.75600 1.67100 31.16700
H  9.62400 0.41200 34.54200
H  11.25700 0.15000 34.95200
H  10.37100 -1.13300 34.13700
Mg 0.21500 43.63100 26.08700
C  2.45500 43.42900 28.87200
C  -2.33300 43.21900 28.24200
C  -1.79800 43.06400 23.48900
C  3.04300 43.61900 24.03900
N  0.08900 43.33200 28.30900
C  1.07200 43.45100 29.23200
C  0.50800 43.52900 30.64600
C  -1.01200 43.31200 30.43100
C  -1.14200 43.40800 28.87500
C  -1.65700 41.84100 30.81700
C  0.86100 44.88100 31.24800
C  0.89200 44.84700 32.80200
H  0.49500 43.63100 33.55000
N  -1.85800 43.35300 25.88800
C  -2.72800 43.13900 26.92200
C  -3.99000 43.02200 26.41800
C  -3.92200 42.92300 24.97500
C  -2.50700 43.13600 24.68000
C  -5.29600 43.23400 27.38000
C  -4.90600 42.67100 23.99600
O  -4.76000 42.80700 22.80800
C  -6.27900 42.23200 24.44600
N  0.63000 43.47500 24.09400
C  -0.43000 43.26400 23.21000
C  0.15100 43.22600 21.77200
C  1.69600 43.53900 21.91000
C  1.80800 43.58200 23.44000
C  -0.23500 41.95300 20.99400
C  2.07500 44.84500 21.18100
C  1.41500 46.17800 21.67200
N  2.40200 43.49800 26.31300
C  3.39800 43.62900 25.40300
C  4.69600 43.56700 26.05100
C  4.40000 43.42800 27.44000
C  2.98200 43.53200 27.52500
C  6.01100 43.58800 25.31100
C  4.91000 43.34400 28.78200
O  6.08300 43.35000 29.11700
C  3.67800 43.40900 29.78600
C  3.71500 42.31600 30.75700
O  3.63400 41.10000 30.51100
O  3.93500 42.92800 31.95300
C  4.15800 42.01600 33.10100
H  -3.09200 42.93500 28.97400
H  -2.43800 42.88000 22.62300
H  3.86600 43.61000 23.32200
H  0.84700 42.70600 31.27600
H  -1.61300 44.12400 30.84000
H  -2.27300 41.34900 30.06500
H  -2.39000 41.95000 31.61700
H  -0.82600 41.17600 31.05100
H  0.09800 45.61100 30.97600
H  1.81500 45.14300 30.79100
H  0.21400 45.66400 33.04800
H  1.94500 45.09100 32.94600
H  -6.15800 42.61800 27.12100
H  -5.62000 44.27400 27.35700
H  -5.13900 42.94000 28.41800
H  -6.18500 41.54700 25.28800
H  -6.91000 41.86200 23.63800
H  -6.65600 43.12900 24.93500
H  -0.39900 44.01100 21.25100
H  2.28400 42.68200 21.58400
H  -0.63800 41.19100 21.66000
H  0.66100 41.42700 20.66300
H  -0.96900 42.16700 20.21700
H  1.76900 44.66000 20.15200
H  3.16300 44.84100 21.25300
H  0.54000 46.20600 22.32100
H  1.07700 46.75300 20.81000
H  2.10900 46.84400 22.18400
H  6.39500 44.60600 25.24600
H  5.88400 43.27500 24.27400
H  6.73800 42.91400 25.76400
H  3.77100 44.38800 30.25700
H  3.80600 42.59500 33.95500
H  5.23000 41.85200 33.21200
H  3.66400 41.05700 33.26100

