158

Mg 45.53800 5.13300 46.58000
C  43.81000 8.14200 46.14000
C  42.71800 3.51300 45.50900
C  47.37600 2.37000 46.35100
C  48.51200 7.01700 46.77500
N  43.46900 5.81900 45.97600
C  42.97000 7.03000 45.90500
C  41.47900 7.06400 45.52400
C  41.15600 5.56700 45.38200
C  42.54800 4.88800 45.66400
C  40.12700 5.03400 46.47300
C  41.17400 7.99700 44.28000
C  42.22600 7.84300 43.17700
H  41.62500 7.49700 41.82400
N  45.06000 3.17400 46.17500
C  43.88700 2.72300 45.67000
C  44.01700 1.29400 45.44500
C  45.32600 0.92000 45.67100
C  45.99600 2.16500 46.09200
C  42.75800 0.50200 44.96700
C  45.88900 -0.53600 45.59400
O  45.10000 -1.41900 45.22200
C  47.29200 -0.92400 46.06500
N  47.71000 4.75400 46.67100
C  48.21200 3.53700 46.61100
C  49.69200 3.47600 46.62200
C  50.03900 5.02900 46.78600
C  48.69500 5.66800 46.68100
C  50.21600 2.66400 47.79000
C  51.14000 5.55700 45.78400
C  52.58100 5.48000 46.42100
N  46.10600 7.09900 46.50100
C  47.34900 7.70800 46.61200
C  47.16100 9.15000 46.56900
C  45.75700 9.31100 46.55400
C  45.18700 8.07300 46.32900
C  48.24700 10.11600 46.67800
C  44.69100 10.36000 46.57000
O  44.82000 11.59200 46.52200
C  43.36500 9.56200 46.41200
C  42.53100 9.61900 47.77900
O  42.48200 8.76800 48.59900
O  41.91500 10.82300 47.94400
C  41.20800 11.08300 49.20500
H  41.78000 3.02800 45.23300
H  48.03000 1.53600 46.08900
H  49.46400 7.50900 46.98500
H  40.90800 7.70600 46.19400
H  40.84200 5.19700 44.40600
H  40.62100 4.63600 47.36000
H  39.55200 4.29800 45.91100
H  39.51200 5.90300 46.70600
H  41.21100 9.05300 44.54700
H  40.11300 7.90300 44.04500
H  42.82400 6.96400 43.41300
H  42.89600 8.70100 43.24000
H  43.04200 -0.25900 44.24100
H  42.07000 1.15800 44.43400
H  42.18500 0.09800 45.80200
H  47.41400 -1.99800 46.21200
H  47.47400 -0.44500 47.02700
H  48.05300 -0.70500 45.31600
H  50.11100 3.18600 45.65800
H  50.39700 5.19000 47.80300
H  50.76200 1.75200 47.55300
H  49.42000 2.26900 48.42100
H  50.83500 3.28300 48.44100
H  50.95600 6.58200 45.46300
H  51.15700 5.04400 44.82200
H  53.04100 4.60800 45.95600
H  52.60200 5.40000 47.50700
H  53.11800 6.37300 46.10300
H  48.74800 9.95100 47.63200
H  47.92500 11.15200 46.57300
H  48.91300 10.00900 45.82200
H  42.74600 10.02600 45.64400
H  40.69700 12.04500 49.17400
H  41.93400 11.10900 50.01800
H  40.56700 10.23700 49.45300
Mg -2.20600 34.79300 26.34600
C  -3.72600 33.61200 29.32800
C  -0.36900 36.92500 28.40400
C  -0.97000 36.12500 23.67000
C  -4.10800 32.61000 24.41500
N  -2.20900 35.31200 28.57000
C  -2.78500 34.58600 29.60000
C  -2.28800 34.99900 31.01100
C  -1.34000 36.25300 30.68100
C  -1.28400 36.13300 29.12900
C  -2.00400 37.61800 31.13000
C  -1.60300 33.87500 31.82000
C  -1.59800 33.95700 33.34200
H  -2.52700 33.10300 34.15800
N  -0.78100 36.30900 26.02200
C  -0.11200 36.99200 27.02700
C  0.91200 37.81100 26.35800
C  0.78000 37.61900 24.93600
C  -0.40200 36.66500 24.82700
C  1.94100 38.62500 27.09400
C  1.76900 37.97700 23.85700
O  1.67700 37.49900 22.77000
C  3.05500 38.71800 24.24400
N  -2.53600 34.51700 24.36400
C  -1.95100 35.24500 23.37600
C  -2.19500 34.62400 22.03100
C  -2.88400 33.25000 22.25200
C  -3.18200 33.41700 23.76700
C  -2.87100 35.48800 20.94600
C  -2.00100 32.01800 22.00200
C  -2.68600 30.83400 21.18600
N  -3.66600 33.43900 26.72300
C  -4.29000 32.57500 25.86000
C  -5.12000 31.66500 26.63400
C  -4.93200 32.01100 27.95400
C  -4.04000 33.14200 27.99900
C  -6.01200 30.62900 26.07300
C  -5.28200 31.59300 29.32300
O  -5.96600 30.68400 29.78900
C  -4.56400 32.68500 30.21600
C  -5.70000 33.29000 30.88500
O  -6.68000 33.84800 30.41800
O  -5.58200 32.96600 32.19600
C  -6.70000 33.47100 33.08600
H  0.26800 37.47900 29.09600
H  -0.51300 36.53300 22.76600
H  -4.61400 31.84100 23.82800
H  -3.20100 35.22100 31.56300
H  -0.35800 36.13400 31.14000
H  -1.43600 38.00000 31.97800
H  -3.07000 37.47800 31.30900
H  -1.94900 38.39400 30.36600
H  -0.54900 33.87800 31.54000
H  -1.91300 32.87400 31.51900
H  -1.69500 34.97200 33.72700
H  -0.59100 33.68500 33.65800
H  1.80300 38.60400 28.17500
H  1.81400 39.69400 26.92300
H  3.00000 38.42400 26.93000
H  2.87100 39.57600 24.89100
H  3.56300 38.97900 23.31500
H  3.54300 37.92300 24.80800
H  -1.17200 34.45000 21.69800
H  -3.85500 33.29300 21.75800
H  -2.14900 35.83900 20.20900
H  -3.31200 36.38600 21.37800
H  -3.72600 34.95700 20.52600
H  -1.80900 31.58500 22.98300
H  -1.01900 32.22700 21.57800
H  -1.95400 30.03000 21.10900
H  -3.02200 31.19600 20.21500
H  -3.52900 30.49200 21.78600
H  -6.88900 31.20500 25.77800
H  -6.31600 29.89200 26.81700
H  -5.56900 30.17100 25.18900
H  -3.84700 32.24200 30.90700
H  -6.83400 34.53300 32.88200
H  -6.29100 33.48800 34.09700
H  -7.67100 32.98100 33.01300

