158

Mg 48.64600 14.95900 28.82800
C  46.56500 15.20700 31.69400
C  51.07700 16.72400 30.37800
C  50.20500 14.93400 25.98900
C  45.75200 13.51800 27.18600
N  48.69200 15.97000 30.72700
C  47.79300 15.87800 31.81400
C  48.43200 16.47600 33.09200
C  49.75900 17.14800 32.58400
C  49.89400 16.61000 31.14600
C  49.67700 18.71200 32.53900
C  48.69900 15.55700 34.24100
C  48.08500 15.89900 35.58600
H  48.91600 15.48300 36.79900
N  50.49600 15.67600 28.26300
C  51.34200 16.36700 29.03800
C  52.53700 16.64300 28.29100
C  52.31800 16.17800 26.97600
C  50.96600 15.56800 26.99300
C  53.76400 17.37500 28.95600
C  53.14700 16.23600 25.67700
O  52.81100 15.65500 24.62200
C  54.49500 16.90200 25.79600
N  47.95200 14.47900 26.78200
C  48.91000 14.53100 25.77100
C  48.31400 13.88900 24.53400
C  46.88800 13.34500 24.93300
C  46.81300 13.72900 26.39100
C  48.29100 14.85600 23.25500
C  46.71100 11.83900 24.78600
C  47.83400 10.81300 25.24500
N  46.64000 14.28100 29.38000
C  45.62600 13.74700 28.56400
C  44.47500 13.50000 29.39000
C  44.77900 13.98900 30.65500
C  46.11800 14.46200 30.57300
C  43.22500 12.80800 29.03900
C  44.24500 14.24800 31.93800
O  43.12400 14.05700 32.44500
C  45.46200 15.01000 32.69300
C  44.86300 16.22000 33.31000
O  44.41500 17.18100 32.66400
O  44.72200 16.10300 34.69200
C  44.04400 17.09500 35.53100
H  51.77700 17.18600 31.07700
H  50.75600 14.54000 25.13200
H  44.80800 13.15100 26.77600
H  47.79100 17.27500 33.46500
H  50.63200 17.00300 33.22100
H  50.54100 19.20800 32.98100
H  48.76600 19.09300 33.00200
H  49.61100 19.07100 31.51200
H  49.76700 15.54600 34.45400
H  48.45100 14.56500 33.86200
H  47.06300 15.52100 35.60300
H  47.97900 16.98300 35.53900
H  53.37500 17.95300 29.79400
H  54.37100 18.05300 28.35600
H  54.41700 16.64200 29.42900
H  55.16800 16.23200 26.33000
H  54.52600 17.90600 26.21800
H  54.95900 16.88100 24.81000
H  49.09900 13.17400 24.28900
H  46.13700 13.96700 24.44500
H  48.87600 14.34400 22.49000
H  48.65300 15.87100 23.41900
H  47.28800 14.87700 22.82900
H  46.46300 11.47700 23.78800
H  45.81700 11.49700 25.30600
H  47.53600 9.78500 25.03400
H  47.93100 10.94400 26.32200
H  48.74700 11.07300 24.71000
H  42.90300 12.76400 27.99900
H  42.38800 13.11500 29.66700
H  43.37800 11.74200 29.20300
H  45.81800 14.30700 33.44700
H  44.70300 17.24300 36.38700
H  43.01300 16.86700 35.80000
H  44.01000 18.04100 34.99200
Mg -5.18900 25.33100 26.06300
C  -3.52300 26.69000 28.76100
C  -6.70000 23.04100 28.23600
C  -6.69000 23.74300 23.45600
C  -3.24300 27.21500 23.92800
N  -5.06200 24.93100 28.28000
C  -4.42000 25.72500 29.20000
C  -4.87000 25.49000 30.64700
C  -5.55800 24.11100 30.39500
C  -5.84400 23.99200 28.84800
C  -4.71100 22.77200 30.81000
C  -5.81100 26.60600 31.19200
C  -5.60600 26.85700 32.69100
H  -5.18500 25.67200 33.53200
N  -6.54300 23.63400 25.92900
C  -6.98800 22.83700 26.89400
C  -7.86000 21.75400 26.38300
C  -7.92900 22.03000 24.97500
C  -7.00500 23.17600 24.69800
C  -8.39300 20.61500 27.24100
C  -8.71900 21.28500 23.83800
O  -8.45500 21.45200 22.67000
C  -9.76800 20.32500 24.17600
N  -4.89300 25.43400 23.98900
C  -5.79400 24.79000 23.14900
C  -5.73200 25.50200 21.78800
C  -4.80500 26.71200 21.99700
C  -4.26400 26.48300 23.43400
C  -5.26300 24.54700 20.59400
C  -5.51100 28.02300 21.86400
C  -6.23600 28.49600 20.57000
N  -3.63200 26.66400 26.27300
C  -2.93700 27.37900 25.34100
C  -2.00400 28.26700 25.95400
C  -2.10900 28.00600 27.27400
C  -3.15500 27.07000 27.45800
C  -1.04500 29.19500 25.24900
C  -1.62400 28.37500 28.63500
O  -0.80900 29.20500 29.00300
C  -2.50400 27.49300 29.61600
C  -1.52900 26.61100 30.33200
O  -0.95800 25.61400 29.89800
O  -1.53500 26.97100 31.65800
C  -0.81800 26.26300 32.72200
H  -7.19600 22.36100 28.93200
H  -7.27500 23.51800 22.56200
H  -2.74800 27.88800 23.22500
H  -3.92300 25.32000 31.15800
H  -6.52200 24.03700 30.89800
H  -3.69600 23.00900 31.13000
H  -4.66800 21.93000 30.12000
H  -5.20500 22.49400 31.74100
H  -6.89100 26.48000 31.10900
H  -5.69200 27.53600 30.63700
H  -6.56400 27.21300 33.07100
H  -4.85400 27.62200 32.88400
H  -9.42500 20.46900 26.92200
H  -8.41700 20.82400 28.31100
H  -7.82500 19.70000 27.07300
H  -9.39600 19.39500 24.60500
H  -10.30600 20.37300 23.22900
H  -10.39100 20.84600 24.90200
H  -6.77200 25.78700 21.62700
H  -3.91600 26.85700 21.38100
H  -5.48800 23.51900 20.87800
H  -4.20200 24.72200 20.41600
H  -5.82300 24.74800 19.68000
H  -4.81100 28.82700 22.09100
H  -6.18300 28.17500 22.70900
H  -5.93700 27.83200 19.75900
H  -5.79900 29.46800 20.34200
H  -7.32600 28.50700 20.56600
H  -0.70000 28.64300 24.37400
H  -0.22400 29.37300 25.94300
H  -1.54900 30.09400 24.89200
H  -3.04100 28.14300 30.30700
H  -0.11500 25.57300 32.25600
H  -1.57400 25.74100 33.30900
H  -0.34600 26.97400 33.39900

