158

Mg 17.66500 -2.40100 28.20700
C  16.97700 -0.43800 31.13100
C  19.43000 -4.51800 30.29100
C  18.89400 -3.92900 25.51300
C  16.15500 0.07500 26.27300
N  18.18600 -2.43300 30.50600
C  17.60800 -1.63600 31.44000
C  17.80400 -2.23600 32.84300
C  18.65700 -3.53100 32.54100
C  18.80500 -3.46700 31.03700
C  20.00600 -3.53100 33.38700
C  16.48200 -2.67200 33.51500
C  16.23700 -2.13800 34.99100
H  17.45300 -1.68100 35.88400
N  18.93100 -4.02400 27.93400
C  19.48700 -4.77900 28.92600
C  20.33700 -5.82700 28.28300
C  20.12700 -5.74300 26.87600
C  19.24000 -4.58700 26.70300
C  21.07600 -6.84800 29.15300
C  20.60400 -6.62800 25.75300
O  20.29800 -6.41600 24.58700
C  21.29500 -7.81800 26.18200
N  17.51100 -1.93800 26.13700
C  18.15700 -2.70700 25.18500
C  17.85700 -2.16000 23.77000
C  16.66700 -1.14700 24.07400
C  16.75300 -1.02100 25.55200
C  19.00700 -1.47500 23.01700
C  15.24000 -1.65800 23.66400
C  14.14300 -0.61700 23.29100
N  16.78300 -0.59500 28.54700
C  16.12000 0.28500 27.65000
C  15.34500 1.24400 28.46100
C  15.80100 1.06300 29.78500
C  16.65100 -0.07700 29.78300
C  14.38500 2.35300 27.95600
C  15.56400 1.51400 31.10000
O  14.79900 2.41000 31.49000
C  16.35400 0.58800 32.06100
C  17.26900 1.37600 32.88300
O  18.40100 1.66300 32.59700
O  16.58800 1.95900 33.88700
C  17.35300 2.88900 34.68900
H  19.75900 -5.35300 30.91300
H  19.39000 -4.29800 24.61300
H  15.73700 0.86100 25.64100
H  18.39500 -1.48200 33.36400
H  18.13600 -4.47300 32.71300
H  19.93100 -2.91000 34.28000
H  20.81800 -3.12500 32.78500
H  20.21700 -4.53900 33.74500
H  16.31700 -3.74400 33.41600
H  15.78700 -2.06900 32.93000
H  15.63600 -2.91100 35.47100
H  15.54700 -1.29600 34.92500
H  20.47800 -7.75100 29.03800
H  21.39200 -6.69600 30.18600
H  22.06900 -6.99200 28.72600
H  22.31500 -7.76600 26.56000
H  21.58300 -8.35600 25.27900
H  20.59400 -8.47500 26.69700
H  17.57100 -3.07700 23.25500
H  16.72800 -0.15200 23.63300
H  19.75000 -1.44200 23.81400
H  18.68600 -0.46700 22.75500
H  19.35100 -1.99800 22.12500
H  14.94500 -2.24200 24.53500
H  15.38500 -2.24900 22.75900
H  13.25800 -0.74000 23.91600
H  13.75300 -0.95600 22.33100
H  14.56800 0.37600 23.14800
H  13.45500 1.90700 27.60400
H  14.87600 2.80300 27.09300
H  14.25800 3.18700 28.64700
H  15.69500 0.10600 32.78300
H  17.38600 2.50100 35.70700
H  16.85600 3.85500 34.77800
H  18.38900 3.05400 34.39400
Mg 46.86700 24.71600 29.19500
C  47.65100 27.09700 31.63800
C  46.32000 22.43900 31.75100
C  46.54900 22.26600 26.82300
C  47.54300 27.03700 26.73000
N  46.93600 24.77900 31.44600
C  47.15500 25.91100 32.17100
C  46.81500 25.68200 33.66900
C  46.57900 24.10800 33.69700
C  46.58200 23.74600 32.18000
C  47.56300 23.31300 34.62500
C  45.63100 26.60600 34.12700
C  45.85500 27.34400 35.43700
H  44.71200 27.16400 36.43800
N  46.45200 22.65000 29.20800
C  46.22700 21.92400 30.36300
C  45.68700 20.63600 30.02900
C  46.00900 20.47600 28.65000
C  46.38000 21.80300 28.15500
C  45.23900 19.67900 31.05400
C  45.79300 19.23700 27.67000
O  46.13800 19.28600 26.51700
C  45.19500 17.94600 28.20200
N  47.12400 24.62400 26.98000
C  46.79100 23.56400 26.25900
C  46.93600 23.79800 24.77600
C  47.08400 25.38900 24.79700
C  47.28200 25.74400 26.27600
C  48.18800 23.10500 24.19100
C  45.82200 26.17100 24.17000
C  44.53200 26.24100 25.03400
N  47.51100 26.61400 29.12100
C  47.76200 27.44800 28.07700
C  48.26900 28.72000 28.51500
C  48.27800 28.62900 29.92300
C  47.83300 27.33700 30.21600
C  48.77600 29.88700 27.74500
C  48.53400 29.39800 31.17500
O  48.94300 30.54800 31.29300
C  48.10200 28.44400 32.38000
C  49.19900 28.25300 33.35000
O  50.14200 27.47800 33.16200
O  48.91600 28.96800 34.52200
C  49.53800 28.42200 35.70100
H  46.03000 21.74900 32.54600
H  46.31700 21.53800 26.04200
H  47.80600 27.84100 26.03900
H  47.69100 25.84700 34.29600
H  45.56200 23.88800 34.02200
H  48.19000 22.61200 34.07300
H  46.88100 22.78000 35.28700
H  48.16200 23.86300 35.35200
H  44.70600 26.03200 34.17700
H  45.48400 27.30900 33.30700
H  45.87200 28.41300 35.22400
H  46.74500 27.11700 36.02400
H  45.64400 19.85900 32.05000
H  45.57100 18.69400 30.72600
H  44.15800 19.74500 31.17600
H  44.86700 17.32600 27.36700
H  44.35400 18.16100 28.86100
H  45.95600 17.34100 28.69400
H  46.08300 23.44100 24.19900
H  47.95900 25.78400 24.28300
H  48.42400 22.29000 24.87500
H  49.03800 23.77000 24.03500
H  47.86700 22.67200 23.24400
H  45.64500 25.81600 23.15400
H  46.02900 27.23100 24.02900
H  44.73500 25.77500 25.99900
H  43.88500 25.63000 24.40500
H  44.04400 27.17300 25.31800
H  48.61700 30.82600 28.27700
H  48.13700 30.03300 26.87400
H  49.84000 29.78500 27.53500
H  47.23600 28.87600 32.88100
H  49.33900 27.36900 35.90100
H  49.20500 28.99800 36.56500
H  50.62000 28.34300 35.60400

