158

Mg 41.19400 7.74500 29.70000
C  42.51900 9.30300 32.65400
C  38.85100 6.16800 31.75400
C  40.18100 6.09400 27.06800
C  43.72300 9.23700 27.99800
N  40.66400 7.80800 31.99900
C  41.38600 8.49700 32.93700
C  40.68900 8.28000 34.34000
C  39.57600 7.15300 34.04900
C  39.69700 6.98000 32.53700
C  39.55300 5.85400 34.93600
C  40.03400 9.55500 35.06100
C  40.04100 9.40600 36.54000
H  40.15600 10.72700 37.32100
N  39.56100 6.45200 29.40600
C  38.80300 5.91200 30.39500
C  37.84400 5.06800 29.72200
C  38.12000 5.02600 28.26900
C  39.38000 5.81200 28.17700
C  36.62100 4.44500 30.49500
C  37.35800 4.39600 27.17800
O  37.71000 4.44800 26.00400
C  36.09800 3.64500 27.52100
N  41.84300 7.71900 27.80500
C  41.31200 6.88600 26.85400
C  41.96700 6.92800 25.42400
C  42.97500 8.09300 25.66300
C  42.87100 8.41600 27.19100
C  42.66200 5.58400 25.04100
C  42.72800 9.28900 24.73600
C  41.38900 10.09100 25.19300
N  42.76900 8.91700 30.17300
C  43.68200 9.46300 29.32200
C  44.66800 10.20300 30.10100
C  44.25000 10.09400 31.46500
C  43.09900 9.31900 31.41400
C  45.82000 10.87900 29.58000
C  44.52000 10.59600 32.77200
O  45.47900 11.31000 33.08100
C  43.34200 10.08200 33.58700
C  43.84000 9.33400 34.77200
O  44.35300 8.23500 34.78200
O  43.66900 10.06400 35.84700
C  44.02400 9.41200 37.15800
H  38.06400 5.68500 32.33700
H  39.78100 5.57100 26.19700
H  44.50000 9.64400 27.34800
H  41.33600 7.69100 34.98900
H  38.60400 7.62600 34.18600
H  39.88500 5.02600 34.31000
H  38.54300 5.67200 35.30400
H  40.21000 5.87800 35.80600
H  38.99800 9.73500 34.77600
H  40.66900 10.37400 34.72400
H  40.70900 8.60200 36.84800
H  39.03500 9.04100 36.74600
H  35.75800 4.97600 30.09300
H  36.60400 4.52900 31.58200
H  36.60400 3.36900 30.32200
H  36.37800 2.83500 28.19500
H  35.76700 3.19900 26.58300
H  35.29700 4.26100 27.92900
H  41.15700 7.05500 24.70500
H  44.02800 7.83500 25.55000
H  42.27900 4.74700 25.62500
H  43.74700 5.48700 25.08200
H  42.30200 5.41200 24.02700
H  42.71000 8.83600 23.74400
H  43.69200 9.79800 24.75600
H  40.86900 9.68500 26.06100
H  40.71000 9.94400 24.35300
H  41.70600 11.12700 25.30700
H  45.95800 11.91000 29.90500
H  45.85600 10.72900 28.50100
H  46.59200 10.26700 30.04800
H  42.80200 10.95600 33.95000
H  45.06500 9.10300 37.06700
H  43.43000 8.55600 37.47800
H  43.91500 10.09400 38.00100
Mg -10.43300 38.89400 42.31800
C  -8.86900 35.92000 41.58300
C  -7.68900 40.58300 41.22600
C  -12.22400 41.75200 42.43600
C  -13.40100 37.01400 42.74500
N  -8.57800 38.22000 41.35400
C  -8.01900 36.97700 41.27400
C  -6.59500 37.01600 40.73600
C  -6.17500 38.51900 41.09500
C  -7.54800 39.15200 41.22600
C  -5.18400 38.75400 42.29600
C  -6.44300 36.64200 39.15300
C  -5.24000 35.75500 38.87700
H  -5.37600 34.69600 37.75400
N  -10.09100 40.89000 41.74400
C  -8.86400 41.35700 41.38900
C  -8.97900 42.77800 41.06100
C  -10.25400 43.15300 41.46700
C  -10.90800 41.94900 41.96400
C  -7.82300 43.62100 40.37700
C  -10.80400 44.64600 41.44700
O  -10.05600 45.54100 41.00200
C  -12.23900 45.01400 41.94500
N  -12.54500 39.33900 42.69100
C  -12.94600 40.59300 42.78100
C  -14.48600 40.62600 43.20100
C  -14.94500 39.11900 43.03700
C  -13.58800 38.41500 42.79500
C  -14.82400 41.36400 44.53400
C  -16.15200 38.86100 42.04300
C  -17.55700 38.41700 42.52600
N  -10.99800 36.87100 42.31300
C  -12.21400 36.24800 42.52700
C  -12.09800 34.78300 42.40300
C  -10.76300 34.62300 42.07100
C  -10.14900 35.90400 41.96900
C  -13.12100 33.79100 42.85000
C  -9.68400 33.64900 41.79300
O  -9.79900 32.46100 41.89900
C  -8.46800 34.49200 41.30500
C  -7.42500 34.03800 42.21400
O  -7.15600 34.52800 43.35300
O  -6.85200 32.93800 41.66400
C  -5.90200 32.19600 42.60700
H  -6.80500 41.13100 40.89500
H  -12.86200 42.61600 42.63200
H  -14.34900 36.48200 42.85100
H  -5.99200 36.37200 41.37600
H  -5.75200 39.02900 40.22900
H  -5.76300 39.23400 43.08500
H  -4.37500 39.43700 42.03900
H  -4.70700 37.86200 42.70100
H  -6.21500 37.54800 38.59100
H  -7.41700 36.28700 38.81900
H  -5.10000 35.24300 39.82900
H  -4.38100 36.30100 38.48800
H  -7.02600 42.95500 40.04500
H  -7.43300 44.44300 40.97800
H  -8.26300 44.06500 39.48400
H  -12.42700 44.67200 42.96300
H  -12.95000 44.83600 41.13800
H  -12.12400 46.09700 42.00400
H  -14.96900 41.15800 42.38100
H  -15.41500 38.69200 43.92300
H  -15.53500 42.18400 44.43100
H  -13.89300 41.87500 44.78100
H  -15.07200 40.78400 45.42200
H  -15.82200 38.19000 41.25100
H  -16.39400 39.76100 41.47700
H  -17.94500 37.50000 42.08200
H  -18.23900 39.26100 42.42300
H  -17.56100 38.32100 43.61100
H  -13.68800 33.29400 42.06200
H  -13.85900 34.20600 43.53600
H  -12.63600 33.07900 43.51800
H  -8.17600 34.26100 40.28100
H  -6.27600 32.28400 43.62700
H  -4.92400 32.67500 42.56600
H  -5.82800 31.14400 42.33200

