158

Mg 24.54000 -5.48200 45.86600
C  27.00500 -3.71300 44.30300
C  22.18600 -4.20900 43.66700
C  22.50500 -8.01700 46.80600
C  27.06800 -6.83100 48.01400
N  24.58000 -4.03700 44.27300
C  25.73700 -3.52800 43.72800
C  25.51600 -2.61400 42.50100
C  23.91800 -2.60800 42.43400
C  23.51800 -3.73800 43.50400
C  23.26300 -1.20700 42.77900
C  26.14400 -3.00800 41.16500
C  26.87600 -1.93800 40.43700
H  27.27200 -2.06200 38.92300
N  22.58900 -5.98800 45.40600
C  21.76300 -5.24900 44.49100
C  20.47900 -5.95500 44.49700
C  20.41500 -6.95800 45.49700
C  21.89100 -7.02500 45.97800
C  19.50800 -5.51800 43.47800
C  19.30800 -7.65300 45.98600
O  18.20100 -7.52500 45.48700
C  19.27100 -8.53100 47.30500
N  24.86700 -7.28100 47.02300
C  23.77100 -8.11800 47.36500
C  24.15500 -9.14000 48.39800
C  25.55000 -8.60600 48.97900
C  25.86400 -7.45700 48.00700
C  23.05900 -9.42000 49.49400
C  26.74500 -9.64900 49.06500
C  27.20000 -10.01600 50.48800
N  26.59200 -5.23500 46.18300
C  27.48700 -5.87900 47.03500
C  28.75300 -5.25700 46.97100
C  28.68100 -4.38200 45.87900
C  27.35500 -4.48600 45.41300
C  30.02900 -5.67200 47.70400
C  29.42100 -3.46400 44.97000
O  30.57000 -3.15100 44.89100
C  28.26900 -2.82500 44.09200
C  28.18000 -1.39500 44.49300
O  28.18700 -0.95100 45.62700
O  28.43800 -0.70500 43.35200
C  28.90500 0.65100 43.46800
H  21.48000 -3.63600 43.06200
H  21.84900 -8.83400 47.11600
H  27.76700 -7.04800 48.82400
H  25.76400 -1.61300 42.85400
H  23.54200 -3.04500 41.51000
H  22.46500 -1.13200 42.04100
H  23.79000 -0.25500 42.70600
H  22.72100 -1.23600 43.72400
H  25.38600 -3.31300 40.44300
H  26.83300 -3.82500 41.37600
H  27.83000 -1.81100 40.94700
H  26.33500 -1.00100 40.57500
H  20.00900 -5.37600 42.52000
H  19.16000 -4.53300 43.79000
H  18.64000 -6.15800 43.32300
H  18.25000 -8.63800 47.67400
H  19.98200 -8.18300 48.05400
H  19.65700 -9.52300 47.07100
H  24.39900 -10.04300 47.83800
H  25.29700 -8.04600 49.87900
H  22.60900 -10.41200 49.48000
H  22.25900 -8.68100 49.44300
H  23.42800 -9.26600 50.50800
H  27.64400 -9.27200 48.57600
H  26.42200 -10.51100 48.48200
H  27.01300 -11.08900 50.53700
H  26.64600 -9.44300 51.23100
H  28.20800 -9.69200 50.74400
H  30.65300 -6.31100 47.07900
H  29.73500 -6.17700 48.62400
H  30.60200 -4.74700 47.77400
H  28.58100 -2.91300 43.05100
H  29.69100 0.66500 44.22300
H  28.18100 1.43000 43.71100
H  29.33700 0.83500 42.48400
Mg -2.59700 35.12500 27.02300
C  -4.44000 33.05800 29.24300
C  -1.62500 36.90400 29.75300
C  -0.75600 36.84000 24.92700
C  -3.97000 33.35400 24.26600
N  -3.13100 35.09800 29.23400
C  -3.71400 34.05000 29.90800
C  -3.61400 34.18000 31.43900
C  -3.08800 35.60500 31.50200
C  -2.51600 35.95500 30.13200
C  -3.99900 36.73300 32.00500
C  -2.72400 32.99700 32.06800
C  -3.25400 32.38400 33.40200
H  -3.95500 33.36500 34.34300
N  -1.35000 36.59700 27.32000
C  -0.92300 37.10100 28.55600
C  0.03700 38.08800 28.24500
C  0.30900 38.09300 26.87400
C  -0.65200 37.11300 26.26900
C  0.56900 39.01100 29.31400
C  1.39800 38.88900 26.06800
O  1.51000 38.74700 24.87300
C  2.37500 39.71100 26.76400
N  -2.48000 35.19100 24.81900
C  -1.57900 35.97000 24.21700
C  -1.56900 35.79000 22.68200
C  -2.54900 34.59600 22.49500
C  -3.09200 34.35400 23.94100
C  -1.83200 37.16400 21.98900
C  -2.00300 33.39500 21.69000
C  -1.28600 32.26000 22.46900
N  -3.92200 33.57800 26.74600
C  -4.31300 32.95400 25.59200
C  -5.21600 31.86600 25.93000
C  -5.33300 31.87900 27.33400
C  -4.55000 32.99100 27.78700
C  -5.86100 30.89900 24.94000
C  -5.81200 31.15300 28.52300
O  -6.53100 30.18600 28.55400
C  -5.28600 31.85000 29.76000
C  -6.41300 32.34300 30.64200
O  -7.27100 33.13800 30.33800
O  -6.41800 31.58200 31.82100
C  -7.46400 31.88000 32.82100
H  -1.34300 37.60000 30.54700
H  0.00500 37.24900 24.25900
H  -4.18100 32.61600 23.48900
H  -4.58100 34.32200 31.92200
H  -2.28100 35.67700 32.23100
H  -4.33200 36.32100 32.95700
H  -4.87100 36.93600 31.38200
H  -3.39200 37.60100 32.26400
H  -1.75600 33.43600 32.30800
H  -2.66300 32.15400 31.37900
H  -2.44800 32.07400 34.06700
H  -3.90700 31.54100 33.17800
H  0.14300 39.00400 30.31700
H  0.57700 40.02200 28.90700
H  1.60500 38.71300 29.48200
H  1.81600 40.46900 27.31300
H  2.99900 40.16500 25.99400
H  2.96600 39.06800 27.41700
H  -0.60500 35.42800 22.32500
H  -3.48700 34.92200 22.04600
H  -0.95600 37.80400 22.09700
H  -2.74800 37.72000 22.19000
H  -1.87700 36.96400 20.91800
H  -1.36500 33.80700 20.90800
H  -2.67700 32.85000 21.02900
H  -0.48300 31.81700 21.88100
H  -1.96600 31.43300 22.67200
H  -0.78700 32.81800 23.26100
H  -6.70900 30.43200 25.44200
H  -5.11100 30.17600 24.62100
H  -6.18700 31.47000 24.07000
H  -4.52500 31.18600 30.16900
H  -7.11200 32.77400 33.33600
H  -7.51000 31.10400 33.58500
H  -8.45900 31.97800 32.38700

