158

Mg 24.80600 -5.23500 46.18800
C  26.71600 -2.81800 44.74500
C  22.20000 -4.44300 44.08200
C  23.24500 -8.13900 47.03600
C  27.75800 -6.38400 47.97900
N  24.55800 -3.85900 44.56700
C  25.43800 -2.92800 44.16400
C  24.82400 -1.96000 43.12700
C  23.33100 -2.44800 43.03500
C  23.35000 -3.67800 43.91500
C  22.24100 -1.31900 43.24500
C  25.75000 -2.27600 41.84200
C  25.89000 -1.13700 40.85000
H  25.35900 -1.30600 39.44700
N  22.83900 -6.08900 45.84000
C  21.90300 -5.50700 44.95400
C  20.73200 -6.22800 45.04700
C  21.04700 -7.46600 45.76900
C  22.42000 -7.29600 46.22700
C  19.34400 -5.84300 44.45100
C  20.06500 -8.62100 45.96200
O  18.97100 -8.73900 45.40200
C  20.53200 -9.76700 46.76600
N  25.41000 -7.06000 47.23700
C  24.56600 -8.06300 47.59400
C  25.21300 -9.10800 48.51100
C  26.67100 -8.56600 48.81400
C  26.61300 -7.21300 47.96800
C  24.47500 -9.53400 49.75900
C  27.74800 -9.64400 48.38400
C  29.00900 -9.89700 49.27100
N  26.80600 -4.70400 46.37800
C  27.81300 -5.18400 47.18200
C  29.00500 -4.39200 47.02300
C  28.63800 -3.46100 46.04600
C  27.25800 -3.72000 45.71600
C  30.33500 -4.42300 47.80400
C  29.05700 -2.23100 45.32800
O  30.12300 -1.65300 45.31700
C  27.89700 -1.79100 44.37100
C  27.65500 -0.38300 44.50700
O  27.27000 0.16600 45.54000
O  27.88900 0.15700 43.30600
C  27.95000 1.67500 43.29600
H  21.46200 -4.07400 43.36700
H  22.86500 -9.15900 47.11500
H  28.55700 -6.67700 48.66200
H  25.01300 -0.94500 43.47500
H  23.26700 -2.79700 42.00500
H  22.81500 -0.50700 43.69000
H  21.50000 -1.68400 43.95600
H  21.81800 -1.06200 42.27400
H  25.14400 -3.01900 41.32300
H  26.67000 -2.77800 42.14100
H  26.93100 -0.88200 40.65200
H  25.43900 -0.25700 41.30900
H  19.37500 -5.14200 43.61700
H  18.77900 -5.28200 45.19500
H  18.66800 -6.63600 44.13100
H  19.76500 -10.54200 46.78000
H  20.80100 -9.57100 47.80400
H  21.32800 -10.33500 46.28500
H  25.27300 -9.98200 47.86300
H  26.70100 -8.29500 49.87000
H  23.43500 -9.22500 49.64500
H  24.93200 -9.10100 50.64800
H  24.48800 -10.61900 49.86200
H  28.01800 -9.42100 47.35200
H  27.35500 -10.66100 48.38400
H  29.05800 -10.89300 49.71000
H  28.96700 -9.20600 50.11300
H  29.91300 -9.62000 48.72900
H  30.98600 -5.16400 47.33900
H  30.16100 -4.82000 48.80400
H  30.71600 -3.40500 47.72700
H  28.32200 -2.04600 43.40000
H  27.58700 2.11700 44.22300
H  27.28700 2.01000 42.49900
H  28.95800 2.04200 43.10100
Mg 35.77100 2.07200 29.95000
C  33.46200 2.92100 32.39600
C  38.32500 2.33100 32.26800
C  37.96700 1.51400 27.57400
C  33.15600 2.27400 27.50200
N  35.81800 2.60100 31.98400
C  34.79800 2.78700 32.86200
C  35.28000 2.98300 34.36700
C  36.86200 3.19800 34.17200
C  36.98500 2.65300 32.71300
C  37.40600 4.60600 34.23500
C  34.91000 1.74100 35.23700
C  34.37800 2.12000 36.63400
H  34.93200 3.30900 37.51400
N  37.83100 1.87500 29.95600
C  38.68000 2.00800 30.98300
C  40.02900 1.54100 30.52700
C  39.93500 1.36500 29.09600
C  38.53800 1.62600 28.81300
C  41.17000 1.33700 31.54000
C  40.99400 1.03500 28.04900
O  40.73400 0.81600 26.88900
C  42.45400 1.03600 28.48400
N  35.56600 1.86800 27.90400
C  36.65900 1.68600 27.14600
C  36.33400 1.71600 25.63000
C  34.82000 1.74400 25.63600
C  34.42200 1.93400 27.14700
C  36.97900 2.86300 24.83000
C  34.11900 0.59800 24.89000
C  33.39200 -0.54000 25.76300
N  33.73400 2.46100 29.91700
C  32.82500 2.52000 28.84400
C  31.54900 2.93700 29.34800
C  31.74200 2.96300 30.75500
C  33.10600 2.79300 31.04400
C  30.28400 3.04800 28.61500
C  31.07000 3.31800 31.95300
O  29.86700 3.44900 32.23700
C  32.16600 3.30500 33.10200
C  32.11000 4.60800 33.76800
O  32.66400 5.64900 33.43700
O  31.40500 4.45300 34.90600
C  31.38400 5.56700 35.87300
H  39.04300 2.52800 33.06600
H  38.56200 1.47700 26.65900
H  32.35300 2.41200 26.77500
H  34.79400 3.90200 34.69600
H  37.40800 2.55600 34.86400
H  38.08000 4.83600 33.41000
H  38.05600 4.69900 35.10400
H  36.65900 5.39800 34.29400
H  35.76400 1.07100 35.33100
H  34.12400 1.28600 34.63300
H  34.50800 1.22600 37.24300
H  33.31000 2.33900 36.61400
H  41.92200 2.09300 31.31200
H  41.52000 0.33900 31.27900
H  40.99200 1.35100 32.61600
H  43.12800 0.98900 27.62800
H  42.51700 0.23700 29.22200
H  42.67900 1.97300 28.99300
H  36.77200 0.79300 25.25000
H  34.53200 2.71300 25.22800
H  36.92800 3.87300 25.23600
H  36.57600 3.05900 23.83600
H  38.06100 2.74000 24.86500
H  34.86500 -0.02400 24.39700
H  33.49600 1.00800 24.09500
H  32.42800 -0.87300 25.37800
H  33.14300 -0.26800 26.78800
H  34.01000 -1.42800 25.89600
H  30.23900 3.81100 27.83900
H  29.40100 3.22200 29.22900
H  29.94200 2.17400 28.06000
H  31.77800 2.56800 33.80500
H  30.81600 6.36400 35.39400
H  32.42600 5.81600 36.07500
H  30.84200 5.29900 36.78000

