158

Mg -2.32000 17.01800 25.71000
C  -2.62700 14.64100 28.27300
C  -3.18500 19.51900 27.84900
C  -2.49700 19.19700 23.13600
C  -2.11200 14.41300 23.35800
N  -3.04000 17.03300 27.81100
C  -2.95800 16.00500 28.74100
C  -3.40300 16.53300 30.19700
C  -3.72300 18.06100 29.97000
C  -3.34800 18.26000 28.41000
C  -5.23800 18.33000 30.18600
C  -2.35400 16.14600 31.26500
C  -2.68700 16.79300 32.63300
H  -2.63000 16.08000 33.91900
N  -2.55900 19.07600 25.53800
C  -2.83400 19.86100 26.52900
C  -2.74700 21.28800 26.03200
C  -2.44300 21.25300 24.65900
C  -2.54500 19.80600 24.40300
C  -2.90300 22.51900 26.94000
C  -2.17900 22.36900 23.67700
O  -1.72900 22.14700 22.58500
C  -2.00600 23.78400 24.06300
N  -2.30100 16.86400 23.62100
C  -2.40700 17.86600 22.79100
C  -2.22300 17.55200 21.28200
C  -1.98600 16.06700 21.43300
C  -2.13900 15.70900 22.90600
C  -3.26900 18.04300 20.28800
C  -0.60000 15.58600 20.86900
C  0.64600 15.65800 21.76100
N  -2.35500 15.00000 25.75700
C  -2.32600 14.07200 24.73500
C  -2.29000 12.71400 25.36600
C  -2.32000 12.94900 26.71000
C  -2.35800 14.28200 26.93500
C  -2.21900 11.41900 24.51600
C  -2.40000 12.23400 27.96200
O  -2.29200 11.01700 28.25700
C  -2.65900 13.33800 29.04900
C  -1.42200 13.20300 29.94800
O  -0.36000 13.80600 29.84300
O  -1.63100 12.37700 30.97200
C  -0.64200 12.10400 31.98300
H  -3.56600 20.36900 28.42000
H  -2.48100 19.92500 22.32200
H  -2.04300 13.56800 22.67000
H  -4.29700 15.98400 30.49400
H  -3.02900 18.52700 30.66900
H  -5.47400 19.34200 29.85600
H  -5.45500 18.30900 31.25400
H  -5.82500 17.64200 29.57800
H  -1.36500 16.46400 30.93600
H  -2.36800 15.08800 31.52700
H  -3.69100 17.21500 32.60700
H  -1.98500 17.62600 32.58400
H  -3.71700 23.09000 26.49300
H  -2.01400 23.13500 26.80600
H  -3.07900 22.31400 27.99600
H  -1.89400 24.33700 23.13000
H  -1.11000 23.91000 24.67000
H  -2.82300 24.23200 24.62900
H  -1.30600 18.10100 21.06800
H  -2.82500 15.54800 20.96800
H  -3.98900 18.68700 20.79300
H  -3.84300 17.21100 19.87900
H  -2.80600 18.68200 19.53600
H  -0.51100 16.28200 20.03500
H  -0.66600 14.57900 20.45700
H  1.28400 16.49400 21.47500
H  1.24900 14.76000 21.62800
H  0.21400 15.87400 22.73900
H  -1.40500 11.49400 23.79500
H  -3.16600 11.28500 23.99400
H  -2.05900 10.67300 25.29400
H  -3.60400 13.13000 29.55300
H  -0.03100 11.23600 31.73500
H  -1.21500 11.91400 32.89100
H  0.04500 12.92700 32.18100
Mg 8.96500 3.66400 27.84500
C  10.31600 2.08700 30.78200
C  7.31300 5.72600 29.84400
C  7.53900 4.76800 25.00000
C  10.31800 1.00000 26.03800
N  8.71100 3.77500 30.09000
C  9.48100 3.13100 31.09900
C  9.16000 3.75000 32.45000
C  8.13900 4.86800 32.11400
C  7.93800 4.72200 30.60800
C  6.73800 4.82700 32.76500
C  10.44700 4.36700 33.09700
C  10.32400 5.04100 34.49200
H  10.98500 4.23400 35.61500
N  7.68000 5.13800 27.41100
C  7.14400 5.87400 28.40000
C  6.32200 6.86700 27.73600
C  6.40300 6.67100 26.30000
C  7.22300 5.50400 26.15100
C  5.64700 7.91900 28.51600
C  5.75900 7.43000 25.21100
O  5.90000 7.12000 24.03700
C  4.85600 8.53700 25.55500
N  9.05000 2.96800 25.84100
C  8.43500 3.69300 24.82400
C  8.78800 3.15800 23.43900
C  9.70800 1.97200 23.77200
C  9.63200 1.89500 25.29500
C  7.63700 2.73100 22.48700
C  11.10400 1.91200 23.17200
C  11.26900 1.16600 21.86100
N  10.16300 1.90100 28.21100
C  10.57900 0.91200 27.38700
C  11.31400 -0.03600 28.06000
C  11.30700 0.42000 29.36900
C  10.49600 1.52600 29.44100
C  11.98300 -1.30400 27.47800
C  11.65200 0.08500 30.77100
O  12.29400 -0.87500 31.24700
C  11.18500 1.23500 31.66500
C  10.48600 0.71300 32.80100
O  9.46200 0.04700 32.83900
O  11.23600 0.85700 33.89100
C  10.96800 0.17300 35.16300
H  6.70300 6.48400 30.34100
H  7.25500 5.15500 24.01900
H  10.77500 0.20600 25.44400
H  8.84200 2.95000 33.11800
H  8.61000 5.81300 32.38400
H  6.84200 4.55100 33.81500
H  6.18100 4.13200 32.13800
H  6.30400 5.82200 32.66500
H  10.92000 5.09600 32.43900
H  11.15900 3.54800 33.20100
H  9.25600 4.96900 34.69800
H  10.64800 6.07700 34.58600
H  5.74600 8.86000 27.97600
H  5.84600 8.10800 29.57100
H  4.59900 7.62300 28.58100
H  4.55200 9.07900 24.65900
H  5.60100 9.25300 25.90100
H  4.03100 8.27200 26.21600
H  9.26200 4.06400 23.06300
H  9.24300 0.99000 23.68600
H  7.38800 3.61400 21.89800
H  6.74600 2.49800 23.07100
H  7.85900 1.89100 21.82900
H  11.83800 1.59300 23.91200
H  11.35700 2.94600 22.93700
H  11.73600 1.78200 21.09200
H  10.27200 1.03100 21.44100
H  11.83900 0.24300 21.96700
H  13.01300 -0.98100 27.32600
H  11.48600 -1.53000 26.53400
H  11.98400 -2.22400 28.06200
H  12.12600 1.68500 31.97900
H  9.93700 -0.17600 35.22400
H  11.25100 0.73900 36.05100
H  11.60300 -0.70900 35.24500

