158

Mg 45.10500 4.06000 47.00800
C  43.26500 7.12600 46.51300
C  42.37000 2.49600 45.91500
C  46.93500 1.29000 47.01700
C  48.06400 6.06800 46.96100
N  43.02100 4.74000 46.44400
C  42.50400 6.01300 46.39100
C  41.00300 5.99600 46.13000
C  40.75600 4.48700 45.93000
C  42.12100 3.87900 45.99400
C  39.91100 3.77600 47.11600
C  40.53200 6.85100 44.86000
C  41.45500 6.94600 43.57200
H  40.69000 6.80700 42.22900
N  44.66200 2.11300 46.75000
C  43.46000 1.65100 46.28900
C  43.56100 0.18300 46.15900
C  44.87800 -0.23200 46.33500
C  45.62800 1.05800 46.67200
C  42.44700 -0.69200 45.65300
C  45.48500 -1.66100 46.39400
O  44.78700 -2.61000 46.07600
C  46.94700 -2.01800 46.75800
N  47.17100 3.73100 46.86100
C  47.62400 2.46500 47.03800
C  49.16700 2.39600 47.04900
C  49.58400 3.93000 47.09900
C  48.20600 4.67500 46.88600
C  49.93900 1.58700 48.17800
C  50.68100 4.41200 46.12700
C  51.76100 5.29100 46.66800
N  45.59400 6.13300 46.88900
C  46.83000 6.75000 46.88600
C  46.61900 8.18400 46.98600
C  45.26100 8.38400 46.90500
C  44.64600 7.16300 46.75300
C  47.70100 9.22800 47.09700
C  44.19700 9.36500 46.87700
O  44.36700 10.59200 46.83700
C  42.81300 8.60000 46.67000
C  42.02100 8.70500 47.88600
O  41.99700 7.96700 48.82200
O  41.20900 9.82100 47.79000
C  40.19200 9.96100 48.83600
H  41.44400 2.05100 45.54300
H  47.69100 0.50200 46.98800
H  48.94200 6.71600 47.01400
H  40.57500 6.39500 47.05000
H  40.32000 4.21700 44.96800
H  39.38900 4.57000 47.65000
H  40.58800 3.15700 47.70400
H  39.18700 3.21800 46.52400
H  40.40000 7.87900 45.19600
H  39.58100 6.42700 44.53700
H  42.18000 6.13300 43.61300
H  41.96800 7.90400 43.48200
H  41.50500 -0.14600 45.70800
H  42.39200 -1.55600 46.31500
H  42.72200 -1.01600 44.64900
H  46.83700 -3.09600 46.87600
H  47.13300 -1.60200 47.74900
H  47.71500 -1.89700 45.99400
H  49.54200 1.99100 46.10900
H  49.91300 4.09300 48.12500
H  50.33400 0.68200 47.71600
H  49.14500 1.27800 48.85800
H  50.76000 2.04900 48.72700
H  50.08300 4.97100 45.40600
H  51.11800 3.53700 45.64600
H  51.73400 6.21300 46.08600
H  52.73700 4.81600 46.57300
H  51.59200 5.66200 47.67900
H  47.43600 9.61400 48.08100
H  47.65400 10.06700 46.40300
H  48.70100 8.80100 47.03000
H  42.25600 8.98700 45.81700
H  40.21200 9.33000 49.72400
H  39.29000 9.70200 48.28100
H  40.21800 10.99300 49.18800
Mg -11.76800 38.44900 41.11400
C  -9.68800 35.72200 40.21200
C  -9.60200 40.56600 39.60700
C  -14.08100 40.84800 41.32400
C  -14.05500 36.14100 42.34600
N  -10.00600 38.10800 39.93900
C  -9.27800 36.97400 39.73700
C  -8.06600 37.19000 38.81300
C  -7.95600 38.79200 38.69800
C  -9.32300 39.18500 39.42600
C  -6.72400 39.40300 39.45200
C  -8.18600 36.35100 37.46500
C  -6.78700 35.67400 37.08500
H  -6.10500 36.00600 35.74000
N  -11.80400 40.45600 40.55000
C  -10.81700 41.17200 40.06800
C  -11.16300 42.58800 39.94600
C  -12.57300 42.63100 40.34000
C  -12.89000 41.29300 40.74600
C  -10.28000 43.62600 39.27400
C  -13.40500 43.87600 40.25500
O  -12.88300 44.93700 39.82300
C  -14.90700 43.91000 40.67400
N  -13.79300 38.41600 41.47200
C  -14.50700 39.56600 41.68800
C  -15.94100 39.34700 42.28200
C  -15.84000 37.85900 42.61500
C  -14.51900 37.46200 42.08200
C  -16.41600 40.38300 43.48500
C  -16.99200 36.99700 42.04700
C  -17.75900 36.22300 43.08500
N  -11.84500 36.32200 41.29800
C  -12.82600 35.54000 41.90800
C  -12.31600 34.14800 42.10100
C  -11.08100 34.18600 41.35500
C  -10.89600 35.48600 40.87700
C  -12.95600 33.08700 42.89500
C  -9.96600 33.40900 40.76800
O  -9.75200 32.23300 40.71100
C  -8.93300 34.40900 40.08300
C  -7.62400 34.33700 40.84400
O  -6.87300 33.38700 40.80700
O  -7.41900 35.41500 41.67200
C  -6.22400 35.66400 42.46400
H  -8.86200 41.31800 39.32500
H  -14.83100 41.62600 41.48000
H  -14.70800 35.55600 42.99700
H  -7.16900 36.79500 39.28900
H  -7.98600 39.18100 37.68000
H  -6.21700 38.70700 40.12000
H  -7.04600 40.24800 40.06000
H  -6.03500 39.84300 38.73100
H  -8.66800 36.88800 36.64800
H  -8.82600 35.49300 37.67400
H  -6.81600 34.59400 37.23200
H  -6.01500 35.92100 37.81400
H  -10.60500 43.86800 38.26200
H  -9.21200 43.41300 39.30200
H  -10.21200 44.61700 39.72400
H  -15.42500 44.82000 40.37100
H  -14.93500 43.87700 41.76300
H  -15.45500 43.05300 40.28300
H  -16.59900 39.53600 41.43300
H  -15.76800 37.70800 43.69300
H  -17.29900 40.90500 43.11600
H  -15.64300 41.13600 43.63200
H  -16.79400 39.99700 44.43200
H  -16.63700 36.19900 41.39500
H  -17.74800 37.53500 41.47600
H  -17.62300 36.59700 44.10000
H  -17.39500 35.19700 43.13700
H  -18.81400 36.24300 42.81400
H  -12.08400 32.55800 43.28100
H  -13.55200 32.44400 42.24800
H  -13.51600 33.48100 43.74400
H  -8.75600 34.03200 39.07600
H  -6.16300 35.04300 43.35800
H  -6.15800 36.70600 42.78000
H  -5.43100 35.41500 41.76000

