158

Mg -1.71800 16.74300 26.01100
C  -2.02100 14.57000 28.64400
C  -2.32500 19.48600 28.38900
C  -2.13500 18.88000 23.54000
C  -2.02500 14.02800 23.79200
N  -2.21900 16.94700 28.17700
C  -2.10600 15.89900 29.07900
C  -2.49500 16.38800 30.52200
C  -2.79400 17.84600 30.23200
C  -2.37000 18.13300 28.83600
C  -4.33600 18.17400 30.48200
C  -1.44900 16.07700 31.59100
C  -1.69400 16.90400 32.94200
H  -1.53300 16.33900 34.33800
N  -1.98100 18.86900 25.91600
C  -2.12800 19.83800 26.96100
C  -2.01100 21.11700 26.39900
C  -1.97300 20.97000 25.00400
C  -2.07200 19.50600 24.76800
C  -2.06400 22.37500 27.27700
C  -1.88100 22.07000 23.93300
O  -2.01700 21.83700 22.73700
C  -1.70200 23.45700 24.35400
N  -2.22500 16.47700 23.94900
C  -2.22400 17.53500 23.11100
C  -2.34900 17.05800 21.64000
C  -2.12400 15.56000 21.76400
C  -2.10600 15.36100 23.26800
C  -3.77500 17.39000 21.12800
C  -0.79600 15.10600 21.10000
C  0.47100 15.40400 21.91200
N  -1.89800 14.68800 26.09700
C  -1.98400 13.69800 25.13400
C  -1.87700 12.41900 25.75000
C  -1.83800 12.66800 27.12300
C  -1.87800 14.07700 27.28400
C  -1.76700 11.19800 25.05000
C  -1.79700 12.12700 28.44200
O  -1.59400 10.99100 28.80900
C  -1.98600 13.26500 29.48900
C  -0.89800 13.26000 30.42700
O  0.17400 13.77500 30.21300
O  -1.21500 12.55800 31.55500
C  -0.16200 12.50400 32.61600
H  -2.24000 20.33500 29.07000
H  -2.08700 19.55300 22.68100
H  -1.91800 13.18100 23.11200
H  -3.41000 15.85600 30.78300
H  -2.28600 18.54400 30.89800
H  -4.44900 19.00600 31.17700
H  -4.87700 17.49000 31.13500
H  -4.79800 18.35500 29.51100
H  -0.45200 16.26900 31.19300
H  -1.53600 15.06800 31.99300
H  -2.70800 17.29300 32.84600
H  -0.98100 17.72700 32.89200
H  -2.86600 23.06400 27.01300
H  -1.14100 22.94300 27.15600
H  -2.16900 22.17200 28.34200
H  -2.67900 23.88500 24.57700
H  -1.29400 23.96300 23.47900
H  -1.13000 23.66200 25.25900
H  -1.75600 17.63300 20.92800
H  -2.99200 15.00100 21.41600
H  -3.93600 18.34500 21.62800
H  -4.52500 16.73400 21.56900
H  -3.82200 17.44400 20.04100
H  -0.67700 15.38900 20.05400
H  -0.83200 14.01700 21.06400
H  0.22800 16.08700 22.72600
H  1.18800 15.94000 21.29100
H  0.94000 14.56000 22.41800
H  -0.81300 11.02100 24.55300
H  -2.60600 11.04200 24.37100
H  -1.77800 10.49400 25.88200
H  -2.95200 13.09800 29.96600
H  -0.42000 13.16100 33.44700
H  0.82100 12.71600 32.19600
H  -0.24900 11.47900 32.97600
Mg 53.47500 23.82300 44.55500
C  50.81500 25.68500 43.69900
C  51.99000 21.00900 43.73500
C  56.50500 22.25800 44.89300
C  55.05700 26.87900 45.58800
N  51.60100 23.43200 43.62200
C  50.59800 24.31600 43.39800
C  49.36200 23.59100 42.93600
C  49.53500 22.15700 43.59400
C  51.11400 22.17300 43.68800
C  48.93100 21.85700 44.93900
C  49.41300 23.61900 41.35200
C  48.09400 23.93900 40.61900
H  47.37800 22.68700 40.09000
N  54.17500 21.88500 44.16700
C  53.39400 20.86100 43.74800
C  54.12500 19.67200 43.57200
C  55.44000 20.03900 43.97300
C  55.42500 21.43200 44.41700
C  53.52600 18.29500 43.17300
C  56.67900 19.09900 43.94500
O  56.54700 17.97600 43.58900
C  58.03100 19.54800 44.26400
N  55.57700 24.52900 44.94900
C  56.56500 23.60100 45.17600
C  57.91700 24.30200 45.64400
C  57.45000 25.78300 45.90000
C  55.92200 25.74200 45.46000
C  58.61200 23.66100 46.82600
C  58.27900 26.85500 45.19600
C  58.36600 28.27300 45.90400
N  53.11300 25.88500 44.58800
C  53.71300 26.95300 45.16100
C  52.83300 28.09300 45.26300
C  51.67300 27.65700 44.68500
C  51.91700 26.31800 44.27800
C  53.03300 29.41300 45.94800
C  50.31000 27.92900 44.35100
O  49.64400 28.92700 44.59300
C  49.68400 26.69400 43.68000
C  49.14500 27.07300 42.35400
O  49.81800 27.43200 41.40400
O  47.78800 27.18500 42.39500
C  47.26400 27.93200 41.24500
H  51.44300 20.06500 43.72300
H  57.45300 21.73300 45.02600
H  55.46600 27.79700 46.01600
H  48.51600 24.20600 43.24200
H  49.14000 21.43900 42.87600
H  49.65700 21.56100 45.69600
H  48.13000 21.11900 44.90200
H  48.43000 22.71700 45.38300
H  49.79500 22.62900 41.10100
H  50.14400 24.29000 40.90100
H  48.30600 24.58300 39.76500
H  47.54900 24.45900 41.40700
H  53.80800 18.05100 42.14900
H  52.44600 18.43500 43.22300
H  53.82500 17.48000 43.83300
H  58.38100 20.26900 43.52500
H  58.64800 18.65200 44.19100
H  58.13300 19.93200 45.27900
H  58.66500 24.43600 44.86200
H  57.35600 26.04700 46.95300
H  59.68600 23.79000 46.69300
H  58.58900 22.58400 46.99200
H  58.47500 24.18800 47.77000
H  57.96700 27.03900 44.16800
H  59.30600 26.49100 45.18400
H  59.27300 28.78500 45.58300
H  58.35700 28.20100 46.99100
H  57.48100 28.82600 45.59000
H  52.45800 29.40500 46.87400
H  52.77000 30.22100 45.26500
H  54.10600 29.53700 46.09900
H  48.86000 26.54800 44.37800
H  47.39200 27.25300 40.40200
H  47.78800 28.85400 40.99600
H  46.18100 28.05500 41.26300

