158

Mg 24.28300 -4.61800 45.68300
C  26.34300 -2.19900 44.08100
C  21.65500 -3.40000 43.57400
C  22.51600 -7.38400 46.35000
C  27.05100 -5.82800 47.35700
N  24.07700 -3.03600 43.97800
C  25.00900 -2.16000 43.61100
C  24.58300 -1.25900 42.44900
C  23.04900 -1.37100 42.60300
C  22.91300 -2.69900 43.42100
C  22.33300 -0.22100 43.35600
C  25.12100 -1.87800 41.05400
C  25.77700 -0.76300 40.16800
H  25.34400 -0.88600 38.68000
N  22.27100 -5.25600 45.12400
C  21.44000 -4.64200 44.25100
C  20.23500 -5.45800 44.15900
C  20.41900 -6.66200 44.93500
C  21.78900 -6.45700 45.51500
C  19.11200 -5.12700 43.29000
C  19.38400 -7.72000 45.17900
O  18.29600 -7.65300 44.60000
C  19.63800 -8.75300 46.20000
N  24.69900 -6.29300 46.68100
C  23.82900 -7.34100 46.84500
C  24.24100 -8.42100 47.78400
C  25.65300 -7.88800 48.20600
C  25.79700 -6.54400 47.42400
C  23.24800 -8.78500 48.91300
C  26.88700 -8.85400 48.04900
C  28.05400 -8.74500 49.03600
N  26.32800 -4.12400 45.81800
C  27.31900 -4.66000 46.57000
C  28.60100 -3.96700 46.42700
C  28.28300 -2.98200 45.38100
C  26.88000 -3.11500 45.05100
C  29.98700 -4.35500 47.10000
C  28.80400 -1.92700 44.54500
O  29.91000 -1.35300 44.49600
C  27.58200 -1.36600 43.65400
C  27.36000 0.06900 43.92400
O  26.61200 0.58100 44.78100
O  28.07100 0.75700 42.95000
C  27.82800 2.19100 43.01000
H  20.87400 -2.94000 42.96400
H  21.93200 -8.25300 46.66100
H  27.85000 -6.22500 47.98700
H  24.96700 -0.25000 42.59900
H  22.56400 -1.39500 41.62800
H  21.73500 -0.62700 44.17200
H  21.62400 0.19200 42.63800
H  22.99800 0.60500 43.61100
H  24.27700 -2.21300 40.45000
H  25.79600 -2.72900 41.14500
H  26.86700 -0.77300 40.14000
H  25.48500 0.21700 40.54500
H  18.93000 -5.97900 42.63500
H  19.17700 -4.12700 42.86100
H  18.23300 -5.08600 43.93400
H  18.74500 -9.37900 46.20600
H  19.77300 -8.33200 47.19600
H  20.38600 -9.50800 45.95700
H  24.44500 -9.28300 47.14900
H  25.44100 -7.69100 49.25700
H  22.44400 -8.05000 48.96600
H  23.74700 -8.72500 49.88000
H  22.70500 -9.73000 48.88000
H  27.30300 -8.83200 47.04200
H  26.50600 -9.87400 48.00100
H  28.12200 -9.53900 49.78000
H  27.79800 -7.88600 49.65600
H  29.01100 -8.62000 48.53000
H  30.08300 -5.43000 46.94400
H  30.03200 -4.14200 48.16800
H  30.85600 -3.86000 46.66600
H  27.82700 -1.60300 42.61900
H  26.90400 2.50400 43.49500
H  27.71800 2.53100 41.98000
H  28.60600 2.83400 43.42200
Mg 46.96300 16.79800 27.97700
C  44.98800 16.90200 30.87800
C  49.33800 18.73900 29.69200
C  48.88800 17.08800 25.15600
C  44.45400 15.26800 26.26100
N  47.19700 17.71800 30.07000
C  46.23300 17.60700 31.05200
C  46.79100 18.11100 32.39600
C  48.01300 19.02200 31.90600
C  48.20600 18.54400 30.46600
C  47.84700 20.54600 31.98700
C  47.21700 16.98400 33.39000
C  47.43000 17.40800 34.85500
H  46.87700 18.76100 35.37000
N  48.86400 17.67100 27.50900
C  49.62400 18.43200 28.35800
C  50.83700 18.88800 27.73200
C  50.74200 18.54400 26.34600
C  49.45800 17.73900 26.25700
C  51.95800 19.69200 28.47300
C  51.61800 18.86500 25.23300
O  51.33700 18.77000 24.07200
C  52.91900 19.45300 25.51600
N  46.72400 16.33000 26.06800
C  47.63200 16.48900 25.09100
C  47.04700 16.09300 23.68400
C  45.67500 15.42100 24.05200
C  45.65000 15.56200 25.59300
C  46.95700 17.19800 22.62300
C  45.41300 13.95800 23.55800
C  44.26600 13.79100 22.53100
N  45.08100 16.31100 28.39900
C  44.18700 15.58600 27.63300
C  42.99500 15.27700 28.37000
C  43.29900 15.65700 29.66900
C  44.57200 16.32400 29.65500
C  41.78300 14.55900 27.94600
C  42.87300 15.59200 31.04900
O  41.96500 14.94100 31.58000
C  43.93400 16.50400 31.87900
C  43.24000 17.69300 32.49600
O  42.66600 18.61900 31.89400
O  43.35000 17.63200 33.86300
C  42.55200 18.64000 34.63900
H  50.14500 19.25800 30.21200
H  49.39800 17.22700 24.20000
H  43.76000 14.65000 25.68700
H  46.10200 18.81600 32.86200
H  48.84000 18.67900 32.52800
H  46.86900 20.86200 32.35100
H  47.82300 21.05400 31.02300
H  48.44900 21.03900 32.75000
H  48.12200 16.60700 32.91500
H  46.52600 16.15000 33.51000
H  48.51900 17.42500 34.89800
H  46.99900 16.65700 35.51800
H  51.98200 19.76600 29.56000
H  51.65500 20.69500 28.17300
H  52.98300 19.54600 28.13300
H  52.78400 20.37700 26.07800
H  53.41900 19.54700 24.55200
H  53.50200 18.77300 26.13600
H  47.71700 15.30000 23.34900
H  44.83600 15.99200 23.65400
H  45.93600 17.57300 22.54400
H  47.36800 16.84700 21.67600
H  47.61700 18.00100 22.94900
H  45.27400 13.32100 24.43100
H  46.24700 13.56400 22.97700
H  43.87800 12.77800 22.43000
H  44.62100 14.03800 21.53000
H  43.49800 14.52900 22.76200
H  41.59600 14.97800 26.95700
H  41.01800 14.72500 28.70400
H  41.95200 13.48200 27.95300
H  44.31100 15.90700 32.71000
H  41.75300 18.99700 33.99000
H  43.10200 19.51400 34.98600
H  42.08600 18.13200 35.48400

