158

Mg -2.34900 17.14800 26.00600
C  -2.34800 15.04300 29.03700
C  -2.75800 19.87400 28.18500
C  -2.33800 19.01600 23.43700
C  -2.54600 14.16400 24.20700
N  -2.66600 17.35500 28.42700
C  -2.57800 16.40400 29.43400
C  -2.61400 17.09700 30.83500
C  -2.93200 18.56800 30.48500
C  -2.66100 18.65500 28.91200
C  -4.32800 19.09400 30.91200
C  -1.55300 16.80300 31.88700
C  -1.56500 17.49400 33.23500
H  -2.12700 16.69000 34.43400
N  -2.53300 19.20400 25.77500
C  -2.63700 20.16800 26.78200
C  -2.44500 21.44400 26.15100
C  -2.18900 21.15400 24.69300
C  -2.34200 19.75700 24.59600
C  -2.61600 22.76600 26.82300
C  -1.90900 22.13000 23.49000
O  -1.82700 21.75900 22.36400
C  -1.79200 23.61100 23.76800
N  -2.55600 16.64000 24.03000
C  -2.49200 17.62700 23.13400
C  -2.59200 17.03100 21.72800
C  -2.27400 15.51000 21.99800
C  -2.50200 15.40900 23.48100
C  -3.87500 17.32800 20.94600
C  -0.81700 14.97100 21.71800
C  0.34800 15.90400 22.10100
N  -2.43400 15.07800 26.45400
C  -2.44900 13.92300 25.59700
C  -2.33200 12.75900 26.35700
C  -2.27300 13.14000 27.63300
C  -2.34300 14.54100 27.69800
C  -2.44600 11.33900 25.83600
C  -2.10700 12.61900 28.93800
O  -2.09700 11.44400 29.28400
C  -2.13900 13.85500 29.92600
C  -0.83100 13.97800 30.68400
O  0.17500 14.65700 30.28900
O  -0.93500 13.29700 31.87000
C  0.17600 13.50100 32.78800
H  -2.98200 20.72200 28.83500
H  -2.36000 19.57500 22.49900
H  -2.32900 13.25400 23.64400
H  -3.53200 16.64700 31.21400
H  -2.16400 19.17000 30.97000
H  -4.86800 19.30900 29.98900
H  -4.29300 20.09300 31.34600
H  -4.87300 18.39800 31.54900
H  -0.60400 16.87700 31.35700
H  -1.72200 15.74000 32.05800
H  -1.99900 18.49300 33.20000
H  -0.49600 17.61600 33.41200
H  -2.48900 22.77600 27.90600
H  -3.55800 23.18400 26.46800
H  -1.77800 23.43000 26.61300
H  -1.76700 24.17100 22.83300
H  -0.95100 23.75000 24.44700
H  -2.70100 23.86500 24.31300
H  -1.75600 17.47900 21.19200
H  -2.92500 14.84400 21.43200
H  -4.52600 16.45800 21.03400
H  -3.80600 17.67000 19.91300
H  -4.34800 18.18100 21.43300
H  -0.59000 14.84400 20.65900
H  -0.65400 14.02600 22.23600
H  1.04800 15.90700 21.26600
H  0.93900 15.52700 22.93500
H  0.12200 16.96700 22.18700
H  -1.96700 10.66800 26.54900
H  -1.94800 11.26700 24.86900
H  -3.48000 11.02300 25.69700
H  -2.97200 13.67000 30.60500
H  -0.11100 14.34000 33.42100
H  1.09600 13.69800 32.23800
H  0.35200 12.54900 33.29100
Mg -2.23800 34.09200 26.78700
C  -3.61200 32.48600 29.54500
C  -0.69400 36.29400 28.96200
C  -1.23800 35.93000 24.09700
C  -4.31700 32.23800 24.66900
N  -2.25600 34.33000 29.00800
C  -2.69500 33.40500 29.92000
C  -1.98100 33.51700 31.28000
C  -1.15800 34.85400 31.12600
C  -1.35400 35.26200 29.57400
C  -1.53300 35.91000 32.10200
C  -1.15600 32.27800 31.83700
C  -1.47600 31.86000 33.30200
H  -0.27400 31.84200 34.27600
N  -1.07900 35.86400 26.56800
C  -0.52800 36.56400 27.60600
C  0.28600 37.56400 27.11700
C  0.15600 37.48000 25.66800
C  -0.69700 36.37300 25.35700
C  1.15200 38.54900 27.86600
C  0.83900 38.24000 24.49200
O  0.72500 37.98000 23.30300
C  1.76800 39.33300 24.85700
N  -2.88300 34.20400 24.64900
C  -2.23900 34.98700 23.76000
C  -2.80700 34.77400 22.32400
C  -3.82700 33.63700 22.48700
C  -3.66300 33.34400 24.03000
C  -3.32400 36.07400 21.65500
C  -3.64400 32.48900 21.54200
C  -2.42100 31.61700 21.73700
N  -3.66000 32.64400 26.97900
C  -4.31800 31.90900 26.04000
C  -5.15800 30.90100 26.74900
C  -4.76900 31.07300 28.11200
C  -3.97100 32.17600 28.18000
C  -6.07500 29.92300 26.07700
C  -5.00200 30.52400 29.43100
O  -5.73000 29.60600 29.80800
C  -4.11300 31.34300 30.39100
C  -5.03400 31.90000 31.36700
O  -5.96700 32.62300 31.04300
O  -4.77600 31.64900 32.66900
C  -5.61800 32.28900 33.71800
H  -0.14700 37.04400 29.53700
H  -0.93400 36.41100 23.16500
H  -4.91700 31.54500 24.07500
H  -2.82800 33.72200 31.93400
H  -0.08000 34.70000 31.15800
H  -2.36900 35.71400 32.77300
H  -1.89600 36.77800 31.55100
H  -0.65700 36.29300 32.62600
H  -0.11600 32.60500 31.82500
H  -1.26400 31.36700 31.24800
H  -1.83400 30.85000 33.49800
H  -2.11100 32.66800 33.66600
H  2.18900 38.37700 27.58000
H  0.87700 38.56500 28.92100
H  0.78900 39.50800 27.49500
H  1.92100 40.01700 24.02200
H  2.74200 38.95000 25.16200
H  1.27800 39.91900 25.63500
H  -2.01300 34.31400 21.73600
H  -4.80800 34.11300 22.47700
H  -3.12800 36.07000 20.58300
H  -2.85900 37.01100 21.96200
H  -4.40500 36.18700 21.74000
H  -3.72500 32.79600 20.49900
H  -4.51700 31.84800 21.66400
H  -1.90200 31.85800 20.80900
H  -2.62200 30.54600 21.70200
H  -1.80600 31.91200 22.58700
H  -6.17000 30.08700 25.00300
H  -7.04400 29.97700 26.57300
H  -5.73800 28.90000 26.24300
H  -3.43300 30.63200 30.86100
H  -4.99400 32.56400 34.56800
H  -6.29600 31.50400 34.05400
H  -6.01000 33.23900 33.35600

