158

Mg 49.77800 35.69400 28.04100
C  47.40300 34.34700 30.31900
C  49.87500 38.46300 30.01300
C  51.66100 37.22000 25.61200
C  49.00800 33.12900 25.79300
N  48.82700 36.21100 30.04500
C  48.00600 35.50000 30.87100
C  48.04500 36.19100 32.24300
C  48.30800 37.63200 31.79900
C  49.10400 37.46200 30.55800
C  47.06400 38.56500 31.56900
C  49.07300 35.48500 33.15200
C  48.69200 35.10700 34.63400
H  49.56300 35.69500 35.78200
N  50.77200 37.52400 27.87100
C  50.74000 38.45000 28.82200
C  51.54900 39.61900 28.44700
C  51.95200 39.35400 27.09700
C  51.44300 38.01400 26.78300
C  51.75300 40.80500 29.30800
C  52.57600 40.29000 26.01400
O  52.73500 39.96300 24.86000
C  53.01600 41.68800 26.50200
N  50.19400 35.29400 25.93100
C  51.13800 35.99500 25.24700
C  51.41600 35.38200 23.88700
C  50.78000 33.93100 24.08800
C  49.90600 34.11200 25.35400
C  50.75000 36.19700 22.69900
C  51.81200 32.79100 24.22000
C  51.81000 31.66500 23.13700
N  48.54900 34.03600 28.05900
C  48.38700 33.06200 27.05700
C  47.41900 32.10200 27.54800
C  46.96400 32.58900 28.75900
C  47.67500 33.77600 29.06300
C  46.82500 30.90400 26.82500
C  46.09700 32.22900 29.92700
O  45.32100 31.35800 30.16500
C  46.33100 33.44300 30.90700
C  46.60400 32.83300 32.21300
O  47.51200 32.12300 32.57000
O  45.63800 33.30100 33.12100
C  45.69900 32.61500 34.38100
H  49.95700 39.37800 30.60300
H  52.41800 37.64500 24.95000
H  48.87200 32.27400 25.12800
H  47.01400 36.09200 32.58500
H  48.95200 38.18900 32.47900
H  46.96400 39.36400 32.30400
H  46.07700 38.10700 31.50500
H  47.37300 39.18500 30.72700
H  50.02800 36.00700 33.21000
H  49.29700 34.54300 32.65100
H  48.53900 34.02800 34.64000
H  47.69200 35.48600 34.84600
H  52.68500 41.32400 29.08500
H  51.69000 40.62000 30.38000
H  50.91300 41.43600 29.01600
H  53.71800 41.69500 27.33600
H  52.10500 42.19100 26.82500
H  53.46600 42.24500 25.68000
H  52.50000 35.27800 23.83100
H  50.22600 33.68000 23.18400
H  50.06400 35.55100 22.15100
H  51.56400 36.51600 22.04900
H  50.34200 37.06500 23.21700
H  51.73400 32.51800 25.27200
H  52.77900 33.29200 24.17000
H  51.53500 30.70900 23.58100
H  52.80500 31.61200 22.69500
H  51.00200 31.85400 22.43000
H  46.27100 30.14400 27.37700
H  47.57600 30.44500 26.18100
H  46.23900 31.37300 26.03500
H  45.42100 34.04200 30.95600
H  45.53900 31.54100 34.47500
H  45.14300 33.21100 35.10400
H  46.67600 32.81000 34.82400
Mg 10.10500 47.61400 25.67000
C  8.17600 47.65000 28.64100
C  12.77800 48.51600 27.56400
C  11.93700 46.94000 23.09200
C  7.08700 47.05300 23.89400
N  10.41300 48.12200 27.89600
C  9.49100 48.15800 28.95600
C  10.16200 48.52400 30.29900
C  11.64500 48.87600 29.88200
C  11.65000 48.42200 28.41700
C  11.94400 50.43200 30.01800
C  10.04600 47.35700 31.36700
C  11.06900 47.23700 32.57900
H  10.65600 46.35700 33.69300
N  12.09900 47.73100 25.36900
C  13.04600 48.18500 26.21300
C  14.38000 48.07100 25.53400
C  14.18100 47.57700 24.24200
C  12.70400 47.44000 24.17700
C  15.68700 48.35900 26.23700
C  15.21200 47.37300 23.04500
O  14.81300 47.05500 21.92400
C  16.67200 47.56900 23.32500
N  9.54000 47.09600 23.79000
C  10.55300 46.75700 22.90100
C  9.91800 46.14700 21.59100
C  8.45900 46.59200 21.69900
C  8.31700 46.89800 23.24800
C  10.59500 46.61800 20.27900
C  7.28000 45.73200 21.20500
C  7.31000 45.27500 19.80000
N  8.05600 47.46400 26.15000
C  6.95300 47.25100 25.33000
C  5.76600 47.09500 26.08200
C  6.21800 47.21200 27.44800
C  7.60000 47.45700 27.40500
C  4.33000 46.73400 25.52500
C  5.73200 47.16400 28.82400
O  4.54600 47.03400 29.24400
C  7.01400 47.45600 29.62900
C  7.10100 46.27900 30.49200
O  7.48900 45.18700 30.06300
O  6.84300 46.50700 31.82400
C  7.14600 45.41600 32.72300
H  13.74300 48.84800 27.95300
H  12.58500 46.58300 22.28900
H  6.28100 46.60500 23.30900
H  9.61200 49.34000 30.77000
H  12.38900 48.23200 30.35100
H  11.15500 50.83900 30.64900
H  11.91300 50.89200 29.03000
H  12.85800 50.59400 30.59000
H  10.01100 46.45900 30.75000
H  9.06900 47.47400 31.83600
H  11.11200 48.23100 33.02300
H  12.09000 47.06900 32.23700
H  16.30300 47.48400 26.44500
H  15.56600 48.97600 27.12700
H  16.34900 48.95300 25.60600
H  17.02400 47.08400 24.23500
H  16.97100 48.61700 23.33000
H  17.24000 47.15900 22.48900
H  10.00400 45.06400 21.50400
H  8.51800 47.58300 21.24800
H  11.27900 47.44900 20.45100
H  9.97000 46.95300 19.45100
H  11.20300 45.78100 19.93700
H  6.45600 46.44200 21.28200
H  7.17900 44.81400 21.78300
H  8.29400 45.49200 19.38300
H  6.50800 45.74800 19.23400
H  7.27300 44.18600 19.79100
H  4.20200 45.65500 25.44500
H  4.26500 47.37000 24.64200
H  3.71300 47.23100 26.27400
H  6.87600 48.39500 30.16300
H  6.78500 45.40700 33.75100
H  8.23500 45.36000 32.74700
H  6.66200 44.50600 32.36900

