158

Mg 23.37200 -6.00200 46.88500
C  25.65000 -3.86800 45.29800
C  20.91900 -4.66400 44.87400
C  21.59800 -8.75500 47.28200
C  26.11900 -7.45900 48.50100
N  23.36100 -4.68500 45.05800
C  24.38700 -3.82500 44.72600
C  23.94900 -2.81900 43.69500
C  22.35400 -2.80400 43.88600
C  22.19000 -4.13200 44.62800
C  21.74900 -1.58500 44.60100
C  24.39200 -3.22600 42.24800
C  24.83300 -2.09800 41.41400
H  24.94000 -2.31000 39.93400
N  21.48200 -6.61800 46.28700
C  20.60800 -5.87200 45.47900
C  19.39400 -6.56900 45.31200
C  19.63200 -7.88400 45.88000
C  20.94200 -7.81800 46.49800
C  18.22400 -6.13900 44.49300
C  18.61700 -8.98000 45.83400
O  17.56600 -8.79000 45.25500
C  18.81800 -10.27800 46.50300
N  23.83500 -7.81700 47.75900
C  22.88200 -8.73900 47.88100
C  23.36900 -10.02200 48.66300
C  24.79400 -9.56700 49.10500
C  24.90900 -8.22000 48.42600
C  22.41200 -10.66700 49.75100
C  26.00900 -10.48600 48.96100
C  26.94400 -10.60000 50.13400
N  25.47700 -5.66000 47.04600
C  26.45600 -6.29800 47.82400
C  27.71500 -5.65200 47.70000
C  27.46100 -4.65100 46.74600
C  26.09600 -4.79000 46.31100
C  28.90700 -6.01500 48.40000
C  27.99700 -3.53200 45.97300
O  29.13000 -3.06900 45.92000
C  26.87700 -3.08900 45.01500
C  26.86800 -1.61900 45.15500
O  27.07000 -0.82100 44.27200
O  26.75400 -1.28700 46.51000
C  27.26300 -0.00200 46.88400
H  20.04300 -4.20800 44.40800
H  21.03400 -9.69000 47.30500
H  26.96300 -7.84200 49.07800
H  24.38000 -1.82300 43.80300
H  21.97200 -2.77600 42.86500
H  22.54300 -0.92800 44.95500
H  21.20900 -1.89100 45.49700
H  21.11700 -1.05500 43.88900
H  23.53000 -3.67200 41.75200
H  25.15900 -3.99200 42.36500
H  25.81100 -1.73000 41.72400
H  24.21300 -1.21900 41.59000
H  18.46000 -5.31000 43.82700
H  17.40600 -5.91800 45.17900
H  17.79400 -6.84700 43.78500
H  18.66000 -10.24400 47.58100
H  19.73900 -10.68200 46.08200
H  18.06200 -10.98100 46.15200
H  23.43300 -10.76200 47.86500
H  24.68200 -9.28900 50.15300
H  22.51400 -11.73800 49.57700
H  21.38800 -10.29800 49.69600
H  22.78500 -10.47800 50.75800
H  26.58000 -10.22200 48.07100
H  25.55300 -11.46500 48.80900
H  26.84900 -9.74600 50.80400
H  27.97200 -10.58900 49.77200
H  26.77700 -11.53900 50.66300
H  29.65200 -5.22300 48.31500
H  29.36700 -6.86700 47.90000
H  28.65100 -6.25400 49.43200
H  27.17700 -3.25600 43.98100
H  26.50300 0.77800 46.89800
H  28.11500 0.35500 46.30500
H  27.71800 0.08000 47.87100
Mg 53.88000 24.18800 43.91400
C  51.37100 26.65100 43.16800
C  51.49300 21.89700 43.06900
C  56.27600 21.91500 43.95100
C  56.12800 26.68500 44.67700
N  51.71600 24.39800 43.06800
C  50.92500 25.42900 42.79300
C  49.50500 24.94100 42.49900
C  49.48800 23.51500 43.17600
C  51.00000 23.20900 43.12000
C  48.82100 23.29500 44.58100
C  49.10600 24.88800 41.02300
C  50.06300 24.32300 40.01400
H  50.48100 25.38200 38.96100
N  53.90200 22.20900 43.48800
C  52.80600 21.39600 43.13200
C  53.22500 20.05600 42.89000
C  54.61200 20.04200 43.17600
C  55.00900 21.42800 43.58100
C  52.20400 19.03800 42.32300
C  55.50700 18.84400 42.97800
O  54.95700 17.79600 42.56000
C  57.02600 18.76200 43.19100
N  56.05800 24.38400 43.91200
C  56.78800 23.25900 44.19000
C  58.23100 23.64600 44.59100
C  58.10900 25.17900 44.95700
C  56.70700 25.46300 44.43900
C  58.94900 22.77000 45.72100
C  59.11500 26.05200 44.21400
C  60.25300 26.75200 45.06300
N  53.81400 26.22200 43.94100
C  54.76000 27.04700 44.49900
C  54.10300 28.41900 44.74700
C  52.86300 28.24600 44.13200
C  52.66800 26.90800 43.66300
C  54.84000 29.63500 45.22100
C  51.63500 28.95300 43.80200
O  51.29300 30.09200 44.03300
C  50.64300 27.97000 43.10900
C  50.29000 28.38900 41.77800
O  51.13800 28.57000 40.92400
O  48.93200 28.45500 41.60800
C  48.49800 29.18000 40.32400
H  50.74400 21.10900 43.17100
H  57.06200 21.15900 44.02100
H  56.72500 27.42500 45.21600
H  48.85300 25.63200 43.03400
H  48.87800 22.83800 42.57900
H  49.60100 23.13700 45.32500
H  48.15500 22.44000 44.46900
H  48.18100 24.14900 44.80300
H  48.83700 25.91300 40.76600
H  48.15700 24.35200 40.98800
H  49.53500 23.61400 39.37700
H  50.90300 23.75600 40.41600
H  51.39400 19.57600 41.83100
H  51.67700 18.58700 43.16400
H  52.63600 18.29500 41.65300
H  57.24500 19.29400 44.11700
H  57.59900 19.10300 42.32900
H  57.30400 17.72100 43.35400
H  58.77300 23.33000 43.70000
H  58.05400 25.32600 46.03500
H  58.39000 21.84200 45.84500
H  58.89500 23.38500 46.62000
H  60.00900 22.56100 45.58400
H  58.65900 26.73700 43.50000
H  59.67500 25.37100 43.57400
H  60.59900 27.57300 44.43500
H  61.06500 26.06200 45.29200
H  59.75400 27.08600 45.97300
H  54.78200 29.64900 46.30900
H  54.25400 30.47200 44.84000
H  55.82700 29.71000 44.76500
H  49.79900 27.73700 43.75900
H  47.95300 30.11400 40.46600
H  47.93800 28.59000 39.59900
H  49.37900 29.43300 39.73400

