158

Mg 10.17000 48.90600 25.97100
C  7.54000 49.33000 28.44900
C  12.28100 50.42200 28.09700
C  12.25500 49.05000 23.46100
C  7.63000 47.82600 23.84500
N  9.90300 49.79100 28.03000
C  8.83000 49.72500 28.94000
C  9.26900 50.19800 30.33400
C  10.66500 50.93200 29.96900
C  10.93400 50.38500 28.59500
C  10.70800 52.48600 30.08100
C  9.60500 48.99100 31.30300
C  9.80100 49.29200 32.80300
H  9.08100 48.49100 33.88900
N  12.00000 49.50200 25.83900
C  12.79200 50.00800 26.84300
C  14.16900 50.08700 26.35100
C  14.15900 49.68300 25.03400
C  12.75500 49.34800 24.69800
C  15.32900 50.54300 27.23400
C  15.31200 49.46900 24.09700
O  15.18200 49.00800 22.91100
C  16.60600 49.88300 24.54700
N  9.97500 48.41300 23.88200
C  10.96200 48.65500 23.02700
C  10.51600 48.34400 21.50700
C  9.10400 47.72600 21.77400
C  8.86000 47.98500 23.27000
C  10.60100 49.62200 20.54100
C  9.01200 46.25400 21.31800
C  9.53100 45.19500 22.30700
N  8.13600 48.52600 26.09500
C  7.24200 48.00500 25.19500
C  5.92000 47.79200 25.70400
C  5.99900 48.31300 26.97400
C  7.35000 48.75400 27.18700
C  4.58700 47.49300 24.92900
C  5.28200 48.53700 28.18400
O  4.12300 48.23900 28.55000
C  6.29300 49.24100 29.19800
C  6.36900 48.22000 30.27000
O  7.04300 47.20100 30.21300
O  5.33700 48.40000 31.18200
C  5.22500 47.55500 32.30400
H  13.01800 50.70900 28.85000
H  12.88100 49.34700 22.61700
H  6.87000 47.38200 23.19900
H  8.56300 50.82600 30.87700
H  11.55600 50.65000 30.52900
H  11.57200 52.78700 30.67400
H  9.76400 52.69600 30.58400
H  10.76100 52.91800 29.08200
H  10.51800 48.54400 30.91100
H  8.84300 48.21300 31.26200
H  9.69300 50.37500 32.86200
H  10.87200 49.11200 32.89500
H  15.88700 51.41000 26.88200
H  16.05600 49.80400 27.57000
H  14.86400 50.98000 28.11800
H  16.71700 50.89200 24.94400
H  17.32000 49.81400 23.72700
H  17.02400 49.17700 25.26400
H  11.20100 47.57100 21.16000
H  8.48700 48.38800 21.16600
H  9.64100 49.63000 20.02600
H  11.53200 49.59600 19.97500
H  10.62900 50.53900 21.13100
H  9.67200 46.01900 20.48300
H  7.98500 46.05300 21.01400
H  10.35600 45.59800 22.89200
H  9.94700 44.34900 21.76000
H  8.75700 44.73900 22.92500
H  3.71600 47.46200 25.58500
H  4.66200 46.54600 24.39600
H  4.44500 48.38300 24.31700
H  5.95500 50.13100 29.72800
H  4.49500 46.79000 32.03900
H  4.87200 48.14600 33.14900
H  6.13300 47.03600 32.60800
Mg -11.01100 17.19700 41.24600
C  -7.47300 16.75900 41.60400
C  -10.30600 20.43800 40.67600
C  -14.11400 17.50500 40.47400
C  -11.26300 13.59000 41.44900
N  -9.10600 18.44300 41.09900
C  -7.80900 18.12600 41.34800
C  -6.84800 19.35500 41.21000
C  -7.86000 20.51900 41.44400
C  -9.20100 19.78500 41.01100
C  -7.95100 21.01500 42.93900
C  -6.15100 19.42700 39.78500
C  -4.68700 19.28700 39.83700
H  -4.10600 18.47200 38.68100
N  -12.09100 18.73100 40.51700
C  -11.60300 19.99000 40.38100
C  -12.71800 20.79100 39.95900
C  -13.90400 20.05900 39.86800
C  -13.44400 18.72800 40.31300
C  -12.54600 22.26100 39.67200
C  -15.29100 20.47100 39.37100
O  -15.55500 21.61000 38.97200
C  -16.47200 19.52200 39.47900
N  -12.34900 15.68400 40.75600
C  -13.63500 16.22800 40.80100
C  -14.61700 15.07900 40.90000
C  -13.79500 13.80900 41.20900
C  -12.34700 14.34700 41.15500
C  -15.81100 15.33800 41.81800
C  -14.01700 12.61000 40.18400
C  -14.70500 11.31200 40.67700
N  -9.73700 15.48900 41.61800
C  -10.01200 14.14200 41.64100
C  -8.77100 13.44300 41.93200
C  -7.68900 14.37400 41.96000
C  -8.34100 15.61800 41.73700
C  -8.75700 11.85900 42.19200
C  -6.28500 14.63700 42.17100
O  -5.37200 13.89000 42.48300
C  -6.06300 16.18200 41.89200
C  -5.36600 16.71200 43.13800
O  -4.14900 16.98700 43.21500
O  -6.18100 16.72800 44.26600
C  -5.61700 16.92500 45.58300
H  -10.11700 21.51100 40.76200
H  -15.18400 17.45100 40.26400
H  -11.56700 12.55000 41.59000
H  -6.17000 19.18800 42.04700
H  -7.46300 21.33300 40.83700
H  -7.38100 20.25900 43.48000
H  -8.96700 21.15700 43.30700
H  -7.43900 21.96000 43.11500
H  -6.25000 20.44900 39.42200
H  -6.49900 18.75300 39.00200
H  -4.32000 18.81100 40.74500
H  -4.09400 20.19600 39.93500
H  -12.28000 22.30100 38.61500
H  -11.75500 22.72700 40.25900
H  -13.50900 22.75300 39.80800
H  -16.31000 18.61200 38.90200
H  -17.31100 20.03500 39.00800
H  -16.55100 19.33400 40.55000
H  -15.17000 15.13200 39.96200
H  -13.96900 13.52100 42.24600
H  -16.24000 14.33600 41.82000
H  -16.48600 16.05800 41.35700
H  -15.54000 15.85700 42.73800
H  -13.07500 12.26600 39.75700
H  -14.56700 13.01700 39.33500
H  -14.70000 11.34600 41.76700
H  -14.10600 10.42700 40.46400
H  -15.77100 11.28000 40.45200
H  -8.35400 11.29400 41.35100
H  -9.71700 11.45900 42.51600
H  -8.04100 11.67600 42.99300
H  -5.29200 16.25400 41.12500
H  -6.41000 16.91300 46.33200
H  -5.27300 17.95900 45.57800
H  -4.84600 16.16800 45.72600

