158

Mg 9.57800 3.47300 28.06600
C  11.12500 1.98200 30.94200
C  7.99800 5.59400 30.07100
C  7.86500 4.43500 25.29500
C  11.01100 0.82000 26.29800
N  9.62800 3.77800 30.22400
C  10.34500 3.07800 31.16700
C  10.05300 3.68000 32.55300
C  8.79200 4.58100 32.35400
C  8.83600 4.78500 30.80000
C  7.43500 3.99400 32.80800
C  11.27000 4.55600 33.14000
C  11.72900 4.17200 34.54900
H  10.80500 3.65600 35.57300
N  8.21600 4.83600 27.66200
C  7.75900 5.68600 28.67400
C  6.95200 6.70800 28.06200
C  6.89800 6.44600 26.64600
C  7.73200 5.16900 26.47200
C  6.31100 7.83200 28.90000
C  6.20300 7.22200 25.49100
O  6.09400 6.80400 24.35000
C  5.61300 8.56200 25.76700
N  9.45600 2.70400 26.09200
C  8.65200 3.31800 25.13400
C  8.66400 2.51000 23.85500
C  9.62100 1.29800 24.18100
C  10.00700 1.57800 25.63700
C  7.31100 2.14600 23.22800
C  10.79600 1.30000 23.18200
C  10.56400 1.01500 21.65000
N  10.85100 1.81800 28.50300
C  11.38500 0.87600 27.63300
C  12.28400 -0.02700 28.33100
C  12.19400 0.37300 29.68400
C  11.30000 1.48900 29.70600
C  13.01100 -1.09800 27.80000
C  12.70200 0.08600 31.02400
O  13.53600 -0.77100 31.37400
C  11.98300 1.19600 31.97300
C  11.22200 0.45200 32.99100
O  10.07200 0.01900 32.85000
O  12.01100 0.18300 34.06400
C  11.33000 -0.43700 35.19900
H  7.40800 6.19100 30.76900
H  7.25600 4.73300 24.44000
H  11.45600 -0.04900 25.80900
H  9.81400 2.81100 33.16600
H  8.73600 5.60900 32.71100
H  6.83300 3.81600 31.91700
H  6.94000 4.76200 33.40200
H  7.55700 3.05200 33.34300
H  11.04000 5.62100 33.09800
H  12.04700 4.17200 32.48000
H  12.16300 5.03700 35.05100
H  12.41900 3.33100 34.47900
H  7.07800 8.60400 28.96700
H  6.05400 7.41800 29.87500
H  5.37800 8.28200 28.56000
H  6.32400 9.25700 26.21400
H  4.73700 8.40300 26.39500
H  5.36800 8.90500 24.76100
H  9.21900 3.13300 23.15400
H  9.11500 0.33800 24.07400
H  7.02900 2.99000 22.59800
H  6.62700 2.06100 24.07200
H  7.46100 1.23200 22.65400
H  11.51300 0.53200 23.47200
H  11.24900 2.28500 23.29600
H  10.93400 0.03500 21.34900
H  11.03400 1.82700 21.09500
H  9.51100 1.20500 21.44200
H  13.87600 -1.25300 28.44500
H  13.33500 -1.09000 26.75900
H  12.42800 -2.01300 27.70200
H  12.73900 1.68400 32.58800
H  11.92700 -0.12600 36.05600
H  11.41500 -1.50600 35.00500
H  10.27400 -0.17300 35.26300
Mg 46.70600 24.74500 29.03900
C  47.11300 26.80400 31.70900
C  45.49200 22.32200 31.17500
C  46.59000 22.57700 26.48600
C  47.70800 27.22500 26.76600
N  46.37000 24.59000 31.21500
C  46.55100 25.59200 32.06100
C  46.18700 25.17800 33.45600
C  45.64700 23.71000 33.32700
C  45.87400 23.49300 31.86300
C  46.43200 22.62100 34.14500
C  45.15700 26.10500 34.19600
C  45.66100 26.60300 35.58300
H  44.69700 26.71500 36.86000
N  46.18900 22.70700 28.88800
C  45.74100 21.88900 29.88000
C  45.40000 20.60900 29.40100
C  45.86100 20.57500 28.04400
C  46.21100 21.97600 27.67500
C  44.82400 19.57300 30.20700
C  45.99600 19.44700 27.08400
O  46.28400 19.53500 25.88900
C  45.78100 18.07700 27.66700
N  47.14500 24.86900 27.06200
C  47.07100 23.78400 26.17200
C  47.64900 24.12300 24.77200
C  47.42300 25.67200 24.80300
C  47.39900 25.92600 26.32800
C  49.15800 23.65200 24.61500
C  46.15300 26.11300 24.10800
C  44.77600 26.11500 24.86800
N  47.29700 26.66000 29.11000
C  47.66500 27.52800 28.12200
C  47.98000 28.85900 28.77100
C  47.79900 28.56600 30.17300
C  47.37200 27.26000 30.35300
C  48.51200 30.13300 28.21300
C  48.05600 29.04200 31.45300
O  48.43400 30.11300 31.81100
C  47.64800 27.98800 32.50000
C  48.88500 27.68400 33.18700
O  49.80000 26.99400 32.72000
O  48.74700 28.15400 34.46400
C  49.95000 27.87600 35.31000
H  44.97100 21.74900 31.94500
H  46.66000 21.86200 25.66300
H  47.93000 27.97400 26.00300
H  47.15000 25.08000 33.95700
H  44.57600 23.53800 33.42900
H  47.17900 23.08000 34.79200
H  46.89800 21.89900 33.47500
H  45.69500 22.11700 34.76900
H  44.27100 25.50200 34.39800
H  44.88800 27.00400 33.64000
H  46.04900 27.62100 35.58300
H  46.50800 25.96800 35.84300
H  45.42400 18.66300 30.23000
H  43.88000 19.25900 29.76000
H  44.39800 19.82100 31.17900
H  44.79600 17.99900 28.12700
H  46.53900 17.83400 28.41100
H  45.98200 17.26500 26.96800
H  47.00400 23.72600 23.98900
H  48.19800 26.30200 24.36700
H  49.43000 23.38900 25.63700
H  49.83300 24.46000 24.33400
H  49.31600 22.84700 23.89600
H  46.08600 25.61800 23.13900
H  46.17200 27.14600 23.76000
H  44.57400 27.16200 25.09400
H  44.79200 25.54200 25.79500
H  44.08500 25.72300 24.12200
H  47.90900 30.37500 27.33800
H  49.53400 29.98900 27.86100
H  48.50100 30.97300 28.90700
H  46.84800 28.32900 33.15700
H  50.93300 28.18600 34.95400
H  50.02500 26.83800 35.63200
H  49.73400 28.55400 36.13600

