158

Mg 54.71800 24.47300 44.55700
C  52.10400 26.76100 43.82300
C  52.58400 21.86600 43.54000
C  57.32900 22.39500 44.59300
C  56.69300 27.10300 45.38300
N  52.55700 24.34500 43.94000
C  51.75800 25.43100 43.58200
C  50.40700 24.87800 42.92400
C  50.47800 23.32000 43.37400
C  52.01800 23.14700 43.59600
C  49.70900 22.82400 44.58400
C  50.20000 25.04600 41.41100
C  48.83200 25.05200 40.74700
H  48.68100 24.28100 39.45100
N  54.94100 22.42000 44.03600
C  53.92700 21.49100 43.71600
C  54.54300 20.20600 43.53100
C  55.89500 20.30000 43.94600
C  56.10100 21.71600 44.17600
C  53.72900 19.06600 43.21300
C  56.89500 19.08600 44.07700
O  56.62900 17.90200 43.71200
C  58.18800 19.29000 44.73600
N  56.76000 24.67500 44.86800
C  57.70600 23.68800 44.84300
C  59.04100 24.14300 45.39600
C  58.70400 25.70200 45.60800
C  57.30200 25.83900 45.26000
C  59.57600 23.40400 46.69700
C  59.56200 26.59100 44.66300
C  60.58300 27.42000 45.40400
N  54.54800 26.55600 44.58200
C  55.38100 27.48900 45.12700
C  54.75900 28.76500 45.24400
C  53.49400 28.54600 44.64000
C  53.39800 27.20500 44.30600
C  55.37200 29.96000 45.86600
C  52.27800 29.20700 44.26500
O  51.94300 30.38500 44.39900
C  51.27900 28.05700 43.62300
C  50.84200 28.34500 42.24300
O  51.62500 28.41900 41.24700
O  49.52500 28.42900 42.22100
C  49.08100 28.71600 40.89000
H  51.85000 21.08200 43.34200
H  58.19600 21.74800 44.74200
H  57.36100 27.91700 45.67100
H  49.60100 25.32700 43.50500
H  50.27300 22.69900 42.50200
H  50.43900 22.69900 45.38400
H  49.04900 21.97100 44.42700
H  49.00400 23.61000 44.85300
H  50.88700 24.31700 40.98100
H  50.61100 26.01600 41.13200
H  48.57800 26.10600 40.64200
H  48.13800 24.57600 41.43900
H  53.26000 19.22400 42.24100
H  52.96200 18.94400 43.97800
H  54.22400 18.09700 43.15200
H  58.46900 18.28300 45.04500
H  58.12800 19.83300 45.68000
H  59.02000 19.67200 44.14600
H  59.78800 24.00200 44.61600
H  58.91200 25.91900 46.65600
H  59.33000 24.03300 47.55300
H  60.63800 23.16100 46.72900
H  59.06200 22.44400 46.75700
H  58.99400 27.29200 44.05100
H  60.11900 25.94700 43.98300
H  60.38900 27.41100 46.47600
H  60.54700 28.47900 45.15100
H  61.54000 26.97700 45.12600
H  56.39700 30.16400 45.55500
H  55.31900 29.79600 46.94200
H  54.79400 30.84100 45.59000
H  50.34900 27.91500 44.17200
H  48.84600 29.77400 40.77400
H  48.13100 28.20500 40.73300
H  49.70300 28.41100 40.04800
Mg 47.69600 16.96600 28.76800
C  46.08700 16.33600 31.69100
C  50.08300 18.78300 30.27200
C  49.13100 17.33500 25.67000
C  44.98800 15.42800 27.06000
N  47.99200 17.57700 30.73000
C  47.28900 17.13500 31.83900
C  47.92700 17.64700 33.11000
C  48.99300 18.62200 32.58800
C  49.04800 18.38400 31.10600
C  48.78800 20.19300 33.01300
C  48.51800 16.39900 33.96100
C  48.59600 16.53300 35.49800
H  48.20900 17.92700 36.13400
N  49.37900 17.94900 28.05700
C  50.27500 18.50700 28.87900
C  51.43600 18.95800 28.12200
C  51.09600 18.69100 26.80100
C  49.78600 17.87300 26.78800
C  52.65900 19.70100 28.68600
C  51.91400 19.00700 25.51500
O  51.46200 18.67700 24.42300
C  53.21700 19.66900 25.57200
N  47.16900 16.26900 26.60800
C  47.93300 16.57000 25.52700
C  47.35800 16.05100 24.20800
C  45.94300 15.58400 24.70800
C  45.98700 15.75500 26.19600
C  47.15700 17.17200 23.07300
C  45.69000 14.11000 24.26800
C  44.76400 14.10000 23.03700
N  45.95500 16.00400 29.21500
C  45.00900 15.40900 28.42300
C  43.94100 14.88900 29.27200
C  44.35100 15.09000 30.59400
C  45.56900 15.90900 30.45600
C  42.69000 14.19400 28.86900
C  44.08100 14.97000 31.99900
O  43.14700 14.34100 32.50100
C  45.19100 15.79100 32.76600
C  44.40800 16.79000 33.47400
O  43.67700 17.67500 32.99100
O  44.61200 16.59400 34.87100
C  43.76500 17.53200 35.62200
H  50.87200 19.38000 30.73500
H  49.53300 17.41400 24.65800
H  44.11500 15.08300 26.50000
H  47.14500 18.12900 33.69600
H  49.95400 18.24900 32.94400
H  48.37700 20.76400 32.18100
H  49.76400 20.57500 33.31200
H  48.06000 20.19700 33.82500
H  49.54700 16.24700 33.63400
H  48.10200 15.43400 33.67100
H  49.56100 16.14700 35.82500
H  47.90000 15.83000 35.95700
H  52.89600 20.60600 28.12700
H  53.45900 18.96100 28.70600
H  52.43700 19.93400 29.72800
H  53.28000 20.69100 25.94300
H  53.76400 19.54900 24.63700
H  53.86200 19.01000 26.15500
H  47.89700 15.18800 23.81700
H  45.18000 16.24700 24.29900
H  47.72300 18.09100 23.22400
H  46.12300 17.36700 22.79100
H  47.69600 16.67300 22.26800
H  45.11000 13.56400 25.01200
H  46.59000 13.49600 24.24400
H  44.71200 15.05800 22.52000
H  43.73500 14.06600 23.39400
H  44.88700 13.12800 22.55800
H  42.62900 13.41800 29.63300
H  42.68700 13.80300 27.85200
H  41.82700 14.84500 29.00900
H  45.73100 15.13200 33.44600
H  43.93700 18.54300 35.25300
H  44.11200 17.61800 36.65100
H  42.74400 17.19500 35.79700

