158

Mg 41.20100 41.06700 26.83100
C  40.52400 43.43200 29.43900
C  41.92300 38.73100 29.15400
C  41.97500 38.96100 24.36100
C  40.51200 43.51700 24.51500
N  41.15500 41.05300 29.05500
C  40.84000 42.13700 29.88500
C  40.88500 41.66400 31.35200
C  41.35300 40.13300 31.24100
C  41.45100 39.94500 29.70100
C  42.71300 39.76800 31.81200
C  39.58500 41.82700 32.15900
C  39.45000 42.97600 33.15900
H  38.98300 42.61800 34.65500
N  41.92200 39.14900 26.75800
C  42.12900 38.36000 27.83900
C  42.60100 37.11300 27.43400
C  42.57300 37.07800 26.00700
C  42.10600 38.43500 25.65500
C  43.05000 35.99700 28.47500
C  42.81100 35.95100 25.03200
O  42.58600 36.05200 23.82100
C  43.34000 34.59200 25.52900
N  41.45300 41.27600 24.74600
C  41.66400 40.23600 23.93800
C  41.40500 40.59400 22.43800
C  40.61500 41.96700 22.56900
C  40.79900 42.23300 24.07900
C  42.66700 40.49500 21.54800
C  39.20200 41.85800 21.95900
C  38.19100 41.41600 22.99900
N  40.68700 43.05900 26.91700
C  40.49300 43.96100 25.85800
C  40.08300 45.29100 26.38200
C  40.14600 45.12400 27.74500
C  40.47000 43.75100 28.02300
C  39.60800 46.55500 25.63300
C  39.87000 45.76600 28.93900
O  39.50700 46.88400 29.14400
C  40.21400 44.74300 30.15000
C  41.41400 45.24900 30.91000
O  42.50300 44.80900 30.78600
O  40.94000 46.05600 31.94100
C  41.89800 46.45300 33.03300
H  42.17900 38.13300 30.03200
H  42.18200 38.29600 23.51900
H  40.17600 44.22200 23.75100
H  41.67400 42.27100 31.79700
H  40.60400 39.39700 31.53300
H  42.82500 40.50300 32.60900
H  43.51600 39.83600 31.07900
H  42.69400 38.76400 32.23700
H  39.40600 40.90600 32.71400
H  38.67900 41.84000 31.55300
H  38.75500 43.65900 32.67200
H  40.44100 43.42900 33.16200
H  42.42500 36.16300 29.35200
H  44.09100 36.05100 28.79200
H  42.86400 34.97500 28.14600
H  42.54900 33.89800 25.81500
H  44.06500 34.67500 26.33900
H  43.94800 34.18700 24.72100
H  40.67900 39.90800 22.00100
H  41.29600 42.65700 22.07100
H  42.66100 39.56800 20.97400
H  43.52100 40.44300 22.22400
H  42.76500 41.36200 20.89500
H  39.18800 41.20600 21.08600
H  38.93900 42.82600 21.53200
H  38.65300 40.83400 23.79700
H  37.31000 40.85300 22.68800
H  37.93800 42.38400 23.43200
H  38.84200 46.16300 24.96400
H  40.40900 46.95800 25.01400
H  39.27500 47.32600 26.32900
H  39.29100 44.78400 30.72700
H  42.75200 46.91000 32.53300
H  42.24500 45.57200 33.57300
H  41.37300 47.12500 33.71100
Mg 36.03600 49.86300 25.47800
C  36.06500 48.02100 28.51100
C  35.68800 52.73400 27.24600
C  35.87700 51.27400 22.54200
C  36.41800 46.63500 23.92900
N  35.72500 50.27300 27.61200
C  35.86400 49.42000 28.68200
C  35.83300 50.22500 30.04000
C  35.60800 51.65600 29.57600
C  35.69900 51.59200 28.05400
C  34.41000 52.39200 30.07800
C  37.05200 50.01700 30.92500
C  36.75100 49.81900 32.44700
H  35.32200 49.81200 32.96300
N  35.80100 51.75300 24.98800
C  35.80800 52.80000 25.84200
C  35.78700 53.96300 25.11300
C  35.86100 53.66900 23.70300
C  35.84600 52.14000 23.66000
C  35.72100 55.32200 25.64300
C  35.91700 54.64100 22.41800
O  35.86700 54.11700 21.30700
C  35.94500 56.26600 22.47900
N  36.03300 49.07500 23.49900
C  36.06600 49.89500 22.42500
C  36.26200 49.15100 21.10000
C  36.64300 47.65100 21.52900
C  36.41100 47.79400 23.14000
C  34.97700 49.26200 20.11000
C  38.09600 47.26600 21.21400
C  38.22900 45.75500 21.07700
N  36.19400 47.86300 26.03100
C  36.29700 46.68300 25.26900
C  36.32000 45.46000 26.06600
C  36.24700 45.97000 27.37600
C  36.08800 47.40500 27.30700
C  36.46300 44.00400 25.58800
C  36.42500 45.57100 28.74000
O  36.63000 44.46900 29.24500
C  36.23400 46.85800 29.60400
C  34.99000 46.59800 30.38100
O  33.86800 46.79700 29.93900
O  35.26100 46.04600 31.59800
C  34.03800 45.68800 32.36500
H  35.64000 53.67100 27.80600
H  36.02100 51.73000 21.56000
H  36.57400 45.70300 23.38300
H  34.86000 49.85100 30.35600
H  36.45000 52.30500 29.81800
H  33.94500 53.04900 29.34300
H  34.72600 53.04400 30.89300
H  33.60500 51.79200 30.50500
H  37.71800 50.87800 30.86100
H  37.60700 49.16600 30.53000
H  37.33400 50.63100 32.88100
H  37.12600 48.83300 32.72300
H  36.29400 56.01800 25.02900
H  36.13800 55.47400 26.63800
H  34.65400 55.52600 25.55800
H  36.83500 56.59500 23.01600
H  35.14300 56.54900 23.16100
H  35.87200 56.67600 21.47200
H  37.13300 49.70300 20.74700
H  35.99900 46.87400 21.11900
H  35.24000 49.90300 19.26800
H  34.19600 49.77100 20.67500
H  34.66000 48.28800 19.73700
H  38.65000 47.53700 22.11300
H  38.46900 47.77000 20.32300
H  37.33500 45.21700 20.76100
H  38.61700 45.31400 21.99500
H  38.89400 45.65500 20.22000
H  36.41700 43.30700 26.42500
H  37.43500 43.81700 25.13300
H  35.62800 43.81400 24.91300
H  37.05200 46.97600 30.31400
H  33.90700 44.60700 32.33500
H  33.19600 46.27200 31.99400
H  34.15400 46.09000 33.37100

