158

Mg 45.83600 5.34400 48.24700
C  43.45400 7.90800 47.29700
C  43.28700 3.07800 47.14400
C  48.09400 3.07900 48.11700
C  48.17000 7.86800 48.66700
N  43.52600 5.49700 47.38600
C  42.93900 6.62600 46.97900
C  41.62500 6.33800 46.25700
C  41.39600 4.82600 46.65200
C  42.83300 4.40000 47.06000
C  40.34200 4.66600 47.80700
C  41.60500 6.66300 44.75400
C  40.41300 7.56400 44.28500
H  39.57800 7.04400 43.10000
N  45.72900 3.31000 47.87100
C  44.60400 2.60300 47.47200
C  45.02700 1.17100 47.44700
C  46.44000 1.10300 47.54900
C  46.82700 2.51800 47.82400
C  44.06800 0.05500 47.17800
C  47.25900 -0.13300 47.47600
O  46.73200 -1.22800 47.22300
C  48.86900 -0.18900 47.58800
N  47.83800 5.51100 48.29200
C  48.58700 4.35300 48.34900
C  50.03500 4.59000 48.73100
C  50.00800 6.12400 48.94600
C  48.59600 6.52800 48.63600
C  50.61500 3.73600 49.84700
C  51.01400 6.94100 48.09900
C  52.00800 7.98700 48.79800
N  45.82700 7.46700 48.26700
C  46.89800 8.32500 48.41900
C  46.41600 9.66400 48.08100
C  45.07600 9.55900 47.73900
C  44.74400 8.17900 47.83000
C  47.34400 10.84600 48.07600
C  43.84900 10.27300 47.36000
O  43.73600 11.49500 47.06600
C  42.76000 9.24200 47.12700
C  41.78800 9.50500 48.29400
O  41.87600 8.85700 49.32300
O  40.87200 10.44900 47.98200
C  39.80000 10.66600 48.96200
H  42.55100 2.31800 46.87400
H  48.92900 2.39300 48.27300
H  48.91100 8.63700 48.89500
H  40.88400 6.90800 46.81600
H  41.00300 4.30300 45.78000
H  39.80900 5.55300 48.14900
H  40.78100 4.27800 48.72600
H  39.58300 3.91200 47.60000
H  41.68700 5.73000 44.19600
H  42.47300 7.27600 44.51100
H  40.87300 8.50000 43.96900
H  39.80000 7.84100 45.14300
H  43.07200 0.44700 46.97000
H  43.84900 -0.52900 48.07200
H  44.42200 -0.57400 46.36100
H  49.25700 -1.20700 47.55400
H  49.13600 0.10400 48.60300
H  49.41100 0.48500 46.92400
H  50.69100 4.33300 47.90000
H  50.24800 6.35400 49.98400
H  51.41300 4.18900 50.43400
H  50.93200 2.82000 49.34800
H  49.83900 3.29600 50.47400
H  50.41400 7.57000 47.44100
H  51.62800 6.28500 47.48300
H  51.80200 8.96300 48.35900
H  53.02000 7.68800 48.52500
H  52.05400 7.98500 49.88700
H  47.87900 10.86800 47.12700
H  47.98800 10.88600 48.95500
H  46.67200 11.70100 48.15200
H  42.20400 9.34500 46.19500
H  39.52700 9.76600 49.51300
H  38.93000 10.94900 48.36900
H  40.03700 11.50000 49.62400
Mg -5.40300 25.09200 25.91100
C  -3.82800 26.21200 28.91200
C  -7.33100 22.99300 28.00800
C  -6.46100 23.33600 23.20700
C  -3.06200 26.78600 24.05400
N  -5.48800 24.66900 28.19700
C  -4.84800 25.32000 29.23500
C  -5.31000 24.85400 30.62300
C  -6.25700 23.65700 30.24300
C  -6.42400 23.79900 28.74600
C  -5.91200 22.25300 30.71800
C  -6.02700 25.96900 31.44800
C  -5.68900 26.16100 32.94800
H  -5.10800 25.00100 33.76800
N  -6.82300 23.48200 25.64700
C  -7.57600 22.84800 26.63900
C  -8.56000 22.01800 26.00300
C  -8.24200 21.99600 24.60700
C  -7.13100 22.95700 24.44100
C  -9.71500 21.38600 26.77600
C  -8.94200 21.12700 23.49800
O  -8.66200 21.25100 22.31300
C  -9.90100 20.00600 23.81800
N  -4.80800 24.97700 23.85800
C  -5.48300 24.26000 22.98800
C  -4.75200 24.51900 21.64800
C  -3.80200 25.69200 21.84100
C  -3.87300 25.85500 23.34500
C  -4.21400 23.17100 21.08100
C  -4.06300 27.02800 21.08600
C  -3.10400 27.34000 19.98600
N  -3.86100 26.34700 26.30100
C  -3.08000 26.96200 25.44200
C  -2.15700 27.85600 26.14000
C  -2.39900 27.54500 27.55500
C  -3.44700 26.63800 27.56500
C  -1.16400 28.85000 25.62000
C  -2.02300 27.90900 28.95100
O  -1.12000 28.70400 29.32200
C  -3.00800 27.16300 29.85300
C  -2.15000 26.34300 30.93700
O  -1.59600 25.29100 30.78000
O  -2.00200 27.11400 32.04300
C  -1.18500 26.53400 33.16400
H  -7.87400 22.22300 28.56100
H  -6.79100 22.74800 22.34800
H  -2.34500 27.38600 23.49000
H  -4.43000 24.43200 31.11000
H  -7.17800 23.82300 30.80100
H  -5.99900 21.65800 29.80900
H  -6.62500 21.90500 31.46600
H  -4.88300 22.30000 31.07400
H  -7.09700 25.80100 31.33000
H  -5.75400 26.84900 30.86600
H  -6.52900 26.57200 33.50700
H  -4.99000 26.99600 32.98300
H  -9.87900 21.85900 27.74400
H  -9.39000 20.39800 27.10500
H  -10.67100 21.41200 26.25300
H  -9.73300 19.35900 22.95700
H  -10.89500 20.36000 24.09200
H  -9.66100 19.51300 24.76000
H  -5.46100 24.89600 20.91100
H  -2.78100 25.33200 21.71100
H  -4.99700 22.42500 21.21700
H  -3.34100 22.76000 21.58700
H  -3.91600 23.36600 20.05100
H  -3.95600 27.86500 21.77600
H  -5.03900 26.96000 20.60600
H  -2.35200 28.06300 20.30200
H  -3.56100 27.77200 19.09600
H  -2.58200 26.41500 19.74200
H  -0.35900 28.79300 26.35200
H  -1.61200 29.83700 25.73600
H  -0.80400 28.70900 24.60100
H  -3.62400 27.87500 30.40300
H  -0.15300 26.88400 33.13900
H  -1.17700 25.44500 33.10200
H  -1.65300 26.72400 34.13000

