158

Mg 0.39100 7.93000 25.65400
C  1.17100 9.53100 28.65600
C  0.06000 4.93100 27.45700
C  0.42700 6.16800 22.78600
C  1.41000 10.74200 23.84100
N  0.73200 7.30600 27.80000
C  0.84800 8.18200 28.88500
C  0.76000 7.47600 30.24100
C  0.63100 6.01600 29.72700
C  0.39700 6.08600 28.22500
C  1.79600 5.10900 30.14000
C  -0.46600 7.83800 31.17300
C  -0.45600 7.41000 32.67900
H  0.76900 6.69600 33.30100
N  0.08400 5.88100 25.18500
C  -0.00300 4.80300 26.06600
C  -0.24400 3.60600 25.33000
C  -0.09300 3.90700 23.94300
C  0.18200 5.38100 23.94200
C  -0.49200 2.33400 26.11900
C  -0.22100 2.97000 22.73200
O  0.03000 3.32400 21.58300
C  -0.45500 1.46200 23.00600
N  0.90000 8.43400 23.60800
C  0.67700 7.49800 22.60300
C  0.92500 8.09700 21.20500
C  1.22500 9.57800 21.52500
C  1.10900 9.65700 23.10200
C  2.10000 7.27900 20.50500
C  0.13800 10.55700 20.89200
C  -1.23600 10.87100 21.56200
N  1.17900 9.78800 26.11700
C  1.47200 10.87100 25.27000
C  1.81800 12.01100 26.17100
C  1.72400 11.54900 27.46900
C  1.32400 10.18900 27.38300
C  2.04500 13.46900 25.75900
C  1.78000 11.93900 28.82200
O  2.22000 13.01100 29.23200
C  1.44800 10.65200 29.69100
C  2.55000 10.34600 30.58800
O  3.49800 9.62000 30.29200
O  2.37900 10.88200 31.81300
C  3.55800 10.65200 32.71100
H  -0.14200 4.00400 27.99800
H  0.22800 5.69200 21.82300
H  1.54300 11.71400 23.36100
H  1.63500 7.63000 30.87200
H  -0.22300 5.53400 30.20200
H  1.43700 4.15100 30.51500
H  2.38000 5.57700 30.93200
H  2.45900 5.06000 29.27700
H  -1.38200 7.48900 30.69700
H  -0.58800 8.92100 31.18100
H  -1.37600 6.84900 32.84000
H  -0.51400 8.28200 33.33000
H  -1.01200 2.54700 27.05300
H  0.45300 1.82100 26.29900
H  -1.07100 1.60900 25.54900
H  -0.65200 0.87100 22.11100
H  -1.38400 1.42600 23.57400
H  0.45400 1.10000 23.48600
H  0.02300 7.99000 20.60300
H  2.18800 9.94400 21.16900
H  2.63200 6.77700 21.31300
H  2.81900 7.99200 20.09900
H  1.70900 6.56600 19.77800
H  -0.08200 10.04800 19.95300
H  0.63800 11.47600 20.58600
H  -1.17900 11.80500 22.12100
H  -1.55800 10.14600 22.30900
H  -2.08200 10.99900 20.88600
H  1.42300 13.55800 24.86900
H  3.08300 13.61500 25.45700
H  1.68700 14.13800 26.54200
H  0.53800 10.92200 30.22800
H  4.49700 10.73300 32.16400
H  3.50200 9.62800 33.08000
H  3.47700 11.36000 33.53600
Mg 25.93100 1.17800 29.84000
C  27.94600 0.88200 32.83400
C  23.23700 1.38600 31.85000
C  24.08600 1.05000 27.09400
C  28.73400 0.36100 28.00500
N  25.71200 1.24500 32.13500
C  26.62700 1.05100 33.14800
C  25.97100 1.14200 34.57500
C  24.47000 1.23900 34.15600
C  24.38700 1.17200 32.62100
C  23.55300 0.17200 34.84200
C  26.56000 2.31400 35.44800
C  26.74600 1.93500 36.94700
H  26.49700 3.10600 37.84200
N  23.89100 1.32100 29.54800
C  22.93300 1.37600 30.52500
C  21.61300 1.53800 29.93600
C  21.84300 1.37100 28.54200
C  23.33500 1.24600 28.32900
C  20.44900 1.74400 30.83000
C  20.82400 1.29100 27.42600
O  21.26500 1.02300 26.27700
C  19.41600 1.61100 27.66400
N  26.28100 0.65700 27.89900
C  25.37500 0.84600 26.88400
C  25.99700 0.62700 25.48600
C  27.52100 0.55500 25.85200
C  27.50500 0.53900 27.39500
C  25.51400 -0.73200 24.84600
C  28.41200 1.76600 25.39200
C  29.82900 1.32800 25.02700
N  27.92200 0.76200 30.28700
C  28.94400 0.45200 29.41900
C  30.15800 0.18500 30.13000
C  29.77500 0.38000 31.44300
C  28.43000 0.73300 31.51800
C  31.47500 -0.24700 29.67100
C  30.28000 0.30600 32.79500
O  31.43100 -0.04700 33.17500
C  29.08800 0.76400 33.70700
C  28.94700 -0.35000 34.68700
O  28.47200 -1.44800 34.47300
O  29.39000 0.07400 35.94200
C  29.25400 -1.02400 36.94600
H  22.34600 1.32300 32.47900
H  23.52900 0.98500 26.15700
H  29.58900 0.12500 27.36900
H  26.20200 0.21000 35.09100
H  24.06700 2.22900 34.37100
H  22.86500 -0.29300 34.13600
H  22.93100 0.65700 35.59400
H  24.17800 -0.60000 35.28900
H  25.74200 3.03400 35.49100
H  27.37700 2.86900 34.98800
H  27.79500 1.69300 37.11400
H  26.18100 1.02900 37.16900
H  20.64000 2.53300 31.55700
H  20.17500 0.87500 31.42900
H  19.52200 2.00800 30.32100
H  19.02900 0.85500 28.34700
H  18.94400 1.53200 26.68500
H  19.23200 2.61800 28.03900
H  25.86700 1.45800 24.79300
H  27.94700 -0.41800 25.60900
H  24.77200 -1.22300 25.47600
H  26.26800 -1.50700 24.70800
H  25.15400 -0.60600 23.82500
H  28.64400 2.49900 26.16600
H  27.85600 2.35100 24.65900
H  29.97800 1.48200 23.95900
H  30.05500 0.30200 25.31700
H  30.49800 1.98500 25.58500
H  32.07500 -0.18600 30.57900
H  31.90000 0.41100 28.91300
H  31.42500 -1.28900 29.35600
H  29.13400 1.72300 34.22200
H  29.75800 -0.62700 37.82700
H  29.73500 -1.92200 36.55800
H  28.22700 -1.27600 37.21100

