158

Mg 2.11100 -1.98500 44.39300
C  5.46200 -1.27000 43.72600
C  1.29400 0.75800 42.33300
C  -1.08000 -3.02200 44.42000
C  3.20000 -4.90000 46.06600
N  3.22100 -0.43900 43.16400
C  4.58400 -0.40700 43.00400
C  5.00700 0.73300 42.08200
C  3.62900 1.46200 41.75700
C  2.63500 0.54300 42.50400
C  3.55900 2.91200 42.07400
C  5.75800 0.32500 40.80500
C  7.11000 1.07600 40.59800
H  7.08600 1.99100 39.36400
N  0.32900 -1.23500 43.41400
C  0.18300 -0.07100 42.70800
C  -1.20500 0.08700 42.42900
C  -1.95600 -0.94600 43.09800
C  -0.87600 -1.78400 43.64600
C  -1.77300 1.19600 41.55800
C  -3.44600 -1.15300 43.10300
O  -4.14200 -0.45500 42.39600
C  -4.11800 -2.27700 43.82700
N  1.17000 -3.69300 45.19100
C  -0.11500 -3.91900 45.02700
C  -0.42600 -5.26100 45.62900
C  0.96800 -5.89600 45.97900
C  1.85100 -4.74700 45.73100
C  -1.33700 -5.14400 46.84000
C  1.35200 -7.10100 45.01600
C  1.07600 -8.54900 45.42600
N  3.98500 -2.91100 44.92300
C  4.31900 -4.07200 45.61900
C  5.72900 -4.16100 45.88600
C  6.23800 -3.04400 45.17100
C  5.09500 -2.36100 44.50400
C  6.46900 -5.34200 46.58200
C  7.43600 -2.33500 44.81600
O  8.55000 -2.63500 45.12400
C  6.99400 -1.21100 43.81500
C  7.58100 0.15200 44.28500
O  7.35300 0.68400 45.37400
O  8.42200 0.67000 43.32700
C  9.09000 1.91400 43.82100
H  0.88100 1.65900 41.87400
H  -2.05800 -3.43800 44.67100
H  3.51600 -5.78100 46.62700
H  5.60200 1.45500 42.64300
H  3.36700 1.36600 40.70400
H  2.57300 3.00600 42.52900
H  3.65500 3.53100 41.18200
H  4.36300 3.19600 42.75200
H  5.15800 0.43300 39.90200
H  5.82800 -0.75000 40.97400
H  7.89900 0.32700 40.53400
H  7.41300 1.81600 41.33900
H  -0.92500 1.63500 41.03300
H  -2.38300 1.94600 42.06200
H  -2.33900 0.75000 40.74000
H  -3.82800 -2.31500 44.87700
H  -3.77700 -3.20100 43.35900
H  -5.20500 -2.34500 43.77900
H  -0.90000 -5.86800 44.85700
H  1.13500 -6.22300 47.00500
H  -1.65300 -4.10100 46.87400
H  -0.80500 -5.46900 47.73400
H  -2.21000 -5.78000 46.68900
H  2.40600 -7.18600 44.75300
H  0.78200 -6.86100 44.11900
H  2.04100 -9.03200 45.58400
H  0.66000 -9.18600 44.64500
H  0.53000 -8.48400 46.36700
H  5.93800 -5.46500 47.52500
H  7.47200 -5.00700 46.84900
H  6.37100 -6.19800 45.91400
H  7.37100 -1.47100 42.82600
H  10.02100 2.11400 43.29000
H  9.17400 2.01400 44.90300
H  8.39600 2.70100 43.52600
Mg 24.44600 -6.38200 47.07900
C  27.07400 -4.15400 46.02000
C  22.43800 -4.63300 44.76600
C  22.02900 -8.65600 47.42700
C  26.71400 -8.30300 48.77100
N  24.76800 -4.60500 45.56300
C  25.89600 -3.86200 45.31200
C  25.69300 -2.83700 44.28900
C  24.14100 -2.77800 44.29500
C  23.70700 -4.07800 44.92900
C  23.46600 -1.62800 45.04200
C  26.30400 -3.35200 42.99200
C  27.31500 -2.38800 42.23900
H  27.17300 -1.96300 40.77300
N  22.45300 -6.56900 46.21900
C  21.86600 -5.75400 45.33800
C  20.50300 -6.22300 45.09000
C  20.32900 -7.41500 45.87400
C  21.61100 -7.60300 46.56200
C  19.46900 -5.70300 44.10600
C  19.13300 -8.32000 45.85700
O  18.23300 -8.24600 45.03600
C  18.86900 -9.30000 46.99900
N  24.38000 -8.21200 47.97600
C  23.25800 -8.92000 48.08600
C  23.54700 -10.32500 48.65300
C  24.91500 -10.12700 49.23700
C  25.40200 -8.76600 48.73300
C  22.50400 -10.91800 49.63600
C  25.94000 -11.28800 48.90000
C  26.71500 -11.73900 50.11700
N  26.49600 -6.23900 47.45200
C  27.26400 -7.10100 48.25600
C  28.58500 -6.56200 48.28900
C  28.57000 -5.40600 47.47800
C  27.26300 -5.24900 46.90500
C  29.73400 -7.18200 49.05900
C  29.45100 -4.36700 46.95700
O  30.62500 -4.07400 47.12000
C  28.48700 -3.50800 45.94000
C  28.55000 -2.10900 46.38500
O  28.34200 -1.61400 47.48000
O  28.94400 -1.44000 45.26800
C  28.78300 0.03500 45.29600
H  21.72600 -4.05300 44.17600
H  21.19400 -9.30800 47.69100
H  27.41400 -8.96700 49.28200
H  26.05200 -1.86000 44.61300
H  23.72500 -2.80000 43.28800
H  24.25100 -0.96800 45.41200
H  22.77000 -1.90500 45.83400
H  22.94200 -1.05300 44.28000
H  25.52900 -3.49700 42.24000
H  26.82900 -4.29200 43.15900
H  28.14400 -3.09500 42.23800
H  27.70600 -1.62900 42.91700
H  19.63900 -4.67200 43.79700
H  18.48800 -5.68800 44.58200
H  19.48300 -6.33000 43.21500
H  17.84600 -9.65300 47.12800
H  19.08400 -8.76600 47.92500
H  19.51500 -10.14000 46.74300
H  23.60500 -10.98600 47.78800
H  24.84600 -10.01000 50.31900
H  22.11700 -11.84700 49.21700
H  21.73700 -10.18500 49.88500
H  22.99500 -11.30600 50.52800
H  26.54400 -10.99000 48.04200
H  25.40800 -12.19800 48.62200
H  27.62200 -11.18700 50.36300
H  27.07800 -12.73700 49.86900
H  26.08600 -11.88800 50.99500
H  29.39300 -7.92100 49.78400
H  30.13700 -6.36400 49.65500
H  30.52800 -7.58700 48.43100
H  28.92000 -3.63000 44.94700
H  28.93300 0.34100 44.26100
H  29.35100 0.54600 46.07200
H  27.74100 0.04100 45.61600

