158

Mg 17.43900 52.18600 26.45800
C  19.63800 50.77700 28.76700
C  15.38900 53.05600 28.98100
C  15.42100 53.47700 24.15300
C  19.58800 51.02400 23.90000
N  17.51400 51.93500 28.61800
C  18.56600 51.40500 29.40600
C  18.22300 51.39200 30.87100
C  16.64500 51.78200 30.83300
C  16.50300 52.31600 29.41500
C  15.60200 50.71200 31.23600
C  19.12600 52.42200 31.53500
C  19.14600 52.54100 33.05700
H  18.09500 51.66000 33.84700
N  15.63300 53.23500 26.56000
C  14.96600 53.50100 27.70500
C  13.83300 54.31600 27.40200
C  13.91400 54.57800 26.02300
C  14.97800 53.74200 25.50400
C  12.98700 54.89600 28.52800
C  13.06600 55.42200 25.13700
O  13.37800 55.55300 23.97300
C  11.82500 56.06300 25.59900
N  17.32900 51.88300 24.30000
C  16.46700 52.71300 23.62000
C  16.80700 52.79600 22.11400
C  18.21900 52.14200 22.08100
C  18.38200 51.63600 23.54400
C  15.70500 52.05100 21.27800
C  19.48300 53.11300 21.82800
C  20.55700 52.60700 20.79000
N  19.17000 50.98900 26.31500
C  19.94100 50.68500 25.22300
C  21.05900 49.91400 25.66600
C  20.99900 49.89700 27.01900
C  19.84600 50.62800 27.41100
C  22.19800 49.50700 24.75700
C  21.67600 49.39300 28.23800
O  22.65300 48.76400 28.49500
C  20.87700 50.10900 29.43300
C  20.52000 48.93400 30.33100
O  19.78100 48.00000 30.06100
O  21.11500 49.08400 31.50700
C  20.53700 48.25000 32.58700
H  14.76200 53.39500 29.80800
H  14.98900 54.09900 23.36600
H  20.12100 50.62000 23.03700
H  18.33100 50.46100 31.42800
H  16.44500 52.60700 31.51700
H  14.91700 50.60000 30.39400
H  15.08500 51.08400 32.12000
H  16.09900 49.80600 31.58200
H  18.74600 53.40100 31.24400
H  20.17400 52.34000 31.24700
H  18.98300 53.58900 33.31000
H  20.14200 52.27900 33.41500
H  12.40800 54.08200 28.96400
H  12.22400 55.54400 28.09700
H  13.56800 55.40600 29.29800
H  11.31100 55.26500 26.13500
H  11.17500 56.43200 24.80600
H  12.06100 56.95300 26.18100
H  16.85800 53.83900 21.80000
H  18.16900 51.32600 21.36000
H  16.23900 51.30000 20.69600
H  15.15800 52.72600 20.62000
H  14.91800 51.65000 21.91700
H  19.94800 53.43600 22.76000
H  19.07400 54.06100 21.47700
H  21.45900 52.32100 21.33200
H  20.83800 53.36700 20.06200
H  20.16700 51.69500 20.33800
H  23.13600 49.89900 25.15300
H  22.17500 49.79900 23.70800
H  22.23200 48.41800 24.78600
H  21.53800 50.76200 30.00300
H  19.46800 48.41600 32.71600
H  21.00300 48.45700 33.55100
H  20.71400 47.20500 32.33200
Mg 1.15800 43.39800 26.97000
C  3.74600 43.09200 29.25400
C  -1.21700 43.00200 29.35200
C  -1.13000 42.94100 24.49100
C  3.70300 43.45500 24.35800
N  1.25700 42.89300 29.07700
C  2.37400 43.06100 29.76800
C  2.02400 43.11900 31.25500
C  0.49700 42.86200 31.32400
C  0.13100 42.98800 29.83500
C  0.06800 41.52400 31.83100
C  2.41400 44.50500 31.91100
C  2.02300 44.59000 33.38300
H  1.66300 43.27400 34.14300
N  -0.90900 42.95800 26.90500
C  -1.70400 42.97100 28.00600
C  -3.08300 42.70900 27.55300
C  -3.11800 42.61700 26.13900
C  -1.67200 42.82900 25.78500
C  -4.24200 42.55300 28.53500
C  -4.27500 42.35000 25.20000
O  -4.12100 42.24700 24.00800
C  -5.65800 42.09000 25.71600
N  1.29400 43.25700 24.75000
C  0.18000 43.08600 23.97000
C  0.47300 43.17300 22.50000
C  2.01300 43.44800 22.44400
C  2.40600 43.42300 23.90900
C  -0.04000 42.06400 21.59400
C  2.51200 44.80800 21.81600
C  1.96800 46.11100 22.47100
N  3.27800 43.31500 26.84200
C  4.16300 43.34700 25.68000
C  5.53000 43.28200 26.21600
C  5.40900 43.20800 27.61900
C  4.06500 43.22700 27.92900
C  6.75900 43.45100 25.45400
C  6.16500 43.14600 28.80100
O  7.37400 43.14500 28.90100
C  5.04800 43.16000 29.94900
C  5.32900 42.01600 30.95500
O  4.99600 40.86500 30.68700
O  5.60700 42.49900 32.27600
C  5.51500 41.50100 33.27700
H  -1.99700 43.11700 30.10700
H  -1.89900 42.87000 23.71900
H  4.40800 43.51100 23.52600
H  2.54000 42.22500 31.60300
H  -0.00100 43.68000 31.84500
H  -0.53400 40.98300 31.10200
H  -0.65500 41.48300 32.64600
H  0.95300 40.92000 32.02800
H  1.67200 45.10400 31.38300
H  3.41700 44.89000 31.72700
H  1.20400 45.30700 33.43500
H  2.96700 44.75900 33.90100
H  -3.85300 42.45600 29.54800
H  -4.51400 41.51400 28.34900
H  -5.12800 43.16000 28.35000
H  -5.97700 42.94500 26.31400
H  -5.67600 41.15800 26.28000
H  -6.27100 41.88500 24.83800
H  -0.08400 44.02200 22.10400
H  2.59300 42.61800 22.04000
H  -0.58100 41.33400 22.19600
H  0.75600 41.70000 20.94400
H  -0.74600 42.50900 20.89300
H  2.23100 44.76800 20.76400
H  3.59500 44.79500 21.69500
H  1.36700 46.59800 21.70400
H  2.81500 46.75200 22.71900
H  1.37100 45.89500 23.35800
H  6.68800 44.34000 24.82700
H  7.13700 42.63700 24.83500
H  7.49900 43.69300 26.21700
H  5.26100 44.11500 30.43000
H  4.50100 41.10300 33.23800
H  5.75900 41.94000 34.24500
H  6.11600 40.60300 33.13300

