158

Mg 41.01400 8.64600 31.48200
C  43.14600 9.89200 33.88000
C  38.69900 8.13300 33.85000
C  39.12300 7.40400 29.03200
C  43.68300 8.96200 29.08800
N  40.91500 9.09000 33.60500
C  41.91700 9.59800 34.42200
C  41.33000 9.76900 35.85000
C  39.94500 9.11000 35.78000
C  39.85600 8.70700 34.34000
C  39.64900 7.99500 36.83900
C  41.27200 11.26700 36.23800
C  40.25800 11.71700 37.30700
H  40.79300 12.73900 38.25400
N  39.25900 7.82300 31.45800
C  38.41100 7.68000 32.49200
C  37.13600 6.99400 32.11000
C  37.21900 6.85400 30.69800
C  38.55800 7.43000 30.30300
C  36.02600 6.47900 33.06100
C  36.20300 6.21300 29.74000
O  36.38600 6.04300 28.55500
C  34.79500 5.79800 30.23300
N  41.41300 8.04600 29.36500
C  40.39300 7.69700 28.60100
C  40.78500 7.43700 27.20000
C  42.25800 7.90700 27.16800
C  42.57900 8.17300 28.63000
C  40.72100 5.88700 26.63900
C  42.48400 9.18400 26.22000
C  41.74800 10.44900 26.67000
N  43.01700 9.27700 31.46100
C  43.88500 9.48300 30.41600
C  45.05300 10.13900 30.90400
C  44.76100 10.38300 32.26400
C  43.56400 9.82100 32.55700
C  46.35200 10.51200 30.25000
C  45.37400 10.77900 33.52400
O  46.48500 11.20600 33.74300
C  44.34400 10.51300 34.69100
C  44.92300 9.59800 35.62300
O  44.75300 8.36900 35.52600
O  45.53800 10.20000 36.66400
C  45.85000 9.42500 37.84000
H  37.99800 7.85200 34.63900
H  38.36500 7.15800 28.28500
H  44.45300 9.13500 28.33300
H  41.89700 9.20000 36.58700
H  39.15900 9.85700 35.88500
H  38.76800 8.17000 37.45600
H  40.41600 7.90100 37.60700
H  39.53100 7.04900 36.31000
H  40.98900 11.79900 35.33000
H  42.27200 11.58000 36.53700
H  39.72000 10.94200 37.85200
H  39.62200 12.42400 36.77300
H  35.20500 7.18500 32.93400
H  36.31300 6.59000 34.10600
H  35.80400 5.43400 32.84400
H  34.37600 6.74500 30.57400
H  34.94100 5.02600 30.98800
H  34.01400 5.47500 29.54500
H  40.18100 7.93100 26.44000
H  42.99800 7.12800 26.98700
H  40.36900 5.14200 27.35300
H  41.72100 5.53300 26.38900
H  40.03600 5.85600 25.79100
H  41.91800 8.90100 25.33200
H  43.51800 9.46600 26.02200
H  42.38400 11.28300 26.37500
H  41.63700 10.51300 27.75300
H  40.75400 10.46600 26.22300
H  46.78900 9.84000 29.51200
H  47.10400 10.71000 31.01300
H  46.20500 11.47000 29.75000
H  44.09700 11.45800 35.17600
H  46.92200 9.51000 38.02000
H  45.65300 8.36700 37.66100
H  45.26400 9.73300 38.70600
Mg -12.96000 15.65800 41.99000
C  -9.89000 14.22800 41.67400
C  -11.61800 18.61700 40.39200
C  -16.05600 17.07000 41.72700
C  -14.29300 12.69600 42.99700
N  -10.91400 16.29700 41.19100
C  -9.79300 15.53600 41.18700
C  -8.59700 16.14800 40.42600
C  -9.18300 17.57800 40.08900
C  -10.71600 17.49300 40.52300
C  -8.44500 18.78100 40.75800
C  -8.43700 15.27800 39.14200
C  -7.01400 14.91100 38.73000
H  -6.34200 15.81700 37.67400
N  -13.73800 17.61700 41.31200
C  -13.00000 18.64800 40.72600
C  -13.90200 19.66700 40.33800
C  -15.22100 19.17100 40.51000
C  -15.05900 17.91700 41.24800
C  -13.47800 20.94000 39.57500
C  -16.54300 19.83000 40.14100
O  -16.60200 20.99600 39.75800
C  -17.90700 19.15300 40.31500
N  -14.89300 14.96400 42.30400
C  -16.01400 15.75400 42.25400
C  -17.25900 14.85100 42.60800
C  -16.69800 13.38900 42.82800
C  -15.17800 13.67100 42.72700
C  -18.10500 15.35500 43.84000
C  -17.31700 12.25500 41.93100
C  -17.63700 10.89700 42.51600
N  -12.33300 13.84200 42.29100
C  -12.94700 12.68700 42.84100
C  -11.97700 11.62100 43.12400
C  -10.73900 12.21800 42.72200
C  -11.01200 13.55200 42.20200
C  -12.19400 10.21700 43.64900
C  -9.35600 12.06600 42.73300
O  -8.73600 11.07100 43.16800
C  -8.74600 13.21200 41.89200
C  -7.60800 13.76000 42.67800
O  -7.60600 14.17500 43.79700
O  -6.51300 13.82300 41.87300
C  -5.27300 14.36900 42.52100
H  -11.27600 19.53800 39.91500
H  -17.12000 17.31300 41.76600
H  -14.70600 11.81600 43.49400
H  -7.68900 16.12800 41.02900
H  -9.12800 17.77300 39.01800
H  -7.39200 18.62200 40.98600
H  -8.79800 18.92200 41.77900
H  -8.63100 19.73700 40.26800
H  -8.76800 15.87500 38.29200
H  -9.10300 14.42600 39.00400
H  -7.01600 13.91400 38.29100
H  -6.32100 14.81700 39.56600
H  -14.27700 21.27900 38.91600
H  -12.65100 20.84200 38.87200
H  -13.18800 21.77500 40.21200
H  -17.82100 18.24800 39.71400
H  -18.61500 19.88100 39.91800
H  -18.11100 19.11900 41.38500
H  -17.90300 14.93700 41.73300
H  -16.96800 13.06200 43.83200
H  -18.64900 14.59900 44.40600
H  -18.91400 16.04600 43.60500
H  -17.31100 15.73900 44.48200
H  -16.89700 12.15000 40.93100
H  -18.25100 12.74100 41.64900
H  -17.28600 10.15100 41.80200
H  -18.68900 10.68500 42.70900
H  -17.07500 10.80400 43.44500
H  -12.56600 10.15300 44.67200
H  -11.28800 9.62400 43.52500
H  -13.00200 9.80600 43.04400
H  -8.40400 12.77700 40.95300
H  -4.64800 13.56400 42.90600
H  -5.47500 15.18600 43.21300
H  -4.69400 14.85400 41.73500

