158

Mg 0.53400 42.45700 26.23900
C  1.83300 42.41800 29.51700
C  -2.28400 41.12700 27.37800
C  -0.21500 41.64800 23.11200
C  3.97800 43.09800 25.15500
N  -0.06300 41.77800 28.17100
C  0.48100 42.02600 29.40300
C  -0.45400 41.87200 30.58500
C  -1.72900 41.21800 29.89800
C  -1.38600 41.36300 28.37400
C  -1.97400 39.66400 30.15300
C  -0.80800 43.29800 31.21600
C  -0.50000 43.49400 32.75000
H  -0.71000 42.37500 33.74700
N  -1.14400 41.71900 25.34100
C  -2.26400 41.20600 26.00900
C  -3.28300 40.94100 25.00700
C  -2.61000 41.01200 23.70500
C  -1.27300 41.49500 23.97800
C  -4.69300 40.50300 25.46300
C  -3.22700 40.55800 22.34000
O  -2.59300 40.71300 21.33000
C  -4.71100 40.24300 22.30600
N  1.79700 42.27600 24.44700
C  1.13700 42.05700 23.27000
C  2.05700 42.37200 22.08800
C  3.22900 43.21100 22.71800
C  2.98300 42.87000 24.22300
C  2.32800 41.11200 21.17700
C  3.27200 44.81200 22.45700
C  4.11600 45.16700 21.21400
N  2.50700 42.76300 27.13200
C  3.76000 43.11100 26.56100
C  4.74400 43.17400 27.62500
C  4.07100 42.94200 28.84500
C  2.69700 42.68400 28.44400
C  6.19900 43.43300 27.54700
C  4.16900 42.88000 30.26800
O  5.13000 43.03600 31.03000
C  2.68500 42.68900 30.71900
C  2.83900 41.56600 31.64300
O  3.00200 40.39100 31.30300
O  3.01000 42.00700 32.95400
C  3.25000 40.94800 33.97400
H  -3.21000 40.80500 27.85800
H  -0.42300 41.33800 22.08600
H  4.95900 43.43400 24.81200
H  0.07300 41.28200 31.33500
H  -2.66900 41.74100 30.07600
H  -1.61900 39.35700 31.13700
H  -1.52600 39.04400 29.37700
H  -3.03800 39.44700 30.04800
H  -1.87600 43.44800 31.05200
H  -0.31800 44.09000 30.65000
H  -1.02300 44.37600 33.12000
H  0.57700 43.63700 32.82900
H  -4.88600 40.85900 26.47500
H  -4.66500 39.41300 25.47100
H  -5.54300 40.98700 24.98200
H  -4.93600 39.39900 22.95800
H  -4.97600 39.88000 21.31300
H  -5.32500 41.08000 22.63800
H  1.58000 43.13500 21.47400
H  4.15200 42.72100 22.40900
H  1.99700 40.27000 21.78500
H  3.37700 41.05700 20.88500
H  1.78800 41.21800 20.23600
H  3.55100 45.41400 23.32200
H  2.27200 45.09000 22.12200
H  3.53500 45.73300 20.48600
H  4.56400 44.26500 20.79700
H  4.88300 45.83900 21.59900
H  6.38100 44.48900 27.74500
H  6.65500 43.12300 26.60600
H  6.77400 42.87400 28.28600
H  2.33600 43.56400 31.26700
H  2.92700 39.96700 33.62500
H  2.66300 41.07300 34.88400
H  4.29600 40.79100 34.23700
Mg -5.82900 25.44600 25.98700
C  -4.26500 26.65200 28.93800
C  -7.82300 23.51700 28.13300
C  -6.98000 23.83100 23.32100
C  -3.49600 27.12900 24.12200
N  -5.92200 25.15500 28.27300
C  -5.30100 25.78900 29.24300
C  -5.78300 25.36600 30.66400
C  -6.66400 24.15100 30.33200
C  -6.82300 24.23600 28.80100
C  -6.19400 22.89800 30.99200
C  -6.47700 26.53600 31.36600
C  -6.23500 26.81700 32.83800
H  -6.16800 25.52500 33.72700
N  -7.25600 23.91800 25.74700
C  -7.97500 23.28800 26.73600
C  -9.01200 22.50600 26.14800
C  -8.76000 22.53000 24.73900
C  -7.62700 23.43400 24.53000
C  -10.19800 21.84700 26.95600
C  -9.46900 21.70200 23.67200
O  -9.09200 21.68800 22.48500
C  -10.76000 20.98400 24.05300
N  -5.30400 25.51500 24.02200
C  -5.94600 24.81600 23.10900
C  -5.36300 24.98900 21.67600
C  -4.25100 26.04900 21.92000
C  -4.37200 26.27200 23.45000
C  -4.95100 23.77700 20.88800
C  -4.63600 27.45900 21.21700
C  -3.83200 27.64500 19.86900
N  -4.20200 26.72900 26.37500
C  -3.30400 27.33100 25.51200
C  -2.31300 28.06200 26.31800
C  -2.64300 27.86700 27.65100
C  -3.78400 27.01100 27.61600
C  -1.11700 28.91100 25.81600
C  -2.28800 28.18100 29.03300
O  -1.43900 28.92200 29.55400
C  -3.29900 27.35100 29.91600
C  -2.50700 26.45900 30.75900
O  -1.84200 25.55900 30.32700
O  -2.44300 26.96100 32.03100
C  -1.33400 26.52200 32.91700
H  -8.51000 23.09900 28.87300
H  -7.29900 23.38500 22.37700
H  -2.70700 27.60700 23.53800
H  -4.84100 25.07700 31.12900
H  -7.62600 24.29800 30.82200
H  -5.54600 23.15100 31.83100
H  -5.60600 22.32300 30.27600
H  -7.01200 22.26700 31.33800
H  -7.56000 26.49000 31.24900
H  -6.17000 27.43200 30.82500
H  -6.97900 27.46400 33.30200
H  -5.24100 27.26000 32.90100
H  -11.08900 22.28700 26.50800
H  -10.17000 22.24900 27.96900
H  -10.18600 20.78500 26.71100
H  -11.27500 20.66000 23.14800
H  -11.41100 21.75300 24.46800
H  -10.68100 20.13900 24.73700
H  -6.17500 25.38600 21.06500
H  -3.23200 25.73600 21.69000
H  -5.66300 22.95400 20.81400
H  -4.02400 23.42000 21.33800
H  -4.69300 24.09700 19.87900
H  -4.37300 28.33200 21.81300
H  -5.71300 27.50400 21.05100
H  -3.52600 26.77100 19.29300
H  -3.05100 28.39200 20.01800
H  -4.51600 28.23300 19.25700
H  -0.79700 28.48100 24.86700
H  -0.20300 28.85500 26.40800
H  -1.39600 29.95700 25.69000
H  -3.97200 27.97700 30.50100
H  -1.71000 25.56000 33.26600
H  -1.13300 27.20700 33.74100
H  -0.40000 26.34600 32.38200

