158

Mg 35.69400 47.86700 25.64400
C  35.51400 46.35800 28.79400
C  34.27500 50.74800 27.06500
C  35.29300 49.30600 22.42900
C  36.71400 44.95500 24.24100
N  34.84300 48.42700 27.65000
C  35.13800 47.74400 28.84000
C  34.94600 48.63100 30.11400
C  34.36800 49.98000 29.47100
C  34.49000 49.70000 27.97300
C  32.83100 50.36800 29.79300
C  36.28400 48.79500 30.88700
C  36.36700 48.31700 32.36200
H  35.10200 48.16300 33.20700
N  34.91400 49.82500 24.79700
C  34.36600 50.82400 25.63200
C  34.00900 51.92300 24.71600
C  34.36500 51.49700 23.39900
C  34.84500 50.13900 23.46700
C  33.52400 53.28900 25.16900
C  34.18200 52.28400 22.07300
O  34.40500 51.78300 21.00100
C  33.76000 53.62800 22.02500
N  35.83100 47.19400 23.65500
C  35.81000 48.00700 22.51600
C  36.46700 47.37700 21.32200
C  37.06200 46.07700 21.87100
C  36.54600 46.06600 23.38900
C  35.53900 47.12200 20.10000
C  38.62000 46.01600 21.94300
C  39.25400 46.23000 20.56300
N  36.15900 46.04900 26.31600
C  36.51800 44.89100 25.64300
C  36.69800 43.78300 26.62500
C  36.17700 44.34400 27.84000
C  35.96000 45.68400 27.62000
C  37.27800 42.40200 26.30900
C  36.05100 44.02500 29.26600
O  36.27600 43.06200 29.93800
C  35.49600 45.32900 29.87400
C  34.16700 45.16500 30.54600
O  33.06400 45.12200 30.01800
O  34.39000 45.02900 31.86800
C  33.15200 44.85300 32.62800
H  33.92700 51.68800 27.49800
H  35.42100 49.84800 21.49000
H  37.14100 44.05200 23.80000
H  34.26000 48.05800 30.73700
H  34.99800 50.85200 29.64400
H  32.57100 49.82000 30.69900
H  32.14700 50.06000 29.00300
H  32.76600 51.45200 29.89400
H  36.58000 49.84300 30.83100
H  37.03100 48.28300 30.28100
H  36.99100 48.93000 33.01300
H  36.95600 47.40200 32.29700
H  34.23700 54.00100 24.75400
H  33.60400 53.44700 26.24500
H  32.52600 53.58500 24.84600
H  32.88300 53.82300 22.64300
H  33.49300 53.82300 20.98600
H  34.52200 54.34200 22.33700
H  37.15600 48.14600 20.97200
H  36.60400 45.27100 21.29900
H  35.92000 46.27300 19.53200
H  35.47700 48.05500 19.54000
H  34.53000 46.78800 20.34300
H  38.91700 45.02700 22.29300
H  38.90600 46.78200 22.66300
H  38.47500 46.34800 19.80900
H  39.85000 45.39600 20.19300
H  39.85800 47.10200 20.81300
H  37.81300 42.44600 25.36100
H  36.56600 41.59600 26.12900
H  37.87900 42.24800 27.20500
H  36.24800 45.52200 30.63900
H  32.43900 44.08200 32.33300
H  32.72900 45.84300 32.79900
H  33.29800 44.50700 33.65100
Mg -1.91200 35.38900 26.33600
C  -3.85600 33.99700 28.94300
C  -0.97900 37.88200 28.56200
C  0.10100 36.63800 23.95600
C  -3.25300 33.12700 24.10200
N  -2.30300 35.72100 28.62700
C  -3.19600 35.08500 29.48200
C  -3.24200 35.76600 30.90700
C  -2.49500 37.06300 30.55900
C  -1.86700 36.90900 29.15900
C  -3.59600 38.20300 30.62400
C  -2.55600 34.83000 31.98000
C  -3.34600 34.60100 33.32200
H  -2.53500 34.25300 34.52300
N  -0.58500 36.99900 26.28300
C  -0.39200 37.95900 27.29200
C  0.59200 38.85200 26.90000
C  0.92100 38.53400 25.54200
C  0.17500 37.31600 25.16400
C  0.97100 40.05100 27.82200
C  1.83300 39.19000 24.53100
O  1.95100 39.02200 23.35200
C  2.60000 40.28700 25.03300
N  -1.80700 35.12500 24.26600
C  -0.80700 35.65900 23.50700
C  -0.87400 35.21600 22.09100
C  -1.66000 33.86600 22.28800
C  -2.35300 34.01800 23.63600
C  -1.62100 36.19200 21.12700
C  -0.70300 32.62900 22.30800
C  -1.33700 31.43900 21.57800
N  -3.22400 33.78200 26.45200
C  -3.76900 33.00400 25.44800
C  -4.54200 31.98400 26.08100
C  -4.72000 32.36000 27.46000
C  -3.83700 33.47900 27.63700
C  -5.35900 30.92900 25.31500
C  -5.29900 31.91300 28.70400
O  -6.06900 30.98600 29.04300
C  -4.78500 33.05000 29.71100
C  -5.86100 33.80100 30.48900
O  -6.40100 34.87200 30.18600
O  -5.93500 33.21900 31.77600
C  -6.99800 33.65700 32.71100
H  -0.56000 38.58900 29.28200
H  0.65000 36.95200 23.06600
H  -3.58600 32.28600 23.49100
H  -4.26100 35.96000 31.24400
H  -1.77700 37.22800 31.36200
H  -4.63600 37.92300 30.79400
H  -3.51400 38.83800 29.74200
H  -3.20400 38.89700 31.36800
H  -1.54900 35.17000 32.21900
H  -2.44100 33.81900 31.58900
H  -4.02300 33.76000 33.17000
H  -3.73400 35.60700 33.48200
H  0.92100 40.99000 27.27100
H  2.02100 39.93100 28.08800
H  0.30900 40.27000 28.66100
H  2.82300 40.09000 26.08100
H  1.92000 41.13200 24.91800
H  3.53600 40.39500 24.48500
H  0.16100 35.07000 21.78200
H  -2.42100 33.74500 21.51800
H  -1.43300 35.78500 20.13400
H  -1.16200 37.17100 21.26600
H  -2.68600 36.17100 21.35800
H  -0.72700 32.34900 23.36100
H  0.32000 32.74200 21.94600
H  -0.63200 30.89100 20.95300
H  -2.23000 31.63000 20.98400
H  -1.63000 30.69900 22.32200
H  -4.76000 30.30900 24.64700
H  -6.10100 31.41400 24.68100
H  -5.84500 30.25400 26.01900
H  -4.21800 32.61500 30.53400
H  -7.32200 32.78800 33.28300
H  -7.91400 34.04100 32.26300
H  -6.57300 34.47100 33.29800

