158

Mg 48.32800 24.38300 29.00600
C  49.33800 26.77100 31.39500
C  47.60900 22.23600 31.58200
C  47.49300 22.09500 26.62900
C  49.32900 26.63200 26.51000
N  48.58700 24.47900 31.19600
C  48.74000 25.62500 31.95600
C  48.40200 25.34700 33.41600
C  47.99500 23.83900 33.41100
C  48.02500 23.49000 31.92000
C  48.91300 22.88300 34.19500
C  47.31800 26.41900 33.85600
C  46.70400 26.20000 35.26400
H  47.03600 27.16600 36.47300
N  47.66000 22.45700 29.06100
C  47.40300 21.78600 30.21700
C  46.85200 20.48300 29.88100
C  46.77600 20.42100 28.40500
C  47.34300 21.67200 27.92200
C  46.44300 19.41600 30.87600
C  46.24000 19.33800 27.42800
O  46.30500 19.40800 26.18200
C  45.56200 18.20500 27.93700
N  48.45400 24.28300 26.86600
C  48.02800 23.27800 26.13300
C  48.23100 23.52200 24.65000
C  48.65100 25.05700 24.63600
C  48.82600 25.37100 26.07100
C  49.28100 22.59200 23.97500
C  47.66500 26.05700 23.85900
C  48.43000 27.17300 23.07400
N  49.16900 26.26800 28.89100
C  49.45300 27.09300 27.81600
C  50.12100 28.35700 28.25100
C  50.09600 28.28000 29.66800
C  49.51100 26.99600 30.00800
C  50.75300 29.47200 27.46900
C  50.31600 28.98000 30.93700
O  50.84400 30.11300 31.06500
C  49.78100 28.08700 32.02500
C  50.80000 27.85300 33.09100
O  51.73500 27.05400 33.06900
O  50.69700 28.73600 34.10200
C  51.50000 28.56300 35.23000
H  47.32500 21.48800 32.32500
H  47.19600 21.38300 25.85600
H  49.60100 27.25500 25.65600
H  49.27100 25.65100 34.00000
H  46.93300 23.70200 33.61400
H  49.75500 23.36000 34.69600
H  49.47700 22.16100 33.60400
H  48.35800 22.29500 34.92500
H  46.57600 26.55900 33.07000
H  47.79300 27.40000 33.87700
H  46.92700 25.18200 35.58500
H  45.63300 26.30000 35.08900
H  45.42800 19.10400 30.63100
H  46.36200 19.82100 31.88500
H  46.89400 18.42400 30.90000
H  46.18600 17.60900 28.60300
H  45.23700 17.61000 27.08300
H  44.66100 18.53800 28.45200
H  47.33500 23.47900 24.03200
H  49.57400 25.11600 24.06000
H  50.23800 22.99000 23.63400
H  48.87200 22.08000 23.10400
H  49.36900 21.77600 24.69200
H  47.11200 26.65800 24.58100
H  46.99800 25.47900 23.22000
H  48.24300 28.16900 23.47400
H  48.15900 27.23700 22.02000
H  49.50400 26.99200 23.02500
H  50.81000 29.24200 26.40500
H  51.76200 29.75300 27.77300
H  50.05900 30.26200 27.75700
H  48.97900 28.70900 32.42200
H  52.19100 29.39800 35.34600
H  52.23100 27.75500 35.25000
H  50.78500 28.53500 36.05200
Mg -11.72700 39.32100 41.58100
C  -10.34600 36.54800 40.25400
C  -9.39300 41.34400 39.93200
C  -13.88600 42.00900 41.75100
C  -14.41100 37.32200 42.73000
N  -10.12800 38.96100 40.21600
C  -9.68400 37.71300 39.94700
C  -8.34000 37.74000 39.21100
C  -8.00000 39.25400 39.08600
C  -9.24200 39.94000 39.77700
C  -6.68400 39.60500 39.70900
C  -8.45500 37.01600 37.86700
C  -7.49100 35.78400 37.55500
H  -6.54700 36.05500 36.34300
N  -11.47500 41.47400 41.21900
C  -10.43200 42.08200 40.51600
C  -10.75000 43.51600 40.47000
C  -12.06600 43.70700 41.03400
C  -12.52600 42.37200 41.41900
C  -9.76900 44.41300 39.85800
C  -12.75600 45.15800 41.27600
O  -12.36200 46.11400 40.69900
C  -13.80400 45.30300 42.28900
N  -13.89100 39.68300 42.30400
C  -14.43200 40.91300 42.31800
C  -15.92000 40.80300 42.78400
C  -15.92600 39.33600 43.34600
C  -14.69700 38.66600 42.75600
C  -16.36200 41.91900 43.89000
C  -17.25800 38.60600 43.12400
C  -17.47500 37.92800 41.73000
N  -12.29200 37.31100 41.70900
C  -13.32100 36.60500 42.26300
C  -13.16800 35.21200 42.14400
C  -11.95100 35.11800 41.37200
C  -11.50900 36.45400 41.15300
C  -13.87000 34.05100 42.85200
C  -11.04000 34.20200 40.78900
O  -11.16400 32.97900 40.71400
C  -9.93600 35.06800 40.05100
C  -8.69100 34.66500 40.63800
O  -8.12800 33.64500 40.35000
O  -8.20200 35.56800 41.56800
C  -7.06700 35.12300 42.33700
H  -8.59300 41.83500 39.37500
H  -14.47400 42.91900 41.88400
H  -15.28300 36.75700 43.06700
H  -7.58900 37.25800 39.83800
H  -7.94300 39.49900 38.02500
H  -6.11900 38.73400 40.04000
H  -6.79600 40.34800 40.49900
H  -5.99300 39.85800 38.90500
H  -8.33200 37.72800 37.05100
H  -9.49300 36.70300 37.75400
H  -8.08200 34.88400 37.38800
H  -6.83800 35.60200 38.40900
H  -9.45300 45.04100 40.69100
H  -10.20000 45.12100 39.15000
H  -8.87000 43.95200 39.44700
H  -14.65900 45.34200 41.61400
H  -13.69600 46.25600 42.80700
H  -13.86100 44.51300 43.03800
H  -16.62100 40.86200 41.95100
H  -15.88700 39.36400 44.43500
H  -16.69300 42.87100 43.47300
H  -15.51400 42.20900 44.51100
H  -17.06800 41.38200 44.52400
H  -18.03200 39.37400 43.14600
H  -17.33800 37.91500 43.96300
H  -17.58800 36.85400 41.87900
H  -16.61500 38.05500 41.07200
H  -18.24200 38.35200 41.08300
H  -13.23000 33.52900 43.56300
H  -14.42400 33.42900 42.14800
H  -14.72900 34.44200 43.39800
H  -9.90600 34.71400 39.02100
H  -6.67600 35.91300 42.97900
H  -6.19700 34.80300 41.76300
H  -7.58300 34.48000 43.04900

