158

Mg 0.50800 43.15400 25.84400
C  1.84000 43.04900 29.08000
C  -2.43600 42.01800 27.04200
C  -0.39900 42.65700 22.68300
C  3.81400 43.85900 24.68400
N  -0.19300 42.54000 27.86900
C  0.47300 42.77100 29.07400
C  -0.50900 42.66000 30.28300
C  -1.81600 42.26900 29.57000
C  -1.48000 42.38800 28.01900
C  -2.45900 40.85900 29.86400
C  -0.66000 43.95900 31.11000
C  -0.35900 43.77600 32.60700
H  -0.77300 42.50200 33.32400
N  -1.21600 42.43200 24.95600
C  -2.35400 42.00500 25.65500
C  -3.27100 41.58200 24.64200
C  -2.72800 41.84300 23.36000
C  -1.40500 42.39100 23.61200
C  -4.76000 41.09000 24.96000
C  -3.39900 41.66800 21.98300
O  -2.86400 41.97000 20.89600
C  -4.82400 41.16000 21.83600
N  1.63800 43.24900 23.92800
C  0.93700 43.03100 22.73800
C  1.95000 42.98700 21.54800
C  3.11300 43.84200 22.20400
C  2.91000 43.58600 23.71300
C  2.19300 41.53400 20.93700
C  2.91500 45.34100 21.86900
C  3.47300 45.96500 20.55100
N  2.41100 43.60300 26.63500
C  3.65700 43.87300 26.09900
C  4.57100 43.99400 27.12800
C  3.95800 43.71100 28.33000
C  2.59000 43.51300 27.97200
C  6.03300 44.39000 26.90200
C  4.16900 43.45000 29.66200
O  5.17400 43.39200 30.34100
C  2.73000 43.14800 30.28000
C  2.86900 41.89900 31.13500
O  2.95600 40.72600 30.76600
O  3.04000 42.20600 32.45100
C  3.06300 41.09400 33.35000
H  -3.41600 41.83900 27.49000
H  -0.77100 42.47200 21.67400
H  4.80600 44.05000 24.26900
H  -0.10000 41.86700 30.90900
H  -2.65600 42.87900 29.90500
H  -1.82000 40.18800 30.43700
H  -2.70300 40.19400 29.03600
H  -3.35200 41.00800 30.47100
H  -1.61700 44.45700 30.96100
H  0.10600 44.66100 30.77900
H  -1.04400 44.44900 33.12200
H  0.62900 44.15500 32.87000
H  -5.43900 41.89100 24.67100
H  -4.70100 41.01700 26.04600
H  -5.01200 40.13800 24.49200
H  -5.50000 41.67800 22.51700
H  -4.77700 40.07300 21.78500
H  -5.05900 41.43000 20.80700
H  1.62000 43.64400 20.74300
H  4.08300 43.57000 21.78600
H  1.56400 41.34700 20.06600
H  1.82600 40.78400 21.63700
H  3.27000 41.46600 20.78300
H  3.25500 45.96400 22.69600
H  1.82700 45.38500 21.81500
H  3.94300 45.16600 19.97900
H  4.29400 46.64900 20.76900
H  2.74200 46.60800 20.06000
H  6.23300 45.30900 26.35200
H  6.55400 43.64600 26.29900
H  6.53000 44.42700 27.87200
H  2.34800 43.98200 30.86800
H  4.03200 40.59400 33.33600
H  2.28600 40.37200 33.09800
H  2.83800 41.52000 34.32800
Mg -10.76500 17.01400 40.43700
C  -7.32900 16.07900 40.61200
C  -9.90800 20.25400 39.75000
C  -14.03600 17.59700 39.48800
C  -11.55400 13.52000 40.79300
N  -8.84100 17.96200 40.18000
C  -7.55000 17.43000 40.35900
C  -6.45700 18.53800 40.10300
C  -7.31600 19.88600 40.20200
C  -8.82200 19.32400 40.04400
C  -7.13200 20.85900 41.45900
C  -5.82800 18.31800 38.71700
C  -4.48500 17.59900 38.79000
H  -4.12800 16.37900 37.92300
N  -11.82800 18.70100 39.72400
C  -11.25000 19.98400 39.58200
C  -12.31700 20.89600 39.45900
C  -13.54900 20.17200 39.41900
C  -13.23100 18.76800 39.52700
C  -12.08600 22.42000 39.26600
C  -14.93500 20.88900 39.26100
O  -15.10700 22.09600 39.07600
C  -16.11800 20.04400 39.27500
N  -12.53200 15.77200 40.31400
C  -13.75200 16.30500 39.90200
C  -14.82400 15.25300 39.84900
C  -13.97100 13.92800 40.06400
C  -12.63700 14.39000 40.47400
C  -16.06800 15.43100 40.72700
C  -14.03900 12.85600 38.95200
C  -14.10600 11.36200 39.34000
N  -9.74100 15.17500 40.77900
C  -10.15400 13.86200 40.83400
C  -9.01700 12.99800 41.23000
C  -7.93000 13.79600 41.02800
C  -8.35900 15.12600 40.81900
C  -8.96200 11.53900 41.48400
C  -6.45700 13.77400 40.97500
O  -5.62400 12.89400 41.00100
C  -6.05800 15.31300 40.98800
C  -5.44700 15.56000 42.26600
O  -4.24600 15.75400 42.36900
O  -6.29800 15.56000 43.42200
C  -5.58800 15.66000 44.67400
H  -9.51100 21.26900 39.82700
H  -15.06100 17.71600 39.12900
H  -11.97400 12.51700 40.89200
H  -5.70400 18.46700 40.88700
H  -7.12900 20.49100 39.31600
H  -6.38400 20.30600 42.02800
H  -8.10400 20.94700 41.94300
H  -6.62200 21.73700 41.06100
H  -5.63800 19.14600 38.03400
H  -6.43900 17.65300 38.10800
H  -4.18400 17.40400 39.81900
H  -3.72500 18.33600 38.53100
H  -12.48300 22.79900 38.32400
H  -11.03000 22.68400 39.22100
H  -12.40800 22.99400 40.13500
H  -17.00700 20.63800 39.05900
H  -16.12500 19.50400 40.22100
H  -16.05500 19.42500 38.38000
H  -15.17500 15.22700 38.81700
H  -14.41900 13.40500 40.90900
H  -16.15100 16.46800 41.05400
H  -16.10700 14.71200 41.54600
H  -16.84600 15.26300 39.98300
H  -13.13300 12.89900 38.34800
H  -14.90800 13.08900 38.33700
H  -15.08000 10.93500 39.09800
H  -14.00300 11.28700 40.42200
H  -13.31600 10.82600 38.81400
H  -8.07500 11.24200 42.04500
H  -8.87100 11.04400 40.51800
H  -9.85700 11.32900 42.07000
H  -5.27100 15.34800 40.23400
H  -5.92500 16.47100 45.31900
H  -4.50600 15.53400 44.69800
H  -5.97900 14.86700 45.31300

