158

Mg 24.37400 -5.60100 46.14700
C  26.56800 -3.27900 44.68600
C  21.96000 -4.48000 44.23800
C  22.89600 -8.42000 47.03400
C  27.35400 -6.84200 47.88900
N  24.38700 -4.25500 44.27800
C  25.37600 -3.32900 43.95700
C  24.76900 -2.28700 42.97600
C  23.27800 -2.50500 43.05000
C  23.18600 -3.83100 43.91800
C  22.37000 -1.42100 43.55600
C  25.39600 -2.42100 41.54800
C  25.38700 -1.13400 40.62900
H  24.39800 -1.14600 39.48000
N  22.68200 -6.26100 45.82700
C  21.76300 -5.68400 45.01500
C  20.57600 -6.57800 45.02200
C  20.78200 -7.70800 45.82300
C  22.18700 -7.54800 46.26900
C  19.30700 -6.10800 44.24300
C  19.81000 -8.75200 46.07300
O  18.70600 -8.64400 45.54100
C  20.07800 -9.94900 46.81300
N  25.07000 -7.36700 47.28800
C  24.19100 -8.39300 47.53700
C  24.88300 -9.58300 48.21900
C  26.11600 -8.89300 48.81600
C  26.25400 -7.67700 47.83300
C  23.97200 -10.28800 49.29100
C  27.39200 -9.73000 48.83700
C  28.31500 -9.56900 50.10000
N  26.57900 -5.08100 46.39000
C  27.58900 -5.65200 47.13300
C  28.77500 -4.86900 47.08100
C  28.39600 -3.83200 46.14200
C  27.05500 -4.09200 45.70600
C  30.02100 -5.26000 47.75200
C  28.89100 -2.78700 45.36100
O  30.02600 -2.34400 45.26900
C  27.77300 -2.41900 44.36900
C  27.43200 -0.99800 44.35400
O  26.71100 -0.43900 45.14900
O  27.95400 -0.33300 43.30300
C  27.65100 1.09700 43.21200
H  21.09900 -4.07500 43.70300
H  22.39400 -9.34100 47.33800
H  28.16300 -7.32600 48.44100
H  25.09800 -1.32800 43.37600
H  22.90700 -2.73500 42.05100
H  23.06400 -0.88800 44.20600
H  21.53700 -1.76400 44.17000
H  22.05300 -0.77500 42.73700
H  24.78700 -3.15500 41.02000
H  26.38600 -2.86400 41.65500
H  26.38700 -0.95200 40.23500
H  25.14500 -0.22900 41.18500
H  19.12000 -6.71100 43.35400
H  19.46800 -5.12000 43.81200
H  18.35600 -5.96300 44.75700
H  19.17800 -10.42900 47.19800
H  20.54600 -9.64900 47.75100
H  20.60700 -10.76000 46.31200
H  25.17200 -10.29400 47.44500
H  25.95700 -8.50000 49.82000
H  23.85000 -11.35300 49.09300
H  22.99500 -9.81200 49.37500
H  24.50800 -10.28100 50.24000
H  27.92300 -9.39100 47.94700
H  27.12000 -10.78300 48.76400
H  27.72300 -9.41400 51.00300
H  29.02400 -8.75900 49.93100
H  28.81400 -10.52300 50.27300
H  30.15800 -4.78700 48.72500
H  30.83800 -4.93100 47.10900
H  30.07700 -6.32900 47.95500
H  28.24000 -2.65200 43.41100
H  26.82600 1.20700 42.50700
H  28.50400 1.60800 42.76400
H  27.51900 1.60300 44.16800
Mg 35.73000 47.89200 25.87100
C  36.21600 46.00200 28.77800
C  34.61100 50.47100 27.68900
C  34.84600 49.30800 22.88100
C  36.74900 44.96000 24.09600
N  35.41600 48.14300 27.97300
C  35.83200 47.32600 29.01700
C  35.62000 47.98600 30.34300
C  34.84700 49.30300 29.99300
C  34.92900 49.31400 28.45000
C  33.41000 49.36100 30.63600
C  37.02500 48.24600 31.00700
C  37.03000 48.69100 32.48400
H  35.66900 48.65100 33.17600
N  34.71600 49.60000 25.36300
C  34.48800 50.58400 26.29500
C  34.11100 51.73200 25.55800
C  33.99500 51.43300 24.19200
C  34.43200 50.01400 24.06400
C  33.86000 53.10800 26.21100
C  33.53600 52.26800 23.00200
O  33.52600 51.83900 21.88000
C  33.27200 53.68400 23.20200
N  35.90600 47.27900 23.85000
C  35.49600 48.07800 22.78800
C  35.63500 47.38200 21.49000
C  36.38900 46.06000 21.84600
C  36.40800 46.10200 23.36000
C  34.28100 47.21600 20.67500
C  37.86100 46.13600 21.36000
C  38.58900 44.83300 21.04500
N  36.27700 45.79900 26.25800
C  36.67800 44.76700 25.45800
C  37.14400 43.64700 26.22600
C  36.86300 44.05600 27.51400
C  36.42400 45.43800 27.48500
C  37.80800 42.28600 25.80500
C  36.86000 43.64200 28.91100
O  37.25600 42.63400 29.46900
C  36.45000 44.94300 29.69500
C  35.24600 44.63200 30.44400
O  34.17500 44.39500 29.97300
O  35.52700 44.67100 31.77000
C  34.51300 44.44400 32.76600
H  34.32500 51.35500 28.26300
H  34.62200 49.69800 21.88600
H  37.18400 44.06100 23.65400
H  35.03000 47.21100 30.83300
H  35.38900 50.16500 30.38200
H  33.12700 48.41200 31.09200
H  32.63700 49.60000 29.90600
H  33.44500 50.08900 31.44600
H  37.44400 49.10500 30.48300
H  37.66900 47.37800 30.86300
H  37.53300 49.64800 32.62000
H  37.58900 47.91100 33.00200
H  33.01600 53.53000 25.66500
H  34.71100 53.78000 26.09300
H  33.60700 53.00100 27.26500
H  34.07000 54.12900 23.79600
H  32.25900 53.77000 23.59500
H  33.09900 54.16200 22.23800
H  36.18000 48.08400 20.85900
H  35.91500 45.14200 21.50000
H  33.59800 47.94000 21.11900
H  33.95700 46.17700 20.61900
H  34.30600 47.62200 19.66400
H  38.54900 46.50000 22.12300
H  38.00800 46.75400 20.47400
H  37.93500 44.02100 20.72900
H  39.14000 44.56700 21.94700
H  39.18900 45.24200 20.23200
H  38.14500 42.25500 24.76900
H  37.11400 41.44700 25.85700
H  38.69800 42.20300 26.42700
H  37.23400 45.12000 30.43100
H  33.55700 44.81800 32.39800
H  34.72600 45.06100 33.63800
H  34.52700 43.38000 33.00200

