158

Mg 49.59200 35.52200 27.78700
C  47.31400 34.18900 30.32000
C  50.13000 38.20300 29.84600
C  51.30200 36.96900 25.29300
C  48.61300 32.96700 25.74100
N  48.80900 36.11300 29.87200
C  47.90100 35.44600 30.70300
C  47.63900 36.27400 31.95000
C  48.51800 37.55500 31.71700
C  49.18000 37.28400 30.44000
C  47.73900 38.93300 31.80200
C  47.99600 35.61300 33.30800
C  49.25000 34.69600 33.32300
H  50.55300 35.17700 33.96800
N  50.81100 37.22300 27.72300
C  50.92900 38.18700 28.67300
C  51.99200 39.16300 28.23600
C  52.38400 38.67800 26.99900
C  51.52100 37.52200 26.61600
C  52.47400 40.21700 29.23500
C  53.46800 39.29900 26.13400
O  53.75700 38.76500 25.08900
C  54.07300 40.71300 26.48500
N  49.98200 35.01300 25.76500
C  50.66100 35.78100 24.86600
C  50.85300 35.07900 23.48900
C  49.94500 33.81100 23.64000
C  49.46700 33.90700 25.12800
C  50.59900 36.00700 22.23700
C  50.60100 32.42700 23.29500
C  49.62500 31.61700 22.49900
N  48.26300 33.94600 27.97300
C  48.04800 32.88400 27.04700
C  47.11500 31.89200 27.55600
C  46.77100 32.40200 28.83200
C  47.50700 33.61500 29.08100
C  46.68300 30.63600 26.86700
C  45.90900 32.13600 29.96100
O  45.09400 31.24200 30.15400
C  46.07800 33.33000 30.88100
C  46.26600 32.88500 32.26300
O  47.18300 32.22300 32.70600
O  45.26600 33.34200 33.08700
C  45.21500 32.87600 34.47300
H  50.26300 39.13200 30.40500
H  51.73000 37.47400 24.42400
H  48.52800 32.04600 25.16100
H  46.57300 36.49500 31.89800
H  49.24200 37.63100 32.52800
H  47.52900 39.53200 30.91600
H  48.36800 39.58700 32.40500
H  46.81300 38.94500 32.37800
H  47.11700 35.07100 33.65600
H  48.10500 36.30800 34.14100
H  49.61500 34.29900 32.37600
H  49.08100 33.84100 33.97800
H  53.20700 39.69600 29.85100
H  51.61500 40.57200 29.80400
H  52.83400 41.10300 28.71000
H  53.30600 41.48400 26.41400
H  54.77500 40.92300 25.67700
H  54.54800 40.62500 27.46200
H  51.90200 34.80900 23.37100
H  49.05800 33.97200 23.02700
H  50.46200 37.07500 22.40500
H  49.74000 35.58600 21.71500
H  51.54800 35.97400 21.70200
H  50.82800 31.84300 24.18800
H  51.55200 32.51100 22.77000
H  48.71300 32.08800 22.13100
H  49.27900 30.65300 22.87100
H  50.08000 31.53400 21.51100
H  45.90500 30.86800 26.13900
H  46.31600 29.91500 27.59700
H  47.58000 30.23000 26.40000
H  45.22300 34.00300 30.81900
H  44.78600 31.87500 34.52000
H  44.73600 33.58600 35.14700
H  46.22100 32.74500 34.87100
Mg -11.90100 37.60800 42.21800
C  -9.76500 35.20000 40.92000
C  -9.96900 40.08600 40.82000
C  -14.45300 39.84400 42.64200
C  -14.12900 34.91100 43.10400
N  -10.07200 37.59800 40.94800
C  -9.43100 36.47100 40.55800
C  -8.15400 36.91100 39.77200
C  -8.19600 38.50800 39.75200
C  -9.45200 38.78000 40.58500
C  -6.92100 39.21600 40.36300
C  -7.98100 36.24400 38.34500
C  -6.67500 35.42400 38.11300
H  -5.81000 35.74400 36.90100
N  -12.10600 39.70700 41.91500
C  -11.19000 40.55400 41.36600
C  -11.64200 41.86200 41.33800
C  -12.96600 41.84200 41.92700
C  -13.24700 40.39100 42.20700
C  -10.84100 43.04400 40.83100
C  -13.79100 43.04500 42.16900
O  -13.32100 44.17100 42.01100
C  -15.13900 42.93000 42.69400
N  -13.91100 37.46400 42.72000
C  -14.75700 38.52300 42.92500
C  -16.10400 38.04600 43.49900
C  -15.95700 36.56000 43.71300
C  -14.59700 36.23200 43.10500
C  -16.76000 38.82100 44.71100
C  -17.12200 35.61200 43.10300
C  -17.47000 34.45000 44.05600
N  -11.91600 35.45700 42.18700
C  -12.83900 34.58600 42.67400
C  -12.30500 33.25100 42.53500
C  -11.09900 33.42400 41.79400
C  -10.93400 34.81600 41.62400
C  -13.00000 32.04100 42.92600
C  -9.93200 32.74700 41.15000
O  -9.63200 31.59100 41.03600
C  -8.99200 33.95000 40.60100
C  -7.70100 33.86500 41.24500
O  -6.59900 33.67100 40.63800
O  -7.88800 33.85800 42.61800
C  -6.66000 34.07800 43.35500
H  -9.31400 40.87300 40.44100
H  -15.36100 40.44300 42.73400
H  -14.74700 34.13000 43.55000
H  -7.22100 36.65300 40.27300
H  -8.22900 38.93800 38.75100
H  -6.69800 40.05400 39.70200
H  -6.10800 38.49000 40.37600
H  -7.12300 39.57800 41.37100
H  -8.01800 36.91000 37.48300
H  -8.84000 35.59000 38.19700
H  -6.92000 34.37900 37.92300
H  -5.96300 35.41100 38.93800
H  -10.13200 43.37700 41.58900
H  -11.42500 43.91300 40.53000
H  -10.24200 42.87100 39.93600
H  -15.50600 43.95600 42.71600
H  -15.15600 42.49800 43.69500
H  -15.75000 42.28600 42.06100
H  -16.80600 38.12800 42.66900
H  -15.80800 36.27400 44.75500
H  -16.16000 39.65300 45.08100
H  -17.23900 38.25400 45.51000
H  -17.55500 39.36200 44.19800
H  -16.78600 35.23000 42.13900
H  -17.96100 36.29700 42.98700
H  -16.67600 34.17600 44.75100
H  -17.67200 33.50600 43.55000
H  -18.40500 34.60400 44.59400
H  -13.25100 31.47500 42.02900
H  -13.82000 32.29900 43.59600
H  -12.29400 31.49900 43.55500
H  -8.86200 33.72800 39.54200
H  -6.83700 34.98300 43.93600
H  -5.74200 34.13200 42.77000
H  -6.55600 33.23000 44.03200

