158

Mg 54.41300 24.69100 45.30900
C  51.92000 26.64600 43.84000
C  53.43500 22.07100 43.58900
C  57.34500 23.06900 46.32300
C  55.86900 27.66500 46.59100
N  52.92600 24.44000 43.93200
C  52.02700 25.34100 43.33300
C  51.03100 24.65800 42.34900
C  51.47700 23.18300 42.37400
C  52.68400 23.23200 43.30800
C  50.39100 22.19300 42.81900
C  50.92800 25.31500 40.92700
C  50.76000 24.46600 39.62700
H  51.83700 24.83000 38.60200
N  55.25500 22.80500 45.00000
C  54.64200 21.87800 44.30700
C  55.37100 20.65400 44.50200
C  56.53400 20.86200 45.22900
C  56.43300 22.31400 45.56000
C  54.83300 19.40800 43.97400
C  57.63300 19.88900 45.46500
O  57.64600 18.79900 44.93400
C  58.80600 20.11200 46.50300
N  56.43600 25.31700 46.14300
C  57.39300 24.42900 46.54400
C  58.48300 25.20400 47.39500
C  58.09200 26.67100 47.01300
C  56.64500 26.50000 46.64200
C  58.58100 24.79700 48.84600
C  58.95600 27.50800 45.96100
C  59.51500 28.85100 46.43300
N  54.01100 26.72100 45.31100
C  54.60300 27.80300 45.96300
C  53.74900 28.94500 45.97400
C  52.68500 28.48500 45.19800
C  52.90400 27.19100 44.73600
C  53.93800 30.10900 46.84900
C  51.41700 28.88000 44.68500
O  50.80100 29.90200 44.79900
C  50.89600 27.71600 43.80400
C  50.56700 28.30400 42.49700
O  51.30900 28.57000 41.54100
O  49.15900 28.36400 42.45800
C  48.55500 28.67200 41.14800
H  53.13900 21.17100 43.04600
H  58.21000 22.58700 46.78200
H  56.24600 28.62400 46.95200
H  50.00600 24.70900 42.71800
H  51.99600 22.78200 41.50400
H  50.34800 21.76600 43.82100
H  50.71300 21.32700 42.24100
H  49.45300 22.66400 42.52300
H  51.76000 26.00700 40.79800
H  50.07800 25.99700 40.92700
H  49.73100 24.57700 39.28700
H  50.83800 23.41600 39.91000
H  53.81600 19.20800 44.31100
H  55.31300 18.46900 44.25400
H  54.70800 19.56900 42.90400
H  59.09900 19.13700 46.89200
H  58.32700 20.56700 47.37000
H  59.67800 20.62600 46.09700
H  59.42800 24.91500 46.93300
H  58.13300 27.14400 47.99400
H  58.89700 25.66600 49.42300
H  59.36900 24.07100 49.04900
H  57.62900 24.46900 49.26500
H  58.32900 27.75300 45.10400
H  59.79200 26.88300 45.64800
H  59.17700 29.71300 45.85800
H  60.60300 28.79300 46.45300
H  59.18700 29.03400 47.45700
H  53.03300 30.26800 47.43400
H  54.07800 30.89800 46.11100
H  54.77500 29.98700 47.53700
H  49.93500 27.29500 44.10000
H  48.51900 29.75500 41.02900
H  47.52300 28.32500 41.09600
H  49.02600 28.10200 40.34800
Mg 47.29400 25.32400 28.81000
C  48.51100 27.61200 31.24000
C  46.11700 23.40200 31.39300
C  46.94700 22.68200 26.75200
C  49.08800 26.93900 26.46000
N  47.31200 25.50900 31.04700
C  47.73500 26.58300 31.80500
C  47.26100 26.41000 33.22500
C  46.74400 24.96300 33.29400
C  46.62900 24.64300 31.82300
C  47.45100 23.84100 34.23900
C  46.31500 27.63600 33.65600
C  45.46800 27.54900 34.90400
H  46.09400 27.86300 36.19500
N  46.44200 23.47900 28.96800
C  45.98800 22.83600 30.11200
C  45.37400 21.58800 29.80200
C  45.46300 21.40500 28.45000
C  46.32800 22.53200 27.99700
C  44.77500 20.67000 30.88500
C  44.85700 20.29100 27.51600
O  44.96900 20.25200 26.32200
C  44.13900 19.10200 28.13000
N  47.93400 24.92600 26.82500
C  47.59900 23.78600 26.18300
C  48.15700 23.75400 24.73300
C  48.51500 25.28600 24.55600
C  48.47600 25.74600 26.01800
C  49.40100 22.87100 24.51600
C  47.43400 26.18500 23.78700
C  47.99100 27.07800 22.67000
N  48.44100 27.03900 28.72300
C  49.16400 27.53300 27.70900
C  49.87500 28.71200 28.11100
C  49.60600 28.86400 29.51700
C  48.82100 27.73700 29.86100
C  50.62400 29.61700 27.13000
C  49.85300 29.65100 30.69200
O  50.43300 30.69100 30.86300
C  49.16000 28.86500 31.88400
C  50.27400 28.55900 32.81200
O  51.39600 28.11800 32.49100
O  49.85600 28.68700 34.13700
C  50.77200 28.08700 35.17700
H  45.70400 22.72200 32.14200
H  46.64400 21.96700 25.98400
H  49.51200 27.43400 25.58300
H  48.17500 26.44600 33.81800
H  45.69800 25.04500 33.59100
H  48.39100 24.19200 34.66400
H  47.72800 22.92300 33.72000
H  46.66300 23.54500 34.93200
H  45.69000 27.57500 32.76500
H  46.80900 28.60700 33.65200
H  45.00300 26.56300 34.92200
H  44.60200 28.20800 34.84000
H  44.90800 21.01500 31.91100
H  45.28200 19.71200 31.00500
H  43.70900 20.51200 30.72600
H  43.19000 19.41400 28.56500
H  44.62200 18.72700 29.03200
H  43.98100 18.36800 27.34000
H  47.30200 23.53300 24.09400
H  49.52900 25.47200 24.20200
H  49.75600 22.29400 25.36900
H  50.26600 23.37600 24.08600
H  49.21700 22.16900 23.70200
H  46.92000 26.81200 24.51600
H  46.71100 25.50900 23.33000
H  47.17100 27.06700 21.95200
H  48.93400 26.73900 22.24200
H  48.13900 28.07800 23.07700
H  51.19700 30.36400 27.67900
H  49.92800 30.08200 26.43300
H  51.32400 28.93700 26.64500
H  48.49600 29.60300 32.33400
H  50.29100 27.58200 36.01400
H  51.33400 28.90900 35.62000
H  51.54600 27.46400 34.72900

