158

Mg 44.92000 4.60200 47.00500
C  42.71600 7.26900 46.35700
C  42.32800 2.36700 46.44100
C  47.09000 2.07000 47.15400
C  47.64100 6.89100 46.64400
N  42.70000 4.82700 46.45500
C  42.05600 6.00300 46.22000
C  40.58100 5.64500 45.92500
C  40.42600 4.13400 46.32700
C  41.87600 3.73400 46.40400
C  39.62500 3.71200 47.49500
C  40.27000 6.01400 44.41700
C  38.88900 6.78100 44.29200
H  38.91400 8.00900 43.38000
N  44.77100 2.48600 46.81400
C  43.66200 1.78500 46.64000
C  43.91800 0.32700 46.77400
C  45.30000 0.22100 46.79400
C  45.77800 1.63400 47.02400
C  42.84600 -0.81200 46.76200
C  46.00300 -0.97500 46.50300
O  45.35500 -2.03900 46.33500
C  47.50800 -1.08900 46.37500
N  47.08600 4.50000 46.94000
C  47.72500 3.31900 47.15800
C  49.13600 3.59200 47.65000
C  49.36500 5.09600 47.27900
C  47.96000 5.53900 46.90900
C  49.33300 3.45800 49.16400
C  50.16400 5.16100 45.91600
C  51.75600 4.93700 46.00900
N  45.17100 6.64900 46.61700
C  46.32800 7.40800 46.54300
C  46.02300 8.82800 46.41500
C  44.57700 8.79900 46.36300
C  44.13100 7.44700 46.46300
C  47.04800 9.93800 46.20400
C  43.40800 9.57700 46.10200
O  43.35000 10.80200 45.85200
C  42.18700 8.65600 46.13600
C  41.15700 8.98000 47.17700
O  41.17000 8.60000 48.37500
O  40.23000 9.87600 46.61900
C  39.20000 10.34700 47.62100
H  41.47800 1.68600 46.35300
H  47.84000 1.30600 47.36600
H  48.43600 7.63900 46.66000
H  39.90400 6.25200 46.52600
H  40.00400 3.56700 45.49700
H  40.04700 2.85800 48.02600
H  38.61200 3.37700 47.27300
H  39.46400 4.51700 48.21200
H  40.13500 5.10600 43.82900
H  41.00600 6.56900 43.83700
H  38.21700 6.77200 45.15000
H  38.31000 6.06300 43.71100
H  41.89000 -0.46000 47.14800
H  43.07900 -1.64000 47.43300
H  42.72500 -1.22500 45.76100
H  48.03900 -0.90800 47.31000
H  47.79500 -0.36200 45.61600
H  47.72100 -2.10600 46.04900
H  49.80200 2.88200 47.16000
H  49.86800 5.73400 48.00500
H  50.11900 2.72100 49.32600
H  48.44000 3.00800 49.59800
H  49.58600 4.31200 49.79300
H  50.06800 6.18700 45.56000
H  49.71800 4.63500 45.07200
H  51.95500 3.86700 45.94800
H  52.13800 5.37100 46.93300
H  52.21200 5.39100 45.12800
H  47.63000 9.99300 47.12400
H  46.44500 10.84300 46.28200
H  47.66400 9.82200 45.31200
H  41.69800 8.65700 45.16200
H  38.75300 11.21100 47.12900
H  39.46800 10.73700 48.60300
H  38.46700 9.54900 47.74300
Mg 49.38600 45.54400 43.32400
C  46.19300 46.13000 42.32400
C  49.23800 42.42100 42.04600
C  52.66800 45.35500 43.61100
C  49.64300 49.08100 44.16500
N  47.90400 44.49700 42.13300
C  46.68300 44.93300 41.85600
C  45.91800 44.00800 40.89600
C  46.79200 42.67100 41.08300
C  48.04100 43.18300 41.80300
C  46.06400 41.56900 41.90200
C  45.85000 44.58500 39.38100
C  44.47600 44.60600 38.76900
H  44.30800 43.54600 37.64800
N  50.71300 44.07500 43.04600
C  50.45100 42.81600 42.48800
C  51.68200 42.00100 42.48600
C  52.71600 42.80300 43.06100
C  52.08200 44.15000 43.28400
C  51.72500 40.48700 42.10600
C  54.13600 42.37900 43.24400
O  54.47600 41.20900 42.88800
C  55.25000 43.20700 43.82600
N  50.88900 47.05400 43.72800
C  52.19500 46.66400 43.74800
C  53.17200 47.80600 43.92200
C  52.19400 48.91700 44.41300
C  50.82400 48.35300 44.09300
C  54.35900 47.66500 45.01100
C  52.42200 50.35600 43.79600
C  52.43500 51.43200 44.83200
N  48.11700 47.21600 43.42900
C  48.31600 48.52500 43.94000
C  47.07200 49.27600 43.79600
C  46.18300 48.40100 43.22200
C  46.91400 47.17900 42.98600
C  46.87700 50.68700 44.27500
C  44.84400 48.15900 42.69200
O  43.94200 48.93900 42.61800
C  44.79300 46.63600 42.16100
C  43.77400 46.11100 43.17100
O  43.97900 45.87600 44.40000
O  42.59300 45.87700 42.52000
C  41.67500 44.97200 43.18700
H  49.10700 41.40500 41.66700
H  53.74500 45.18000 43.63800
H  49.78500 50.09100 44.55300
H  44.90900 43.73300 41.20500
H  47.05500 42.32600 40.08300
H  44.97800 41.55500 41.80500
H  46.17000 41.46500 42.98200
H  46.38800 40.65400 41.40600
H  46.54800 44.09700 38.70000
H  46.08800 45.64800 39.38500
H  44.36600 45.57900 38.28900
H  43.60800 44.60100 39.42900
H  52.41100 40.26300 41.28900
H  50.77400 40.05400 41.79600
H  52.13800 39.91400 42.93600
H  56.09200 42.53600 44.00000
H  54.94400 43.43900 44.84600
H  55.55500 44.05600 43.21400
H  53.55000 48.06800 42.93400
H  52.30400 48.91800 45.49800
H  54.51100 46.66000 45.40300
H  54.17600 48.35000 45.83900
H  55.29500 47.98700 44.55500
H  51.71600 50.67900 43.03200
H  53.40400 50.37000 43.32400
H  53.45400 51.81800 44.86800
H  52.16500 51.15200 45.85000
H  51.75200 52.13300 44.35100
H  47.60700 51.09500 44.97500
H  45.96200 50.60800 44.86200
H  46.73800 51.29500 43.38000
H  44.38600 46.53900 41.15500
H  41.17800 45.37100 44.07200
H  42.38500 44.17600 43.40900
H  40.94100 44.51200 42.52500

