158

Mg -2.19000 16.57300 26.10100
C  -2.62900 14.30500 28.86200
C  -2.76600 19.11800 28.25800
C  -2.49900 18.62600 23.51000
C  -1.78300 13.91500 24.03500
N  -2.75900 16.62700 28.31800
C  -2.89900 15.62200 29.26800
C  -3.29900 16.15900 30.65600
C  -3.14300 17.74500 30.37100
C  -2.96400 17.84800 28.82800
C  -4.43300 18.46600 30.81400
C  -2.42300 15.71900 31.90400
C  -2.24800 16.60700 33.09000
H  -2.42500 15.96700 34.49300
N  -2.38400 18.62900 25.95400
C  -2.53200 19.53300 26.97200
C  -2.74200 20.87500 26.41100
C  -2.73900 20.74400 25.02600
C  -2.54100 19.24400 24.75900
C  -3.10200 22.12900 27.21700
C  -2.95800 21.79100 23.93700
O  -2.89900 21.59200 22.71200
C  -3.04500 23.11800 24.31900
N  -2.01300 16.33100 24.08000
C  -2.22200 17.27600 23.16700
C  -2.32600 16.75100 21.66600
C  -2.05900 15.21600 21.95300
C  -1.92000 15.16600 23.41800
C  -3.68100 17.05500 20.91100
C  -0.89300 14.55600 21.11500
C  0.60200 14.84800 21.41500
N  -2.07600 14.58000 26.36100
C  -1.93800 13.56500 25.41200
C  -2.00000 12.30200 26.00700
C  -2.14900 12.56200 27.32600
C  -2.28000 13.90200 27.52100
C  -1.68500 11.02600 25.38500
C  -2.31500 11.88900 28.60400
O  -2.36900 10.71600 28.89000
C  -2.60000 13.04900 29.64200
C  -1.42200 12.97700 30.55400
O  -0.33700 13.53300 30.44200
O  -1.69500 12.00900 31.46400
C  -0.69800 11.73000 32.55300
H  -2.97100 19.89600 28.99600
H  -2.75500 19.22300 22.63200
H  -1.77100 13.08700 23.32300
H  -4.31400 15.86600 30.92200
H  -2.32400 18.20100 30.92800
H  -5.09300 17.79400 31.36300
H  -4.87200 19.01400 29.98000
H  -4.13400 19.28900 31.46400
H  -1.48300 15.40900 31.44800
H  -2.88700 14.78300 32.21500
H  -2.93200 17.45500 33.14300
H  -1.26800 17.08300 33.12100
H  -4.09600 22.47600 26.93700
H  -2.30100 22.85800 27.09900
H  -3.19000 21.77900 28.24600
H  -3.94100 23.12800 24.93900
H  -3.05700 23.69700 23.39500
H  -2.14900 23.35300 24.89300
H  -1.51700 17.16300 21.06400
H  -2.96500 14.64600 21.74700
H  -3.45400 17.65300 20.02900
H  -4.23700 17.79400 21.48700
H  -4.23700 16.14100 20.70100
H  -1.02000 14.93100 20.10000
H  -0.92500 13.47100 21.21600
H  0.83800 15.45900 22.28600
H  1.21100 15.32900 20.65000
H  1.00100 13.87300 21.69300
H  -1.41800 10.33400 26.18400
H  -0.85700 11.16000 24.68800
H  -2.47700 10.58000 24.78500
H  -3.56000 12.91200 30.13900
H  -1.22900 12.11100 33.42500
H  0.29900 12.17200 32.57300
H  -0.58100 10.70100 32.89400
Mg 48.02500 35.29100 27.06700
C  46.23900 33.41800 29.57700
C  48.14700 37.80100 29.33000
C  49.11700 37.07100 24.49600
C  47.00600 32.69500 24.83000
N  47.33300 35.50800 29.24800
C  46.74000 34.60600 30.04800
C  46.72100 35.08500 31.52700
C  46.98900 36.64200 31.33300
C  47.54000 36.67500 29.90400
C  45.73500 37.55900 31.60000
C  47.97100 34.43900 32.26400
C  47.95000 34.37000 33.81900
H  47.02300 35.34800 34.51500
N  48.68800 37.14500 26.96600
C  48.79000 38.04400 28.03500
C  49.51100 39.22800 27.55200
C  49.73300 39.01200 26.11100
C  49.16400 37.68400 25.74700
C  49.78600 40.46100 28.40400
C  50.51400 39.90700 25.11200
O  50.66600 39.58700 23.97100
C  51.01400 41.23300 25.63600
N  48.05900 34.89000 25.01100
C  48.61600 35.81900 24.14600
C  48.66000 35.37100 22.75200
C  47.97600 33.93900 22.86500
C  47.66500 33.80000 24.34600
C  47.85900 36.31800 21.81300
C  48.98400 32.82500 22.42900
C  50.13600 32.44500 23.30700
N  47.08500 33.32900 27.18900
C  46.75600 32.40400 26.15300
C  46.11200 31.23700 26.78200
C  45.81900 31.55900 28.02800
C  46.41000 32.85000 28.27300
C  45.74700 29.95600 26.03300
C  45.11700 31.14100 29.23700
O  44.52400 30.16800 29.54100
C  45.39100 32.32100 30.26400
C  45.74500 31.94100 31.62600
O  46.82700 31.36000 31.83300
O  44.96900 32.30800 32.66500
C  45.17500 31.63800 33.94700
H  48.13500 38.62400 30.04800
H  49.57200 37.59800 23.65400
H  46.58000 31.95400 24.15200
H  45.75000 34.90600 31.99000
H  47.83800 37.00500 31.91100
H  44.95700 37.06900 32.18500
H  45.34100 38.00100 30.68400
H  46.00100 38.36200 32.28700
H  48.88700 34.96100 31.98600
H  48.13800 33.44300 31.85500
H  48.92400 34.42100 34.30600
H  47.59700 33.39100 34.14100
H  49.37400 40.17900 29.37300
H  49.22200 41.30900 28.01600
H  50.83600 40.60100 28.66100
H  50.24400 41.87600 26.06500
H  51.33800 41.77100 24.74500
H  51.79800 41.08500 26.37900
H  49.68200 35.43100 22.37900
H  47.07800 33.89900 22.24900
H  47.53700 37.12000 22.47800
H  47.00900 35.80900 21.36000
H  48.52800 36.65100 21.01900
H  49.38300 33.25500 21.51100
H  48.38300 31.94100 22.21400
H  51.11300 32.61900 22.85600
H  50.00200 31.36700 23.40300
H  50.14200 32.94400 24.27600
H  46.53900 29.29600 26.38700
H  45.71100 30.12200 24.95600
H  44.84100 29.46700 26.39100
H  44.37600 32.70000 30.38400
H  44.77600 30.62300 33.94200
H  44.70900 32.27300 34.70100
H  46.22700 31.51100 34.20200

