158

Mg 41.73500 41.12500 26.67900
C  40.65400 43.21800 29.29500
C  42.66100 38.89700 29.30700
C  43.06800 39.12400 24.41000
C  41.16200 43.66000 24.33300
N  41.70400 41.11900 29.06900
C  41.10900 42.05600 29.86300
C  41.25200 41.67300 31.35900
C  42.12300 40.43600 31.36600
C  42.21700 40.13200 29.81200
C  43.55200 40.66700 32.03400
C  39.88700 41.65700 32.17400
C  39.57600 42.70300 33.30400
H  38.74400 42.45600 34.53400
N  42.70900 39.30500 26.81500
C  43.00100 38.53000 27.95300
C  43.59000 37.30600 27.58700
C  43.79100 37.31000 26.15000
C  43.19100 38.65100 25.73200
C  44.00500 36.26100 28.58300
C  44.28300 36.22500 25.21300
O  44.17300 36.26700 23.98300
C  44.74200 34.96100 25.84000
N  42.13400 41.37600 24.64700
C  42.49100 40.28100 23.90100
C  42.44400 40.66600 22.37700
C  41.87100 42.08000 22.38500
C  41.69100 42.45700 23.87200
C  43.85200 40.63800 21.66200
C  40.50000 42.03900 21.80100
C  39.98900 43.43000 21.38000
N  40.94100 42.99600 26.72200
C  40.80300 43.92400 25.69400
C  40.27100 45.11100 26.31400
C  40.18400 44.88100 27.67800
C  40.70000 43.57600 27.91400
C  39.95300 46.36300 25.70200
C  39.99000 45.48000 28.93900
O  39.60400 46.65100 29.24000
C  40.16400 44.39000 30.06000
C  41.08900 44.94800 31.04000
O  42.29400 44.91900 30.87500
O  40.43000 45.64700 32.04800
C  41.35900 46.35200 32.95600
H  42.87300 38.29200 30.19100
H  43.61300 38.56500 23.64700
H  40.89700 44.54700 23.75300
H  41.82500 42.49800 31.78300
H  41.55600 39.62600 31.82400
H  44.38500 40.61300 31.33300
H  43.56800 39.89900 32.80800
H  43.67600 41.66900 32.44300
H  39.82400 40.73400 32.75000
H  39.07200 41.74500 31.45500
H  38.89500 43.37500 32.78100
H  40.51400 43.22600 33.48700
H  43.63500 35.28900 28.25600
H  43.84200 36.43400 29.64600
H  45.07500 36.08900 28.46000
H  45.17600 34.32300 25.07100
H  43.94600 34.31500 26.21000
H  45.57200 35.19900 26.50500
H  41.94000 39.94500 21.73400
H  42.65400 42.76700 22.06400
H  44.07200 39.63800 21.28900
H  44.55400 41.02000 22.40300
H  43.79900 41.20200 20.73100
H  39.90800 41.59700 22.60200
H  40.44100 41.34500 20.96300
H  39.75600 43.35600 20.31800
H  40.75300 44.20500 21.32500
H  39.07500 43.77000 21.86700
H  38.87800 46.51400 25.79800
H  40.24300 46.46000 24.65600
H  40.51600 47.08500 26.29400
H  39.21000 44.33700 30.58500
H  42.02200 45.54400 33.26500
H  40.84000 46.64100 33.87000
H  41.90400 47.18000 32.50300
Mg 0.23300 42.83900 25.86300
C  1.40400 42.74900 29.15200
C  -2.82700 41.79400 27.20400
C  -0.87300 42.58400 22.77400
C  3.38900 43.71100 24.81600
N  -0.60200 42.37300 28.01900
C  0.06100 42.51400 29.15000
C  -0.85300 42.42000 30.45700
C  -2.24100 41.98500 29.79100
C  -1.92100 42.02400 28.27400
C  -2.71800 40.53000 30.17600
C  -0.93100 43.82100 31.16100
C  -0.92900 43.80300 32.71800
H  -1.60700 42.62900 33.51000
N  -1.55300 42.21700 25.06300
C  -2.71000 41.94000 25.79200
C  -3.76800 41.62200 24.83100
C  -3.27600 41.77800 23.49600
C  -1.86600 42.21300 23.77100
C  -5.15500 41.05700 25.21800
C  -4.00800 41.55700 22.12400
O  -3.42200 41.57500 20.97600
C  -5.49000 41.25700 22.05600
N  1.13200 43.08600 24.07000
C  0.46400 42.85300 22.91700
C  1.43400 43.02400 21.73800
C  2.62300 43.80900 22.34000
C  2.40200 43.55000 23.87200
C  1.79400 41.74200 20.96100
C  2.66200 45.36700 22.02500
C  3.60200 45.83900 20.87700
N  2.09900 43.00400 26.71100
C  3.27300 43.34800 26.13200
C  4.34400 43.44600 27.19000
C  3.63000 43.17800 28.39600
C  2.29600 42.93400 28.04200
C  5.83600 43.65800 27.09700
C  3.78100 43.01500 29.78200
O  4.77300 43.10600 30.51400
C  2.33400 42.88800 30.34200
C  2.29600 41.69900 31.27300
O  2.43000 40.54100 30.90700
O  2.25300 42.17100 32.54900
C  2.55200 41.17200 33.59000
H  -3.79900 41.52200 27.62000
H  -1.21600 42.47700 21.74300
H  4.30200 44.14900 24.40700
H  -0.49200 41.57800 31.04800
H  -3.03200 42.72200 29.93500
H  -2.82100 39.75800 29.41400
H  -3.65300 40.62700 30.72900
H  -2.10000 39.98100 30.88600
H  -1.79900 44.36700 30.79000
H  0.00500 44.36100 31.01900
H  -1.32100 44.69500 33.20700
H  0.09000 43.87100 33.09900
H  -5.90200 41.53800 24.58700
H  -5.37200 41.19200 26.27800
H  -5.16800 40.00100 24.94900
H  -5.75000 40.39800 22.67400
H  -5.72800 41.04500 21.01300
H  -6.16100 42.09100 22.26200
H  1.03900 43.69400 20.97500
H  3.58600 43.40400 22.02800
H  1.02800 40.99500 21.17200
H  2.77000 41.28900 21.13400
H  1.72100 41.90500 19.88500
H  3.01200 45.88400 22.91900
H  1.60700 45.54100 21.81300
H  3.04800 46.44400 20.15900
H  3.93100 44.96300 20.31800
H  4.37300 46.54000 21.19800
H  6.17400 43.40000 26.09300
H  6.30300 43.18100 27.95900
H  6.00600 44.72100 27.26500
H  2.12100 43.81200 30.88100
H  3.33700 41.54300 34.24900
H  2.89900 40.21200 33.20800
H  1.62600 41.11300 34.16200

