158

Mg 36.82000 48.12900 24.58300
C  37.02000 46.14800 27.47600
C  35.69300 50.80500 26.48000
C  36.45400 49.86300 21.82600
C  37.80900 45.30600 22.67400
N  36.40400 48.39300 26.66800
C  36.65400 47.52600 27.69600
C  36.34000 48.13300 29.09600
C  35.85600 49.57500 28.70500
C  36.02000 49.63100 27.18800
C  34.41700 49.76900 29.16200
C  37.48700 48.13700 30.11600
C  37.09500 47.65900 31.53900
H  35.63700 47.73500 32.04400
N  36.23200 50.09600 24.19800
C  35.70500 51.04300 25.11400
C  35.36100 52.27200 24.43400
C  35.50600 52.01700 23.00200
C  36.11200 50.61000 22.92800
C  34.88900 53.51400 25.08800
C  35.28600 53.01300 21.92500
O  35.54600 52.75500 20.77900
C  34.92800 54.42100 22.14400
N  36.84100 47.56400 22.46900
C  36.83600 48.54100 21.50400
C  37.09200 47.95600 20.07100
C  37.68200 46.51900 20.48300
C  37.46800 46.44500 21.98100
C  35.90800 48.01300 19.10800
C  39.07000 46.22500 19.97400
C  40.14400 46.94700 20.75500
N  37.36300 46.19200 24.99100
C  37.75800 45.14200 24.07900
C  38.07000 43.96100 24.90300
C  37.75400 44.28400 26.25000
C  37.33500 45.67500 26.20000
C  38.48600 42.59800 24.33300
C  37.60900 43.83100 27.62500
O  37.71600 42.67200 28.05400
C  37.14800 45.05300 28.51200
C  35.77900 44.63800 29.10500
O  34.70800 44.62300 28.51600
O  35.96000 44.17200 30.40900
C  34.92200 43.33100 30.91500
H  35.23600 51.56400 27.11800
H  36.38200 50.55000 20.98000
H  38.10700 44.41500 22.11600
H  35.54900 47.50000 29.49800
H  36.57500 50.34500 28.98400
H  34.05300 49.34500 30.09800
H  33.88900 49.41700 28.27600
H  34.26300 50.84700 29.11800
H  37.96700 49.11300 30.18600
H  38.28500 47.47000 29.79100
H  37.72000 48.14700 32.28700
H  37.45000 46.63200 31.61600
H  35.63700 54.30600 25.14500
H  34.60800 53.26500 26.11200
H  33.96600 53.95700 24.71500
H  33.90500 54.53200 22.50400
H  35.04200 54.94400 21.19500
H  35.60700 54.80200 22.90700
H  37.96800 48.50300 19.72100
H  36.98400 45.77400 20.10000
H  34.99400 48.19000 19.67600
H  35.93400 47.07000 18.56300
H  36.04200 48.83900 18.41000
H  39.13200 46.48600 18.91800
H  39.22200 45.14900 20.06700
H  40.96300 47.26100 20.10700
H  40.64900 46.30000 21.47300
H  39.82700 47.82400 21.31800
H  38.57400 42.58700 23.24700
H  37.73500 41.87000 24.63800
H  39.36700 42.30800 24.90700
H  37.89100 45.27500 29.27800
H  34.58000 42.65300 30.13400
H  34.22500 43.96500 31.46300
H  35.44300 42.76500 31.68700
Mg -12.88000 16.48600 41.12600
C  -10.02100 14.89900 40.31400
C  -11.56600 19.36000 39.86500
C  -16.09200 17.74500 40.92600
C  -14.34100 13.29900 41.54200
N  -10.97200 17.00600 39.95400
C  -9.90700 16.20500 39.87600
C  -8.62200 16.97100 39.44000
C  -9.18500 18.43200 39.37500
C  -10.69600 18.29200 39.79900
C  -8.36900 19.57300 40.11900
C  -8.08700 16.39500 38.14200
C  -6.52500 16.18900 38.14200
H  -5.62300 16.82600 37.07500
N  -13.71300 18.28000 40.62600
C  -12.95200 19.38100 40.20200
C  -13.79900 20.55700 40.10200
C  -15.12600 20.15600 40.35400
C  -15.04800 18.66700 40.67600
C  -13.33100 21.92900 39.68100
C  -16.31300 20.99700 40.27000
O  -16.29300 22.15700 40.02800
C  -17.70700 20.45800 40.45400
N  -14.94400 15.63500 41.42700
C  -16.04100 16.39900 41.24000
C  -17.33900 15.48000 41.19400
C  -16.71300 14.17500 41.70600
C  -15.27400 14.35900 41.38800
C  -18.58000 15.92700 42.05800
C  -17.31600 12.76200 41.15900
C  -17.90500 11.73800 42.13800
N  -12.34000 14.59400 41.18300
C  -13.00200 13.35300 41.40800
C  -12.09100 12.21100 41.29700
C  -10.86400 12.82500 41.02500
C  -11.06900 14.23100 40.86600
C  -12.33300 10.75800 41.50700
C  -9.49700 12.52700 40.77700
O  -8.86900 11.46100 40.76500
C  -8.92100 13.83700 40.25000
C  -7.65000 14.06600 40.83700
O  -7.38100 14.87100 41.72000
O  -6.68300 13.39800 40.17300
C  -5.25800 13.49600 40.57200
H  -11.07100 20.28000 39.54600
H  -17.14500 18.01500 40.81900
H  -14.78600 12.30900 41.66000
H  -7.91100 16.87100 40.25900
H  -9.19000 18.67800 38.31300
H  -7.29500 19.39100 40.11800
H  -8.67100 19.59900 41.16600
H  -8.55100 20.55900 39.69200
H  -8.36200 17.01200 37.28700
H  -8.45000 15.37300 38.04300
H  -6.36100 15.12200 37.99300
H  -6.07900 16.40400 39.11400
H  -13.78800 22.35400 38.78800
H  -12.26300 21.90500 39.46600
H  -13.55700 22.60900 40.50200
H  -18.49600 21.10100 40.06300
H  -18.01400 20.31700 41.49100
H  -17.85000 19.53700 39.88900
H  -17.63500 15.48900 40.14500
H  -16.64800 14.05400 42.78700
H  -18.36000 16.89700 42.50400
H  -18.60500 15.24700 42.90900
H  -19.51500 15.82700 41.50700
H  -16.67900 12.14800 40.52300
H  -18.12800 13.02900 40.48200
H  -18.95300 11.63600 41.85300
H  -17.91000 12.03000 43.18800
H  -17.36100 10.79400 42.17800
H  -12.59800 10.59900 42.55300
H  -11.41000 10.21700 41.30100
H  -13.12500 10.39400 40.85400
H  -8.69300 13.67400 39.19700
H  -4.79000 12.56900 40.90500
H  -5.05600 14.39400 41.15500
H  -4.66500 13.70500 39.68100

