158

Mg 54.23700 23.51800 44.21200
C  51.80900 26.13800 43.52900
C  51.94400 21.15200 43.15200
C  56.75900 21.42700 44.11200
C  56.48600 26.12600 45.16100
N  52.18100 23.67200 43.06900
C  51.40100 24.77100 43.03300
C  49.95200 24.35100 42.68700
C  50.00400 22.82800 43.09200
C  51.50900 22.49600 43.07500
C  49.28000 22.43500 44.42300
C  49.61900 24.68500 41.16800
C  50.54800 24.28700 40.00400
H  51.14300 25.40000 39.02800
N  54.35200 21.56000 43.69300
C  53.32400 20.71500 43.37600
C  53.80900 19.38500 43.27600
C  55.20500 19.44600 43.35700
C  55.52200 20.86800 43.74400
C  53.05600 18.13500 42.95800
C  56.17400 18.37800 43.12600
O  55.82900 17.19300 42.91000
C  57.69300 18.59600 42.87600
N  56.34400 23.80300 44.31800
C  57.08600 22.70600 44.49300
C  58.42500 22.93500 45.22800
C  58.41700 24.48800 45.39200
C  56.97700 24.83900 44.86200
C  58.58000 22.00000 46.49100
C  59.53800 25.22800 44.56100
C  60.59200 25.88700 45.52600
N  54.19400 25.71700 44.40500
C  55.14200 26.55200 44.84600
C  54.53500 27.83600 45.11400
C  53.25000 27.72500 44.60700
C  53.14900 26.44000 43.99500
C  55.12800 29.04000 45.77700
C  51.97300 28.43600 44.42200
O  51.69900 29.57800 44.78400
C  51.04500 27.48700 43.60800
C  50.80800 28.04800 42.30400
O  51.68100 28.59400 41.63500
O  49.43900 28.28600 42.15800
C  48.95500 28.82800 40.88000
H  51.19700 20.36400 43.03300
H  57.46800 20.65400 44.41300
H  57.18100 26.86300 45.56900
H  49.24600 24.93400 43.27800
H  49.52800 22.23900 42.30800
H  50.02100 22.14100 45.16800
H  48.48800 21.69500 44.31200
H  48.77100 23.30400 44.83900
H  49.56000 25.76800 41.06400
H  48.57700 24.39200 41.04200
H  49.85000 23.67600 39.43200
H  51.37900 23.69700 40.39100
H  52.00400 18.31200 43.18100
H  53.31800 17.34800 43.66600
H  53.18800 17.89500 41.90300
H  58.20200 18.56400 43.84000
H  57.89500 19.56000 42.41000
H  58.07000 17.81100 42.22000
H  59.12800 22.65400 44.44400
H  58.49500 24.73900 46.45000
H  57.58400 21.89900 46.92200
H  59.27200 22.46600 47.19100
H  58.97900 21.02700 46.20400
H  59.01100 26.01300 44.01900
H  59.99900 24.58100 43.81500
H  61.60600 25.55900 45.29600
H  60.34500 25.73200 46.57600
H  60.52700 26.96600 45.38500
H  56.01800 28.65300 46.27200
H  54.44100 29.40400 46.54100
H  55.36500 29.76500 44.99900
H  50.14800 27.47400 44.22800
H  49.12000 28.24200 39.97600
H  49.38500 29.80300 40.64700
H  47.87100 28.94000 40.90100
Mg 47.92200 34.19400 26.80600
C  46.14800 32.93000 29.60900
C  48.68600 37.00000 28.58200
C  48.91000 35.76600 23.92600
C  46.89100 31.50700 24.98300
N  47.49800 34.76100 28.85200
C  46.85000 34.08600 29.88200
C  46.97600 34.78400 31.18900
C  47.36700 36.22100 30.68300
C  47.94700 36.02700 29.26400
C  46.21600 37.27800 30.77800
C  48.02700 34.16800 32.19500
C  47.69700 34.36400 33.62400
H  46.71900 35.45300 34.08900
N  48.65800 36.13800 26.36900
C  48.99400 37.05400 27.27200
C  49.60100 38.21000 26.59900
C  49.60900 37.92900 25.17800
C  48.93900 36.57400 25.09100
C  50.09500 39.38400 27.31600
C  50.22500 38.71100 24.11100
O  50.24000 38.25200 22.95800
C  51.01500 39.98700 24.32500
N  47.80800 33.71200 24.73800
C  48.37900 34.46700 23.74600
C  48.40700 33.73000 22.45900
C  47.65000 32.37900 22.64800
C  47.47900 32.49500 24.19000
C  47.90500 34.52500 21.25200
C  48.49100 31.12300 22.30100
C  49.60600 30.67100 23.22500
N  46.84100 32.45000 27.21400
C  46.50500 31.42100 26.35700
C  45.80000 30.40900 27.08800
C  45.53300 31.02600 28.35500
C  46.23200 32.23900 28.41000
C  45.23800 29.16500 26.63200
C  44.78000 30.82600 29.53700
O  44.06600 29.84800 29.85500
C  45.03500 32.13700 30.40000
C  45.32300 31.74700 31.78700
O  46.33900 31.19200 32.15300
O  44.22600 32.19800 32.59600
C  44.38000 31.85300 34.03100
H  48.87900 37.85700 29.23100
H  49.56400 36.10400 23.11900
H  46.67100 30.58300 24.44400
H  45.96000 34.72600 31.57900
H  48.08900 36.58000 31.41700
H  45.28900 36.92000 31.22500
H  45.90000 37.48400 29.75500
H  46.50600 38.23100 31.22000
H  49.06500 34.47000 32.05000
H  48.12300 33.08300 32.17100
H  48.63200 34.60800 34.12900
H  47.22000 33.47300 34.03100
H  49.68800 40.27900 26.84700
H  51.18300 39.33600 27.26500
H  49.89000 39.43500 28.38600
H  51.29700 40.46500 23.38700
H  51.90300 39.70600 24.89200
H  50.53600 40.68500 25.01200
H  49.45900 33.51400 22.27100
H  46.77000 32.54900 22.02900
H  46.95200 34.11500 20.91900
H  48.75800 34.64700 20.58400
H  47.65100 35.53300 21.58000
H  48.90800 31.29800 21.31000
H  47.73500 30.35500 22.46300
H  49.92200 31.46600 23.90100
H  50.53800 30.39200 22.73300
H  49.30200 29.79100 23.79100
H  45.46100 28.44000 27.41500
H  45.64800 28.87200 25.66500
H  44.15800 29.26900 26.52600
H  44.08400 32.66900 30.41600
H  43.72400 31.01000 34.25000
H  44.01700 32.70900 34.60000
H  45.37100 31.59900 34.40700

