158

Mg 2.19400 -1.47800 43.30400
C  5.63900 -1.09800 43.09700
C  1.77200 1.20400 41.23800
C  -1.12800 -2.30400 42.97500
C  2.66900 -4.60400 44.75700
N  3.62900 -0.12700 42.27300
C  5.02600 -0.08100 42.33900
C  5.58500 1.02900 41.47900
C  4.32800 1.72300 40.90500
C  3.10800 0.86900 41.47100
C  4.08200 3.24500 41.23700
C  6.50800 0.38900 40.45600
C  8.01400 0.83100 40.45600
H  8.52500 1.20300 39.06400
N  0.53700 -0.55500 42.35200
C  0.55200 0.51300 41.62000
C  -0.82100 0.79300 41.08200
C  -1.62700 -0.11100 41.73900
C  -0.74000 -1.09100 42.38800
C  -1.13400 2.07000 40.34400
C  -3.11200 -0.17700 41.65500
O  -3.71200 0.63700 40.96000
C  -3.97800 -0.94000 42.54000
N  0.94800 -3.28300 43.85800
C  -0.40600 -3.31300 43.51000
C  -1.09300 -4.53400 44.22500
C  0.13900 -5.29200 44.76900
C  1.33500 -4.40200 44.42000
C  -2.19600 -4.11300 45.24800
C  0.34700 -6.73600 44.35300
C  -0.04400 -7.81100 45.43700
N  3.74200 -2.64700 43.86400
C  3.78100 -3.82400 44.52900
C  5.19200 -4.11600 44.86700
C  5.91700 -3.07700 44.30300
C  4.98900 -2.23000 43.74500
C  5.73900 -5.35300 45.47400
C  7.24200 -2.59800 44.16000
O  8.25400 -2.96600 44.57000
C  7.10700 -1.27100 43.36600
C  7.49800 -0.18100 44.16900
O  7.37300 -0.17900 45.37300
O  8.11800 0.78800 43.49900
C  8.33500 2.08200 44.08600
H  1.71500 2.02600 40.52000
H  -2.18100 -2.52300 42.79000
H  2.95400 -5.44300 45.39600
H  6.11100 1.68700 42.17100
H  4.39400 1.64200 39.82000
H  4.09200 3.79400 40.29500
H  4.91100 3.65700 41.81200
H  3.11700 3.41800 41.71500
H  6.10900 0.62100 39.46900
H  6.48100 -0.69500 40.56100
H  8.60200 0.00900 40.86500
H  8.20800 1.64800 41.15100
H  -0.22200 2.31200 39.79800
H  -1.50800 2.93700 40.89000
H  -1.70000 1.80700 39.45100
H  -5.02600 -0.64100 42.53500
H  -3.62500 -0.92200 43.57100
H  -4.12200 -2.00200 42.33900
H  -1.46100 -5.08700 43.36100
H  -0.02200 -5.17300 45.84100
H  -2.17700 -3.03500 45.40600
H  -2.20800 -4.54100 46.25000
H  -3.13900 -4.19100 44.70700
H  1.37900 -6.87500 44.03000
H  -0.15500 -7.01400 43.42600
H  0.91300 -8.19600 45.78900
H  -0.65000 -8.61800 45.02500
H  -0.54200 -7.44700 46.33600
H  5.34900 -5.54700 46.47300
H  6.82700 -5.38200 45.40900
H  5.43500 -6.22600 44.89700
H  7.75300 -1.34800 42.49100
H  7.61400 2.88200 43.91600
H  9.24900 2.44300 43.61300
H  8.64600 1.98200 45.12600
Mg -12.50100 38.33500 41.52300
C  -10.65800 35.58800 40.49300
C  -10.47000 40.31000 39.86500
C  -14.74200 40.55800 42.01300
C  -14.94300 35.78900 42.75600
N  -10.94700 37.93700 40.17700
C  -10.25300 36.76700 39.91600
C  -8.99500 37.00600 39.14100
C  -8.86300 38.62400 39.06700
C  -10.18100 38.97400 39.77000
C  -7.63300 39.26000 39.81100
C  -8.99500 36.34500 37.67100
C  -7.75200 35.49400 37.26300
H  -6.78700 36.13700 36.26900
N  -12.59600 40.24300 41.07000
C  -11.61700 40.93000 40.43700
C  -11.96800 42.32200 40.46900
C  -13.22100 42.47800 41.13900
C  -13.56600 41.04400 41.47900
C  -11.07600 43.49100 39.83700
C  -13.90300 43.72700 41.42200
O  -13.50200 44.71400 40.86000
C  -15.15000 43.83200 42.24900
N  -14.47100 38.21100 42.45300
C  -15.19700 39.36100 42.45700
C  -16.60300 39.06300 42.93700
C  -16.73900 37.53900 43.02600
C  -15.33500 37.14100 42.74200
C  -16.96200 39.78700 44.29200
C  -17.71600 36.92700 42.07700
C  -17.39200 36.95600 40.56700
N  -12.67500 36.19900 41.81400
C  -13.66100 35.32300 42.41900
C  -13.19500 33.97400 42.41400
C  -11.99000 34.05800 41.69600
C  -11.77300 35.38700 41.28200
C  -13.82300 32.78900 43.07400
C  -11.00400 33.23500 41.19400
O  -10.85600 32.03100 41.19900
C  -10.01700 34.19600 40.44300
C  -8.69600 34.09000 41.11900
O  -8.54000 34.55700 42.24000
O  -7.75700 33.45700 40.35600
C  -6.43500 33.07600 40.99400
H  -9.80000 40.88000 39.21800
H  -15.52700 41.31100 41.91700
H  -15.63600 35.06100 43.18300
H  -8.19200 36.49400 39.67300
H  -8.91400 38.97800 38.03700
H  -7.82600 39.75000 40.76500
H  -7.14100 39.93300 39.10800
H  -6.95900 38.44000 40.06100
H  -9.20400 37.09600 36.90900
H  -9.88400 35.71400 37.66600
H  -8.01900 34.45900 37.04800
H  -7.18900 35.32600 38.18100
H  -11.17000 44.38800 40.44900
H  -11.31800 43.81700 38.82500
H  -10.03800 43.17100 39.92700
H  -15.95300 43.25700 41.79000
H  -15.59600 44.82600 42.26500
H  -14.97300 43.63500 43.30700
H  -17.35200 39.39100 42.21700
H  -16.97900 37.25500 44.05100
H  -17.50000 40.63400 43.86600
H  -16.07700 40.23500 44.74400
H  -17.56400 39.22400 45.00500
H  -18.68800 37.38900 42.25000
H  -17.93300 35.90500 42.39000
H  -17.37800 35.98900 40.06400
H  -16.36600 37.32300 40.54000
H  -18.09700 37.63400 40.08600
H  -13.84600 32.93300 44.15400
H  -13.27300 31.89700 42.77100
H  -14.83400 32.51100 42.77600
H  -10.02000 33.87700 39.40000
H  -5.99100 32.20000 40.52000
H  -6.50800 32.96800 42.07600
H  -5.88200 33.98300 40.74900

