158

Mg 44.85000 4.08400 47.08300
C  43.36600 7.14700 47.22000
C  41.79100 2.57600 46.49900
C  46.39000 0.97900 46.40300
C  47.94600 5.58800 46.96000
N  42.76800 4.83400 46.82900
C  42.45400 6.13400 47.01800
C  40.92200 6.34100 46.97500
C  40.39400 4.81200 46.84700
C  41.69600 3.97400 46.72400
C  39.54000 4.37300 48.12300
C  40.31500 7.35000 45.89800
C  40.95900 7.29900 44.54400
H  40.13000 6.98000 43.36700
N  44.16700 2.03500 46.67500
C  42.88500 1.69400 46.45000
C  42.78800 0.24800 46.24500
C  44.12900 -0.21200 46.19300
C  44.95100 0.92900 46.35100
C  41.45500 -0.53400 45.90700
C  44.43400 -1.67700 45.80800
O  43.48200 -2.43700 45.65300
C  45.84600 -2.15000 45.63400
N  46.82100 3.45500 46.58800
C  47.22000 2.15600 46.53100
C  48.73200 1.93900 46.54500
C  49.26600 3.47900 46.69500
C  47.94600 4.22200 46.74600
C  49.32800 0.99600 47.64000
C  50.30200 3.89800 45.62200
C  51.62500 4.58000 46.14400
N  45.59700 6.00200 47.13100
C  46.85600 6.46700 47.11000
C  46.89200 7.89700 47.29300
C  45.50800 8.21500 47.38200
C  44.77800 7.00800 47.26600
C  48.04000 8.86500 47.43600
C  44.52200 9.27300 47.53400
O  44.69300 10.47700 47.74300
C  43.08200 8.58300 47.47300
C  42.38300 8.74600 48.81400
O  42.59300 8.18600 49.86900
O  41.45600 9.70800 48.64600
C  40.46700 10.01500 49.77400
H  40.84300 2.07000 46.30600
H  46.88500 0.02300 46.22200
H  48.91900 6.08300 46.98000
H  40.76800 6.80400 47.95000
H  39.84000 4.68300 45.91800
H  38.66800 3.87500 47.69900
H  39.21200 5.20600 48.74500
H  40.21000 3.75900 48.72600
H  40.14000 8.33800 46.32300
H  39.27900 7.05600 45.73300
H  41.80100 6.60800 44.50800
H  41.48800 8.24600 44.44000
H  41.51100 -1.59500 46.14700
H  41.17400 -0.36000 44.86800
H  40.63400 -0.17500 46.52800
H  46.32000 -1.78100 46.54400
H  46.28400 -1.66300 44.76300
H  45.89000 -3.22800 45.48200
H  49.03000 1.50000 45.59300
H  49.74200 3.48100 47.67600
H  49.56000 0.00000 47.26200
H  48.58300 0.90900 48.43000
H  50.23100 1.43000 48.06900
H  49.67400 4.60200 45.07700
H  50.54700 3.04000 44.99500
H  52.44200 4.20000 45.53100
H  51.75400 4.38500 47.20900
H  51.50400 5.65700 46.02900
H  47.69500 9.88500 47.27100
H  48.78500 8.63900 46.67300
H  48.42800 8.85900 48.45500
H  42.39800 8.99100 46.72900
H  41.04400 10.21700 50.67700
H  39.79100 9.17500 49.93400
H  39.86100 10.85700 49.44000
Mg 54.97100 24.67800 44.18300
C  52.20400 26.33600 43.07100
C  53.66300 21.78400 42.77400
C  57.86200 22.99700 44.95200
C  56.43800 27.73100 45.37200
N  53.25300 24.16100 42.91400
C  52.26400 25.04900 42.55600
C  51.17100 24.36000 41.82100
C  51.31200 22.92200 42.40500
C  52.83800 22.92000 42.64400
C  50.36500 22.58400 43.55200
C  51.41500 24.50500 40.26700
C  50.22300 24.90000 39.29300
H  50.44100 25.23900 37.81800
N  55.66900 22.65100 43.90500
C  54.90600 21.65300 43.30000
C  55.68500 20.46000 43.35100
C  56.89100 20.73900 44.14500
C  56.84900 22.17200 44.41000
C  55.25200 19.23800 42.56300
C  57.97600 19.67900 44.38900
O  57.78300 18.48400 44.19000
C  59.15200 19.93600 45.20600
N  56.87300 25.33900 44.82300
C  57.87800 24.38200 45.14000
C  59.14100 24.96700 45.73400
C  58.80700 26.53200 45.53400
C  57.31400 26.57700 45.23700
C  59.50300 24.45800 47.18700
C  59.70500 27.22800 44.40300
C  60.85000 28.12000 44.81600
N  54.44600 26.62900 44.35000
C  55.02400 27.73000 44.95700
C  54.03700 28.76900 45.02300
C  52.89900 28.31400 44.35200
C  53.21500 26.96000 43.91000
C  54.27500 30.06800 45.58000
C  51.60600 28.66800 43.78300
O  50.95200 29.67000 43.87400
C  51.08800 27.38200 43.05200
C  50.66100 27.73700 41.68000
O  51.40700 28.00300 40.73700
O  49.26500 27.65100 41.66200
C  48.56800 28.21400 40.47900
H  53.08700 20.85700 42.72900
H  58.74900 22.41100 45.20300
H  56.93800 28.53900 45.91000
H  50.18800 24.71400 42.13100
H  51.11900 22.27700 41.54800
H  50.86300 22.15500 44.42200
H  49.58900 21.86200 43.30200
H  49.83500 23.39200 44.05700
H  51.82700 23.58000 39.86300
H  52.16000 25.29000 40.14100
H  49.77700 25.75700 39.79800
H  49.56900 24.02900 39.31900
H  54.96200 19.64400 41.59400
H  54.31700 18.81400 42.93000
H  56.02700 18.48900 42.40100
H  58.80100 20.55400 46.03200
H  59.87400 20.52400 44.63800
H  59.61100 19.03800 45.62000
H  59.85400 24.64200 44.97600
H  58.97800 27.06900 46.46700
H  58.71000 23.86100 47.63700
H  59.82300 25.28500 47.82000
H  60.33700 23.76000 47.12300
H  58.97200 27.79300 43.82600
H  60.18100 26.52800 43.71600
H  61.10200 27.98400 45.86800
H  60.55600 29.16100 44.68100
H  61.72500 27.77900 44.26400
H  53.61500 30.70000 44.98600
H  55.30000 30.41200 45.44200
H  53.92600 30.07100 46.61300
H  50.23100 27.13500 43.67800
H  48.22100 27.36100 39.89500
H  49.31000 28.77300 39.90900
H  47.82300 28.95400 40.76800

