158

Mg 34.39700 3.25700 30.08000
C  31.99700 3.98700 32.51300
C  36.86800 3.46600 32.45700
C  36.68600 2.82000 27.62700
C  31.90200 3.74200 27.56500
N  34.45000 3.83000 32.26500
C  33.32600 3.91900 33.03700
C  33.76300 3.81600 34.51300
C  35.33900 3.90600 34.47000
C  35.61300 3.63600 32.99200
C  36.07900 5.16600 34.97900
C  33.18400 2.56800 35.15600
C  32.95400 2.58800 36.65200
H  33.72400 3.63100 37.49800
N  36.50200 2.95000 30.05700
C  37.35600 3.22600 31.20800
C  38.74000 3.13900 30.80800
C  38.67100 2.71900 29.46400
C  37.24400 2.81800 28.97500
C  40.00200 3.16300 31.80100
C  39.82300 2.57000 28.47800
O  39.63300 2.15400 27.32300
C  41.24200 2.73300 28.89400
N  34.33000 3.35800 27.86600
C  35.39400 3.05400 27.07600
C  34.96000 3.04700 25.57500
C  33.39500 3.07700 25.68300
C  33.14500 3.42700 27.15800
C  35.55400 4.22800 24.79600
C  32.63600 1.76300 25.15100
C  31.54300 2.03800 24.09500
N  32.35300 3.87400 30.01200
C  31.51900 3.90700 28.92700
C  30.19800 4.11200 29.45700
C  30.29600 4.20300 30.86100
C  31.63800 3.99400 31.15300
C  29.01900 4.37400 28.59300
C  29.57100 4.50600 32.10400
O  28.45200 4.92700 32.28600
C  30.64800 4.30000 33.23000
C  30.73400 5.51000 34.09500
O  30.58100 6.70300 33.73400
O  30.78800 5.14500 35.41500
C  30.49300 6.05700 36.49800
H  37.63500 3.40200 33.23100
H  37.47800 2.65600 26.89200
H  31.18500 3.88900 26.75500
H  33.37400 4.64600 35.10200
H  35.77600 2.99400 34.87500
H  35.29600 5.87900 35.24000
H  36.50400 5.65700 34.10300
H  36.76200 5.07700 35.82400
H  33.92400 1.77400 35.05000
H  32.26600 2.26900 34.65000
H  33.26700 1.64100 37.09300
H  31.89000 2.62000 36.88500
H  40.70400 2.38100 31.51200
H  39.82300 2.78900 32.81000
H  40.50200 4.12000 31.95100
H  41.88700 2.50400 28.04600
H  41.29100 1.91900 29.61700
H  41.51700 3.61200 29.47800
H  35.28000 2.17400 25.00600
H  33.01500 3.88500 25.05900
H  34.82800 4.88900 24.32300
H  36.16800 3.87300 23.96800
H  36.11100 4.86100 25.48700
H  32.15400 1.28900 26.00700
H  33.30400 1.09000 24.61300
H  31.44800 3.08100 23.79300
H  30.61000 1.74100 24.57500
H  31.70000 1.47900 23.17300
H  28.93800 5.43900 28.37900
H  28.13400 4.08700 29.16100
H  29.05000 3.71800 27.72300
H  30.22600 3.44600 33.76000
H  29.49500 6.02000 36.93400
H  30.54200 7.08300 36.13300
H  31.22900 5.84900 37.27500
Mg -11.63600 39.22900 42.16500
C  -10.10300 36.09200 41.44200
C  -9.07200 40.73900 40.37100
C  -13.53000 41.94600 41.98800
C  -14.40400 37.26200 43.27000
N  -9.86900 38.45300 40.98900
C  -9.39000 37.16400 40.85300
C  -8.16400 37.15200 39.92700
C  -7.76800 38.63800 39.89000
C  -9.00000 39.36500 40.49900
C  -6.42800 38.87600 40.62600
C  -8.44000 36.41500 38.61300
C  -7.37700 35.29600 38.19700
H  -6.47200 35.47400 37.00200
N  -11.22300 41.13200 41.49000
C  -10.13000 41.58000 40.78400
C  -10.29500 43.02600 40.55000
C  -11.57900 43.38100 41.15500
C  -12.20300 42.10900 41.53600
C  -9.35500 43.81900 39.75700
C  -12.11300 44.85700 41.07800
O  -11.32800 45.73900 40.68900
C  -13.43900 45.28300 41.49700
N  -13.75200 39.58900 42.59200
C  -14.24300 40.81700 42.59100
C  -15.69500 40.80200 43.10300
C  -16.01800 39.23200 43.35500
C  -14.70900 38.63400 43.06100
C  -15.98700 41.80800 44.24100
C  -17.17300 38.59300 42.65600
C  -18.25600 38.00000 43.57500
N  -12.15500 37.12400 42.38400
C  -13.24200 36.54300 42.96000
C  -13.07000 35.06100 43.10200
C  -11.85300 34.87200 42.56300
C  -11.33800 36.13000 42.13400
C  -13.99000 34.03900 43.73300
C  -10.87400 33.90500 42.23100
O  -10.78300 32.68500 42.36000
C  -9.73300 34.62600 41.44100
C  -8.43700 34.31100 42.04800
O  -7.72300 33.44600 41.72800
O  -8.02000 35.36700 42.80800
C  -6.63500 35.47700 43.20400
H  -8.14800 41.12800 39.94000
H  -14.15200 42.84400 42.01100
H  -15.22000 36.68800 43.71300
H  -7.29800 36.65200 40.35900
H  -7.62900 39.00400 38.87300
H  -6.63700 38.88400 41.69600
H  -6.12600 39.85500 40.25300
H  -5.73700 38.04300 40.50100
H  -8.25700 37.11500 37.79700
H  -9.47200 36.10500 38.45000
H  -7.92400 34.39300 37.92700
H  -6.71900 35.06800 39.03600
H  -8.64400 43.29400 39.12000
H  -8.88200 44.39400 40.55400
H  -9.91800 44.45000 39.06900
H  -14.10300 44.57400 41.00300
H  -13.50500 46.26900 41.03500
H  -13.54300 45.39500 42.57600
H  -16.22500 41.18100 42.23000
H  -16.14500 39.12800 44.43300
H  -15.14000 42.49000 44.32400
H  -16.10600 41.28100 45.18700
H  -16.90900 42.36400 44.07100
H  -16.70800 37.91500 41.94100
H  -17.66700 39.31200 42.00300
H  -19.26900 38.39400 43.48800
H  -18.00100 38.09600 44.63000
H  -18.15100 36.95900 43.27000
H  -13.47000 33.08300 43.79500
H  -14.92000 33.97600 43.16800
H  -14.16500 34.37300 44.75500
H  -9.72000 34.34900 40.38700
H  -5.83600 35.18200 42.52400
H  -6.44400 34.94700 44.13700
H  -6.32300 36.47700 43.50400

