158

Mg 9.71000 47.97200 25.46200
C  7.58200 48.10000 28.09700
C  12.32100 49.09700 27.46400
C  11.66900 47.73500 22.89600
C  6.88300 47.78500 23.31500
N  9.90600 48.44800 27.54500
C  8.93400 48.40600 28.46500
C  9.54200 48.61000 29.88900
C  10.78900 49.39600 29.51600
C  11.07000 48.90300 28.08700
C  10.68900 50.90000 29.74300
C  9.54800 47.28400 30.72600
C  10.68300 47.08600 31.61000
H  10.41000 46.10600 32.88100
N  11.70300 48.41200 25.21100
C  12.64300 48.78600 26.15000
C  13.93600 48.82700 25.55100
C  13.78200 48.26900 24.24800
C  12.36100 48.14100 24.03100
C  15.15300 49.32900 26.26900
C  14.83700 47.91700 23.23100
O  14.61600 47.29500 22.20800
C  16.26600 48.03700 23.58700
N  9.28400 48.06900 23.31600
C  10.34100 47.75500 22.54500
C  9.89700 47.61600 21.07300
C  8.37700 47.28300 21.31100
C  8.14900 47.76300 22.69300
C  10.25800 48.91500 20.21400
C  7.85200 45.79600 21.11600
C  8.09400 44.74800 22.19900
N  7.63600 47.87200 25.63100
C  6.61500 47.76400 24.69100
C  5.30800 47.65800 25.35300
C  5.66600 47.71300 26.71100
C  7.06200 47.96800 26.80100
C  3.96700 47.39900 24.80900
C  5.18700 47.54800 28.06200
O  4.08500 47.28500 28.53100
C  6.40800 47.88000 28.96600
C  6.56400 46.73000 29.92400
O  6.87500 45.63200 29.62500
O  5.92500 47.09600 31.04400
C  5.34300 46.07700 31.90400
H  13.12200 49.48100 28.10000
H  12.24800 47.51900 21.99600
H  6.04600 47.66100 22.62400
H  8.93500 49.35800 30.39900
H  11.69500 49.14900 30.07000
H  11.27700 51.45200 29.01000
H  11.09200 51.11900 30.73200
H  9.68100 51.25100 29.52300
H  9.49900 46.42000 30.06200
H  8.69400 47.32900 31.40100
H  11.13700 48.05200 31.83100
H  11.53000 46.69800 31.04300
H  16.03300 48.69300 26.17100
H  14.94700 49.62100 27.29800
H  15.55100 50.23000 25.80300
H  16.90100 47.82300 22.72700
H  16.56100 47.35500 24.38400
H  16.43000 49.07600 23.87200
H  10.44800 46.76600 20.67200
H  7.73000 47.88900 20.67800
H  10.46200 49.72900 20.91000
H  9.45600 49.20900 19.53700
H  11.16000 48.71900 19.63300
H  8.34500 45.48200 20.19600
H  6.79400 45.83600 20.85800
H  9.12800 45.00500 22.43000
H  8.02500 43.78400 21.69600
H  7.42700 44.90100 23.04700
H  3.68900 48.05400 23.98300
H  3.24900 47.57800 25.60900
H  3.88900 46.38600 24.41300
H  6.11200 48.72700 29.58500
H  4.44100 46.55300 32.28900
H  6.05600 45.89700 32.71000
H  5.12200 45.04800 31.62000
Mg -12.60200 38.40700 41.34600
C  -10.60500 35.78500 40.47800
C  -10.38600 40.59700 40.00200
C  -15.18000 40.69600 41.11800
C  -15.06800 36.07300 42.52500
N  -10.79600 38.12200 40.08800
C  -10.10900 36.97200 39.89800
C  -8.66800 37.19600 39.40100
C  -8.62800 38.75100 39.41100
C  -9.99800 39.21400 39.89600
C  -7.41600 39.49200 40.09100
C  -8.44900 36.59700 37.92200
C  -7.24200 35.74400 37.71500
H  -6.56500 35.98100 36.40900
N  -12.72600 40.36400 40.69800
C  -11.63400 41.12200 40.27700
C  -12.05300 42.48800 40.13700
C  -13.44900 42.55000 40.37100
C  -13.84500 41.16900 40.77500
C  -11.25100 43.68600 39.79400
C  -14.27500 43.82400 40.39600
O  -13.79400 44.93200 40.13100
C  -15.72800 43.86200 40.82200
N  -14.83000 38.48100 41.93100
C  -15.67700 39.46600 41.55900
C  -17.13300 39.14800 41.78800
C  -17.08500 37.72500 42.30100
C  -15.57700 37.39800 42.28200
C  -17.94700 40.06500 42.74200
C  -17.99000 36.74400 41.51900
C  -18.82000 35.69400 42.44400
N  -12.78500 36.40600 41.60900
C  -13.79200 35.56200 42.17200
C  -13.34500 34.18600 42.14200
C  -12.11100 34.26900 41.51900
C  -11.81800 35.57600 41.17400
C  -14.12400 32.97900 42.59600
C  -11.05600 33.47900 40.95700
O  -11.03200 32.22500 40.93800
C  -10.01400 34.38300 40.34800
C  -8.77700 33.96900 41.08900
O  -7.88500 33.30500 40.58800
O  -8.70100 34.62600 42.26700
C  -7.53500 34.27000 43.05900
H  -9.52900 41.21700 39.73100
H  -15.95600 41.45300 40.98800
H  -15.86000 35.40800 42.87600
H  -7.89100 36.90200 40.10700
H  -8.51200 39.10000 38.38400
H  -6.65300 38.78200 40.41100
H  -7.78800 39.99600 40.98300
H  -6.91900 40.30100 39.55500
H  -8.57400 37.37000 37.16400
H  -9.38500 36.08100 37.70600
H  -7.41800 34.68500 37.90300
H  -6.51400 35.98800 38.48900
H  -10.19000 43.44900 39.71600
H  -11.43400 44.37700 40.61700
H  -11.57300 44.10100 38.84000
H  -16.19600 44.84400 40.75000
H  -15.86700 43.37300 41.78600
H  -16.19000 43.26100 40.04000
H  -17.61800 39.15900 40.81200
H  -17.29300 37.75400 43.37100
H  -17.38300 40.97000 42.96700
H  -18.13300 39.68100 43.74500
H  -18.87500 40.40200 42.28000
H  -17.42300 36.10000 40.84600
H  -18.64700 37.30500 40.85400
H  -19.78400 36.06200 42.79700
H  -18.16700 35.32500 43.23400
H  -19.12200 34.83800 41.84100
H  -13.86900 32.91200 43.65400
H  -13.81300 32.14200 41.97100
H  -15.17000 33.22400 42.41100
H  -9.93500 34.03200 39.31900
H  -7.87600 33.44800 43.68900
H  -7.19800 35.07600 43.71100
H  -6.68000 33.94800 42.46500

