158

Mg 7.41500 3.47700 27.05700
C  9.16400 2.07500 29.82900
C  5.31200 5.08400 29.20800
C  5.70100 4.61200 24.37200
C  9.00500 1.19800 25.01100
N  7.26900 3.52600 29.23800
C  8.16200 3.00600 30.19000
C  7.80900 3.58400 31.54800
C  6.50100 4.35400 31.31300
C  6.31700 4.31700 29.82600
C  5.17900 3.92700 32.08300
C  9.08200 4.36900 32.10900
C  8.88200 5.13200 33.42900
H  9.70800 4.66400 34.66900
N  5.75500 4.81500 26.85300
C  4.99100 5.36600 27.80200
C  3.92900 6.15800 27.25300
C  4.16100 6.17700 25.82900
C  5.23300 5.13000 25.64800
C  3.09200 7.10700 28.13500
C  3.47800 6.93100 24.80300
O  3.83500 6.76700 23.66500
C  2.38900 7.88500 25.07000
N  7.32200 2.97700 25.02300
C  6.65900 3.72400 24.08000
C  6.94900 3.18900 22.65200
C  8.18000 2.21600 22.84000
C  8.11400 2.06100 24.37700
C  5.75900 2.53800 21.90100
C  9.51900 2.85300 22.30800
C  9.79700 2.28700 20.89700
N  8.86700 1.95400 27.37200
C  9.36500 1.12000 26.45600
C  10.31900 0.23100 27.03000
C  10.32600 0.62800 28.42600
C  9.41000 1.68600 28.53200
C  10.93300 -0.97100 26.43200
C  10.84100 0.37100 29.73600
O  11.67100 -0.48100 30.08900
C  10.13300 1.30600 30.73600
C  9.54000 0.57000 31.95100
O  8.62300 -0.22700 31.92500
O  10.20000 1.00100 33.10900
C  9.81000 0.33600 34.45200
H  4.68100 5.59500 29.93800
H  5.29600 4.99400 23.43300
H  9.49300 0.47800 24.35000
H  7.62000 2.76100 32.23700
H  6.67100 5.39900 31.57100
H  5.44000 3.17500 32.82800
H  4.44500 3.62900 31.33400
H  4.80900 4.80600 32.61000
H  9.37000 5.02800 31.29100
H  9.93400 3.71100 32.27800
H  7.90600 5.08200 33.91100
H  9.17400 6.16600 33.24400
H  3.68200 7.37000 29.01300
H  2.24700 6.49300 28.44800
H  2.76600 7.99600 27.59500
H  2.05700 8.24200 24.09500
H  2.96300 8.68500 25.53600
H  1.56100 7.48900 25.65900
H  7.19700 4.08900 22.09000
H  8.09800 1.21600 22.41600
H  4.88100 2.81600 22.48400
H  5.86400 1.45300 21.88600
H  5.57700 2.98600 20.92400
H  10.31900 2.60800 23.00700
H  9.48700 3.94200 22.27300
H  9.63900 2.91800 20.02200
H  9.12900 1.46000 20.65700
H  10.81100 1.88900 20.85600
H  11.39600 -1.45300 27.29200
H  11.71200 -0.60100 25.76500
H  10.25000 -1.59600 25.85600
H  10.84700 2.05100 31.08700
H  8.97300 -0.35000 34.32200
H  9.48800 1.11600 35.14200
H  10.67800 -0.11800 34.93000
Mg 17.55500 50.82900 26.63200
C  19.48200 49.27800 29.09100
C  15.21900 51.71800 28.93000
C  15.42500 51.45500 24.09300
C  19.72100 49.30700 24.14500
N  17.31000 50.39400 28.73700
C  18.35800 49.98500 29.57300
C  17.98100 50.18300 31.00000
C  16.45600 50.68800 30.88800
C  16.28900 50.99900 29.41800
C  15.43600 49.64900 31.47200
C  18.94900 51.24500 31.53700
C  18.74500 51.73400 32.95900
H  17.83700 50.89800 33.91200
N  15.74000 51.79000 26.50500
C  14.92500 52.03700 27.56800
C  13.76600 52.68400 27.13600
C  13.80900 52.64800 25.71900
C  15.05000 51.91900 25.37900
C  12.85800 53.36800 28.16700
C  12.88700 53.34100 24.76200
O  13.14400 53.54100 23.57600
C  11.60200 53.95900 25.24900
N  17.50200 50.27600 24.48200
C  16.46700 50.66300 23.70400
C  16.79800 50.46300 22.18000
C  18.25800 50.05300 22.26000
C  18.56200 49.88300 23.70100
C  15.78900 49.46200 21.45300
C  19.25100 51.04700 21.55100
C  20.24900 50.40300 20.51400
N  19.25800 49.54400 26.55200
C  20.02400 49.03300 25.53100
C  21.07700 48.18300 26.11700
C  20.93600 48.29000 27.48800
C  19.87800 49.16400 27.74200
C  22.18000 47.57000 25.20700
C  21.46200 47.77800 28.79100
O  22.41200 47.07600 29.02200
C  20.61200 48.52800 29.87800
C  20.10600 47.62200 30.95800
O  19.33400 46.69700 30.79400
O  20.73700 48.02400 32.16200
C  20.21300 47.30000 33.32400
H  14.61900 52.13400 29.74200
H  14.69500 51.54700 23.28500
H  20.42100 48.99300 23.36800
H  18.03200 49.23400 31.53400
H  16.34800 51.56500 31.52700
H  15.89300 48.83200 32.03100
H  14.97600 49.10200 30.64900
H  14.70400 50.07200 32.16000
H  18.81200 52.15000 30.94600
H  20.01400 51.05100 31.41500
H  18.34700 52.74300 32.85300
H  19.74000 51.82400 33.39500
H  13.31600 54.33500 28.37600
H  12.76800 52.83700 29.11400
H  11.83000 53.35300 27.80500
H  10.89200 53.29100 25.73700
H  11.19000 54.41000 24.34700
H  11.85800 54.77300 25.92800
H  16.73200 51.43400 21.68900
H  18.25300 49.07300 21.78200
H  14.98700 49.27900 22.16700
H  16.36100 48.56100 21.23000
H  15.43000 49.84300 20.49700
H  19.95700 51.55400 22.21000
H  18.73700 51.83300 20.99700
H  20.16400 50.76800 19.49100
H  19.95700 49.35600 20.43400
H  21.29300 50.35300 20.82300
H  23.00000 47.19600 25.81900
H  22.55300 48.34900 24.54200
H  21.70400 46.78700 24.61600
H  21.22500 49.27900 30.37600
H  20.01800 46.23600 33.19200
H  19.43000 47.84600 33.85200
H  21.13100 47.27700 33.91000

