158

Mg 44.99700 4.76600 47.80200
C  43.03200 7.65300 46.96600
C  42.21300 2.85700 47.25100
C  46.93000 2.05000 47.82400
C  47.81100 6.91000 47.38800
N  42.94600 5.21500 47.12000
C  42.40000 6.42900 46.81300
C  40.90500 6.26700 46.52600
C  40.49100 4.82800 47.04800
C  41.96400 4.22500 47.23400
C  39.69400 4.84100 48.34600
C  40.53500 6.54400 45.00800
C  39.76000 7.79700 44.68200
H  39.98900 8.44600 43.37000
N  44.57800 2.72300 47.56400
C  43.40200 2.09100 47.38700
C  43.54600 0.62500 47.39300
C  44.93400 0.39800 47.59200
C  45.54100 1.72300 47.67100
C  42.35300 -0.26300 47.00200
C  45.60000 -0.92900 47.63700
O  44.97000 -1.91300 47.34100
C  47.10300 -1.09300 47.99300
N  47.03000 4.51100 47.40500
C  47.64100 3.33600 47.70500
C  49.18700 3.49200 47.86600
C  49.40200 4.93800 47.36600
C  47.98300 5.52200 47.39300
C  49.77100 3.20200 49.25500
C  50.04400 5.02700 45.93900
C  51.58800 5.44300 45.80400
N  45.34800 6.86000 47.52700
C  46.55100 7.56200 47.43900
C  46.18700 9.00600 47.49400
C  44.82800 9.10400 47.33600
C  44.37800 7.76200 47.28700
C  47.11300 10.08800 47.68200
C  43.75500 10.05400 47.22300
O  43.71800 11.30100 47.38600
C  42.49400 9.16800 46.89100
C  41.45800 9.36100 47.93400
O  41.30100 8.59200 48.89200
O  40.73500 10.50300 47.75000
C  39.80600 11.04500 48.77600
H  41.28600 2.29700 47.11100
H  47.67200 1.26300 47.97300
H  48.70700 7.53100 47.43900
H  40.43000 6.97200 47.20800
H  39.84400 4.37800 46.29500
H  39.38300 5.86700 48.54400
H  40.25900 4.34600 49.13600
H  38.75200 4.33400 48.14000
H  39.96700 5.66200 44.71100
H  41.46100 6.49300 44.43500
H  39.83200 8.44000 45.55900
H  38.71200 7.51500 44.78900
H  42.37200 -0.26900 45.91200
H  41.34300 0.12800 47.13100
H  42.42900 -1.28800 47.36500
H  47.65500 -0.81700 47.09500
H  47.30100 -2.16000 48.09200
H  47.24400 -0.59100 48.95000
H  49.63500 2.73600 47.22200
H  50.05300 5.56300 47.97700
H  50.12900 4.12700 49.70700
H  50.65300 2.56100 49.25400
H  48.96200 2.77000 49.84400
H  49.52100 5.81500 45.39600
H  50.18900 4.12400 45.34600
H  51.55100 6.38200 45.25300
H  52.20800 4.62200 45.44500
H  51.93000 5.60800 46.82600
H  46.51900 10.74200 48.32000
H  47.27700 10.65800 46.76700
H  48.09700 9.87500 48.10100
H  42.12000 9.50800 45.92500
H  38.81200 10.93300 48.34200
H  39.98100 12.09700 49.00100
H  39.87800 10.61900 49.77700
Mg 17.69000 51.39900 26.38300
C  19.63200 49.92500 28.83600
C  15.44200 52.10400 28.76700
C  15.58700 52.45400 23.87000
C  19.79300 50.01200 23.94500
N  17.56500 51.10100 28.55500
C  18.52500 50.52600 29.39600
C  18.08300 50.56100 30.83000
C  16.47600 50.74500 30.66700
C  16.45900 51.34100 29.27600
C  15.57400 49.43600 30.72100
C  18.73500 51.75000 31.53900
C  19.02400 51.46800 33.01800
H  17.81800 50.82400 33.87700
N  15.81900 52.32600 26.34600
C  15.11700 52.60800 27.46800
C  13.92600 53.34800 27.05300
C  13.84900 53.31200 25.60200
C  15.09400 52.67500 25.21100
C  13.02600 54.01000 28.11700
C  12.70600 53.86900 24.74000
O  12.90800 53.85600 23.52300
C  11.49800 54.54000 25.28800
N  17.61000 51.17000 24.21400
C  16.71800 51.80300 23.42600
C  17.32800 52.02900 22.02200
C  18.72700 51.36000 22.07700
C  18.72900 50.80200 23.52100
C  16.46100 51.57400 20.83300
C  19.96900 52.41000 21.93200
C  21.29900 51.77100 21.39000
N  19.35000 50.17400 26.31300
C  20.11300 49.69900 25.23000
C  21.18300 48.83400 25.74100
C  21.08400 48.94400 27.15500
C  19.98200 49.75300 27.47800
C  22.25100 48.22900 24.93500
C  21.63200 48.48100 28.45500
O  22.55400 47.68700 28.72300
C  20.75400 49.18500 29.55700
C  20.21800 48.16500 30.47600
O  19.39000 47.33300 30.27600
O  20.85400 48.24200 31.71100
C  20.65600 47.16900 32.67700
H  14.63500 52.30300 29.47600
H  15.05600 52.96900 23.06700
H  20.48800 49.76500 23.14000
H  18.22100 49.63000 31.37900
H  16.12700 51.56200 31.29800
H  14.85100 49.31700 29.91400
H  14.89300 49.56000 31.56300
H  16.21600 48.57000 30.88000
H  18.11500 52.63400 31.39200
H  19.69300 51.94200 31.05700
H  19.18400 52.49000 33.36400
H  19.92100 50.85000 33.06200
H  13.48900 54.08200 29.10100
H  12.23100 53.28200 28.27600
H  12.67400 54.97200 27.74600
H  10.80600 54.53700 24.44600
H  11.69500 55.51800 25.72500
H  10.96400 53.96800 26.04700
H  17.37700 53.10900 21.88100
H  18.77400 50.61500 21.28200
H  16.59400 50.50000 20.70400
H  16.75000 52.14000 19.94800
H  15.40600 51.69600 21.07900
H  20.08800 53.00700 22.83700
H  19.84200 53.17400 21.16500
H  21.32000 50.69000 21.52800
H  22.17200 52.13900 21.92900
H  21.57200 51.95000 20.35000
H  22.00800 47.27000 24.47700
H  23.13000 48.18500 25.57900
H  22.34700 48.93000 24.10600
H  21.37000 49.90300 30.09800
H  20.44500 46.23000 32.16400
H  19.80600 47.46900 33.28900
H  21.52200 47.14500 33.33900

