158

Mg 47.33500 25.57500 27.42300
C  48.39900 27.58200 29.79600
C  45.99300 23.40700 29.75400
C  46.46600 23.34600 24.91800
C  49.05400 27.42100 25.03100
N  47.10200 25.58200 29.51200
C  47.52300 26.61900 30.28300
C  47.33900 26.31200 31.79400
C  46.66900 24.88400 31.80500
C  46.55200 24.57900 30.25300
C  47.49800 23.86700 32.61000
C  46.48000 27.42400 32.50400
C  46.99400 27.90700 33.94000
H  46.00100 28.15700 35.00300
N  46.39500 23.57000 27.38400
C  45.88700 22.93400 28.42000
C  45.28100 21.66500 28.01200
C  45.37300 21.66300 26.57200
C  46.09400 22.91000 26.22300
C  44.57400 20.74400 29.02900
C  44.97200 20.62700 25.62300
O  45.13500 20.64800 24.38800
C  44.31300 19.36100 26.16500
N  47.53000 25.48700 25.30800
C  47.22700 24.49000 24.48200
C  47.52600 24.75500 23.02400
C  48.13700 26.12300 23.06500
C  48.35700 26.34700 24.59300
C  48.33300 23.66700 22.26700
C  47.27300 27.18900 22.48800
C  47.86300 27.60100 21.10000
N  48.42200 27.27600 27.42300
C  49.10600 27.92900 26.37500
C  49.78700 29.13000 26.89900
C  49.55900 28.99200 28.30600
C  48.73400 27.82900 28.49700
C  50.45900 30.20900 26.14900
C  49.82800 29.58000 29.60900
O  50.55600 30.51500 29.94900
C  48.99500 28.77100 30.62200
C  49.88800 28.28900 31.70600
O  50.58300 27.26200 31.66100
O  49.84000 29.09000 32.80900
C  50.66900 28.63500 33.94800
H  45.66400 22.78200 30.58700
H  46.29100 22.81800 23.97800
H  49.50000 28.04600 24.25500
H  48.31800 26.16500 32.25200
H  45.72800 24.92300 32.35400
H  46.90200 23.46100 33.42700
H  48.26400 24.36700 33.20300
H  47.80700 23.12800 31.87100
H  45.45400 27.09800 32.67900
H  46.43400 28.29200 31.84700
H  47.70900 28.72400 33.84300
H  47.57700 27.04100 34.25600
H  45.02900 19.75400 29.00600
H  43.53800 20.61800 28.71500
H  44.54800 21.17300 30.03100
H  43.85900 18.72700 25.40300
H  43.42300 19.49800 26.78000
H  45.03400 18.74400 26.70000
H  46.50200 24.82700 22.66000
H  49.17700 26.09800 22.74000
H  47.64600 23.19100 21.56700
H  48.82200 23.08100 23.04500
H  49.18500 24.06300 21.71300
H  47.32600 28.07000 23.12700
H  46.21900 26.95800 22.33300
H  47.37900 27.02200 20.31300
H  48.95200 27.63800 21.07600
H  47.51300 28.62800 20.99500
H  50.60900 31.14000 26.69600
H  49.88200 30.35800 25.23600
H  51.44500 29.88600 25.81500
H  48.24000 29.53700 30.79800
H  50.89000 29.47500 34.60700
H  51.64400 28.30700 33.58600
H  50.23100 27.84400 34.55700
Mg 2.02200 42.79300 26.50600
C  3.16900 42.84300 29.66100
C  -0.96300 41.36900 27.62600
C  1.16700 41.69300 23.34400
C  5.08400 43.65700 25.36100
N  1.19100 42.21600 28.36300
C  1.92200 42.28500 29.49300
C  1.01100 42.09500 30.70800
C  -0.27200 41.42300 30.10500
C  0.01500 41.65200 28.62600
C  -0.44500 39.93300 30.59800
C  0.83600 43.29900 31.58200
C  0.99500 43.11600 33.11800
H  0.44800 41.89800 33.73300
N  0.26500 41.85000 25.65700
C  -0.89100 41.46500 26.26000
C  -1.85400 40.95900 25.27300
C  -1.20300 40.97100 23.98100
C  0.11400 41.58200 24.29900
C  -3.14600 40.43200 25.62200
C  -1.68200 40.57700 22.67500
O  -1.09200 40.64300 21.64000
C  -3.01800 39.99500 22.45500
N  2.97300 42.63200 24.63000
C  2.42200 42.29400 23.48600
C  3.41300 42.38400 22.34300
C  4.51700 43.35400 22.89100
C  4.15900 43.29500 24.40700
C  3.97800 41.02100 21.87500
C  4.43700 44.79700 22.24900
C  3.80600 45.98300 23.08800
N  3.75000 43.21800 27.30700
C  4.92500 43.57300 26.76200
C  5.90700 43.67300 27.74800
C  5.28900 43.54400 28.96300
C  3.94500 43.21300 28.60100
C  7.39400 43.86100 27.56700
C  5.50200 43.37100 30.34300
O  6.48100 43.39400 31.09600
C  4.05900 42.92300 30.92900
C  4.31100 41.65900 31.58900
O  4.74900 40.69400 31.03600
O  4.07900 41.79300 32.96000
C  4.15400 40.44900 33.66900
H  -1.92400 41.03400 28.02300
H  1.08300 41.18300 22.38200
H  6.01500 44.16100 25.09400
H  1.56700 41.35700 31.28700
H  -1.14500 42.00800 30.39500
H  0.33900 39.49300 31.21400
H  -0.61500 39.31600 29.71600
H  -1.32900 39.98300 31.23200
H  -0.15600 43.74100 31.48600
H  1.49000 44.15300 31.40700
H  0.54500 43.94200 33.66900
H  2.06900 43.15500 33.30100
H  -3.09900 39.37400 25.88000
H  -3.96000 40.64300 24.92800
H  -3.53600 40.88900 26.53200
H  -3.16300 39.28500 23.27000
H  -3.07600 39.44200 21.51800
H  -3.66200 40.87200 22.50100
H  2.97600 42.78900 21.43000
H  5.49500 42.87200 22.88400
H  3.34800 40.25100 22.32000
H  4.95300 40.89000 22.34400
H  4.08800 40.94400 20.79300
H  3.79800 44.71800 21.36900
H  5.44200 45.05700 21.91500
H  3.46500 45.67800 24.07800
H  2.98300 46.35500 22.47900
H  4.64000 46.65900 23.28000
H  7.65100 44.60400 26.81200
H  7.91900 42.98500 27.18600
H  7.83100 44.09400 28.53900
H  3.72000 43.66000 31.65600
H  5.02800 40.47600 34.32100
H  4.09000 39.55800 33.04500
H  3.44400 40.22500 34.46600

