158

Mg -2.79100 17.44400 26.80800
C  -2.88400 15.61300 29.80200
C  -3.60000 20.23300 28.68300
C  -2.95300 19.09300 23.95200
C  -3.01800 14.40600 24.93300
N  -3.22700 17.77300 28.98600
C  -3.07300 16.92400 30.03900
C  -3.34000 17.57600 31.41500
C  -3.88100 19.02900 30.96200
C  -3.55700 19.06300 29.41000
C  -5.32300 19.29800 31.40300
C  -2.06800 17.71300 32.37500
C  -2.32500 17.87600 33.86100
H  -1.09200 17.61800 34.73000
N  -3.18700 19.40500 26.39600
C  -3.27900 20.46000 27.29100
C  -3.33600 21.70000 26.53100
C  -3.07300 21.40700 25.16400
C  -3.01900 19.91700 25.12300
C  -3.56700 23.06400 27.16600
C  -2.79700 22.33400 23.96600
O  -2.51200 21.92400 22.85900
C  -3.02700 23.75300 24.08500
N  -2.94000 16.85300 24.73300
C  -2.97500 17.78000 23.77600
C  -3.03500 17.00800 22.30900
C  -2.70600 15.51200 22.72800
C  -2.99200 15.57100 24.22800
C  -4.46700 17.26000 21.65600
C  -1.17600 15.22100 22.43100
C  -0.97900 13.79800 21.73500
N  -2.76500 15.45900 27.18400
C  -2.87500 14.37200 26.37400
C  -2.92900 13.16200 27.20600
C  -2.86900 13.64200 28.49800
C  -2.83100 15.01000 28.46900
C  -3.14200 11.77600 26.77000
C  -2.94700 13.14200 29.84300
O  -3.13100 11.99600 30.18200
C  -2.76000 14.34200 30.81800
C  -1.45400 14.31900 31.44800
O  -0.38100 14.52000 30.84600
O  -1.58700 13.93000 32.76600
C  -0.36000 13.66900 33.59400
H  -3.72900 21.17900 29.21300
H  -2.84200 19.56600 22.97400
H  -2.87400 13.44300 24.43800
H  -4.12800 16.95600 31.84300
H  -3.21200 19.80100 31.34000
H  -5.97700 19.33000 30.53100
H  -5.23800 20.27400 31.88100
H  -5.68500 18.55600 32.11400
H  -1.55100 18.61100 32.03700
H  -1.37500 16.91700 32.10200
H  -3.05500 17.16400 34.24700
H  -2.75300 18.87800 33.83400
H  -4.56800 23.46400 27.00900
H  -2.86400 23.79100 26.76000
H  -3.42500 23.13100 28.24500
H  -3.98300 23.92400 24.58000
H  -3.40100 24.15700 23.14400
H  -2.23700 24.30000 24.59900
H  -2.19900 17.43200 21.75300
H  -3.35700 14.76400 22.27500
H  -5.17000 17.41200 22.47500
H  -4.73500 16.39000 21.05500
H  -4.37100 18.18700 21.09000
H  -0.61200 15.13600 23.36000
H  -0.71000 15.87100 21.69000
H  -0.15000 13.83700 21.02900
H  -1.88500 13.57500 21.17000
H  -0.71500 13.00300 22.43200
H  -2.51300 11.20100 27.44900
H  -2.80300 11.62600 25.74500
H  -4.17200 11.43200 26.86500
H  -3.55000 14.45300 31.56000
H  -0.41500 14.08000 34.60200
H  0.56100 14.04900 33.15200
H  -0.30400 12.58300 33.66700
Mg 46.89900 16.72900 28.74900
C  44.90300 16.50200 31.72600
C  49.23900 18.34100 30.61700
C  48.30900 17.70500 25.94900
C  44.10200 15.63300 26.93700
N  47.16900 17.12700 30.95100
C  46.21700 16.97100 31.96400
C  46.76100 17.46600 33.31100
C  48.12000 18.16500 32.92900
C  48.24400 17.84500 31.41100
C  48.21200 19.62300 33.32100
C  47.01400 16.32700 34.30300
C  46.43700 16.64200 35.70400
H  46.39300 18.08900 36.17100
N  48.75400 17.68700 28.31300
C  49.49100 18.35800 29.25400
C  50.51200 19.11000 28.48200
C  50.33300 18.78400 27.12400
C  49.13000 17.95700 27.03900
C  51.44900 20.16600 29.10300
C  51.15500 19.19600 25.91800
O  50.93000 18.78400 24.77400
C  52.30400 20.17300 26.09800
N  46.28400 16.61300 26.77900
C  47.06700 17.10800 25.77100
C  46.47500 16.93400 24.40900
C  45.23400 16.17400 24.68500
C  45.18000 16.11200 26.23900
C  46.18000 18.26900 23.73500
C  45.18400 14.76900 24.05700
C  44.89600 14.63900 22.51800
N  44.89800 16.07300 29.23000
C  43.92600 15.58300 28.39600
C  42.82700 15.07400 29.14300
C  43.14800 15.46800 30.48100
C  44.41400 16.08400 30.46300
C  41.71400 14.40700 28.65400
C  42.66500 15.44400 31.82500
O  41.60500 14.99000 32.32300
C  43.81800 16.10700 32.72600
C  43.24800 17.26400 33.56300
O  43.21500 18.42000 33.15800
O  42.75600 16.80800 34.70800
C  42.07700 17.77400 35.58500
H  49.93200 19.01000 31.13200
H  48.79700 17.95700 25.00600
H  43.23600 15.22900 26.40800
H  46.06100 18.20200 33.70600
H  48.93500 17.70500 33.48800
H  49.20400 19.77400 33.74700
H  47.51900 19.88000 34.12200
H  48.10700 20.30100 32.47500
H  48.07100 16.08800 34.42600
H  46.48900 15.48800 33.84700
H  47.08700 16.20400 36.46100
H  45.46600 16.15100 35.77400
H  51.16800 20.51300 30.09800
H  51.40200 21.08000 28.51000
H  52.43000 19.69100 29.11000
H  53.04300 19.83000 26.82200
H  51.92700 21.18100 26.27600
H  52.83500 20.15300 25.14600
H  47.14900 16.41100 23.72900
H  44.26300 16.62100 24.46800
H  45.13600 18.49900 23.52300
H  46.69600 18.34600 22.77800
H  46.42900 19.07000 24.43100
H  44.41000 14.18900 24.56100
H  46.13200 14.29500 24.31300
H  43.87600 14.25600 22.49400
H  45.55900 13.90300 22.06300
H  45.03300 15.59000 22.00200
H  40.95100 15.12800 28.36100
H  41.25000 13.87800 29.48600
H  41.90500 13.71100 27.83700
H  44.05500 15.36300 33.48700
H  41.51200 18.48300 34.97900
H  42.87700 18.23700 36.16400
H  41.26700 17.38200 36.19900

