158

Mg 35.38000 2.76400 29.38500
C  33.08400 3.96100 32.02300
C  37.82800 2.54200 31.97800
C  37.34400 1.73900 27.16600
C  32.64100 2.98900 27.24400
N  35.40800 3.19500 31.73600
C  34.33500 3.53600 32.54500
C  34.78100 3.59900 33.97200
C  36.30500 3.27400 33.96300
C  36.58200 3.04000 32.46900
C  37.25200 4.44600 34.54300
C  33.88800 2.62800 34.86700
C  33.98200 2.83600 36.38200
H  34.74000 4.01800 37.01400
N  37.29500 2.34600 29.52500
C  38.12200 2.21000 30.62800
C  39.42200 1.79500 30.16500
C  39.31500 1.36300 28.81500
C  37.97100 1.85700 28.43400
C  40.61200 1.59300 31.04500
C  40.31300 0.67500 27.98300
O  40.07600 0.36100 26.87500
C  41.56900 0.17700 28.53100
N  35.09000 2.57300 27.39800
C  36.08000 2.00500 26.74400
C  35.63300 1.86100 25.25500
C  34.05400 1.95400 25.30500
C  33.93400 2.57000 26.69000
C  36.34300 2.78000 24.23200
C  33.31900 0.56500 25.17600
C  32.18300 0.64300 24.18800
N  33.39800 3.39100 29.52200
C  32.39100 3.52800 28.51500
C  31.20700 4.14300 28.99600
C  31.44200 4.32500 30.32500
C  32.74700 3.81000 30.59700
C  29.98400 4.33600 28.22300
C  30.86600 4.94600 31.51900
O  29.90600 5.62600 31.74800
C  31.91800 4.65100 32.64800
C  32.21700 5.94800 33.37800
O  32.76500 6.90400 32.80200
O  31.56600 5.98100 34.58400
C  31.32000 7.34000 35.10600
H  38.55000 2.41400 32.78800
H  37.91500 1.24600 26.37700
H  31.81900 2.99400 26.52400
H  34.67600 4.60000 34.39100
H  36.40000 2.36400 34.55600
H  38.17400 4.40100 33.96400
H  37.64300 4.15800 35.51900
H  36.77800 5.42300 34.63900
H  34.35100 1.65800 34.68700
H  32.84700 2.63900 34.54400
H  34.25200 1.90700 36.88500
H  32.98900 3.05700 36.77300
H  40.34900 1.80000 32.08200
H  41.50700 2.18300 30.85000
H  40.98800 0.57400 30.94600
H  41.39400 -0.55300 29.32100
H  42.25500 1.00900 28.69100
H  41.92300 -0.44500 27.70900
H  35.88600 0.84800 24.94200
H  33.66300 2.66000 24.57200
H  35.71200 3.27300 23.49200
H  37.08600 2.20500 23.68100
H  36.67700 3.73600 24.63600
H  32.86600 0.32200 26.13700
H  34.02800 -0.23200 24.94900
H  32.29300 -0.08300 23.38200
H  32.06000 1.55500 23.60400
H  31.33600 0.27500 24.76700
H  29.09600 4.44500 28.84500
H  29.76000 3.34800 27.82100
H  30.03000 5.14300 27.49200
H  31.55500 3.88600 33.33500
H  32.17700 7.59400 35.72900
H  30.37200 7.24700 35.63600
H  31.27200 8.14300 34.37000
Mg -12.61300 15.99400 42.05700
C  -9.66600 14.07200 41.66100
C  -10.98500 18.40100 40.06300
C  -15.48100 17.64000 41.50600
C  -14.34900 13.19900 42.99900
N  -10.46600 16.24000 40.92700
C  -9.48000 15.24900 40.91900
C  -8.24800 15.73400 40.02900
C  -8.80300 17.13200 39.51400
C  -10.22400 17.28400 40.18800
C  -7.87200 18.33000 39.96500
C  -7.77500 14.76600 38.89100
C  -6.22100 14.54800 38.76300
H  -5.52500 15.26100 37.59800
N  -13.11500 17.86000 41.14700
C  -12.29700 18.75400 40.47800
C  -12.92800 20.04900 40.33000
C  -14.26600 19.85900 40.78300
C  -14.29800 18.42200 41.18300
C  -12.22400 21.28400 40.00600
C  -15.39800 20.84900 40.95800
O  -15.24200 22.00800 40.62900
C  -16.72700 20.51900 41.71400
N  -14.65200 15.46000 42.16600
C  -15.68100 16.33400 41.96000
C  -16.98600 15.74300 42.47600
C  -16.54300 14.36800 43.09500
C  -15.13800 14.33400 42.66900
C  -17.92800 16.64500 43.34100
C  -17.40300 13.11000 42.77700
C  -18.94000 13.22300 42.89300
N  -12.17500 14.06400 42.29300
C  -12.98100 13.03100 42.78200
C  -12.11400 11.89600 43.04900
C  -10.80500 12.31700 42.62200
C  -10.91100 13.55500 42.10500
C  -12.45200 10.51100 43.66400
C  -9.41300 11.82600 42.45900
O  -8.83900 10.78900 42.78500
C  -8.60200 12.95000 41.68100
C  -7.52400 13.40600 42.56300
O  -7.59200 13.55100 43.79000
O  -6.33600 13.55100 41.85200
C  -5.16500 14.15300 42.56000
H  -10.46500 19.24100 39.59800
H  -16.42200 18.18000 41.37400
H  -14.90100 12.31900 43.33600
H  -7.54500 15.80300 40.86000
H  -8.88400 17.14700 38.42800
H  -6.94400 17.98500 40.42100
H  -8.37200 19.09900 40.55500
H  -7.61000 18.95800 39.11400
H  -8.20900 15.05700 37.93500
H  -8.27000 13.79600 38.94300
H  -5.97100 13.49400 38.88700
H  -5.67500 14.91200 39.63300
H  -12.92000 21.73400 39.29800
H  -11.18700 21.18500 39.68500
H  -12.20300 21.90600 40.90100
H  -17.20700 19.92700 40.93400
H  -17.22300 21.47700 41.86800
H  -16.50900 19.96500 42.62700
H  -17.55800 15.38300 41.62100
H  -16.57100 14.56400 44.16700
H  -17.52700 17.65700 43.39800
H  -17.98200 16.25300 44.35700
H  -18.91800 16.72600 42.89200
H  -17.04100 12.43600 43.55300
H  -17.15100 12.59100 41.85200
H  -19.41000 12.28100 42.61300
H  -19.30100 13.93800 42.15300
H  -19.22700 13.47500 43.91300
H  -12.25300 9.72900 42.93100
H  -13.46100 10.43000 44.06800
H  -11.79400 10.44600 44.52900
H  -8.24400 12.39100 40.81700
H  -4.35100 13.48600 42.27700
H  -5.35800 14.19000 43.63300
H  -5.02600 15.14800 42.13800

