158

Mg 7.57800 2.31000 27.50300
C  9.15900 1.28100 30.49800
C  5.66900 4.50900 29.28000
C  6.00800 3.17100 24.64600
C  9.15000 -0.32700 25.88500
N  7.46700 2.89700 29.65600
C  8.18300 2.29800 30.71400
C  7.73900 2.92300 32.06200
C  6.53600 3.88300 31.66800
C  6.50900 3.69800 30.11400
C  5.13100 3.58600 32.20300
C  8.96100 3.55600 32.87500
C  9.29900 2.92800 34.19800
H  9.85100 3.85700 35.27000
N  6.14100 3.71200 26.99000
C  5.57700 4.58300 27.88300
C  4.71400 5.53000 27.16900
C  4.82200 5.13000 25.79600
C  5.66400 3.98100 25.74300
C  4.07200 6.74700 27.76700
C  4.23400 5.76600 24.58700
O  4.48100 5.31600 23.47400
C  3.45200 7.05200 24.70000
N  7.59200 1.50200 25.59400
C  6.80600 2.01400 24.63100
C  6.88600 1.13200 23.35700
C  7.87400 0.03600 23.81000
C  8.25200 0.45800 25.17300
C  5.49400 0.65200 22.81800
C  9.14200 0.03900 22.77500
C  9.28000 -1.35300 22.17400
N  8.93300 0.80900 28.05100
C  9.45100 -0.22200 27.25200
C  10.43800 -0.99300 28.04600
C  10.37800 -0.41000 29.29100
C  9.38100 0.59700 29.30500
C  11.33000 -2.06700 27.55000
C  10.91200 -0.52100 30.62200
O  11.75300 -1.25700 31.10700
C  10.19100 0.65400 31.48600
C  9.62000 0.05000 32.72100
O  8.44800 -0.29200 32.82900
O  10.54900 -0.14000 33.78000
C  10.05600 -0.62800 35.07600
H  4.99900 5.21200 29.77900
H  5.58300 3.25100 23.64300
H  9.57800 -1.11000 25.25500
H  7.33000 2.03500 32.54300
H  6.62500 4.95400 31.85000
H  4.36000 3.93900 31.51800
H  4.99200 4.19300 33.09800
H  5.00700 2.51500 32.36200
H  8.75500 4.61700 33.01800
H  9.76900 3.58200 32.14400
H  10.12400 2.26300 33.94300
H  8.41200 2.40600 34.55900
H  2.99200 6.61100 27.73600
H  4.40500 7.70900 27.37700
H  4.23100 6.80200 28.84500
H  3.05500 7.31100 23.71800
H  4.16900 7.74400 25.14100
H  2.56900 6.98100 25.33500
H  7.30900 1.79900 22.60600
H  7.29200 -0.88600 23.82600
H  4.70500 0.94800 23.51000
H  5.43500 -0.43500 22.77100
H  5.34300 1.07400 21.82500
H  10.01300 0.46900 23.26800
H  8.95600 0.69200 21.92300
H  10.29700 -1.52500 21.82100
H  8.53700 -1.34300 21.37700
H  8.93500 -2.00900 22.97400
H  10.83400 -2.88100 28.07800
H  12.34000 -1.97000 27.94800
H  11.19900 -2.34800 26.50500
H  10.81700 1.44300 31.90200
H  9.42000 0.10300 35.57500
H  10.81700 -1.05500 35.73000
H  9.33600 -1.43900 34.96500
Mg 36.37800 49.46000 26.20100
C  36.63600 47.47900 29.07800
C  34.75100 51.80300 28.19300
C  35.86700 51.32000 23.39600
C  37.60600 46.77500 24.32500
N  35.57400 49.52700 28.42500
C  35.96000 48.65900 29.40100
C  35.47300 49.26100 30.75200
C  34.74900 50.56600 30.44300
C  34.99900 50.66700 28.93000
C  33.17000 50.49900 30.80200
C  36.66500 49.49100 31.69400
C  36.38300 49.33400 33.28200
H  34.88800 49.53700 33.71900
N  35.48300 51.25900 25.82800
C  35.00600 52.14800 26.85400
C  34.71500 53.41900 26.18700
C  35.20500 53.40500 24.82500
C  35.50900 51.97300 24.61100
C  34.02000 54.59200 27.02000
C  35.44700 54.51500 23.84000
O  35.97600 54.24300 22.75600
C  35.28200 55.97400 24.20300
N  36.58300 49.11400 24.16800
C  36.39200 50.01400 23.20100
C  36.77600 49.43800 21.84400
C  37.44700 48.05400 22.26100
C  37.25800 48.01800 23.71000
C  35.66500 49.31100 20.77900
C  38.96900 47.89800 21.79100
C  39.99300 48.66900 22.69600
N  37.06500 47.49700 26.58500
C  37.48700 46.49400 25.71200
C  37.89100 45.32400 26.50500
C  37.55200 45.70600 27.82400
C  37.01100 47.00400 27.80800
C  38.50800 44.04400 25.95100
C  37.44600 45.17900 29.14400
O  37.73000 44.05600 29.60700
C  37.00400 46.36200 30.00600
C  35.92100 45.68000 30.82900
O  34.85600 45.32600 30.36700
O  36.25100 45.48800 32.13000
C  35.28900 44.91600 33.05000
H  34.32300 52.61000 28.79100
H  35.66100 51.83500 22.45600
H  38.01600 46.01600 23.65400
H  34.73300 48.47700 30.91400
H  35.10200 51.47700 30.92600
H  32.67000 50.26300 29.86300
H  32.85000 51.47700 31.15900
H  32.92900 49.74200 31.54900
H  37.18300 50.44400 31.59400
H  37.46300 48.79900 31.42500
H  37.21200 49.79000 33.82200
H  36.62600 48.27300 33.34100
H  34.81400 55.29300 27.27800
H  33.59200 54.29000 27.97600
H  33.38100 55.17800 26.35900
H  34.23600 56.28000 24.22200
H  35.88100 56.49600 23.45700
H  35.60700 56.09200 25.23600
H  37.54200 50.01500 21.32600
H  36.87300 47.22300 21.85000
H  34.94000 48.54300 21.04700
H  36.10800 49.31300 19.78300
H  35.09700 50.24100 20.79700
H  39.03000 48.21400 20.74900
H  39.20500 46.84100 21.67000
H  40.49300 49.40700 22.06800
H  40.63200 47.92400 23.17100
H  39.47100 49.21000 23.48500
H  37.67000 43.48500 25.53400
H  38.91200 43.48800 26.79800
H  39.17500 44.32600 25.13600
H  37.77200 46.54000 30.75900
H  35.10200 43.85600 32.87700
H  34.37600 45.51100 33.09100
H  35.78600 44.92100 34.02000

