158

Mg 1.19600 7.96500 24.64400
C  1.49200 9.69400 27.80100
C  1.56400 5.01300 26.34900
C  1.01400 6.47300 21.75800
C  1.76300 11.11300 23.02100
N  1.53100 7.50100 26.89200
C  1.47200 8.30800 28.00000
C  1.48200 7.48500 29.32100
C  1.83900 5.97800 28.76800
C  1.70600 6.15200 27.18000
C  3.30700 5.57800 29.03500
C  0.04800 7.58200 29.92600
C  -0.03000 7.33100 31.47100
H  1.10200 6.61500 32.20400
N  1.17700 6.03000 24.09000
C  1.31400 4.92600 24.91500
C  1.01800 3.65900 24.23100
C  0.93100 4.09100 22.83000
C  1.04300 5.60200 22.82900
C  0.94200 2.31300 24.82500
C  0.69300 3.22300 21.63100
O  0.38700 3.71800 20.58400
C  0.70100 1.77500 21.62200
N  1.48800 8.70900 22.70100
C  1.17900 7.81800 21.74000
C  1.16200 8.51300 20.32300
C  1.56200 9.99900 20.68300
C  1.59800 9.94400 22.23600
C  2.06800 7.96100 19.20400
C  0.82000 11.23400 20.05200
C  -0.65200 11.37700 20.38800
N  1.49800 10.02500 25.21400
C  1.66700 11.12000 24.39900
C  1.76300 12.24600 25.18300
C  1.72400 11.79200 26.49900
C  1.58200 10.38100 26.48800
C  1.94500 13.63900 24.65800
C  1.83700 12.09400 27.95400
O  2.00800 13.15000 28.53600
C  1.54100 10.79900 28.80500
C  2.66900 10.78500 29.78300
O  3.84100 10.38100 29.56300
O  2.26100 11.25500 30.96300
C  3.33100 11.46000 31.98000
H  1.67000 4.05100 26.85500
H  0.88700 6.00000 20.78200
H  2.09500 12.06000 22.59000
H  2.29000 7.64400 30.03600
H  1.21100 5.16900 29.14100
H  3.82600 6.26700 29.70200
H  3.94300 5.39500 28.16900
H  3.16200 4.61300 29.52000
H  -0.59500 6.90400 29.36300
H  -0.26300 8.62500 29.87400
H  -0.90500 6.71000 31.66000
H  -0.27000 8.17700 32.11400
H  0.90800 2.18100 25.90600
H  1.77400 1.75100 24.40100
H  0.02500 1.90100 24.40300
H  1.58000 1.33200 22.08900
H  0.63600 1.43500 20.58800
H  -0.28300 1.49100 21.99400
H  0.15300 8.39600 19.92800
H  2.57200 10.19100 20.32000
H  2.44800 8.72900 18.53100
H  1.39900 7.34900 18.60000
H  2.92000 7.44500 19.64700
H  0.89700 11.14100 18.96800
H  1.49700 12.02500 20.37200
H  -0.61100 12.24200 21.05000
H  -0.93800 10.56200 21.05200
H  -1.32800 11.56200 19.55400
H  1.74400 14.34300 25.46600
H  1.36700 13.87100 23.76400
H  3.00400 13.70800 24.40700
H  0.55400 10.90000 29.25800
H  4.07700 12.13800 31.56500
H  3.84800 10.51900 32.17100
H  2.92500 11.81800 32.92700
Mg 54.59300 24.96900 45.44400
C  52.03200 26.84600 43.88700
C  53.37800 22.14900 43.91300
C  57.73500 23.53400 45.60900
C  55.99500 28.05600 46.38000
N  53.01900 24.59200 43.95100
C  52.04000 25.49300 43.50800
C  51.02900 24.71900 42.62500
C  51.21500 23.29300 43.09800
C  52.64300 23.33100 43.66400
C  50.13700 22.75000 44.17600
C  51.41700 24.94800 41.12500
C  50.32100 25.07600 40.01500
H  50.79800 25.80700 38.79500
N  55.34400 23.03900 45.15500
C  54.67600 21.99100 44.52800
C  55.38300 20.81500 44.59000
C  56.74600 21.21200 44.91900
C  56.65900 22.62700 45.27400
C  54.90500 19.51100 44.13700
C  57.97900 20.23300 44.68200
O  57.74800 19.03400 44.34000
C  59.43400 20.69800 44.89000
N  56.64100 25.74600 45.68200
C  57.74000 24.93500 45.73300
C  58.99000 25.79300 46.18200
C  58.34600 27.15600 46.69000
C  56.91500 27.03100 46.14300
C  59.89200 25.13400 47.34100
C  59.21800 28.35000 46.23900
C  59.41100 29.46900 47.32800
N  54.11400 27.00700 45.27500
C  54.71300 28.10800 45.86100
C  53.84900 29.24000 45.75000
C  52.73700 28.77500 45.06800
C  53.07900 27.49700 44.67200
C  54.14000 30.60200 46.27200
C  51.40300 29.18100 44.57800
O  50.77000 30.19300 44.79100
C  50.97100 27.92000 43.76300
C  50.57000 28.39200 42.42400
O  51.37500 28.65800 41.57200
O  49.18800 28.29600 42.23600
C  48.74500 28.46400 40.88900
H  52.88000 21.25100 43.54100
H  58.73900 23.10500 45.61800
H  56.37000 28.99000 46.80400
H  49.99900 25.04800 42.77000
H  51.19800 22.54200 42.30800
H  49.46500 22.02100 43.72300
H  49.44300 23.57700 44.32700
H  50.54800 22.36200 45.10800
H  51.93400 24.03800 40.82100
H  52.18100 25.72500 41.14200
H  49.37200 25.53200 40.29900
H  49.96200 24.11600 39.64200
H  55.11100 19.20600 43.11100
H  53.83000 19.34400 44.21400
H  55.41900 18.73500 44.70500
H  59.64100 20.97100 45.92500
H  59.47700 21.63400 44.33400
H  60.13700 20.09200 44.31900
H  59.61400 25.95600 45.30300
H  58.27400 27.18400 47.77700
H  59.16400 24.56500 47.91900
H  60.33800 25.92200 47.94800
H  60.72600 24.57000 46.92300
H  58.66600 28.79300 45.41100
H  60.23500 28.03300 46.00600
H  58.84100 30.39100 47.20700
H  60.44100 29.79300 47.18300
H  59.13800 29.12200 48.32400
H  54.39600 31.23500 45.42200
H  54.96700 30.72100 46.97200
H  53.21700 31.03100 46.66100
H  50.01900 27.67100 44.23300
H  47.76500 27.98900 40.86200
H  49.38200 27.84600 40.25500
H  48.72500 29.50900 40.58100

