158

Mg 17.43600 -1.80200 27.83200
C  15.98500 0.04000 30.62400
C  19.47300 -3.34200 30.17200
C  19.09100 -3.18200 25.29900
C  15.36800 -0.01400 25.81000
N  17.70000 -1.58700 30.09200
C  16.96500 -0.84400 31.03400
C  17.45300 -1.11800 32.47600
C  18.79000 -2.02300 32.24200
C  18.64000 -2.36100 30.70800
C  20.07600 -1.21700 32.51100
C  16.41200 -1.79900 33.32300
C  16.30800 -1.20900 34.79500
H  17.47500 -0.42200 35.31000
N  19.08400 -3.12200 27.73800
C  19.71000 -3.65000 28.82100
C  20.65600 -4.69300 28.30700
C  20.60600 -4.65700 26.86800
C  19.53600 -3.65600 26.54300
C  21.32800 -5.61800 29.15500
C  21.38500 -5.49800 25.83500
O  21.03700 -5.46100 24.62000
C  22.53500 -6.39600 26.21500
N  17.32000 -1.62500 25.91000
C  18.18000 -2.20400 24.97500
C  17.98200 -1.66100 23.57100
C  16.59200 -0.96900 23.72200
C  16.32600 -0.89300 25.21000
C  19.21000 -0.82200 23.04600
C  15.40000 -1.63800 22.94700
C  15.26600 -1.07400 21.46900
N  15.88800 -0.41700 28.12800
C  15.06100 0.21400 27.18300
C  14.08200 1.11200 27.77400
C  14.41100 1.00300 29.09600
C  15.51400 0.11900 29.25900
C  13.05800 1.96000 27.12300
C  14.07500 1.50600 30.36800
O  13.25400 2.30200 30.76100
C  15.11500 1.01500 31.37200
C  15.94700 2.23900 31.74100
O  16.72500 2.87600 31.02100
O  15.56300 2.42100 33.07200
C  16.44200 3.39600 33.78300
H  20.02600 -3.88800 30.94000
H  19.52000 -3.66100 24.41700
H  14.80000 0.56700 25.08200
H  17.66100 -0.11800 32.85700
H  18.76600 -3.00700 32.71200
H  20.64400 -1.87000 33.17400
H  20.02600 -0.32300 33.13300
H  20.64500 -0.84400 31.66000
H  16.70200 -2.84700 33.39300
H  15.46100 -1.66900 32.80700
H  16.16700 -1.99600 35.53500
H  15.35600 -0.70800 34.96700
H  21.54900 -6.58000 28.69300
H  20.76300 -5.81000 30.06800
H  22.24600 -5.12400 29.47400
H  23.35600 -5.83100 26.65600
H  22.97300 -6.85600 25.32900
H  22.29500 -7.17100 26.94300
H  17.83600 -2.49600 22.88500
H  16.69200 0.06800 23.40300
H  18.97200 0.17500 22.67600
H  19.94200 -1.40000 22.48200
H  19.68300 -0.57000 23.99500
H  14.48800 -1.44500 23.51200
H  15.66700 -2.69400 22.99400
H  16.15200 -0.45100 21.34300
H  14.42300 -0.42400 21.23300
H  15.33900 -1.84400 20.70100
H  13.00000 2.90100 27.66900
H  12.06700 1.54900 27.31200
H  13.17700 2.18400 26.06300
H  14.64000 0.55300 32.23700
H  16.08900 4.42800 33.80200
H  17.51200 3.27600 33.61500
H  16.38200 3.18400 34.85000
Mg 35.12100 2.23400 29.72900
C  32.97000 3.34000 32.07800
C  37.66900 2.32800 31.97200
C  37.60100 1.86900 27.15900
C  32.65000 2.54700 27.39200
N  35.28200 2.79500 31.72700
C  34.28600 3.12500 32.58000
C  34.82700 3.51800 33.93300
C  36.30400 3.40000 33.79000
C  36.42600 2.74200 32.43500
C  37.17000 4.61600 33.90900
C  34.21200 2.58600 35.10900
C  34.03000 3.20400 36.43400
H  35.14200 4.23300 36.97100
N  37.28200 1.95300 29.65200
C  38.07100 1.91600 30.69300
C  39.40200 1.49500 30.28500
C  39.39500 1.37900 28.85400
C  38.04500 1.70900 28.47600
C  40.53100 1.38100 31.31500
C  40.45100 1.05600 27.91800
O  40.31000 0.85400 26.68900
C  41.89200 0.92800 28.50400
N  35.18100 2.60500 27.59900
C  36.24600 2.24000 26.79500
C  35.81000 1.98500 25.35600
C  34.24900 1.84500 25.42800
C  34.00600 2.51000 26.82300
C  36.30700 3.13300 24.37300
C  33.67500 0.44300 25.30800
C  32.19000 0.22200 24.84700
N  33.15500 2.75100 29.67100
C  32.31700 2.80600 28.64100
C  30.99900 3.19100 29.10100
C  31.16600 3.37100 30.48600
C  32.48900 3.17500 30.79900
C  29.76600 3.25700 28.27500
C  30.54500 3.74000 31.75200
O  29.35900 3.92500 32.00600
C  31.69100 3.75700 32.86500
C  31.74200 5.07800 33.39500
O  31.86000 6.11100 32.76000
O  31.54300 5.02600 34.74500
C  31.13700 6.23200 35.48300
H  38.46700 2.22000 32.71000
H  38.13300 1.65600 26.22900
H  31.92500 2.42700 26.58500
H  34.57700 4.55400 34.15900
H  36.75400 2.76200 34.55000
H  36.63800 5.39800 34.45100
H  37.32000 5.12000 32.95400
H  38.06900 4.21600 34.37600
H  34.76500 1.64900 35.17500
H  33.20400 2.32800 34.78700
H  34.13800 2.31600 37.05700
H  33.06600 3.69100 36.29000
H  40.75300 0.31400 31.33300
H  40.14000 1.74200 32.26600
H  41.47000 1.79700 30.94900
H  42.00900 0.01000 29.07900
H  42.23100 1.88600 28.89900
H  42.51400 0.84600 27.61200
H  36.23900 1.02000 25.08500
H  33.73600 2.53500 24.75700
H  36.57600 4.03200 24.92700
H  35.46200 3.37700 23.72900
H  37.16200 2.72900 23.83100
H  33.80900 -0.09400 26.24700
H  34.30400 -0.09500 24.59800
H  32.24900 -0.26200 23.87200
H  31.62200 1.15200 24.81200
H  31.63000 -0.37500 25.56800
H  29.40500 4.27000 28.10000
H  28.97500 2.75500 28.83200
H  29.88800 2.78600 27.29900
H  31.59500 2.91300 33.54900
H  30.87200 7.06400 34.83100
H  32.04500 6.53700 36.00300
H  30.33400 5.97500 36.17400

