158

Mg 55.67000 24.94500 43.94800
C  52.85900 26.83100 42.89100
C  54.50500 22.27700 42.22500
C  58.69400 23.43900 44.32600
C  56.89500 27.91400 45.40100
N  54.02200 24.75400 42.62700
C  52.98900 25.58200 42.34800
C  52.13500 24.94200 41.28200
C  52.34100 23.44700 41.60200
C  53.70800 23.45800 42.18600
C  51.22100 22.80900 42.48100
C  52.40700 25.38600 39.85200
C  51.06100 25.46000 39.00500
H  51.23500 25.85100 37.46600
N  56.44300 23.03900 43.44500
C  55.74400 22.02600 42.77000
C  56.58100 20.77400 42.71800
C  57.76100 21.06400 43.44900
C  57.71000 22.55400 43.78700
C  56.20900 19.56500 41.97100
C  58.88000 20.08000 43.73300
O  58.78100 18.89400 43.40800
C  60.23100 20.58100 44.31000
N  57.61500 25.66300 44.61200
C  58.66800 24.80500 44.76400
C  59.86000 25.59800 45.27500
C  59.29600 27.04500 45.65600
C  57.84700 26.92400 45.12300
C  60.62400 24.90000 46.41600
C  60.18000 28.30100 45.12500
C  60.72700 29.32400 46.21400
N  55.02000 26.95800 44.25000
C  55.57600 28.04100 44.87500
C  54.60400 29.14900 44.94500
C  53.50100 28.66700 44.23800
C  53.82600 27.39000 43.77500
C  54.81600 30.43300 45.67300
C  52.22200 29.02500 43.76900
O  51.59100 29.99900 44.04300
C  51.63000 27.80700 42.97500
C  50.97400 28.26000 41.66000
O  51.57600 28.76800 40.72500
O  49.64100 27.99600 41.73100
C  48.80700 28.27200 40.54100
H  54.05800 21.41700 41.72100
H  59.69600 23.05900 44.53800
H  57.14600 28.83400 45.93200
H  51.10800 25.15800 41.57800
H  52.37000 22.82400 40.70800
H  51.32400 23.11600 43.52200
H  51.28000 21.72300 42.42200
H  50.23500 23.12700 42.14400
H  52.97600 24.60700 39.34500
H  52.95400 26.32100 39.97400
H  50.22100 26.05800 39.35900
H  50.71500 24.45400 38.76900
H  55.47200 19.80200 41.20400
H  55.62400 18.90100 42.60700
H  57.01200 19.06800 41.42600
H  60.10400 20.98300 45.31600
H  60.63400 21.28700 43.58400
H  60.82100 19.66500 44.29800
H  60.48700 25.85700 44.42200
H  59.24500 27.17700 46.73700
H  60.00300 24.20300 46.97800
H  61.00600 25.53300 47.21700
H  61.33400 24.24400 45.91100
H  59.47000 28.88900 44.54300
H  61.08600 27.99600 44.60000
H  61.80600 29.17300 46.22600
H  60.16200 29.28200 47.14600
H  60.64000 30.29900 45.73300
H  54.31200 30.40000 46.63900
H  54.47500 31.23200 45.01400
H  55.86300 30.52200 45.96100
H  50.79600 27.39600 43.54400
H  49.06900 27.74700 39.62200
H  48.85600 29.35500 40.43100
H  47.78200 28.00700 40.80100
Mg 6.50400 55.00700 41.67800
C  5.71300 51.53100 41.27200
C  9.70800 54.29600 40.80100
C  6.92600 58.18400 41.60500
C  3.04100 55.40800 42.21400
N  7.55400 53.10400 40.91100
C  7.03500 51.85600 40.80100
C  8.18900 50.85200 40.27200
C  9.47900 51.75600 40.42300
C  8.90600 53.14900 40.73100
C  10.49600 51.27900 41.57400
C  7.93100 50.24800 38.80900
C  7.47500 51.19600 37.69000
H  6.52700 50.68400 36.60000
N  8.13600 56.14100 41.26100
C  9.37200 55.68800 40.92800
C  10.16400 56.80500 40.54500
C  9.34900 57.96300 40.77800
C  8.08400 57.46800 41.23800
C  11.65700 56.76900 40.18200
C  9.84700 59.45200 40.71200
O  10.99300 59.67700 40.40200
C  9.02000 60.59100 40.84900
N  5.20600 56.53800 41.93100
C  5.59800 57.84000 41.88600
C  4.51800 58.83900 42.20600
C  3.30000 57.96700 42.17300
C  3.86800 56.52100 42.13400
C  4.85300 59.41300 43.57600
C  2.35900 58.19400 40.91400
C  0.79900 58.30100 41.01600
N  4.72400 53.77900 41.87600
C  3.41500 54.09100 42.10300
C  2.62600 52.91700 42.21100
C  3.50100 51.85500 42.02300
C  4.69500 52.47200 41.65000
C  1.13800 52.87200 42.58200
C  3.62900 50.46200 41.90700
O  2.71500 49.63200 42.04800
C  5.10500 50.20600 41.37600
C  4.76000 49.52400 40.11000
O  4.28900 50.01700 39.06700
O  4.99200 48.19800 40.25000
C  4.63600 47.26800 39.13200
H  10.79300 54.25300 40.91900
H  7.00700 59.25700 41.41600
H  1.98100 55.65000 42.30700
H  8.30600 50.04300 40.99300
H  9.99400 51.81500 39.46400
H  10.14500 50.42100 42.14700
H  10.70700 52.12000 42.23600
H  11.42300 51.14400 41.01900
H  7.23200 49.41300 38.85900
H  8.90200 49.93600 38.42200
H  8.47300 51.51800 37.39200
H  6.96900 52.02700 38.18200
H  11.87800 57.57100 39.47700
H  11.95400 55.83500 39.70600
H  12.23600 56.91700 41.09400
H  8.32100 60.47500 40.02100
H  9.49000 61.55900 40.67600
H  8.42800 60.67000 41.76200
H  4.39200 59.61200 41.44900
H  2.76700 58.06800 43.11800
H  5.12200 58.61000 44.26300
H  3.92000 59.85900 43.92000
H  5.70400 60.09400 43.58600
H  2.48500 57.37200 40.20900
H  2.60700 59.06900 40.31300
H  0.43100 58.73400 41.94600
H  0.50900 57.26900 40.82000
H  0.40200 58.97400 40.25600
H  0.42800 52.72600 41.76700
H  0.84500 53.77200 43.12100
H  1.06800 52.01900 43.25800
H  5.71700 49.66200 42.09500
H  3.61900 47.05200 38.80700
H  5.14900 46.37000 39.47600
H  5.26000 47.62800 38.31300

