158

Mg 42.62800 41.87600 26.24600
C  42.01700 44.09100 28.70400
C  43.85800 39.62900 28.62600
C  43.85800 39.75200 23.75700
C  42.13200 44.35400 23.80900
N  42.76900 41.82100 28.39800
C  42.33100 42.79800 29.17800
C  42.47600 42.41400 30.68700
C  43.43700 41.15900 30.61300
C  43.32600 40.80000 29.15100
C  44.92400 41.34600 31.03900
C  41.03000 42.19300 31.28800
C  40.75600 42.88700 32.62400
H  41.78400 42.69100 33.78600
N  43.50000 39.85100 26.21500
C  43.86900 39.12800 27.32200
C  44.33500 37.81300 26.94200
C  44.44900 37.88400 25.47700
C  43.85800 39.20700 25.04200
C  44.54600 36.75900 27.93700
C  44.96300 36.82400 24.53100
O  45.06300 36.93600 23.34400
C  45.46000 35.43500 25.21700
N  42.92500 42.00300 24.13800
C  43.45700 41.01000 23.30300
C  43.40700 41.36200 21.86100
C  42.67100 42.76400 21.85000
C  42.53400 43.06500 23.33400
C  44.92400 41.45000 21.29600
C  41.33400 42.72700 21.14000
C  40.29200 41.83900 21.77200
N  42.06800 43.82800 26.15300
C  41.96200 44.74100 25.14500
C  41.59600 46.04000 25.75700
C  41.53400 45.80900 27.19000
C  41.89300 44.50600 27.31800
C  41.33000 47.23000 24.96800
C  41.33800 46.46200 28.42400
O  41.03400 47.57100 28.70300
C  41.54500 45.33100 29.53300
C  42.54100 45.80000 30.50400
O  43.69600 45.89900 30.20100
O  42.00000 46.14100 31.73800
C  42.92200 46.61900 32.76500
H  44.28200 38.91100 29.33100
H  44.29300 39.04100 23.05100
H  41.96500 45.16800 23.10000
H  42.89200 43.25500 31.24200
H  43.00100 40.33600 31.17900
H  45.66200 41.26700 30.24100
H  45.06100 40.48500 31.69300
H  44.95600 42.20800 31.70400
H  40.78000 41.13200 31.27800
H  40.29000 42.62100 30.61200
H  39.77900 42.56000 32.98000
H  40.60500 43.90500 32.26500
H  43.98100 36.94300 28.85100
H  45.60400 36.61600 28.15500
H  44.21100 35.73600 27.76600
H  44.54700 34.87400 25.41900
H  46.03700 35.45600 26.14200
H  46.03200 34.83400 24.51000
H  42.84000 40.58500 21.34700
H  43.34200 43.46800 21.35800
H  45.71200 41.06800 21.94500
H  45.23500 42.44800 20.98500
H  44.93400 40.75800 20.45500
H  41.48400 42.48200 20.08800
H  40.90100 43.72700 21.13600
H  40.48700 41.42000 22.76000
H  39.97100 41.08600 21.05300
H  39.38600 42.38900 22.02400
H  42.04800 47.16100 24.15100
H  41.53000 48.15700 25.50500
H  40.32400 47.30200 24.55500
H  40.61500 45.12500 30.06300
H  43.40000 47.54500 32.44500
H  43.67600 45.83500 32.83100
H  42.43600 46.92300 33.69200
Mg -2.47700 34.68100 25.94600
C  -4.29200 32.94500 28.56900
C  -0.86100 36.44200 28.47200
C  -0.86300 36.28700 23.62800
C  -4.35300 32.84700 23.63500
N  -2.63600 34.73700 28.26600
C  -3.34800 33.89200 29.06300
C  -3.02000 34.11400 30.57500
C  -2.05400 35.37100 30.49400
C  -1.76800 35.53900 28.98200
C  -2.60100 36.75600 31.13600
C  -2.38300 32.89100 31.18300
C  -2.90700 32.59000 32.57000
H  -1.92600 32.41400 33.77700
N  -1.03200 36.19000 26.00300
C  -0.53800 36.81300 27.10600
C  0.44300 37.74900 26.65500
C  0.61900 37.56100 25.27500
C  -0.43700 36.62900 24.89500
C  1.06200 38.74400 27.60000
C  1.55100 38.22700 24.32700
O  1.55500 38.04300 23.14000
C  2.76300 38.99000 24.87100
N  -2.65300 34.58000 23.86200
C  -1.83900 35.39700 23.11400
C  -2.16600 35.22200 21.55500
C  -3.19100 34.05100 21.63200
C  -3.40200 33.75600 23.10600
C  -2.62200 36.57300 20.92700
C  -2.81100 32.87900 20.68100
C  -1.78100 31.92100 21.23600
N  -4.09000 33.28400 26.04500
C  -4.65800 32.54600 24.96600
C  -5.59200 31.59200 25.49700
C  -5.49900 31.75600 26.86800
C  -4.50900 32.68600 27.22100
C  -6.38100 30.70300 24.59100
C  -6.01900 31.35400 28.17800
O  -6.95800 30.68600 28.47700
C  -5.18500 31.97100 29.27900
C  -6.12700 32.64600 30.14200
O  -6.67500 33.74300 29.98900
O  -6.42700 31.91300 31.29400
C  -7.13900 32.49900 32.39100
H  -0.33300 36.93900 29.28900
H  -0.29400 36.66800 22.77800
H  -4.79800 32.23700 22.84600
H  -3.95200 34.48500 31.00300
H  -1.10500 35.12300 30.97000
H  -3.68300 36.88400 31.15900
H  -2.31100 37.65400 30.59100
H  -2.20300 36.98500 32.12500
H  -1.30300 33.03900 31.19000
H  -2.43700 32.00100 30.55600
H  -3.43600 31.64700 32.42900
H  -3.64000 33.28800 32.97400
H  0.65600 38.75500 28.61100
H  1.02900 39.78200 27.26800
H  2.07800 38.34900 27.59700
H  3.61000 38.92700 24.18800
H  3.05500 38.26600 25.63100
H  2.35300 39.83900 25.41700
H  -1.16300 34.98000 21.20200
H  -4.14900 34.29400 21.17100
H  -3.69800 36.65600 20.77100
H  -2.08400 36.61900 19.98000
H  -2.20200 37.42000 21.46800
H  -2.32600 33.28400 19.79300
H  -3.66300 32.31800 20.29700
H  -1.42700 32.40400 22.14600
H  -0.94900 31.82100 20.53900
H  -2.34600 31.01500 21.45700
H  -5.89600 30.39100 23.66600
H  -7.29800 31.24700 24.36400
H  -6.47600 29.75300 25.11700
H  -4.67900 31.19600 29.85400
H  -7.81800 33.22000 31.93600
H  -6.46900 33.15100 32.95200
H  -7.55700 31.80000 33.11600

