158

Mg 36.45100 49.51000 25.16700
C  36.47800 47.68100 28.29200
C  35.22600 52.12500 26.75700
C  36.25700 51.08400 21.98000
C  37.40200 46.53400 23.49700
N  35.82000 49.74500 27.30100
C  36.00100 49.01400 28.43500
C  35.59900 49.75100 29.70400
C  35.14500 51.11800 29.05400
C  35.44200 50.99300 27.58800
C  33.69100 51.36800 29.43100
C  36.63400 49.89300 30.77200
C  36.25700 49.50200 32.23100
H  34.80500 49.74800 32.63300
N  35.80400 51.34400 24.42000
C  35.39200 52.34100 25.33500
C  34.99900 53.53800 24.58800
C  35.23600 53.23100 23.21300
C  35.84800 51.84300 23.13400
C  34.55600 54.76500 25.35500
C  35.05200 54.11700 22.01700
O  35.29400 53.81100 20.84200
C  34.63200 55.48700 22.36000
N  36.77500 48.88500 23.03900
C  36.57500 49.70200 21.93200
C  36.87400 48.95500 20.60500
C  37.35600 47.60000 21.11100
C  37.21000 47.66600 22.71200
C  35.74500 48.97500 19.57800
C  38.84500 47.28900 20.67400
C  39.04600 45.87600 20.03300
N  36.82300 47.50300 25.70300
C  37.22800 46.45100 24.94500
C  37.55200 45.34700 25.83400
C  37.18700 45.75600 27.09900
C  36.78200 47.13000 26.98600
C  37.95400 43.94900 25.40600
C  37.08400 45.37300 28.45300
O  37.38300 44.30300 29.00300
C  36.62800 46.66200 29.30100
C  35.39000 46.30500 30.04500
O  34.29400 46.11200 29.51900
O  35.63300 46.29600 31.38100
C  34.60200 45.83600 32.36700
H  34.82500 52.97900 27.30900
H  36.31600 51.65200 21.04900
H  37.89500 45.70500 22.98500
H  34.76500 49.16100 30.08300
H  35.74400 51.92500 29.47700
H  33.22000 50.54400 29.96600
H  33.04300 51.63500 28.59700
H  33.73000 52.25000 30.07000
H  37.15500 50.84500 30.67700
H  37.38100 49.13200 30.54500
H  36.85000 50.16700 32.85800
H  36.47000 48.45000 32.41900
H  35.36400 55.46900 25.15400
H  34.60600 54.67400 26.44000
H  33.61400 55.18200 24.99900
H  33.59000 55.37100 22.65900
H  34.62200 56.03200 21.41600
H  35.31300 56.03000 23.01600
H  37.69000 49.48600 20.11500
H  36.73800 46.83800 20.63600
H  35.80300 49.81700 18.88700
H  34.79400 48.75000 20.06000
H  35.78100 48.02500 19.04500
H  39.48000 47.24700 21.55900
H  39.26000 48.06700 20.03300
H  38.12500 45.32900 19.83100
H  39.65800 45.22400 20.65700
H  39.48000 46.11100 19.06100
H  37.11900 43.46600 24.89800
H  37.90200 43.32900 26.30100
H  38.85500 43.87500 24.79700
H  37.35700 46.86200 30.08700
H  33.59600 46.15000 32.09100
H  34.85700 46.32100 33.31000
H  34.67200 44.75400 32.47800
Mg -11.81800 37.91700 42.83100
C  -9.66900 35.32100 41.90200
C  -9.57700 40.15700 41.45200
C  -14.06200 40.42300 43.26600
C  -14.31600 35.52600 43.63300
N  -9.89700 37.76300 41.57500
C  -9.18500 36.57200 41.42300
C  -7.89500 36.86200 40.63900
C  -7.81300 38.41900 40.64100
C  -9.12700 38.82500 41.35600
C  -6.60000 39.11500 41.35300
C  -7.88900 36.17000 39.14000
C  -6.68800 35.31600 38.76300
H  -6.52400 34.81000 37.34700
N  -11.75600 39.95700 42.49900
C  -10.75200 40.69100 41.93500
C  -11.05700 42.00200 41.95100
C  -12.42100 42.15100 42.40000
C  -12.79400 40.78800 42.82400
C  -10.14400 43.12600 41.30500
C  -13.26100 43.42200 42.34300
O  -12.77100 44.42600 41.90300
C  -14.75200 43.52200 42.79800
N  -13.85000 37.88800 43.25000
C  -14.53400 39.11000 43.46900
C  -15.91100 38.86700 44.12700
C  -16.04800 37.32600 44.00700
C  -14.71500 36.88400 43.54100
C  -15.87000 39.41200 45.54700
C  -17.24600 36.82700 43.04100
C  -18.39000 36.09700 43.80800
N  -12.05500 35.89800 42.70200
C  -13.05300 35.07000 43.18100
C  -12.62800 33.68400 43.15400
C  -11.29700 33.78500 42.68700
C  -11.01700 35.10200 42.36900
C  -13.47600 32.45800 43.56800
C  -10.06600 33.00700 42.42000
O  -9.81600 31.79500 42.59900
C  -8.99200 33.95600 41.94500
C  -7.86200 33.89900 42.92900
O  -7.98100 34.20500 44.09600
O  -6.71100 33.52400 42.34600
C  -5.61000 33.25000 43.33600
H  -8.83300 40.89000 41.13300
H  -14.76400 41.17100 43.64100
H  -15.06000 34.80800 43.98500
H  -7.15600 36.47300 41.34000
H  -7.78600 38.72200 39.59400
H  -5.94200 39.28500 40.50000
H  -6.15900 38.32900 41.96700
H  -6.89900 40.00600 41.90300
H  -7.90200 36.99900 38.43300
H  -8.83600 35.66300 38.95500
H  -6.64500 34.39800 39.35000
H  -5.81400 35.80900 39.18700
H  -10.23600 42.90000 40.24300
H  -9.16000 42.96100 41.74400
H  -10.34200 44.18500 41.46600
H  -15.41400 42.73500 42.43600
H  -15.27600 44.34900 42.31900
H  -14.78000 43.51100 43.88700
H  -16.65500 39.33800 43.48400
H  -16.18600 36.95400 45.02300
H  -16.26500 40.42500 45.61900
H  -14.88700 39.15500 45.94400
H  -16.62600 38.85000 46.09500
H  -16.79400 36.06600 42.40600
H  -17.62800 37.64000 42.42300
H  -19.34800 36.60700 43.70400
H  -18.16700 35.96300 44.86600
H  -18.46500 35.10600 43.36000
H  -12.80600 31.61300 43.72300
H  -14.24700 32.12700 42.87200
H  -13.91100 32.70900 44.53500
H  -8.62600 33.84800 40.92400
H  -4.73900 32.89800 42.78400
H  -5.92500 32.49300 44.05500
H  -5.23900 34.07600 43.94300

