158

Mg 8.08500 3.00700 27.77400
C  9.51900 1.66300 30.61700
C  6.63300 5.48600 29.78200
C  6.70900 4.21300 24.95900
C  9.46100 0.26000 25.93100
N  8.00500 3.49500 29.88400
C  8.72900 2.78600 30.87600
C  8.46500 3.41500 32.24300
C  7.52900 4.63600 32.00500
C  7.39400 4.57300 30.42200
C  6.22300 4.82700 32.85900
C  9.74300 3.84700 33.07300
C  9.56800 4.72000 34.31900
H  10.49700 4.41700 35.47700
N  6.90300 4.68300 27.44400
C  6.42400 5.55900 28.35200
C  5.55900 6.50200 27.62600
C  5.46100 6.09900 26.28100
C  6.40400 4.97600 26.13200
C  4.90400 7.69500 28.27900
C  4.64000 6.75900 25.14100
O  4.77400 6.39100 23.98500
C  3.61700 7.82500 25.38000
N  7.94600 2.31900 25.80700
C  7.37800 3.03300 24.77700
C  7.56200 2.35900 23.42200
C  8.35500 1.09000 23.73500
C  8.65200 1.22700 25.20600
C  6.28800 2.04300 22.65200
C  9.67900 1.00600 22.96600
C  9.39500 0.89900 21.44300
N  9.20900 1.32400 28.12900
C  9.70700 0.34900 27.30800
C  10.71600 -0.40500 28.03300
C  10.61700 0.03100 29.35900
C  9.67700 1.08400 29.37600
C  11.52200 -1.51600 27.42800
C  11.10100 -0.22500 30.68600
O  11.92600 -0.96400 31.19900
C  10.41200 0.88300 31.53900
C  9.72700 0.10200 32.56200
O  8.97700 -0.82500 32.29800
O  9.99300 0.61100 33.82100
C  9.39000 -0.09500 34.94900
H  6.25600 6.34200 30.34500
H  6.39300 4.56400 23.97400
H  9.91900 -0.59000 25.42100
H  8.00000 2.63300 32.84300
H  8.27400 5.42500 32.09700
H  6.45000 5.51900 33.66900
H  5.92000 3.89700 33.33900
H  5.39800 5.10000 32.20100
H  10.35200 4.48500 32.43200
H  10.34900 2.98300 33.34800
H  8.55600 4.62700 34.71300
H  9.64600 5.79300 34.14400
H  4.93600 8.62900 27.71700
H  5.36200 7.89200 29.24900
H  3.86500 7.37800 28.37000
H  4.25700 8.70500 25.44800
H  3.05300 7.72300 26.30700
H  2.87000 7.80800 24.58600
H  8.26500 2.97100 22.85600
H  7.73600 0.19500 23.68100
H  6.17200 0.99300 22.38200
H  6.37900 2.72300 21.80500
H  5.46200 2.24600 23.33400
H  10.12000 0.07100 23.31000
H  10.35100 1.82200 23.23200
H  9.74100 1.76500 20.87900
H  8.34200 0.69100 21.25300
H  9.98800 0.13900 20.93400
H  12.53500 -1.51900 27.83100
H  11.52500 -1.58900 26.34000
H  11.11200 -2.47500 27.74500
H  11.18900 1.52000 31.96100
H  8.95000 0.70800 35.54000
H  10.09400 -0.68000 35.54200
H  8.44900 -0.62400 34.79300
Mg 47.58300 34.79800 28.30500
C  46.20500 33.11800 30.89500
C  47.91900 37.64200 30.28900
C  48.92600 36.62900 25.65800
C  46.84100 32.26500 26.15300
N  47.07600 35.32600 30.30200
C  46.60900 34.47400 31.22200
C  46.65400 35.10000 32.62100
C  46.77700 36.61300 32.33800
C  47.24900 36.53700 30.84700
C  45.43000 37.41700 32.52900
C  47.85200 34.52200 33.46500
C  47.50200 33.95000 34.81600
H  47.98300 34.75200 36.02300
N  48.34000 36.88000 28.00100
C  48.46000 37.77200 29.01200
C  49.15100 38.92800 28.46500
C  49.43800 38.72600 27.14100
C  48.87600 37.39200 26.82600
C  49.55800 40.11200 29.33700
C  50.29400 39.53000 26.20600
O  50.48800 39.20400 25.02200
C  50.97900 40.77600 26.64300
N  47.84700 34.51200 26.23600
C  48.42100 35.35600 25.38800
C  48.52900 34.78100 23.94900
C  48.11000 33.32400 24.18600
C  47.55600 33.36700 25.56100
C  47.78200 35.57200 22.78300
C  49.22200 32.20700 24.02900
C  48.76600 30.97100 23.27000
N  46.59200 33.11300 28.40000
C  46.45000 32.07300 27.47800
C  45.77800 30.93700 28.04000
C  45.60700 31.38100 29.39700
C  46.18900 32.59300 29.58300
C  45.29500 29.68100 27.37000
C  45.13900 30.92300 30.68600
O  44.60200 29.84400 30.99100
C  45.43400 32.09600 31.74600
C  46.09200 31.47400 32.90300
O  47.22800 31.15300 32.88100
O  45.26100 31.25200 34.00800
C  45.90200 30.53700 35.13100
H  48.01600 38.49200 30.96800
H  49.40900 37.08100 24.78900
H  46.74800 31.43000 25.45600
H  45.74400 34.88000 33.17900
H  47.54500 37.05700 32.97100
H  45.31000 37.98700 31.60800
H  45.52800 38.05300 33.40900
H  44.58400 36.74900 32.68900
H  48.50300 35.34300 33.76500
H  48.29800 33.72700 32.86800
H  48.14800 33.07800 34.91700
H  46.46200 33.63900 34.90600
H  50.63400 40.12600 29.50900
H  49.05900 39.98000 30.29700
H  49.21000 41.06200 28.93000
H  51.36100 41.31100 25.77400
H  51.84200 40.45300 27.22600
H  50.31200 41.45600 27.17200
H  49.59000 34.72800 23.70700
H  47.27200 32.95800 23.59200
H  47.44000 36.51300 23.21300
H  46.86700 35.03400 22.53600
H  48.44200 35.73600 21.93100
H  49.48600 31.85700 25.02800
H  50.20300 32.52400 23.67400
H  49.11700 30.12700 23.86500
H  49.26700 31.02200 22.30300
H  47.70700 31.00000 23.01200
H  45.98300 29.32900 26.60100
H  44.30000 29.92300 26.99600
H  45.28300 28.95300 28.18100
H  44.56400 32.53300 32.23600
H  45.54600 30.92200 36.08600
H  46.99100 30.50200 35.14500
H  45.60700 29.49300 35.23400

