158

Mg 46.62400 45.68800 44.15000
C  43.29500 44.46900 43.77800
C  47.68700 42.37300 43.83400
C  49.71000 46.87100 43.90300
C  45.35700 48.87400 44.00900
N  45.60500 43.68400 43.69200
C  44.25600 43.43300 43.68100
C  43.97000 41.88800 43.61600
C  45.28800 41.31400 44.04800
C  46.27200 42.50500 43.83700
C  45.37500 40.76400 45.51600
C  43.32000 41.36600 42.24000
C  43.39100 42.32900 40.99500
H  43.04000 41.82900 39.55200
N  48.43800 44.74600 43.79500
C  48.63000 43.41100 43.75700
C  50.04600 43.19500 43.55700
C  50.72200 44.47800 43.66300
C  49.60600 45.43400 43.79300
C  50.55700 41.78700 43.27400
C  52.24300 44.71700 43.53200
O  53.02600 43.74000 43.58900
C  52.82400 46.06700 43.29200
N  47.38800 47.63100 43.65800
C  48.69500 47.80800 43.99700
C  49.04700 49.29500 44.35500
C  47.65500 49.97600 44.10500
C  46.74700 48.72500 43.92900
C  49.54800 49.49400 45.82600
C  47.59500 50.79300 42.74300
C  48.63200 51.90200 42.53800
N  44.71300 46.56600 43.96500
C  44.35600 47.85000 43.98500
C  42.89000 47.97800 43.83400
C  42.47800 46.67600 43.79800
C  43.59200 45.82000 43.90700
C  41.99300 49.27600 43.57200
C  41.29800 45.89100 43.75400
O  40.10200 46.11700 43.71000
C  41.79500 44.40200 43.71900
C  41.27700 43.66300 44.88400
O  40.89200 42.48300 44.86200
O  41.21900 44.46600 46.00900
C  40.48300 43.85000 47.21400
H  48.02200 41.34800 44.00400
H  50.69600 47.33700 43.95900
H  44.96300 49.88800 44.10600
H  43.23300 41.64700 44.38100
H  45.59700 40.46800 43.43300
H  45.50800 39.68300 45.47900
H  44.50000 41.14400 46.04400
H  46.31200 41.08600 45.97100
H  42.30100 41.02100 42.41400
H  43.99700 40.55400 41.97500
H  44.37300 42.80300 40.98900
H  42.82800 43.24300 41.18400
H  51.27800 41.54800 44.05600
H  51.10900 41.62800 42.34700
H  49.84100 40.96600 43.30500
H  52.91900 46.54400 44.26800
H  52.13000 46.57100 42.61900
H  53.76100 45.97600 42.74300
H  49.74900 49.71700 43.63600
H  47.31100 50.57200 44.95000
H  48.70200 49.37400 46.50200
H  50.19300 50.36500 45.94600
H  50.16200 48.64700 46.13300
H  46.64200 51.22700 42.43800
H  47.87000 50.07600 41.97000
H  49.35600 51.72100 41.74300
H  49.26300 52.14600 43.39200
H  48.04500 52.80600 42.38000
H  41.51100 49.31600 42.59500
H  42.62500 50.16300 43.62000
H  41.20700 49.33100 44.32500
H  41.43000 43.81200 42.87800
H  39.48300 44.27300 47.12200
H  40.79300 44.33000 48.14200
H  40.38200 42.77100 47.33100
Mg 47.14600 35.19100 28.51700
C  45.40100 33.37400 31.19600
C  47.46200 37.82300 30.68000
C  48.17800 36.92300 25.92300
C  46.82800 32.31700 26.51800
N  46.57100 35.47500 30.69200
C  45.97800 34.64000 31.55100
C  46.04100 35.20800 32.97700
C  46.17700 36.73600 32.69400
C  46.79000 36.71300 31.23600
C  44.94100 37.55500 32.96000
C  47.25300 34.62300 33.76900
C  47.06800 34.34700 35.35000
H  46.23800 35.35600 36.19000
N  47.83900 37.06800 28.28600
C  47.97500 38.01700 29.34900
C  48.57300 39.22300 28.81400
C  48.82400 39.03500 27.44800
C  48.33100 37.57800 27.13500
C  48.48400 40.50800 29.58000
C  49.35400 40.02200 26.47200
O  49.38200 39.74900 25.27100
C  49.83900 41.37400 26.85600
N  47.34300 34.71700 26.46100
C  47.85800 35.61600 25.65400
C  48.14900 34.99200 24.28000
C  47.73300 33.49200 24.39600
C  47.40100 33.41900 25.94700
C  47.48700 35.62100 23.02000
C  48.85000 32.46200 24.00400
C  48.27000 31.21800 23.20700
N  46.32200 33.21500 28.77800
C  46.25400 32.16600 27.83700
C  45.49000 31.06500 28.41700
C  45.08900 31.53700 29.64100
C  45.64400 32.79200 29.87800
C  45.07700 29.78000 27.83200
C  44.37200 31.14600 30.83700
O  43.81700 30.06900 31.01100
C  44.40700 32.40700 31.84800
C  44.93200 31.84800 33.07500
O  46.11600 31.71000 33.46100
O  43.82100 31.53700 33.79800
C  44.11900 30.81500 35.08200
H  47.42100 38.75100 31.25500
H  48.55700 37.50500 25.08000
H  46.61500 31.49000 25.83700
H  45.10700 34.81900 33.38500
H  46.94200 37.09000 33.38500
H  44.75300 38.14500 32.06300
H  44.96600 38.18800 33.84700
H  44.06300 36.91300 33.02100
H  48.06900 35.34300 33.71200
H  47.66000 33.76400 33.23600
H  47.97900 34.14300 35.91200
H  46.57600 33.39500 35.54900
H  47.84400 41.22300 29.06300
H  49.49500 40.91400 29.53000
H  48.21500 40.60600 30.63100
H  49.05300 42.12400 26.76700
H  50.51600 41.47900 26.00800
H  50.46600 41.40800 27.74800
H  49.22100 35.01800 24.08900
H  46.73700 33.27600 24.00800
H  46.76000 34.93400 22.58600
H  48.28200 35.88500 22.32200
H  46.88200 36.49200 23.27200
H  49.41600 32.09700 24.86100
H  49.54100 32.94800 23.31500
H  47.21300 31.18300 23.47300
H  48.76900 30.30500 23.53100
H  48.26800 31.43200 22.13800
H  45.96700 29.17000 27.67500
H  44.57000 29.94100 26.88100
H  44.47600 29.19100 28.52500
H  43.44000 32.89100 31.98000
H  44.87300 30.02900 35.07500
H  43.22300 30.24600 35.33100
H  44.48300 31.48800 35.85900

