158

Mg 26.36200 50.83600 26.48500
C  24.49700 52.02700 29.25400
C  28.87700 50.03800 28.85800
C  28.05800 49.79800 24.00300
C  23.96500 52.44800 24.43900
N  26.66500 51.17700 28.81100
C  25.63000 51.29400 29.68600
C  25.96700 50.99200 31.17500
C  27.40000 50.37400 30.98100
C  27.72600 50.54700 29.41900
C  28.47400 50.95200 31.92200
C  24.85200 50.22000 32.05900
C  25.43600 49.33400 33.28200
H  24.90100 49.71900 34.72400
N  28.18700 49.93900 26.42300
C  29.12400 49.72600 27.47300
C  30.29600 49.10800 26.80300
C  29.95700 48.83800 25.46700
C  28.72800 49.56900 25.24400
C  31.49600 48.70100 27.60200
C  30.72400 47.97600 24.47200
O  30.28200 47.70600 23.33900
C  32.11000 47.39600 24.81600
N  26.17100 51.25700 24.44400
C  26.93200 50.55400 23.58600
C  26.42500 50.59900 22.20500
C  25.09600 51.42400 22.33200
C  25.07300 51.86900 23.80900
C  27.46500 51.19300 21.20100
C  23.81200 50.68000 21.88200
C  22.77200 51.49400 21.06700
N  24.66100 52.09300 26.73900
C  23.75900 52.62400 25.80600
C  22.66700 53.22600 26.46100
C  22.93600 53.07700 27.78800
C  24.11400 52.36100 27.92900
C  21.55900 53.92400 25.75800
C  22.36800 53.30400 29.14400
O  21.37600 53.92900 29.52200
C  23.42600 52.63100 30.12300
C  23.88300 53.67200 31.09300
O  24.55600 54.70900 30.81700
O  23.27600 53.41000 32.28500
C  23.34800 54.41000 33.37400
H  29.65900 49.66500 29.52300
H  28.68100 49.39100 23.20300
H  23.22100 52.81500 23.72800
H  26.09700 51.92000 31.73100
H  27.44700 49.30300 31.17600
H  29.26800 51.39900 31.32400
H  28.98600 50.15500 32.46200
H  28.09800 51.64700 32.67400
H  24.27400 49.56700 31.40400
H  24.06300 50.83200 32.49600
H  26.51800 49.29900 33.15700
H  25.04500 48.32300 33.16200
H  31.34200 48.96400 28.64900
H  32.35400 49.24000 27.20000
H  31.71500 47.63500 27.55400
H  32.72800 48.06200 25.41900
H  32.59500 46.98400 23.93200
H  31.89200 46.59400 25.52100
H  26.29400 49.57900 21.84400
H  25.21700 52.38500 21.83300
H  28.31800 51.48600 21.81400
H  27.08300 52.08600 20.70500
H  27.67900 50.41100 20.47300
H  23.28400 50.29900 22.75600
H  24.01100 49.85200 21.20200
H  21.80000 51.33400 21.53400
H  22.83100 51.11900 20.04600
H  23.03900 52.54900 21.00700
H  21.18400 53.29100 24.95400
H  21.84000 54.91300 25.39500
H  20.70200 54.12200 26.40300
H  22.87300 51.83600 30.62400
H  23.76000 55.36200 33.04000
H  24.08500 54.11500 34.12100
H  22.40600 54.67800 33.85200
Mg -9.87000 17.40000 41.03000
C  -6.43900 17.31500 41.29600
C  -9.79000 20.72900 40.34200
C  -13.16600 17.24500 40.21800
C  -9.83700 13.94900 41.37600
N  -8.25400 18.83800 40.70100
C  -6.95900 18.61300 40.95100
C  -6.19800 19.91700 40.66700
C  -7.25600 21.05500 40.85500
C  -8.55500 20.19700 40.68300
C  -7.18500 21.80100 42.22600
C  -5.56200 19.92600 39.29300
C  -4.08100 19.78900 39.08300
H  -3.42900 18.68100 38.22700
N  -11.26600 18.79900 40.33600
C  -11.06000 20.14000 40.14500
C  -12.26500 20.80900 39.66000
C  -13.28500 19.79700 39.59700
C  -12.61700 18.54300 40.10900
C  -12.26300 22.25300 39.21600
C  -14.76200 20.01400 39.08700
O  -15.10100 21.10500 38.57200
C  -15.81200 18.89500 38.89400
N  -11.30200 15.72900 40.55000
C  -12.57100 15.95300 40.38900
C  -13.41700 14.64400 40.45600
C  -12.31100 13.60800 41.03300
C  -10.99700 14.45100 40.88800
C  -14.75400 14.66800 41.28600
C  -12.28400 12.20900 40.21100
C  -12.51300 10.99700 41.14900
N  -8.42500 15.84300 41.22100
C  -8.57200 14.51300 41.29400
C  -7.34600 13.87400 41.28800
C  -6.47100 14.94300 41.45700
C  -7.16500 16.12600 41.27100
C  -7.02900 12.34700 41.30400
C  -5.10600 15.29000 41.58000
O  -4.06300 14.60000 41.67000
C  -5.00400 16.86400 41.43700
C  -4.39200 17.53200 42.65800
O  -3.45000 18.29300 42.57500
O  -5.17500 17.23300 43.76600
C  -4.57300 17.96300 44.87300
H  -9.75800 21.78600 40.07000
H  -14.24700 17.32200 40.08400
H  -9.75100 12.87000 41.52100
H  -5.45300 20.03300 41.45400
H  -7.31700 21.77800 40.04100
H  -6.96800 21.16100 43.08200
H  -8.05400 22.40400 42.48600
H  -6.47500 22.59200 41.98800
H  -5.91700 20.85500 38.84800
H  -6.08400 19.10000 38.80800
H  -3.68900 19.75500 40.09900
H  -3.72300 20.67600 38.56000
H  -13.30300 22.57900 39.20500
H  -11.76500 22.29200 38.24700
H  -11.73100 22.80700 39.98900
H  -15.36300 18.18600 38.19900
H  -16.72300 19.33300 38.48500
H  -16.07900 18.39000 39.82200
H  -13.75300 14.29100 39.48100
H  -12.46300 13.43700 42.09900
H  -14.77900 13.94500 42.10100
H  -15.55300 14.36200 40.61100
H  -14.94500 15.59400 41.82800
H  -11.34900 12.19600 39.65100
H  -13.07700 12.24000 39.46300
H  -12.13600 10.19500 40.51400
H  -13.59000 10.87300 41.26100
H  -11.96400 11.10200 42.08400
H  -7.25800 11.98400 42.30700
H  -5.99100 12.06100 41.13500
H  -7.73900 11.75100 40.73100
H  -4.32400 17.09500 40.61800
H  -3.76800 17.40400 45.35200
H  -5.30900 17.94500 45.67700
H  -4.38500 19.02600 44.72300

