158

Mg 16.80600 -1.60800 27.74200
C  15.45500 0.59400 30.20500
C  18.78300 -2.96800 30.23300
C  18.35700 -3.33500 25.33200
C  15.33100 0.53900 25.40500
N  17.16600 -1.13600 29.94800
C  16.40500 -0.33100 30.72700
C  16.59100 -0.71600 32.20700
C  17.86400 -1.61700 32.22700
C  17.98900 -1.90300 30.65500
C  19.11700 -1.02000 32.74100
C  15.42000 -1.22000 33.05800
C  15.15800 -0.51100 34.38300
H  16.41100 0.06100 35.17100
N  18.24900 -3.07400 27.76700
C  18.88000 -3.54200 28.89200
C  19.67300 -4.67600 28.53200
C  19.56700 -4.88800 27.17000
C  18.69200 -3.78600 26.69600
C  20.53200 -5.43300 29.50200
C  20.21300 -5.89400 26.21300
O  19.97900 -5.87200 25.01300
C  21.14600 -6.98500 26.76700
N  17.05200 -1.27700 25.73500
C  17.59700 -2.21700 24.91900
C  17.30500 -1.88000 23.41600
C  16.24900 -0.72600 23.45200
C  16.27200 -0.42800 24.96100
C  18.45300 -1.58000 22.47100
C  14.80400 -1.05400 22.88800
C  13.79800 -1.63300 23.91400
N  15.57600 0.25100 27.73100
C  14.90700 0.81000 26.65700
C  13.93600 1.74800 27.18000
C  14.12400 1.71100 28.59100
C  15.13900 0.78200 28.83300
C  12.83300 2.47700 26.38300
C  13.52900 2.16500 29.76300
O  12.54400 2.87100 30.06500
C  14.46800 1.52400 30.93100
C  15.24800 2.58500 31.58100
O  16.35200 2.95500 31.21000
O  14.68500 2.90000 32.80500
C  15.35900 3.90900 33.68400
H  19.39200 -3.50500 30.96400
H  18.72500 -3.99500 24.54300
H  14.86100 0.99600 24.53100
H  16.94800 0.23200 32.61000
H  17.74200 -2.58400 32.71500
H  19.38600 -1.35100 33.74400
H  19.00000 0.06000 32.64900
H  19.91500 -1.37500 32.09000
H  15.52700 -2.29500 33.20500
H  14.48900 -1.14900 32.49600
H  14.89900 -1.26100 35.13000
H  14.39600 0.24100 34.17800
H  21.53600 -5.29400 29.10100
H  20.29800 -6.49400 29.59200
H  20.59000 -5.02200 30.50900
H  20.66300 -7.67900 27.45400
H  22.05400 -6.56200 27.19900
H  21.67400 -7.44400 25.93100
H  16.84300 -2.83300 23.15900
H  16.58300 0.07100 22.78700
H  18.35900 -0.55600 22.10900
H  18.43100 -2.20700 21.57900
H  19.44500 -1.67800 22.91100
H  14.96500 -1.61800 21.96900
H  14.42400 -0.08100 22.57400
H  13.22100 -0.75800 24.21500
H  14.35500 -2.07600 24.73900
H  13.17800 -2.33700 23.35900
H  13.15700 3.50600 26.22400
H  11.88300 2.49100 26.91700
H  12.58600 1.91400 25.48400
H  13.81200 0.99300 31.62100
H  15.96800 3.32900 34.37700
H  14.72800 4.58300 34.26300
H  16.01900 4.57600 33.12800
Mg 36.85000 50.29500 25.31900
C  37.12500 48.33700 28.28300
C  35.85600 52.94200 27.12700
C  36.09600 51.83600 22.41800
C  38.06200 47.59700 23.52200
N  36.41100 50.49800 27.50500
C  36.73600 49.65600 28.53600
C  36.54100 50.36400 29.92700
C  36.20200 51.80600 29.47200
C  36.12500 51.77100 27.94800
C  34.89800 52.43600 30.04800
C  37.89000 50.31600 30.85300
C  37.81400 49.60300 32.18900
H  36.52900 49.63800 33.01500
N  36.12100 52.15400 24.84000
C  35.78300 53.11600 25.75100
C  35.35100 54.30900 24.99500
C  35.32600 53.96600 23.61100
C  35.91100 52.66700 23.55300
C  34.79000 55.48000 25.71800
C  34.86500 54.74500 22.36700
O  34.99000 54.26800 21.28300
C  34.30900 56.09800 22.51800
N  36.93800 49.68400 23.24800
C  36.57800 50.52700 22.24800
C  37.09000 49.99100 20.85400
C  37.91500 48.66200 21.25900
C  37.63000 48.64500 22.74300
C  35.93200 49.74100 19.90400
C  39.45300 48.52400 21.04200
C  40.09500 47.16600 20.67500
N  37.48400 48.38300 25.75900
C  37.87400 47.40000 24.89800
C  38.31500 46.25900 25.70300
C  37.94900 46.59100 27.02400
C  37.43200 47.85100 27.02100
C  39.02800 44.98300 25.25000
C  38.09100 46.11900 28.36900
O  38.51100 45.12000 28.87900
C  37.48600 47.23000 29.24900
C  36.31600 46.76200 29.99300
O  35.13400 47.07000 29.76900
O  36.66900 46.08000 31.09500
C  35.73400 45.57600 32.01000
H  35.49700 53.69500 27.83200
H  36.00800 52.28700 21.42700
H  38.38100 46.72200 22.95100
H  35.68400 49.97300 30.47500
H  36.98000 52.51100 29.76500
H  34.98600 53.44000 30.46300
H  34.55500 51.81400 30.87500
H  34.12200 52.42000 29.28200
H  38.18100 51.34300 31.07300
H  38.67800 49.84500 30.26500
H  38.53000 50.09000 32.85000
H  38.13700 48.57200 32.04900
H  35.04200 56.32400 25.07700
H  35.40000 55.74200 26.58200
H  33.74200 55.34400 25.98600
H  34.04000 56.42100 21.51200
H  35.06200 56.83300 22.80400
H  33.44000 56.24300 23.15900
H  37.87900 50.68100 20.55800
H  37.34900 47.79300 20.92200
H  35.38700 50.66900 19.73500
H  35.23800 49.00900 20.31700
H  36.29000 49.38600 18.93800
H  39.78800 48.80800 22.04000
H  39.76200 49.29300 20.33500
H  40.70700 47.38600 19.80000
H  39.29600 46.45700 20.45900
H  40.77200 46.87800 21.47900
H  39.89300 44.82000 25.89300
H  39.47300 45.13200 24.26600
H  38.41500 44.08400 25.29800
H  38.23500 47.51700 29.98600
H  35.18400 44.81600 31.45500
H  35.05400 46.34100 32.38600
H  36.24600 45.06300 32.82400

