158

Mg 8.65900 3.01300 27.92500
C  10.08700 1.45600 30.85700
C  6.69800 4.85200 30.01900
C  7.02900 4.13000 25.14600
C  10.32300 0.49300 26.01900
N  8.40200 3.08600 30.15700
C  9.15700 2.51400 31.15100
C  8.78700 3.02400 32.61800
C  7.74900 4.14800 32.25100
C  7.59000 4.00400 30.71800
C  6.35400 4.06100 33.01400
C  10.08700 3.61800 33.29800
C  10.64100 2.99400 34.54600
H  10.98000 4.00000 35.65100
N  7.12700 4.37900 27.62600
C  6.40300 4.95300 28.63400
C  5.43300 5.79700 27.96300
C  5.71200 5.80200 26.56300
C  6.66600 4.70800 26.37600
C  4.39800 6.66700 28.72200
C  5.10800 6.75200 25.49400
O  5.47200 6.54000 24.37100
C  4.10500 7.83600 25.78400
N  8.70300 2.45500 25.96000
C  7.98100 3.07800 24.96000
C  8.40800 2.60900 23.58500
C  9.66400 1.70400 23.91700
C  9.56700 1.53300 25.38400
C  7.37400 1.82400 22.73700
C  11.10000 2.17300 23.35300
C  12.08000 3.03200 24.20200
N  10.05000 1.33800 28.29200
C  10.51000 0.40400 27.42300
C  11.20500 -0.53200 28.15000
C  11.07200 -0.12600 29.51500
C  10.38100 1.01800 29.54100
C  11.87600 -1.73600 27.54400
C  11.43400 -0.55000 30.84200
O  12.09100 -1.50000 31.20100
C  10.74500 0.45700 31.81300
C  9.81100 -0.29100 32.77700
O  8.84600 -0.99400 32.43400
O  10.06400 -0.05200 34.06200
C  9.24500 -0.68300 35.11400
H  6.20400 5.55500 30.69300
H  6.47200 4.38000 24.24100
H  10.87600 -0.13700 25.32000
H  8.18000 2.25900 33.10100
H  8.10700 5.15700 32.45900
H  6.60100 3.84700 34.05400
H  5.71900 3.24400 32.67300
H  5.79300 4.98700 32.89000
H  9.78400 4.63700 33.53700
H  10.89000 3.72600 32.56900
H  11.45500 2.34000 34.23400
H  9.93600 2.26700 34.95000
H  4.26900 6.36900 29.76200
H  3.47800 6.58900 28.14200
H  4.65600 7.72600 28.68700
H  3.19700 7.25500 25.94700
H  4.03900 8.57100 24.98200
H  4.28300 8.33100 26.73900
H  8.67100 3.50600 23.02500
H  9.58900 0.67800 23.55700
H  6.53700 1.59700 23.39700
H  7.66700 0.83100 22.39600
H  7.02400 2.42100 21.89400
H  10.92600 2.63600 22.38200
H  11.78100 1.33400 23.20500
H  11.72400 3.03400 25.23300
H  12.24600 4.04800 23.84400
H  13.07100 2.58100 24.16600
H  11.58600 -2.04500 26.54000
H  11.49600 -2.47900 28.24500
H  12.96000 -1.78400 27.64700
H  11.53700 1.02700 32.30000
H  9.22500 -1.77100 35.04900
H  8.18800 -0.43500 35.02100
H  9.51600 -0.39300 36.12900
Mg 47.80200 25.18800 28.33400
C  48.56200 27.39200 30.89300
C  46.59200 22.88400 30.88500
C  47.21300 22.91500 26.05700
C  49.34000 27.22900 25.97700
N  47.48400 25.16900 30.62400
C  47.82100 26.26500 31.38700
C  47.25200 26.11600 32.84700
C  46.78600 24.57600 32.90100
C  46.96900 24.12700 31.41800
C  47.51900 23.65100 33.93800
C  46.07600 27.08200 33.13500
C  46.20800 27.96100 34.41200
H  45.01300 27.80500 35.34400
N  46.77200 23.34100 28.41500
C  46.50300 22.52900 29.55400
C  46.10800 21.26900 29.02200
C  46.15500 21.27000 27.58500
C  46.73900 22.57100 27.30500
C  45.84100 20.09200 29.94000
C  45.71400 20.19000 26.56000
O  45.83200 20.31700 25.33000
C  45.03100 18.97500 27.07300
N  48.24100 25.06400 26.30300
C  47.88300 24.01500 25.55200
C  47.99000 24.29800 24.07300
C  48.70700 25.67900 24.04600
C  48.82500 25.99200 25.56900
C  48.78900 23.29300 23.22300
C  48.00200 26.70400 23.26200
C  48.78000 27.43000 22.16100
N  48.79900 26.96900 28.43600
C  49.38900 27.69800 27.37100
C  49.85500 28.91000 27.95900
C  49.50500 28.87200 29.31500
C  48.90500 27.65800 29.55900
C  50.45100 30.08500 27.18400
C  49.49300 29.58400 30.54800
O  49.90100 30.71700 30.79100
C  48.80200 28.70500 31.56000
C  49.58900 28.72000 32.86400
O  50.72600 28.29400 33.01900
O  48.88400 29.34000 33.82400
C  49.59500 29.74300 35.03400
H  46.17300 22.27100 31.68500
H  47.10300 22.26900 25.18300
H  49.84500 27.73400 25.15100
H  48.10000 26.30300 33.50600
H  45.73200 24.47600 33.16200
H  48.04900 24.30500 34.63100
H  48.34100 23.09300 33.48900
H  46.80200 23.04200 34.49000
H  45.13400 26.53500 33.17900
H  46.02800 27.87000 32.38400
H  46.13900 29.02800 34.20200
H  47.05800 27.69500 35.04100
H  46.43100 19.23300 29.61900
H  44.84300 19.67600 29.80000
H  46.12500 20.28300 30.97500
H  44.06500 19.23100 27.50800
H  45.60100 18.33900 27.74900
H  44.83100 18.27200 26.26400
H  46.98700 24.28000 23.64700
H  49.69900 25.47900 23.64200
H  48.04600 22.81600 22.58400
H  49.16100 22.50800 23.88100
H  49.66200 23.64300 22.67200
H  47.75100 27.52600 23.93300
H  47.09300 26.28100 22.83400
H  48.37900 28.44000 22.06900
H  48.45000 26.97000 21.23000
H  49.84500 27.34700 22.37700
H  49.78800 30.47800 26.41400
H  51.33200 29.70500 26.66700
H  50.70700 30.87100 27.89400
H  47.79900 29.09400 31.73200
H  49.67900 28.90300 35.72400
H  48.99700 30.48800 35.55800
H  50.58700 30.10200 34.76000

