158

Mg -2.62600 17.65100 26.75300
C  -3.19300 15.55400 29.53200
C  -2.86300 20.32600 28.72600
C  -2.78300 19.63000 23.89500
C  -2.91000 14.85900 24.65400
N  -2.99400 17.84500 28.84800
C  -3.02900 16.85700 29.86500
C  -3.05900 17.46500 31.26400
C  -3.20100 18.99400 30.90500
C  -3.07900 19.09900 29.39200
C  -4.46600 19.72100 31.35900
C  -1.92900 16.98900 32.25000
C  -1.65900 17.94500 33.34700
H  -1.40700 17.32100 34.65100
N  -2.48100 19.72700 26.41100
C  -2.56400 20.66600 27.37400
C  -2.31000 22.00500 26.75500
C  -2.30400 21.76300 25.37400
C  -2.59000 20.35400 25.14400
C  -2.36300 23.25100 27.55600
C  -2.04700 22.74400 24.26600
O  -2.04200 22.41400 23.08600
C  -1.60100 24.09300 24.56200
N  -2.89200 17.39800 24.55300
C  -2.89700 18.27400 23.61100
C  -2.69100 17.67800 22.24400
C  -2.61500 16.14500 22.43800
C  -2.75200 16.13100 24.00700
C  -3.67300 18.01700 21.12000
C  -1.16900 15.57900 21.91600
C  0.15700 16.03200 22.52400
N  -2.98700 15.66500 26.98600
C  -2.96300 14.64700 26.03900
C  -3.14400 13.35400 26.72700
C  -3.21400 13.67500 28.06400
C  -3.14400 15.07900 28.19700
C  -3.42400 12.00100 26.17100
C  -3.38500 13.13100 29.43300
O  -3.59600 11.99600 29.85100
C  -3.30000 14.37700 30.43200
C  -2.02400 14.12400 31.20200
O  -0.92800 14.45500 30.80500
O  -2.30500 13.44700 32.36100
C  -1.15200 13.23100 33.21000
H  -2.98700 21.13800 29.44600
H  -2.90000 20.19100 22.96600
H  -2.95800 13.99200 23.99100
H  -4.06800 17.16800 31.55100
H  -2.38500 19.57800 31.33200
H  -5.10500 19.31000 32.14100
H  -5.11600 19.91900 30.50700
H  -4.05800 20.63900 31.78100
H  -1.01400 16.95400 31.65900
H  -2.20600 16.03600 32.70000
H  -2.54000 18.58300 33.42000
H  -0.74500 18.49500 33.12200
H  -2.55900 23.11200 28.62000
H  -3.12100 23.91400 27.13900
H  -1.41200 23.73600 27.33500
H  -2.37000 24.64700 25.10100
H  -1.33600 24.57000 23.61900
H  -0.72200 24.01500 25.20200
H  -1.66000 17.93200 21.99900
H  -3.46500 15.65200 21.96500
H  -3.59500 19.09800 21.00500
H  -4.71000 17.72800 21.28900
H  -3.25400 17.52200 20.24400
H  -0.99400 15.85700 20.87700
H  -1.27500 14.49400 21.93200
H  0.64000 15.23700 23.09300
H  0.00200 16.86900 23.20500
H  0.80700 16.48500 21.77600
H  -3.17100 11.26000 26.93000
H  -2.71500 11.85300 25.35600
H  -4.47000 11.92900 25.87500
H  -4.16700 14.46000 31.08800
H  -1.02300 12.19800 33.53100
H  -1.23900 13.73900 34.17000
H  -0.13000 13.44600 32.89700
Mg -0.58300 7.59400 26.34600
C  0.11400 9.55200 29.09300
C  -0.77300 4.88800 28.57200
C  -1.04400 5.47000 23.70000
C  -0.37800 10.32900 24.21900
N  -0.27000 7.25200 28.54300
C  -0.15500 8.30300 29.42700
C  -0.33700 7.76500 30.91000
C  -0.57300 6.26900 30.73800
C  -0.56900 6.12300 29.21000
C  0.45800 5.35800 31.52200
C  -1.46400 8.45800 31.71800
C  -1.29100 8.76500 33.19100
H  -0.05700 8.19500 33.90200
N  -0.66300 5.45300 26.11400
C  -0.81200 4.57900 27.19300
C  -1.12300 3.22000 26.69800
C  -1.23000 3.34800 25.23500
C  -0.92900 4.82500 24.94700
C  -1.22600 1.99400 27.56700
C  -1.53300 2.29600 24.13600
O  -1.62200 2.61100 22.96600
C  -1.67600 0.85400 24.51000
N  -0.80400 7.85100 24.27800
C  -0.98800 6.81700 23.34100
C  -1.13700 7.42900 21.93200
C  -0.99700 8.96800 22.12500
C  -0.71200 9.08400 23.61000
C  -0.09400 6.85000 20.91200
C  -2.24900 9.83000 21.79800
C  -3.35400 10.01100 22.81100
N  -0.07700 9.53500 26.53400
C  -0.09600 10.55600 25.63000
C  0.26200 11.79100 26.30300
C  0.38700 11.43400 27.66100
C  0.15600 10.04900 27.76500
C  0.56500 13.11300 25.61300
C  0.72600 11.97400 29.02600
O  1.14900 13.07400 29.33600
C  0.45400 10.73200 29.95200
C  1.61000 10.62000 30.86900
O  2.72900 10.28900 30.55400
O  1.23800 11.37400 31.91700
C  2.32000 11.83100 32.79400
H  -0.93100 4.06100 29.26800
H  -1.23700 4.78900 22.86800
H  -0.39100 11.22900 23.60000
H  0.63100 7.94000 31.37900
H  -1.56500 6.11400 31.16100
H  -0.12700 4.59500 32.03500
H  1.10700 5.97800 32.14000
H  0.99400 4.87200 30.70700
H  -2.42100 7.93900 31.65100
H  -1.72900 9.37800 31.19600
H  -2.21400 8.38800 33.63200
H  -1.20800 9.83000 33.41100
H  -0.41100 1.29900 27.36600
H  -2.11700 1.43100 27.28800
H  -1.29400 2.20400 28.63400
H  -1.92200 0.28600 23.61300
H  -2.50300 0.76200 25.21500
H  -0.71200 0.56400 24.92700
H  -2.12000 7.20300 21.51900
H  -0.19300 9.50200 21.62000
H  -0.50700 6.17200 20.16500
H  0.60400 6.18500 21.42100
H  0.55400 7.58200 20.43000
H  -2.65100 9.38500 20.88800
H  -1.84700 10.76300 21.40300
H  -3.02200 10.16400 23.83800
H  -4.07500 9.20100 22.70000
H  -3.85800 10.94700 22.56700
H  0.97300 13.76500 26.38500
H  -0.43900 13.46300 25.37300
H  1.09400 12.92800 24.67800
H  -0.41900 10.97900 30.55600
H  3.14900 12.29900 32.26400
H  2.72100 10.97300 33.33400
H  1.89500 12.48500 33.55600

