158

Mg 2.23900 -3.04800 44.95900
C  5.36100 -1.82100 44.00600
C  0.76800 -0.73300 42.81300
C  -0.76700 -4.54700 45.64000
C  3.86000 -5.75900 46.49200
N  3.08400 -1.56700 43.31200
C  4.37600 -1.15400 43.33600
C  4.53800 0.02100 42.25700
C  3.10600 0.42100 42.11000
C  2.24600 -0.70000 42.75300
C  2.87400 1.72200 42.85400
C  5.33100 -0.56800 40.97600
C  6.69000 -0.03100 40.58700
H  7.08400 0.23000 39.15900
N  0.27300 -2.64100 44.35600
C  -0.12600 -1.71100 43.39500
C  -1.58600 -1.65500 43.50100
C  -2.05700 -2.76500 44.22000
C  -0.84500 -3.38300 44.84500
C  -2.36400 -0.63700 42.64700
C  -3.48500 -3.12700 44.51200
O  -4.43100 -2.57900 43.92100
C  -3.86000 -4.19400 45.56800
N  1.59300 -4.88500 46.01100
C  0.34600 -5.32000 46.07500
C  0.24800 -6.70600 46.61100
C  1.69800 -7.08400 46.79000
C  2.47000 -5.81300 46.47000
C  -0.75500 -6.89100 47.78200
C  2.17500 -8.20200 45.77200
C  3.19300 -9.19000 46.37100
N  4.12900 -3.68000 45.27000
C  4.64000 -4.75600 45.95700
C  6.08300 -4.69100 46.03800
C  6.43400 -3.52200 45.37400
C  5.19700 -3.02700 44.79400
C  7.00300 -5.56100 46.80800
C  7.55000 -2.65900 44.94800
O  8.78700 -2.77800 45.05500
C  6.87600 -1.49100 44.08900
C  7.11700 -0.25300 44.93200
O  6.33400 0.21400 45.72500
O  8.35300 0.26800 44.69400
C  8.67800 1.60300 45.22400
H  0.29300 0.17300 42.43000
H  -1.57600 -5.24600 45.86100
H  4.42900 -6.61400 46.86500
H  5.14000 0.78000 42.75600
H  2.83600 0.49000 41.05600
H  3.20200 1.66800 43.89200
H  1.80300 1.85500 42.69900
H  3.41600 2.53800 42.37800
H  4.69300 -0.33500 40.12400
H  5.51800 -1.64200 40.98900
H  7.40600 -0.75500 40.97600
H  6.97300 0.78100 41.25800
H  -2.81400 0.06300 43.35100
H  -3.17700 -1.12700 42.11200
H  -1.73800 -0.05900 41.96700
H  -3.70400 -5.15400 45.07600
H  -4.90900 -3.93100 45.70200
H  -3.28400 -3.98900 46.47000
H  -0.20300 -7.21200 45.75800
H  1.90300 -7.34400 47.82800
H  -1.27300 -5.96900 48.04500
H  -0.19800 -7.18600 48.67100
H  -1.44700 -7.63100 47.38100
H  2.68500 -7.89600 44.85800
H  1.36600 -8.85900 45.45100
H  2.77700 -10.16700 46.61700
H  3.68100 -8.77800 47.25500
H  3.89900 -9.31300 45.55000
H  7.66800 -6.10200 46.13400
H  6.57900 -6.22000 47.56700
H  7.63300 -4.87100 47.36900
H  7.41100 -1.38200 43.14600
H  7.82100 2.20300 45.53200
H  9.30500 2.16200 44.52900
H  9.30000 1.36800 46.08700
Mg 49.38600 35.27800 27.53900
C  46.98500 34.36000 30.04900
C  49.76000 38.24800 29.26600
C  51.51400 36.21700 25.12200
C  48.13500 32.78100 25.53600
N  48.37600 36.21500 29.39200
C  47.57300 35.60300 30.29800
C  47.30800 36.53800 31.48400
C  47.93300 37.91000 31.02200
C  48.67900 37.47600 29.76300
C  46.91000 39.06400 30.77000
C  47.92600 36.06300 32.81700
C  46.97000 35.86900 33.98600
H  46.43400 37.15000 34.67400
N  50.65500 36.93900 27.33800
C  50.69900 38.02400 28.19500
C  51.90300 38.79100 27.72700
C  52.31600 38.25500 26.47200
C  51.48800 37.07700 26.25500
C  52.44900 40.03600 28.48800
C  53.51500 38.68900 25.63100
O  53.92200 38.05200 24.64200
C  54.20000 39.99100 25.98300
N  49.83900 34.55000 25.67600
C  50.74000 35.12000 24.80600
C  50.81800 34.38700 23.39800
C  49.74800 33.19000 23.63200
C  49.17500 33.54800 25.01800
C  50.42900 35.36000 22.23400
C  50.32200 31.71800 23.57700
C  49.41500 30.70500 22.85800
N  47.97300 33.74100 27.74600
C  47.58100 32.74400 26.85300
C  46.60500 31.85800 27.45600
C  46.32800 32.47100 28.68700
C  47.16500 33.61800 28.84100
C  45.91600 30.62000 26.86300
C  45.46900 32.42600 29.86900
O  44.49200 31.71400 30.19800
C  45.92600 33.51600 30.77000
C  46.46900 32.92300 32.04900
O  47.65500 32.76200 32.26600
O  45.45100 32.65700 32.95000
C  45.91600 32.07600 34.19900
H  49.99400 39.19900 29.74800
H  52.27600 36.45200 24.37600
H  47.68300 32.01200 24.90600
H  46.23400 36.71600 31.54400
H  48.63900 38.22000 31.79200
H  47.25500 39.93400 31.32900
H  45.94400 38.70300 31.12100
H  46.77200 39.20700 29.69800
H  48.75900 36.65200 33.19900
H  48.36300 35.07900 32.65200
H  47.54000 35.25500 34.68200
H  46.00700 35.49300 33.64100
H  53.53400 40.01500 28.59000
H  51.88300 40.14100 29.41400
H  52.20500 40.93300 27.91900
H  54.82800 40.24300 25.12800
H  54.91000 39.84900 26.79700
H  53.46600 40.79600 26.01300
H  51.79500 33.95700 23.17900
H  48.90700 33.19000 22.93800
H  51.36000 35.74000 21.81300
H  49.80500 36.08700 22.75400
H  49.91600 34.91500 21.38200
H  50.42700 31.41600 24.61900
H  51.34800 31.70100 23.20900
H  49.28100 30.04800 23.71700
H  49.90200 30.19400 22.02700
H  48.51200 31.16400 22.45400
H  45.44700 30.11500 27.70800
H  46.69400 30.02800 26.38100
H  45.16600 30.99700 26.16800
H  45.09300 34.15700 31.05500
H  45.00000 31.86300 34.75000
H  46.48200 32.75700 34.83400
H  46.47600 31.14200 34.14700

