158

Mg 0.77400 8.70200 26.38200
C  1.34400 10.49000 29.48900
C  0.39700 5.94800 28.28400
C  0.25700 7.12600 23.52100
C  1.08900 11.72900 24.73900
N  1.03600 8.18200 28.62600
C  1.09900 9.11300 29.72100
C  0.96400 8.33800 31.00300
C  0.98500 6.84200 30.69100
C  0.80100 6.96600 29.12100
C  2.29300 6.12100 31.18900
C  -0.30600 8.73900 31.83400
C  -0.27500 8.56700 33.40700
H  0.98400 8.04000 34.12300
N  0.49300 6.77900 25.89500
C  0.26900 5.80400 26.80100
C  -0.00100 4.57200 26.10700
C  0.00200 4.81900 24.71700
C  0.28700 6.29900 24.64300
C  -0.21900 3.19800 26.84900
C  -0.21200 3.90800 23.56500
O  -0.15700 4.26800 22.39300
C  -0.28900 2.47700 23.75400
N  0.70700 9.31100 24.42300
C  0.52300 8.51700 23.41600
C  0.58600 9.26600 22.10800
C  0.36200 10.80200 22.55900
C  0.75200 10.61200 24.01000
C  1.87500 8.98600 21.47200
C  -1.11200 11.31600 22.48300
C  -1.42200 12.67100 21.81700
N  1.12000 10.70800 26.89400
C  1.30000 11.77000 26.07000
C  1.61000 12.98000 26.86000
C  1.68500 12.53300 28.21000
C  1.28700 11.13000 28.15400
C  1.96200 14.31600 26.29600
C  2.02000 12.93500 29.56200
O  2.39500 14.01200 29.95000
C  1.58100 11.63300 30.54800
C  2.66600 11.49400 31.56700
O  3.66900 10.71700 31.43200
O  2.43700 12.34800 32.60900
C  3.29700 12.20900 33.71900
H  0.17900 5.09800 28.93200
H  -0.00700 6.73500 22.53600
H  1.23600 12.66500 24.19500
H  1.81000 8.62100 31.62900
H  0.19600 6.29200 31.20300
H  2.04400 5.32900 31.89600
H  3.02400 6.71200 31.74100
H  2.86700 5.64500 30.39400
H  -1.08900 8.10700 31.41500
H  -0.52500 9.77200 31.56300
H  -1.09600 7.90000 33.66900
H  -0.56600 9.55900 33.75400
H  -0.14500 2.30100 26.23400
H  -1.26300 3.28800 27.15000
H  0.30000 2.97900 27.78200
H  -1.18100 2.29800 24.35500
H  0.71500 2.22700 24.09600
H  -0.40700 2.08300 22.74500
H  -0.28700 8.88800 21.57500
H  1.08200 11.47500 22.09400
H  2.45700 8.22000 21.98500
H  2.56600 9.81800 21.33900
H  1.72600 8.57300 20.47500
H  -1.53800 11.41900 23.48100
H  -1.73900 10.52700 22.06800
H  -1.81800 12.47600 20.82000
H  -0.65500 13.44000 21.91400
H  -2.23600 13.15800 22.35500
H  2.87300 14.25200 25.70100
H  2.08500 14.97800 27.15300
H  1.08100 14.50700 25.68400
H  0.64800 11.92600 31.03000
H  4.25500 12.71400 33.59600
H  3.55500 11.17100 33.93200
H  2.82700 12.54900 34.64200
Mg -6.53600 25.54600 27.14000
C  -4.95000 27.33600 29.71100
C  -8.06400 23.66200 29.55100
C  -7.75300 23.66100 24.67000
C  -4.44800 27.35400 24.83200
N  -6.45700 25.46700 29.32100
C  -5.75500 26.27600 30.18800
C  -6.06500 25.97200 31.67600
C  -6.85900 24.61600 31.60400
C  -7.19500 24.59100 30.07700
C  -5.89500 23.48500 32.01000
C  -6.92300 27.07600 32.29300
C  -6.67900 27.36600 33.79700
H  -6.69700 26.10700 34.76300
N  -7.78300 23.99300 27.08500
C  -8.37500 23.39200 28.19300
C  -9.35100 22.37300 27.76700
C  -9.25900 22.35100 26.35300
C  -8.29800 23.38400 25.95500
C  -10.25800 21.69200 28.69100
C  -10.10800 21.55300 25.29600
O  -9.98500 21.73400 24.08000
C  -11.03000 20.56400 25.79500
N  -6.08300 25.41400 25.08100
C  -6.85600 24.65300 24.25100
C  -6.45300 24.82500 22.79500
C  -5.57300 26.16400 22.83200
C  -5.30100 26.28500 24.35000
C  -5.69700 23.64200 22.08100
C  -6.36700 27.33700 22.18300
C  -7.28900 28.18000 23.08500
N  -5.06200 27.02700 27.14600
C  -4.31000 27.68500 26.19100
C  -3.48900 28.71500 26.75600
C  -3.69500 28.56800 28.12800
C  -4.65300 27.61400 28.37900
C  -2.64800 29.73200 26.06600
C  -3.26800 29.10600 29.42200
O  -2.33600 29.85300 29.69300
C  -4.12100 28.37400 30.49900
C  -3.22100 27.83000 31.57400
O  -2.48900 26.88300 31.41700
O  -3.36700 28.53700 32.75800
C  -2.56300 28.05100 33.90700
H  -8.53000 23.05200 30.32800
H  -8.04500 23.09600 23.78200
H  -3.86900 27.90400 24.08800
H  -5.19900 25.89700 32.33500
H  -7.70000 24.66500 32.29500
H  -5.58400 23.59900 33.04800
H  -5.13600 23.26500 31.25900
H  -6.51200 22.58600 32.02800
H  -7.96200 26.74800 32.26100
H  -6.77700 27.87900 31.57100
H  -7.37900 28.09600 34.20400
H  -5.68900 27.81600 33.87000
H  -11.26900 21.51600 28.32300
H  -10.48000 22.25900 29.59500
H  -9.92700 20.74800 29.12400
H  -10.54700 19.99000 26.58500
H  -11.41600 19.98700 24.95500
H  -11.83600 21.17300 26.20500
H  -7.43200 24.94500 22.33200
H  -4.61600 26.01100 22.33400
H  -5.10700 23.20800 22.88900
H  -5.09500 24.08400 21.28800
H  -6.48400 23.09100 21.56700
H  -6.98800 26.90500 21.39800
H  -5.58400 27.94100 21.72400
H  -7.32800 27.92200 24.14300
H  -8.25600 28.23500 22.58500
H  -6.95200 29.21300 22.99900
H  -2.46600 29.22900 25.11700
H  -1.66000 29.73400 26.52700
H  -3.16900 30.68800 26.11100
H  -4.47700 29.24700 31.04600
H  -1.54000 28.26900 33.59800
H  -2.79000 26.98800 33.98900
H  -2.87400 28.45700 34.86900

