158

Mg 47.80600 16.60300 27.74600
C  45.97900 16.26600 30.75400
C  50.20100 18.29300 29.45500
C  49.41300 17.05600 24.81900
C  45.10200 15.12900 25.98600
N  48.11400 17.05700 29.89700
C  47.26800 16.70200 30.95300
C  47.90000 17.10800 32.30100
C  49.22200 17.95300 31.85200
C  49.21200 17.72300 30.33500
C  49.21500 19.46200 32.29500
C  48.30800 15.96700 33.16800
C  47.52700 15.89100 34.59200
H  47.40400 17.22700 35.34800
N  49.64500 17.41800 27.26700
C  50.43400 18.11200 28.09000
C  51.70600 18.31300 27.38200
C  51.49500 17.96900 25.96700
C  50.11100 17.43000 25.98100
C  52.87700 18.93100 28.01500
C  52.48200 18.18200 24.82900
O  52.21300 17.96600 23.68000
C  53.83100 18.84400 25.04400
N  47.37200 16.14500 25.69500
C  48.16400 16.50500 24.64000
C  47.70400 15.88200 23.33600
C  46.24500 15.30200 23.69000
C  46.23500 15.48000 25.20500
C  47.66300 16.87100 22.12100
C  46.12700 13.81900 23.25000
C  44.95200 13.39300 22.41700
N  45.82000 16.06300 28.18600
C  44.90000 15.34200 27.39500
C  43.83300 14.89300 28.35000
C  44.18000 15.29600 29.62800
C  45.45400 15.89500 29.49700
C  42.66500 14.07700 27.98400
C  43.75300 15.29000 30.96700
O  42.73000 14.82600 31.45400
C  44.94500 15.72900 31.79900
C  44.38900 16.77000 32.68500
O  44.05500 17.87100 32.29800
O  44.06800 16.22000 33.87700
C  43.24100 17.08000 34.78400
H  50.88800 18.92700 30.02100
H  50.03700 16.97600 23.92700
H  44.33600 14.60600 25.41000
H  47.16600 17.75700 32.77900
H  50.13500 17.49900 32.23700
H  50.18600 19.68000 32.74100
H  48.47200 19.55100 33.08700
H  48.94100 20.07800 31.43900
H  49.37600 16.02700 33.37800
H  48.04900 15.12700 32.52400
H  48.05700 15.18800 35.23500
H  46.55100 15.42300 34.46500
H  52.82700 18.95900 29.10400
H  53.23500 19.90800 27.69100
H  53.77200 18.31900 27.89800
H  53.82900 19.89000 25.35100
H  54.40200 18.80200 24.11600
H  54.32000 18.25500 25.81900
H  48.42400 15.08600 23.15100
H  45.43300 15.92300 23.31200
H  47.91100 16.33300 21.20600
H  48.38300 17.68600 22.19100
H  46.68800 17.31400 21.91300
H  46.16600 13.25900 24.18400
H  47.08300 13.61100 22.77000
H  44.20300 14.16800 22.57700
H  44.57500 12.49700 22.91000
H  45.27000 13.25600 21.38300
H  42.55000 14.22700 26.91100
H  41.84400 14.56700 28.50700
H  42.87100 13.03700 28.23800
H  45.37100 14.91800 32.39000
H  42.37500 17.34800 34.17900
H  43.80800 17.98400 35.00800
H  43.15300 16.56300 35.74000
Mg -4.58800 25.26500 25.92200
C  -3.89800 27.04400 28.85900
C  -5.93500 22.84500 27.89200
C  -4.93700 23.47900 23.10900
C  -2.50300 27.40400 24.18000
N  -4.79900 24.92200 28.13800
C  -4.54200 25.78900 29.10900
C  -5.13800 25.33600 30.39700
C  -5.40800 23.87000 30.15800
C  -5.44100 23.86300 28.60900
C  -4.35300 22.81500 30.61700
C  -6.40000 26.22300 30.71600
C  -6.63600 26.55500 32.22500
H  -6.15300 25.52200 33.34200
N  -5.50200 23.55100 25.56400
C  -6.00400 22.63500 26.49400
C  -6.58000 21.49400 25.78000
C  -6.28800 21.73500 24.41300
C  -5.56800 23.00300 24.30400
C  -7.43300 20.39900 26.44000
C  -6.74100 21.01500 23.15500
O  -6.53100 21.41300 22.00000
C  -7.39500 19.69800 23.26500
N  -4.05100 25.58200 23.84900
C  -4.26800 24.65100 22.94100
C  -3.44500 24.88300 21.60700
C  -2.58900 26.20500 22.01900
C  -3.14400 26.48300 23.42200
C  -2.71400 23.65800 21.10400
C  -2.70000 27.44200 21.02800
C  -1.50100 28.19400 20.77300
N  -3.47500 26.91100 26.34200
C  -2.67800 27.72700 25.51200
C  -2.08600 28.73000 26.31500
C  -2.59500 28.60600 27.61900
C  -3.42600 27.40800 27.58600
C  -1.10800 29.70000 25.79600
C  -2.56200 29.10800 28.98500
O  -1.86000 30.01900 29.42900
C  -3.44700 28.10500 29.85400
C  -2.55400 27.52300 30.89000
O  -1.46600 27.00000 30.66900
O  -3.29300 27.57400 32.07400
C  -2.43700 27.07900 33.17400
H  -6.39300 22.03200 28.46100
H  -4.82000 22.81500 22.25000
H  -1.83600 28.04900 23.60400
H  -4.44000 25.54600 31.20700
H  -6.42000 23.64000 30.49000
H  -3.53100 23.26300 31.17600
H  -3.91700 22.25900 29.78800
H  -4.77000 22.09600 31.32200
H  -7.24800 25.75100 30.21900
H  -6.33500 27.13000 30.11500
H  -7.72100 26.60300 32.32100
H  -6.39100 27.58200 32.49300
H  -7.22700 19.42400 25.99900
H  -8.44800 20.56700 26.07900
H  -7.25400 20.24600 27.50500
H  -6.76400 19.02200 23.84200
H  -7.50600 19.31700 22.25000
H  -8.41600 19.78300 23.63800
H  -4.18400 25.15500 20.85400
H  -1.55000 25.88300 22.08300
H  -1.88700 24.06500 20.52300
H  -3.41400 23.11100 20.47200
H  -2.23200 23.05200 21.87100
H  -3.55400 28.02700 21.36900
H  -3.17300 27.11100 20.10300
H  -1.73300 29.23100 20.52900
H  -0.92600 27.70500 19.98600
H  -0.89700 28.32000 21.67100
H  -0.14000 29.24200 25.99800
H  -1.28100 30.63900 26.32200
H  -1.19900 29.80200 24.71500
H  -4.27900 28.57700 30.37600
H  -2.28000 26.00800 33.04500
H  -2.91900 27.33600 34.11800
H  -1.41800 27.45600 33.26400

