158

Mg 28.17400 56.54800 40.24200
C  25.99800 53.85200 39.55300
C  30.71600 54.57600 39.11100
C  30.10700 59.41000 39.76500
C  25.41000 58.60100 40.63200
N  28.22900 54.47900 39.23800
C  27.29100 53.53800 39.16300
C  27.81200 52.22000 38.54000
C  29.38100 52.37900 38.81300
C  29.49700 53.90700 39.04500
C  29.99500 51.54600 40.03200
C  27.39100 52.10800 37.00900
C  27.08200 53.35500 36.15000
H  27.30500 53.33400 34.70100
N  30.14900 56.94600 39.69100
C  31.02900 55.93500 39.31700
C  32.36100 56.56600 39.08000
C  32.21100 57.99300 39.29400
C  30.80600 58.19700 39.58900
C  33.54700 55.77700 38.57200
C  33.27800 59.05500 39.05600
O  34.34400 58.75400 38.58400
C  33.14600 60.44800 39.39800
N  27.86900 58.62200 40.23100
C  28.80800 59.62700 39.99800
C  28.20700 60.99300 40.13800
C  26.71900 60.73000 40.13300
C  26.62300 59.19800 40.38100
C  28.78800 61.81800 41.30400
C  25.91800 61.02000 38.78400
C  24.88000 62.16500 38.64000
N  26.09400 56.28300 40.20500
C  25.14000 57.23600 40.52400
C  23.86400 56.45700 40.77400
C  24.13600 55.13900 40.33900
C  25.51800 55.12500 40.01800
C  22.52700 56.95400 41.27300
C  23.67600 53.80000 40.13600
O  22.54500 53.35000 40.26900
C  24.82900 52.98800 39.60800
C  24.97300 51.83700 40.51900
O  24.49700 50.71300 40.44200
O  25.88200 52.11000 41.51800
C  26.19800 51.01700 42.48100
H  31.57000 53.92100 38.92400
H  30.62800 60.35500 39.60200
H  24.53000 59.23700 40.75000
H  27.44200 51.36200 39.10200
H  29.97400 52.08700 37.94700
H  29.97100 50.47100 39.85800
H  29.62000 51.79600 41.02500
H  31.06900 51.71700 39.96500
H  26.52500 51.44800 36.94900
H  28.20600 51.53600 36.56600
H  27.56000 54.21800 36.61400
H  26.01600 53.55700 36.25200
H  34.18100 56.26100 37.82900
H  33.23100 54.85800 38.07700
H  34.19700 55.56600 39.42100
H  32.83200 60.48200 40.44200
H  32.46700 60.94000 38.70100
H  34.03600 61.07100 39.31100
H  28.40300 61.56800 39.23300
H  26.24100 61.34500 40.89600
H  28.95900 62.85800 41.02200
H  29.68400 61.27400 41.60300
H  28.06800 61.58500 42.08700
H  25.34700 60.12300 38.54500
H  26.59900 61.13800 37.94100
H  24.76800 62.72300 39.56900
H  23.90500 61.77300 38.34900
H  25.35400 62.87100 37.95800
H  21.79800 56.93300 40.46200
H  22.75800 57.97400 41.58000
H  22.27100 56.28400 42.09300
H  24.71900 52.47300 38.65400
H  25.38200 50.96400 43.20200
H  27.16900 51.34400 42.85300
H  26.36600 50.02900 42.05300
Mg -5.86300 25.76300 26.81100
C  -4.74000 27.33300 29.84300
C  -7.50100 23.59100 28.78300
C  -6.49000 24.00000 24.03000
C  -3.46400 27.67800 25.09200
N  -5.95700 25.46800 29.17800
C  -5.56400 26.25900 30.18700
C  -6.15500 25.86800 31.49500
C  -6.84300 24.51900 31.06900
C  -6.80500 24.50900 29.55300
C  -6.31700 23.21800 31.64900
C  -7.13500 26.91300 32.09800
C  -7.02100 27.30100 33.62000
H  -6.43500 26.19400 34.49800
N  -7.02600 24.10800 26.36900
C  -7.59900 23.30500 27.32300
C  -8.35600 22.33000 26.63200
C  -8.00900 22.40300 25.22300
C  -7.11600 23.54100 25.14500
C  -9.15200 21.21200 27.40900
C  -8.30500 21.49300 24.08500
O  -7.80700 21.62200 22.97800
C  -9.33400 20.41600 24.26800
N  -5.08500 25.88700 24.83100
C  -5.50100 24.98500 23.88500
C  -4.62100 25.19900 22.61000
C  -3.80900 26.49400 22.88300
C  -4.06400 26.62200 24.38100
C  -3.71700 24.03000 22.11600
C  -4.21700 27.63000 21.94900
C  -5.34100 28.66600 22.49100
N  -4.48300 27.27600 27.28400
C  -3.63300 28.00900 26.46500
C  -2.93400 28.96600 27.27700
C  -3.44800 28.82400 28.58700
C  -4.27300 27.76000 28.54300
C  -1.88900 29.82600 26.62000
C  -3.44300 29.33900 29.96400
O  -2.99600 30.33600 30.46500
C  -4.24700 28.34700 30.82700
C  -3.26400 27.83200 31.83700
O  -2.45700 26.93200 31.67200
O  -3.44400 28.47100 33.05000
C  -2.46000 28.22000 34.08600
H  -8.14100 22.92700 29.36700
H  -6.51900 23.31000 23.18400
H  -2.78900 28.22200 24.42900
H  -5.28500 25.55100 32.07000
H  -7.90400 24.60900 31.30300
H  -5.46400 22.81800 31.09900
H  -7.14200 22.50700 31.60500
H  -6.08600 23.44300 32.69000
H  -8.15500 26.64000 31.82800
H  -6.90700 27.84700 31.58400
H  -8.01800 27.63800 33.90600
H  -6.40700 28.19400 33.73300
H  -10.14900 21.13100 26.97500
H  -9.34800 21.42300 28.46000
H  -8.59600 20.27400 27.40300
H  -9.15000 19.75100 25.11200
H  -9.32300 19.84400 23.34000
H  -10.34900 20.81200 24.24500
H  -5.43900 25.32900 21.90100
H  -2.78500 26.21700 22.63100
H  -2.65100 24.11700 22.32600
H  -3.99200 23.75800 21.09700
H  -3.95700 23.16800 22.73800
H  -4.61600 27.23400 21.01500
H  -3.37800 28.29300 21.73800
H  -5.95400 29.04200 21.67100
H  -4.94700 29.48200 23.09600
H  -6.12200 28.24100 23.12100
H  -2.33100 30.31000 25.75000
H  -1.03000 29.19400 26.39200
H  -1.55200 30.59200 27.31800
H  -5.05400 28.91100 31.29400
H  -2.91700 28.23900 35.07600
H  -1.55800 28.80400 33.90100
H  -2.19700 27.16200 34.06800

