158

Mg 0.38600 43.41400 26.21800
C  2.59700 43.22500 29.07700
C  -2.18800 42.66100 28.35700
C  -1.56700 42.88400 23.65400
C  3.24700 43.63500 24.17400
N  0.24100 43.12200 28.48100
C  1.23000 43.18100 29.39800
C  0.73000 43.19800 30.77300
C  -0.78200 42.73500 30.58500
C  -0.97300 42.85500 29.04000
C  -1.22800 41.38100 31.27400
C  0.94300 44.53400 31.52200
C  1.55100 44.47800 32.90600
H  1.09200 43.30600 33.75600
N  -1.54600 42.76200 26.01100
C  -2.43700 42.62100 27.00000
C  -3.77600 42.37100 26.48300
C  -3.64300 42.40600 25.06300
C  -2.25000 42.70700 24.82900
C  -5.02600 42.34300 27.40400
C  -4.65400 42.24000 23.92500
O  -4.49300 42.44300 22.75300
C  -6.01800 42.07000 24.34600
N  0.87400 43.20500 24.23900
C  -0.18200 43.16000 23.31000
C  0.29600 43.22900 21.81400
C  1.75300 43.66200 22.07700
C  1.99200 43.43400 23.53900
C  0.14800 41.91200 21.04800
C  1.91000 45.19400 21.63600
C  1.72000 46.22700 22.71100
N  2.46300 43.60600 26.53500
C  3.48800 43.68700 25.58800
C  4.76900 43.64000 26.29100
C  4.46700 43.38500 27.61500
C  3.04400 43.44000 27.73100
C  6.12000 43.76600 25.66100
C  5.04000 43.10600 28.88100
O  6.21200 42.94200 29.24000
C  3.84600 43.08100 29.95700
C  4.03200 41.86300 30.70300
O  3.93100 40.70400 30.30400
O  4.41400 42.16700 31.98700
C  4.61200 40.93800 32.80200
H  -3.08100 42.45900 28.95100
H  -2.13700 42.85600 22.72300
H  4.10700 43.66900 23.50200
H  1.39400 42.56800 31.36500
H  -1.37100 43.54900 31.00800
H  -1.88000 41.69000 32.09100
H  -0.42900 40.86500 31.80600
H  -1.70600 40.70200 30.56800
H  -0.02500 45.03600 31.52900
H  1.64600 45.09000 30.90200
H  1.33200 45.34700 33.52600
H  2.61600 44.70100 32.84900
H  -5.85600 42.85800 26.91900
H  -4.89300 42.80500 28.38200
H  -5.15000 41.28700 27.64500
H  -6.74500 41.76100 23.59500
H  -6.36800 43.02700 24.73400
H  -6.08600 41.38700 25.19300
H  -0.24400 44.05400 21.34800
H  2.61900 43.15900 21.64700
H  -0.26400 41.10700 21.65700
H  1.12900 41.61500 20.67700
H  -0.47300 42.16800 20.19000
H  1.30900 45.51500 20.78500
H  2.94900 45.43800 21.41200
H  2.73300 46.40700 23.07000
H  1.06400 45.84000 23.49100
H  1.34100 47.15900 22.29400
H  6.05100 43.54800 24.59500
H  6.63500 43.00400 26.24500
H  6.58600 44.74200 25.79100
H  4.02600 44.00900 30.50000
H  3.68300 40.55200 33.22300
H  5.19200 41.26800 33.66400
H  5.18400 40.18300 32.26300
Mg -2.18700 35.14500 26.19600
C  -3.62700 33.41900 28.90400
C  -1.03600 37.58300 28.53900
C  -1.30100 37.24000 23.77300
C  -4.25600 33.39800 23.96500
N  -2.22600 35.45100 28.45100
C  -2.85300 34.56900 29.34000
C  -2.67100 35.05700 30.74900
C  -1.91100 36.43400 30.59100
C  -1.72700 36.56900 29.13700
C  -2.62500 37.64000 31.28700
C  -1.95800 33.91800 31.67100
C  -2.70700 33.43900 32.95400
H  -1.97200 33.39500 34.31500
N  -1.14500 36.96100 26.18000
C  -0.68100 37.73900 27.17400
C  0.27600 38.76000 26.69900
C  0.24500 38.68200 25.27300
C  -0.77600 37.62700 25.02200
C  0.94700 39.78900 27.65900
C  1.11100 39.37600 24.33600
O  0.93600 39.35000 23.13600
C  2.36600 40.15900 24.77100
N  -2.95900 35.37000 24.26300
C  -2.14100 36.16300 23.43300
C  -2.48900 35.92200 21.92300
C  -3.26600 34.56200 21.96300
C  -3.54800 34.41600 23.45900
C  -3.20800 37.16000 21.24900
C  -2.64000 33.36200 21.23400
C  -1.51000 32.56500 21.99800
N  -3.61600 33.61600 26.35400
C  -4.36700 32.95600 25.34500
C  -5.12200 31.89400 25.96500
C  -4.90000 32.03400 27.36000
C  -3.94900 33.09500 27.53500
C  -6.04300 30.91400 25.25300
C  -5.26600 31.59200 28.62500
O  -6.00400 30.69200 28.96200
C  -4.49900 32.45500 29.62400
C  -5.55400 33.21700 30.34300
O  -6.09100 34.28900 30.04200
O  -5.88800 32.52800 31.50800
C  -7.09700 32.95700 32.20100
H  -0.76700 38.31800 29.30000
H  -1.07700 37.69200 22.80400
H  -4.61300 32.68100 23.22400
H  -3.64100 35.23100 31.21400
H  -0.94400 36.47600 31.09200
H  -3.16100 38.16600 30.49700
H  -2.02600 38.41300 31.76800
H  -3.33600 37.26000 32.02100
H  -1.01100 34.40000 31.91500
H  -1.69200 33.04600 31.07300
H  -3.04600 32.41200 32.81800
H  -3.66100 33.96000 33.04500
H  0.28200 39.83100 28.52200
H  0.92500 40.74800 27.14200
H  1.93500 39.39800 27.90300
H  2.81100 39.43300 25.45200
H  2.08100 41.01100 25.38900
H  3.05000 40.47900 23.98600
H  -1.47900 35.79000 21.53600
H  -4.24500 34.75500 21.52500
H  -2.47800 37.95300 21.08600
H  -3.93300 37.60000 21.93300
H  -3.57400 37.00600 20.23300
H  -2.06400 33.73500 20.38700
H  -3.41600 32.72300 20.81500
H  -1.58300 32.72100 23.07400
H  -0.53200 32.86400 21.61900
H  -1.67200 31.51600 21.75000
H  -6.15100 31.25000 24.22100
H  -7.05100 30.88800 25.66400
H  -5.72100 29.90200 25.49800
H  -3.86100 31.85600 30.27500
H  -7.92000 33.00100 31.48800
H  -6.99300 33.86300 32.79900
H  -7.39800 32.12600 32.83900

