158

Mg 30.39100 58.52100 39.09900
C  27.40700 56.66500 37.77000
C  32.22600 55.81100 37.93500
C  33.09900 60.33800 39.22000
C  28.35500 61.35400 39.23800
N  29.76500 56.36100 38.28300
C  28.59400 55.91000 37.82900
C  28.77300 54.52700 37.19000
C  30.26800 54.19900 37.50300
C  30.82000 55.49100 38.02000
C  30.48100 53.08600 38.52700
C  28.43300 54.50300 35.66800
C  27.62200 53.25000 35.21900
H  26.88300 53.39500 33.91800
N  32.38500 58.05300 38.75500
C  32.92600 56.90100 38.31600
C  34.41100 56.95800 38.25500
C  34.65100 58.37200 38.51800
C  33.35000 58.99700 38.85600
C  35.36600 55.87700 37.91900
C  36.01900 59.02500 38.57300
O  36.95500 58.35900 38.08100
C  36.35600 60.45700 39.02900
N  30.67500 60.50200 39.07100
C  31.87200 61.05000 39.26300
C  31.81000 62.51600 39.75700
C  30.32300 62.82900 39.65000
C  29.72500 61.47700 39.30500
C  32.35500 62.80200 41.16700
C  30.00100 63.98200 38.63700
C  28.89400 64.98100 39.00200
N  28.25500 58.91200 38.79200
C  27.69300 60.12700 38.83400
C  26.29900 59.99600 38.46000
C  26.11300 58.69000 37.93700
C  27.30100 58.00100 38.22100
C  25.37600 61.14800 38.39300
C  25.29300 57.73200 37.28000
O  24.16000 57.95600 36.79000
C  26.08600 56.37800 37.18600
C  25.45100 55.25500 37.99800
O  25.43900 55.07900 39.21200
O  25.03700 54.34100 37.04300
C  24.74600 53.03900 37.67600
H  32.71000 54.84400 37.78100
H  33.96100 60.97100 39.44200
H  27.71900 62.22800 39.39700
H  28.10500 53.82900 37.69500
H  30.83200 53.95200 36.60400
H  30.45300 52.10100 38.06200
H  29.73500 53.17200 39.31700
H  31.52000 53.18600 38.83900
H  29.39900 54.45300 35.16500
H  27.98600 55.45400 35.37900
H  26.78300 53.04100 35.88300
H  28.35800 52.45700 35.08200
H  35.37900 55.66000 36.85100
H  34.90900 54.96800 38.31100
H  36.39500 56.03300 38.24300
H  37.44000 60.56700 39.08100
H  35.90900 60.76100 39.97600
H  36.02800 61.18500 38.28800
H  32.34800 63.18300 39.08300
H  29.89700 63.07000 40.62400
H  32.52700 61.86000 41.68600
H  31.79100 63.57200 41.69300
H  33.32200 63.24800 40.93500
H  29.86800 63.54400 37.64800
H  30.87000 64.63600 38.55700
H  28.37700 64.45900 39.80700
H  28.38900 65.25700 38.07700
H  29.20300 65.96900 39.34300
H  25.28600 61.54000 37.38000
H  25.59200 62.00800 39.02700
H  24.35000 60.81600 38.55100
H  26.12100 56.13900 36.12300
H  24.30600 52.35300 36.95200
H  24.04700 53.10000 38.51000
H  25.61200 52.58100 38.15500
Mg 8.74900 47.59700 29.13600
C  7.09600 46.56300 32.07300
C  11.71700 47.66800 30.95400
C  10.44100 48.66800 26.41600
C  5.70600 48.19400 27.60500
N  9.33200 47.05400 31.30600
C  8.47000 46.75200 32.32400
C  9.16900 46.70900 33.65200
C  10.62300 47.21000 33.27500
C  10.63100 47.32200 31.75400
C  11.11000 48.49300 34.03700
C  9.19100 45.38300 34.40600
C  8.60600 45.57800 35.81800
H  9.02300 44.58700 36.90400
N  10.83500 47.82400 28.65500
C  11.85300 47.82900 29.55700
C  13.12900 48.01800 28.85800
C  12.76800 48.15900 27.41600
C  11.28300 48.16600 27.42700
C  14.49700 48.19300 29.50500
C  13.68100 48.31400 26.21800
O  13.31200 48.41700 25.02000
C  15.24800 48.38900 26.42800
N  8.21800 48.36400 27.39600
C  9.05200 48.82300 26.35800
C  8.26100 49.61300 25.27400
C  6.76700 49.04500 25.52600
C  6.90400 48.42600 26.91400
C  8.29700 51.15100 25.46300
C  6.26500 47.96500 24.60900
C  7.35400 47.06000 24.05600
N  6.72000 47.51600 29.62100
C  5.58200 47.65800 28.89900
C  4.41900 47.20600 29.73200
C  5.00000 46.71700 30.94700
C  6.39200 46.94800 30.85300
C  2.96500 47.33200 29.21000
C  4.70900 46.18300 32.27100
O  3.66800 45.98400 32.81000
C  6.04400 46.11300 33.04100
C  6.01200 44.71700 33.57300
O  6.49800 43.68700 33.10400
O  5.40000 44.77600 34.82900
C  5.48600 43.50700 35.66000
H  12.61900 47.84600 31.54300
H  11.07000 49.07400 25.62000
H  4.75900 48.27700 27.06900
H  8.67300 47.49600 34.22000
H  11.34300 46.41300 33.46000
H  12.16500 48.44700 34.30900
H  10.48200 48.64800 34.91400
H  11.11000 49.36500 33.38300
H  10.16000 44.88500 34.44700
H  8.61400 44.72000 33.76100
H  7.51900 45.61600 35.74600
H  8.86600 46.58200 36.15300
H  14.42700 48.14200 30.59100
H  15.02800 49.10100 29.21700
H  15.06400 47.29000 29.28000
H  15.38100 49.41000 26.78400
H  15.63500 48.10900 25.44800
H  15.61600 47.75500 27.23500
H  8.56500 49.33700 24.26400
H  6.06800 49.88000 25.58100
H  9.07300 51.23400 26.22400
H  7.44500 51.69300 25.87300
H  8.64600 51.58800 24.52700
H  5.86800 48.49600 23.74300
H  5.54400 47.30500 25.09000
H  8.34400 47.09700 24.50900
H  7.56700 47.19400 22.99600
H  6.92800 46.07000 24.22200
H  2.33100 47.19700 30.08600
H  2.84000 46.46700 28.55800
H  2.81600 48.31600 28.76500
H  6.12100 46.80800 33.87700
H  4.96300 42.70300 35.14100
H  4.91100 43.64500 36.57600
H  6.48900 43.17000 35.92400

