158

Mg 16.99300 -1.23100 27.84200
C  15.78500 0.78300 30.51200
C  19.12500 -2.74600 30.01700
C  18.65100 -2.69000 25.29700
C  15.17500 0.69200 25.75700
N  17.50300 -0.83400 29.97400
C  16.84100 -0.11600 30.98400
C  17.38200 -0.38100 32.39700
C  18.54800 -1.42800 32.11500
C  18.41100 -1.75800 30.62500
C  19.95300 -1.00100 32.59800
C  16.24000 -0.96900 33.37600
C  16.10700 -0.28100 34.72900
H  17.35900 0.33500 35.29900
N  18.59300 -2.59700 27.65000
C  19.27500 -3.17800 28.69900
C  20.09300 -4.24200 28.16700
C  20.02900 -4.19500 26.76600
C  19.03200 -3.15000 26.53100
C  20.83200 -5.17900 28.96400
C  20.63800 -5.04800 25.76300
O  20.16800 -5.19300 24.60100
C  21.74400 -5.90900 26.08000
N  16.92700 -1.12100 25.87100
C  17.67900 -1.73100 24.92500
C  17.40600 -1.32300 23.52100
C  16.11500 -0.46000 23.70700
C  16.04100 -0.30100 25.23800
C  18.60100 -0.61700 22.80600
C  14.78800 -1.17100 23.24200
C  14.58400 -1.45700 21.72100
N  15.64300 0.34800 28.01100
C  14.92000 1.02200 27.11200
C  14.04100 2.02600 27.70200
C  14.32800 1.95600 29.07500
C  15.35100 0.97300 29.18900
C  13.04800 2.97900 27.04000
C  14.06800 2.55200 30.38300
O  13.39600 3.52900 30.68900
C  14.84300 1.69200 31.46600
C  15.64400 2.61500 32.33500
O  16.77700 3.02300 32.09500
O  14.91600 2.92700 33.43100
C  15.63700 3.81300 34.40900
H  19.78900 -3.23800 30.73100
H  19.22400 -3.06200 24.44500
H  14.58900 1.33000 25.09300
H  17.85200 0.54000 32.74300
H  18.48700 -2.43300 32.53300
H  20.50200 -1.90200 32.87100
H  19.87800 -0.40500 33.50800
H  20.54600 -0.52200 31.81800
H  16.28100 -2.04600 33.53600
H  15.31500 -0.78200 32.83000
H  15.59200 -0.92100 35.44500
H  15.36100 0.47900 34.49400
H  20.39200 -6.17400 28.91000
H  20.88500 -4.86400 30.00600
H  21.90400 -5.23800 28.77200
H  21.40800 -6.70600 26.74300
H  22.47400 -5.31400 26.63100
H  22.24700 -6.31000 25.20000
H  17.19200 -2.25900 23.00400
H  16.23500 0.48300 23.17300
H  19.11900 -1.31900 22.15300
H  19.37100 -0.28600 23.50400
H  18.32200 0.21100 22.15600
H  14.02000 -0.49300 23.61200
H  14.76700 -2.07400 23.85200
H  13.62000 -1.00000 21.49900
H  14.51000 -2.49200 21.38700
H  15.34700 -1.03000 21.07000
H  12.47200 2.46600 26.26900
H  13.55000 3.80500 26.53700
H  12.25600 3.34600 27.69300
H  14.06300 1.15700 32.00700
H  15.33200 4.85400 34.51500
H  16.72700 3.83800 34.41400
H  15.38200 3.30000 35.33600
Mg -1.59600 34.16900 26.55300
C  -3.43500 32.61600 29.15500
C  0.09900 36.01200 28.94200
C  -0.35800 35.94100 24.13000
C  -3.96100 32.80700 24.31800
N  -1.67900 34.30800 28.81800
C  -2.41800 33.49700 29.62900
C  -2.06500 33.69900 31.05900
C  -0.98900 34.89800 31.00600
C  -0.76900 35.04200 29.51200
C  -1.41500 36.25700 31.66900
C  -1.45000 32.38300 31.66800
C  -2.18900 31.94800 32.92700
H  -1.49200 32.03000 34.27300
N  -0.10500 35.64400 26.50500
C  0.45300 36.23100 27.57100
C  1.45000 37.16600 27.10900
C  1.33100 37.14900 25.69700
C  0.24100 36.29200 25.34900
C  2.31200 38.01400 28.07100
C  2.17800 37.88700 24.71700
O  2.00500 37.91500 23.52300
C  3.28900 38.67000 25.23400
N  -2.07100 34.28900 24.51500
C  -1.31700 35.03400 23.73200
C  -1.70800 34.92100 22.25400
C  -2.87800 33.86100 22.32200
C  -3.05100 33.69600 23.80100
C  -2.21400 36.28900 21.60500
C  -2.55300 32.49900 21.56000
C  -1.46300 31.68800 22.04800
N  -3.18900 32.89000 26.61100
C  -3.97000 32.34500 25.62700
C  -4.79500 31.30200 26.21700
C  -4.67100 31.51300 27.59300
C  -3.64800 32.46100 27.77900
C  -5.87300 30.52400 25.55300
C  -5.26100 31.05600 28.77400
O  -6.11400 30.24700 28.96200
C  -4.45900 31.70000 29.86300
C  -5.46100 32.39100 30.68500
O  -6.23400 33.23700 30.15000
O  -5.43100 32.02100 32.00300
C  -6.36500 32.58100 32.92500
H  0.57800 36.61100 29.71900
H  0.21100 36.38600 23.31100
H  -4.68900 32.29900 23.68200
H  -2.95800 33.96700 31.62400
H  -0.06400 34.66700 31.53400
H  -2.31300 36.59200 31.15100
H  -0.61400 36.99400 31.72900
H  -1.71000 36.12400 32.71000
H  -0.37100 32.53500 31.62700
H  -1.68400 31.52500 31.03700
H  -2.43100 30.88800 32.85100
H  -3.11600 32.52200 32.94800
H  3.34200 37.66300 28.00600
H  2.08200 37.90000 29.13000
H  2.22700 39.07900 27.85700
H  3.10200 39.52600 25.88200
H  3.71400 39.17200 24.36500
H  4.00200 37.94200 25.62100
H  -0.84700 34.53600 21.70900
H  -3.79500 34.35100 21.99500
H  -2.00100 36.25200 20.53700
H  -1.55100 37.09300 21.92200
H  -3.28700 36.45400 21.69900
H  -2.48100 32.68500 20.48800
H  -3.44200 31.87000 21.61900
H  -0.97100 32.17400 22.89000
H  -0.68500 31.47300 21.31500
H  -1.86600 30.72500 22.35900
H  -5.45300 29.84600 24.81000
H  -6.64100 31.17900 25.14200
H  -6.29600 29.85200 26.30100
H  -4.07300 30.82800 30.39100
H  -6.94900 31.73200 33.28100
H  -7.05900 33.37100 32.63900
H  -5.74300 32.92100 33.75400

