158

Mg 52.62400 24.87200 44.27700
C  49.61300 26.71200 43.94300
C  50.85500 22.05600 44.06300
C  55.52400 23.32800 44.09800
C  54.36400 28.00500 44.32000
N  50.38500 24.54000 44.10000
C  49.35200 25.37500 44.02000
C  48.09000 24.63800 43.78100
C  48.43700 23.19700 44.19400
C  49.98800 23.20000 44.08900
C  47.87800 22.83800 45.63600
C  47.56500 24.90700 42.32800
C  48.58200 24.65800 41.11900
H  48.28300 25.41300 39.83000
N  53.13100 23.00200 44.22800
C  52.23600 21.94600 43.99200
C  53.05700 20.76500 43.77800
C  54.37500 21.03200 44.06600
C  54.37200 22.56200 44.14000
C  52.44000 19.41600 43.42500
C  55.45100 20.03300 44.26900
O  55.20500 18.80800 44.15600
C  56.83800 20.41000 44.71900
N  54.65600 25.61900 43.85900
C  55.65100 24.73300 44.07000
C  57.02900 25.36400 44.06300
C  56.73500 26.87600 44.15900
C  55.15000 26.86200 44.11300
C  58.04700 24.65800 45.02000
C  57.32800 27.73300 43.01100
C  58.03300 29.03000 43.51000
N  52.16100 26.99700 44.25000
C  52.97900 28.11400 44.23300
C  52.10900 29.27800 44.20200
C  50.81400 28.78500 44.03300
C  50.85400 27.37300 44.01000
C  52.43200 30.66200 44.15000
C  49.37400 29.20600 44.03500
O  48.86300 30.29800 44.16600
C  48.60800 27.91800 43.66400
C  48.31800 28.25200 42.24200
O  49.11000 28.10600 41.26200
O  47.03600 28.69900 42.08600
C  46.48000 29.14100 40.77300
H  50.29300 21.12700 43.94100
H  56.43500 22.73200 44.00900
H  54.93300 28.93400 44.39700
H  47.43700 25.05800 44.54600
H  47.98200 22.51300 43.47700
H  48.33600 23.46700 46.40000
H  48.06300 21.79600 45.89700
H  46.83000 23.13700 45.63900
H  46.95600 25.79200 42.14300
H  46.86800 24.08600 42.15600
H  48.48200 23.64000 40.74200
H  49.60900 24.73700 41.47700
H  53.12100 18.86200 42.77900
H  51.44100 19.56800 43.01500
H  52.26900 18.86800 44.35100
H  57.40800 19.58400 45.14500
H  56.84600 21.28600 45.36800
H  57.42800 20.69600 43.84800
H  57.34000 25.09000 43.05500
H  56.98600 27.21200 45.16500
H  58.61900 23.94100 44.43200
H  57.48500 24.21600 45.84300
H  58.65900 25.44800 45.45600
H  56.66500 28.08100 42.21900
H  58.11300 27.18000 42.49500
H  58.08000 29.20600 44.58500
H  57.66000 29.94600 43.05200
H  59.04900 29.10600 43.12100
H  52.17600 31.14300 43.20600
H  53.52000 30.68900 44.09800
H  52.10400 31.21800 45.02900
H  47.63500 27.88100 44.15400
H  46.79700 28.53600 39.92400
H  46.77200 30.19100 40.76900
H  45.39400 29.11900 40.87000
Mg 17.31800 52.84600 26.77400
C  19.41600 51.26800 28.92400
C  15.06300 53.11800 29.25600
C  15.09300 54.25600 24.55100
C  19.40500 52.12800 24.20800
N  17.28600 52.31300 28.85000
C  18.31000 51.81400 29.59700
C  17.99500 51.85000 31.09100
C  16.42200 51.85900 31.02100
C  16.21200 52.52300 29.63100
C  15.74700 50.41000 31.19800
C  18.70800 53.07700 31.74700
C  18.29700 53.32900 33.13300
H  17.41400 52.28700 33.87300
N  15.38200 53.80100 26.92400
C  14.64300 53.80400 28.06400
C  13.37500 54.51900 27.75400
C  13.38000 54.84000 26.40600
C  14.63600 54.27600 25.85700
C  12.40200 54.83300 28.90300
C  12.26600 55.51900 25.67100
O  12.38100 55.89800 24.51900
C  10.97900 55.72700 26.32600
N  17.19800 52.99200 24.67900
C  16.25800 53.74600 23.99300
C  16.67100 53.94900 22.50100
C  18.22800 53.57900 22.54800
C  18.29700 52.82500 23.87400
C  15.84800 53.04000 21.56500
C  19.21400 54.79400 22.48200
C  20.23000 54.64700 21.30300
N  19.09400 51.85800 26.50300
C  19.81700 51.63000 25.42200
C  21.04800 50.89900 25.81400
C  20.93100 50.76000 27.22900
C  19.74100 51.35300 27.56300
C  22.20600 50.25300 25.01800
C  21.56300 50.12900 28.39900
O  22.52800 49.40100 28.59200
C  20.69100 50.66200 29.56200
C  20.26600 49.49300 30.29500
O  19.65800 48.51900 29.86700
O  20.72900 49.63400 31.60200
C  20.30300 48.51700 32.46100
H  14.27600 53.17400 30.01200
H  14.33300 54.66300 23.88000
H  20.08100 51.90800 23.37900
H  18.40200 50.94900 31.55100
H  15.83100 52.46100 31.71200
H  15.17100 50.28600 30.28100
H  15.12000 50.28500 32.08200
H  16.55200 49.67900 31.26700
H  18.58900 54.02600 31.22400
H  19.76300 52.85300 31.90700
H  17.82700 54.31100 33.17300
H  19.13600 53.43900 33.82000
H  12.71500 54.45300 29.87600
H  11.47600 54.33000 28.62600
H  12.31400 55.90600 29.07400
H  10.56200 54.76000 26.60600
H  10.23300 56.09900 25.62300
H  11.13000 56.37500 27.18900
H  16.42000 54.94300 22.13100
H  18.40000 52.96300 21.66600
H  15.51700 52.13100 22.06700
H  16.50400 52.81900 20.72300
H  14.96700 53.65300 21.37200
H  19.70000 54.80400 23.45800
H  18.66000 55.72100 22.33600
H  20.15400 53.74300 20.69800
H  21.21900 54.61300 21.76100
H  20.14000 55.55200 20.70300
H  23.06100 50.55800 25.62200
H  22.19100 50.63600 23.99800
H  22.08200 49.17100 25.02400
H  21.28300 51.34700 30.16900
H  20.72600 48.60300 33.46200
H  20.72400 47.57600 32.10800
H  19.21400 48.55500 32.47900

