158

Mg 8.60200 2.98800 27.35400
C  9.66200 1.12200 30.18500
C  6.60400 4.92700 29.40200
C  7.43900 4.37600 24.55000
C  10.29300 0.47900 25.31500
N  8.17100 2.85900 29.49400
C  8.80800 2.16600 30.53100
C  8.45700 2.71500 31.92300
C  7.45400 3.92200 31.52700
C  7.36900 3.89100 30.03100
C  5.98300 3.66800 32.02900
C  9.82300 3.11000 32.70200
C  9.63400 4.04100 33.87600
H  10.45200 3.72700 35.21100
N  7.16900 4.40100 27.06700
C  6.50500 5.13800 28.01400
C  5.69200 6.12900 27.31000
C  5.93900 5.94700 25.86000
C  6.90800 4.85700 25.79300
C  4.76000 7.08500 28.05900
C  5.34800 6.67000 24.72000
O  5.50500 6.44000 23.51300
C  4.38100 7.85900 25.07200
N  8.84900 2.53000 25.23800
C  8.27600 3.29400 24.26700
C  8.64500 2.78000 22.79300
C  9.41200 1.44800 23.09300
C  9.50500 1.43000 24.64400
C  7.41800 2.63300 21.85200
C  10.81900 1.26500 22.32300
C  10.96600 -0.01000 21.46600
N  9.87200 1.22400 27.61000
C  10.46700 0.31000 26.73600
C  11.18600 -0.74300 27.47500
C  10.92900 -0.40900 28.83400
C  10.13200 0.76700 28.88300
C  11.97400 -1.90000 26.84200
C  11.18200 -0.88900 30.20500
O  11.77300 -1.82700 30.71600
C  10.41000 0.17100 31.09900
C  9.44600 -0.56000 31.99600
O  8.59500 -1.33200 31.60800
O  9.67700 -0.24500 33.35000
C  8.67400 -0.69300 34.31200
H  6.04900 5.57200 30.08600
H  7.32400 4.98100 23.64800
H  10.81900 -0.31100 24.77600
H  8.00700 1.95400 32.56000
H  7.85000 4.90100 31.80000
H  6.01100 2.95700 32.85500
H  5.34800 3.46600 31.16700
H  5.91500 4.68600 32.41400
H  10.38800 3.59300 31.90500
H  10.34600 2.29300 33.20000
H  8.56200 4.19100 34.00600
H  9.98400 5.03500 33.59700
H  4.83500 6.92900 29.13500
H  3.85500 6.70500 27.58400
H  4.91600 8.11200 27.72800
H  3.41700 7.58100 25.49800
H  4.19000 8.30900 24.09800
H  4.89500 8.56400 25.72500
H  9.31500 3.46600 22.27400
H  8.71400 0.63200 22.90700
H  6.48500 2.79200 22.39200
H  7.45400 1.61800 21.45800
H  7.41600 3.32700 21.01100
H  11.70600 1.13300 22.94400
H  11.05800 2.13600 21.71300
H  10.74500 0.35700 20.46400
H  10.19500 -0.74700 21.69100
H  11.98000 -0.39600 21.35700
H  12.53600 -1.59200 25.96000
H  11.39900 -2.77500 26.54000
H  12.76200 -2.14400 27.55500
H  11.16300 0.71100 31.67200
H  8.18700 -1.66700 34.25300
H  7.96500 0.09300 34.57300
H  9.24500 -0.89500 35.21800
Mg 7.81200 53.56400 40.38000
C  7.07000 50.14400 39.96000
C  11.02800 52.99400 39.68800
C  8.06200 56.89100 39.93700
C  4.36900 54.09300 41.07700
N  8.86900 51.72800 39.86000
C  8.43500 50.46300 39.70700
C  9.63000 49.52100 39.41300
C  10.89100 50.45100 39.87100
C  10.24300 51.82800 39.78200
C  11.25000 50.08800 41.35900
C  9.87300 48.92000 38.01400
C  9.79600 50.03100 36.87000
H  8.42300 50.21100 36.15500
N  9.30900 54.74700 39.86000
C  10.65200 54.35400 39.72500
C  11.48000 55.52700 39.58300
C  10.58900 56.68700 39.69600
C  9.23300 56.16000 39.85300
C  13.02300 55.37700 39.37700
C  10.99800 58.11500 39.61400
O  12.19600 58.32700 39.42800
C  10.08500 59.32900 39.74100
N  6.33300 55.28800 40.32600
C  6.70200 56.57600 40.13400
C  5.53000 57.54100 40.34800
C  4.39200 56.54700 40.80200
C  5.08200 55.24700 40.73300
C  5.82300 58.72800 41.35400
C  3.09800 56.61500 39.86400
C  1.85100 57.33400 40.37300
N  6.11100 52.41000 40.60200
C  4.82800 52.78000 40.86400
C  4.04000 51.66000 40.90800
C  4.85500 50.54100 40.55000
C  6.14300 51.09700 40.38900
C  2.59400 51.61800 41.14900
C  4.84700 49.09300 40.30100
O  3.95100 48.26800 40.37600
C  6.40500 48.84700 39.90400
C  6.34500 48.15800 38.60400
O  5.78800 48.45700 37.56600
O  6.85400 46.86100 38.82100
C  6.94400 45.97600 37.68400
H  12.09100 52.81800 39.51200
H  8.18800 57.97100 39.83500
H  3.33800 54.34800 41.33000
H  9.57900 48.64500 40.05900
H  11.70400 50.35700 39.15200
H  10.90500 50.87100 42.03400
H  12.33600 50.17700 41.33200
H  10.91300 49.10200 41.67700
H  8.98400 48.29000 37.96200
H  10.87800 48.50100 37.96900
H  10.44000 49.59300 36.10800
H  10.15700 51.02800 37.12400
H  13.54900 56.28600 39.66900
H  13.20700 55.19700 38.31800
H  13.41300 54.61000 40.04600
H  9.39800 59.33000 38.89400
H  10.71700 60.20900 39.62700
H  9.61100 59.37800 40.72200
H  5.26800 57.88400 39.34700
H  4.26300 56.77500 41.86000
H  6.80800 58.64000 41.81200
H  5.11200 58.85800 42.17000
H  5.99500 59.66500 40.82500
H  2.77200 55.59500 39.66300
H  3.40400 56.91100 38.86000
H  1.53000 57.10000 41.38800
H  1.03800 57.17900 39.66300
H  2.11000 58.39300 40.40700
H  2.19900 52.34400 41.86000
H  2.30000 50.68900 41.63700
H  2.10200 51.73800 40.18400
H  6.77900 48.09700 40.60100
H  7.59900 45.14000 37.93000
H  7.39100 46.58900 36.90200
H  5.93000 45.64900 37.45300

