158

Mg 9.23700 3.96200 27.86100
C  10.71000 2.24100 30.66100
C  7.26000 5.58800 30.00200
C  8.08100 5.25800 25.17700
C  10.93200 1.39100 25.83400
N  8.94400 3.65000 30.06500
C  9.78000 3.15300 31.05800
C  9.46400 3.67900 32.42700
C  8.23500 4.65300 32.19000
C  8.08000 4.62200 30.60500
C  6.91200 4.37600 32.96600
C  10.68800 4.31400 33.18600
C  10.31600 5.16600 34.45400
H  11.27600 5.03600 35.58900
N  7.86200 5.39900 27.58200
C  7.09400 5.91100 28.56800
C  6.29900 6.92600 27.99600
C  6.57000 6.99600 26.58600
C  7.52200 5.90900 26.37200
C  5.33800 7.83100 28.78400
C  6.13400 8.04200 25.55500
O  6.50900 8.10400 24.36100
C  5.26600 9.09400 25.96000
N  9.44900 3.42400 25.83400
C  8.93800 4.24800 24.84500
C  9.35800 3.78900 23.41700
C  9.90100 2.38900 23.67700
C  10.16200 2.40600 25.19100
C  8.28800 3.74400 22.26100
C  10.91300 1.81300 22.73200
C  10.31900 0.77600 21.83500
N  10.42400 2.12200 28.14300
C  11.07200 1.27600 27.22400
C  11.96800 0.34000 27.93500
C  11.86000 0.71700 29.25600
C  10.99300 1.78300 29.32200
C  12.79800 -0.76300 27.31800
C  12.24600 0.37500 30.64100
O  12.97300 -0.51100 31.03200
C  11.56700 1.44200 31.59000
C  10.75800 0.62000 32.54900
O  9.81300 -0.13000 32.29400
O  11.15900 0.88100 33.86400
C  10.37500 0.41700 35.00500
H  6.75000 6.31200 30.64000
H  7.63100 5.88700 24.40600
H  11.53400 0.73200 25.20600
H  9.19300 2.78900 32.99400
H  8.63600 5.65400 32.34700
H  6.00900 4.44400 32.35900
H  6.74400 5.25900 33.58200
H  6.94700 3.42700 33.50200
H  11.24100 4.96200 32.50600
H  11.34200 3.49100 33.47300
H  9.25200 5.11900 34.68400
H  10.51200 6.21300 34.22100
H  5.65200 8.86300 28.62600
H  5.39300 7.71400 29.86600
H  4.32800 7.57500 28.46300
H  4.26900 8.70300 26.16300
H  5.08900 9.75600 25.11200
H  5.57400 9.65100 26.84400
H  10.17600 4.44100 23.11200
H  9.03900 1.72200 23.66600
H  8.60300 4.51500 21.55800
H  7.33700 3.93500 22.76000
H  8.14100 2.79300 21.74800
H  11.71200 1.25800 23.22300
H  11.39000 2.58300 22.12700
H  10.63700 1.16300 20.86700
H  9.24300 0.61800 21.91500
H  10.84000 -0.16300 22.01700
H  12.88300 -1.62300 27.98200
H  13.80300 -0.46300 27.02100
H  12.23900 -1.16200 26.47100
H  12.28400 2.04900 32.14100
H  9.32300 0.64000 34.82700
H  10.49700 1.11300 35.83500
H  10.65700 -0.56900 35.37400
Mg 16.76800 52.68800 26.71900
C  18.62400 51.00000 29.02600
C  14.28100 53.34200 29.04700
C  14.70500 53.94200 24.29400
C  18.95200 51.70600 24.22100
N  16.44300 52.12100 28.74900
C  17.42900 51.53000 29.55500
C  17.06900 51.73600 31.04000
C  15.56800 52.14400 30.96300
C  15.36400 52.57400 29.45800
C  14.61000 51.07100 31.37300
C  18.00800 52.66600 31.93700
C  18.34400 52.30700 33.36500
H  17.24300 51.69600 34.23400
N  14.75400 53.69400 26.72500
C  13.90000 53.87000 27.77200
C  12.70200 54.59200 27.39600
C  12.86000 54.79700 25.97600
C  14.17600 54.14100 25.55700
C  11.52800 54.82600 28.30500
C  11.96400 55.46800 24.97200
O  12.28900 55.65800 23.83700
C  10.74600 56.09600 25.46400
N  16.94000 53.00300 24.65400
C  15.94200 53.45800 23.84300
C  16.26700 53.29800 22.32600
C  17.72500 52.89200 22.39000
C  17.86100 52.44300 23.81700
C  15.35800 52.15400 21.72300
C  18.84000 53.96500 21.93600
C  19.48800 54.81700 23.00500
N  18.46500 51.59200 26.61200
C  19.21500 51.20200 25.45700
C  20.15500 50.26100 25.87600
C  20.00700 50.12600 27.24900
C  18.99200 51.01300 27.68900
C  21.24100 49.68100 25.02400
C  20.54800 49.59500 28.44800
O  21.55400 48.95300 28.56300
C  19.67000 50.10800 29.69400
C  19.01600 48.85000 30.40000
O  18.34500 48.02300 29.92000
O  19.22800 49.01300 31.76700
C  18.74400 47.91000 32.57200
H  13.64400 53.72300 29.84800
H  14.08200 54.41400 23.53100
H  19.56700 51.26900 23.43100
H  17.05900 50.75100 31.50800
H  15.42400 53.00300 31.61900
H  14.86600 50.81900 32.40200
H  14.79200 50.18500 30.76400
H  13.62900 51.52500 31.22700
H  17.59900 53.67500 31.98200
H  18.92100 52.60600 31.34500
H  18.74500 53.13500 33.94900
H  19.14100 51.56300 33.34500
H  10.77500 54.06000 28.11900
H  11.04200 55.78700 28.14200
H  11.86400 54.94100 29.33500
H  10.33000 56.60500 24.59500
H  10.99000 56.91900 26.13600
H  10.14100 55.27700 25.85200
H  16.08400 54.18300 21.71700
H  17.76700 51.98900 21.78100
H  14.39700 52.66800 21.74700
H  15.33200 51.29300 22.39100
H  15.62800 51.96500 20.68400
H  18.40100 54.62800 21.19100
H  19.54100 53.30400 21.42800
H  19.60300 55.83200 22.62500
H  20.43800 54.35700 23.27800
H  18.85500 54.83000 23.89300
H  20.77800 49.10100 24.22500
H  21.90400 49.00500 25.56300
H  21.71100 50.58200 24.62800
H  20.38300 50.58700 30.36500
H  17.66800 47.73700 32.55900
H  19.05100 48.17700 33.58300
H  19.15900 46.98100 32.18000

