158

Mg 47.59500 24.94300 28.03600
C  48.30900 27.17100 30.55300
C  46.47100 22.67900 30.26200
C  46.93000 22.83500 25.45200
C  48.83200 27.26000 25.67500
N  47.23700 25.00200 30.18000
C  47.67000 26.02100 31.02800
C  47.43900 25.58200 32.53100
C  47.06700 24.07000 32.32700
C  46.90900 23.89600 30.83500
C  47.94300 23.01200 32.95700
C  46.32100 26.43700 33.29700
C  46.69700 27.07800 34.59300
H  45.69300 27.07400 35.79100
N  46.92200 23.03700 27.92300
C  46.45700 22.21200 28.96800
C  46.04000 20.96000 28.45000
C  46.39600 20.94300 27.05300
C  46.67800 22.33400 26.75700
C  45.24800 19.99200 29.29900
C  46.42000 19.77800 26.01200
O  46.62500 19.87400 24.77700
C  45.99300 18.38400 26.57200
N  47.82900 25.02600 25.82400
C  47.44600 24.07700 24.97000
C  47.45000 24.59100 23.50300
C  47.93100 26.04500 23.56900
C  48.26000 26.12600 25.11600
C  48.24700 23.68800 22.44100
C  46.91300 27.15800 23.09700
C  47.55400 28.35000 22.28100
N  48.54300 26.73700 28.07400
C  49.01500 27.55500 27.02600
C  49.66800 28.74900 27.59700
C  49.34800 28.61300 28.93900
C  48.60200 27.44000 29.17500
C  50.38500 29.81900 26.90500
C  49.56500 29.30100 30.22200
O  50.11900 30.32500 30.48700
C  49.00600 28.32200 31.28800
C  49.93300 27.79600 32.32500
O  50.82600 27.09600 32.06700
O  49.67000 28.21600 33.61900
C  50.64100 27.79700 34.65600
H  46.19400 21.90600 30.98200
H  46.80000 22.25800 24.53400
H  49.04200 28.01400 24.91400
H  48.41900 25.60300 33.00800
H  46.02700 23.92900 32.62000
H  48.72000 22.77600 32.23000
H  47.28900 22.14500 33.05300
H  48.24800 23.18400 33.99000
H  45.49800 25.76800 33.54800
H  45.93000 27.20600 32.63100
H  46.92200 28.11600 34.34800
H  47.58700 26.57000 34.96500
H  45.76900 19.03400 29.29600
H  44.22700 19.86800 28.93900
H  45.17900 20.22700 30.36100
H  46.66000 18.18900 27.41200
H  46.09600 17.60500 25.81700
H  44.97400 18.38200 26.96000
H  46.42100 24.72900 23.17100
H  48.92900 26.12100 23.13600
H  47.95100 24.07300 21.46600
H  47.98900 22.63800 22.58400
H  49.32700 23.79000 22.54100
H  46.47400 27.63600 23.97300
H  46.09500 26.70900 22.53300
H  48.58500 28.13600 22.00100
H  47.63700 29.14900 23.01700
H  46.86500 28.69100 21.50800
H  51.35300 29.81400 27.40400
H  49.89800 30.79400 26.88500
H  50.51300 29.49300 25.87200
H  48.32100 28.88100 31.92600
H  50.35100 26.79200 34.96400
H  50.54100 28.49300 35.48900
H  51.69400 27.68600 34.40000
Mg 8.96000 48.79200 25.88600
C  6.78100 48.84700 28.55100
C  11.47000 50.13400 27.79700
C  10.90900 48.39100 23.27200
C  6.18300 47.90400 23.80800
N  9.11500 49.39000 27.92600
C  8.12500 49.14800 28.89600
C  8.62100 49.69300 30.33200
C  9.98700 50.48000 29.95900
C  10.21400 50.04400 28.45900
C  10.00400 52.03000 30.11700
C  8.77700 48.62700 31.45000
C  8.23800 49.04600 32.82900
H  8.27500 48.04600 34.01600
N  10.97200 49.12700 25.60400
C  11.88800 49.64900 26.52000
C  13.18300 49.54200 25.93000
C  13.08700 48.98900 24.59200
C  11.58200 48.88300 24.37900
C  14.44000 49.73800 26.85900
C  14.16900 48.59200 23.62400
O  13.99900 48.16300 22.49000
C  15.51500 48.82100 23.99500
N  8.57100 48.49700 23.76300
C  9.61800 48.29500 22.91900
C  9.14200 47.80700 21.55300
C  7.61600 47.82900 21.70000
C  7.44800 48.02100 23.21400
C  9.70300 48.36500 20.20200
C  6.85200 46.56600 21.15600
C  5.45800 46.77000 20.40900
N  6.84500 48.53400 26.09400
C  5.87700 48.26000 25.14800
C  4.52700 48.19200 25.91200
C  4.81700 48.44600 27.27600
C  6.22200 48.60200 27.30600
C  3.13700 47.97100 25.26400
C  4.30900 48.47300 28.57700
O  3.20300 48.29700 29.08900
C  5.48400 48.91700 29.46900
C  5.37600 47.91900 30.55900
O  5.77400 46.74900 30.47500
O  4.72400 48.40100 31.67800
C  4.57300 47.48600 32.78800
H  12.26500 50.60500 28.37900
H  11.48500 47.99400 22.43400
H  5.34200 47.50700 23.23600
H  7.87500 50.36100 30.76400
H  10.86600 50.20000 30.53900
H  10.29500 52.30700 31.13000
H  9.03600 52.45800 29.85400
H  10.69800 52.52500 29.43700
H  9.83600 48.38700 31.54400
H  8.19600 47.79600 31.04900
H  7.15800 49.14500 32.72100
H  8.72600 49.98600 33.08700
H  14.26500 49.88900 27.92500
H  14.99700 50.57200 26.43400
H  14.98200 48.81300 26.66000
H  15.88500 48.11800 24.74100
H  15.58600 49.88600 24.21600
H  16.23700 48.71200 23.18600
H  9.55600 46.80000 21.51000
H  7.19100 48.75900 21.32200
H  10.09000 47.54600 19.59600
H  10.59900 48.95400 20.39700
H  8.96600 48.87600 19.58200
H  6.57100 45.85400 21.93200
H  7.54100 46.01100 20.51900
H  4.75700 46.04200 20.81900
H  5.69700 46.58700 19.36200
H  5.13600 47.79500 20.59200
H  2.75600 48.88200 24.80300
H  2.45500 47.40900 25.90100
H  3.55400 47.23000 24.58100
H  5.30800 49.95900 29.73900
H  4.02000 48.08200 33.51400
H  5.55300 47.19000 33.16100
H  3.95600 46.62100 32.54200

