158

Mg 2.43700 -1.08000 44.61700
C  5.91000 -0.45600 44.20200
C  1.93900 1.50400 42.47000
C  -0.70200 -2.29000 43.88400
C  3.37700 -4.45100 45.72700
N  3.75800 0.34800 43.49400
C  5.13300 0.49100 43.43500
C  5.62900 1.58200 42.38600
C  4.27100 2.26000 42.01200
C  3.23300 1.31600 42.73700
C  4.12200 3.72400 42.45100
C  6.36700 0.87000 41.20700
C  7.90200 0.90700 41.19200
H  8.79300 1.38300 40.02000
N  0.72200 -0.29700 43.60400
C  0.74400 0.79300 42.75800
C  -0.52200 0.98800 42.26200
C  -1.37000 -0.04500 42.74900
C  -0.49300 -0.98100 43.42300
C  -0.95100 2.17800 41.46600
C  -2.88100 -0.09200 42.41600
O  -3.34400 0.80100 41.76400
C  -3.63700 -1.23900 43.02200
N  1.52700 -3.09400 44.69100
C  0.20400 -3.20300 44.41100
C  -0.23100 -4.63700 44.66400
C  1.07500 -5.38700 45.07300
C  2.06500 -4.24100 45.16700
C  -1.38100 -4.83800 45.71300
C  1.53900 -6.59400 44.30900
C  0.48400 -7.70400 44.03400
N  4.22400 -2.14600 45.20300
C  4.41000 -3.41000 45.72800
C  5.80000 -3.59400 46.05100
C  6.38400 -2.39000 45.53000
C  5.42900 -1.56000 44.95200
C  6.38000 -4.87900 46.67400
C  7.64700 -1.66800 45.35800
O  8.79100 -1.93700 45.76800
C  7.40300 -0.39400 44.50000
C  7.73800 0.80900 45.33400
O  7.39000 0.94800 46.46600
O  8.59500 1.62500 44.59700
C  8.86600 2.91400 45.28300
H  1.72500 2.42400 41.92200
H  -1.68900 -2.74900 43.79200
H  3.63200 -5.43600 46.12500
H  6.25400 2.34400 42.85100
H  4.03300 2.12800 40.95600
H  5.02300 4.08600 42.94600
H  3.36300 3.77100 43.23200
H  3.80200 4.18600 41.51700
H  6.00700 1.28900 40.26800
H  6.10600 -0.18800 41.22600
H  8.05400 -0.17200 41.19600
H  8.29000 1.39700 42.08500
H  -1.74200 1.97000 40.74600
H  -0.08500 2.56900 40.93300
H  -1.32100 3.00800 42.06900
H  -4.67200 -1.05100 42.73500
H  -3.39800 -1.33700 44.08100
H  -3.29600 -2.16700 42.56300
H  -0.59300 -5.06400 43.72800
H  1.02800 -5.60600 46.14000
H  -1.51000 -4.00200 46.40100
H  -1.17100 -5.65400 46.40400
H  -2.22700 -5.05400 45.06100
H  2.32400 -7.03500 44.92400
H  2.13900 -6.32300 43.44000
H  0.86200 -8.56200 44.59000
H  0.50700 -7.76100 42.94600
H  -0.53600 -7.54400 44.38400
H  5.82800 -5.24900 47.53700
H  7.40600 -4.60700 46.92300
H  6.39800 -5.67000 45.92400
H  8.02300 -0.49100 43.60900
H  9.72600 2.88500 45.95300
H  7.99700 3.32000 45.80000
H  9.17900 3.56000 44.46300
Mg -4.31300 26.02600 25.83700
C  -3.10700 27.47700 28.82800
C  -6.19500 23.86900 27.82800
C  -5.13800 24.09300 23.09200
C  -2.10900 27.92300 23.99900
N  -4.51800 25.67700 28.08800
C  -3.99500 26.43500 29.03400
C  -4.60700 26.07800 30.39200
C  -5.31700 24.66600 30.12400
C  -5.44900 24.76600 28.56900
C  -4.57900 23.40600 30.56900
C  -5.59800 27.23100 30.94100
C  -5.47500 27.45900 32.53100
H  -4.99500 26.32100 33.40100
N  -5.66700 24.40300 25.48300
C  -6.29300 23.68000 26.46900
C  -7.17700 22.69500 25.78300
C  -6.87600 22.70200 24.39300
C  -5.88700 23.76900 24.23500
C  -8.17300 21.77000 26.59900
C  -7.34100 21.77500 23.32800
O  -6.88000 21.91600 22.17000
C  -8.44700 20.71000 23.49600
N  -3.62400 25.91800 23.89000
C  -4.10000 25.01300 22.91800
C  -3.39100 25.32800 21.53500
C  -2.32700 26.52600 21.90100
C  -2.66700 26.82300 23.32300
C  -2.85400 24.02800 20.77800
C  -2.29300 27.67900 20.88900
C  -3.15200 28.91700 21.18600
N  -2.91900 27.45000 26.22300
C  -2.21200 28.21700 25.38200
C  -1.47800 29.20300 26.15400
C  -1.79100 28.89400 27.51600
C  -2.66900 27.80000 27.51300
C  -0.58800 30.32400 25.67500
C  -1.55300 29.29300 28.87600
O  -1.05600 30.28000 29.37900
C  -2.39500 28.27700 29.75000
C  -1.51300 27.39500 30.45000
O  -0.56500 26.72900 29.97100
O  -1.87700 27.54000 31.77000
C  -0.86800 26.88300 32.61900
H  -6.91000 23.29200 28.41700
H  -5.16500 23.41400 22.23700
H  -1.42400 28.57800 23.45500
H  -3.84800 25.88700 31.15000
H  -6.21800 24.61900 30.73600
H  -4.64700 22.65600 29.78200
H  -5.07000 23.00200 31.45400
H  -3.51400 23.52100 30.77400
H  -6.63200 27.02000 30.66600
H  -5.30700 28.14000 30.41400
H  -6.43000 27.83900 32.89600
H  -4.71200 28.17700 32.83100
H  -7.84700 21.56200 27.61900
H  -8.23500 20.78800 26.13000
H  -9.14000 22.27200 26.62200
H  -8.06200 19.75000 23.83900
H  -8.83000 20.50100 22.49600
H  -9.22900 21.04500 24.17700
H  -4.23600 25.72700 20.97400
H  -1.29900 26.18000 22.00200
H  -1.83800 24.31100 20.50300
H  -3.52600 23.87600 19.93400
H  -2.85900 23.19000 21.47600
H  -2.70000 27.18100 20.00900
H  -1.28700 27.94200 20.56500
H  -2.52000 29.68000 21.64100
H  -3.88900 28.53100 21.89000
H  -3.62100 29.26400 20.26500
H  0.09800 30.59400 26.47800
H  -1.18800 31.21400 25.48400
H  -0.09900 29.96900 24.76800
H  -2.97700 28.94100 30.38900
H  0.08700 27.40300 32.53300
H  -0.76800 25.83200 32.34900
H  -1.18900 26.95200 33.65800

