158

Mg 46.92500 25.69900 28.59100
C  47.65000 27.95200 31.23800
C  45.79700 23.53600 30.97500
C  47.11600 23.39600 26.40700
C  48.48800 27.97400 26.45700
N  46.81500 25.72200 30.82100
C  47.04400 26.76400 31.63500
C  46.66300 26.36400 33.09000
C  46.29400 24.91000 33.01000
C  46.30400 24.73500 31.48700
C  47.31100 23.86000 33.57200
C  45.47300 27.27200 33.56700
C  45.63900 28.03300 34.86000
H  44.49400 28.01600 35.83800
N  46.36000 23.76200 28.67000
C  45.90400 23.00800 29.68900
C  45.60900 21.63400 29.29200
C  46.09200 21.51700 27.96600
C  46.62500 22.92900 27.60300
C  44.99200 20.62700 30.18800
C  46.16300 20.32300 26.96900
O  46.65300 20.47400 25.84800
C  45.86200 18.84800 27.35400
N  47.54200 25.80400 26.67300
C  47.56500 24.62300 25.93300
C  48.35300 24.80000 24.56000
C  48.45000 26.36400 24.51000
C  48.06100 26.75500 25.91500
C  49.66700 23.92600 24.50700
C  47.58200 27.00000 23.37800
C  46.05000 26.72500 23.48600
N  47.77600 27.64800 28.68100
C  48.37600 28.46200 27.74300
C  48.98900 29.63000 28.33500
C  48.62300 29.46300 29.71800
C  47.98400 28.25400 29.92300
C  49.64500 30.67400 27.53400
C  48.83400 30.09700 31.00800
O  49.41000 31.07700 31.39800
C  48.34000 28.99500 32.07000
C  49.50200 28.49900 32.90400
O  50.29500 27.61600 32.64200
O  49.55800 29.26400 34.06100
C  50.27800 28.69000 35.15700
H  45.44000 22.99800 31.85600
H  47.15800 22.61500 25.64500
H  49.15400 28.55100 25.81200
H  47.46300 26.34600 33.83000
H  45.33200 24.64800 33.45000
H  48.16600 24.35600 34.03100
H  47.52100 23.12200 32.79800
H  46.62700 23.43300 34.30600
H  44.49700 26.80500 33.69400
H  45.39900 28.09500 32.85600
H  45.80900 29.09000 34.65300
H  46.60700 27.70300 35.23700
H  44.37000 19.87900 29.69800
H  44.46000 21.03500 31.04800
H  45.79800 19.97100 30.51700
H  46.52200 18.13500 26.85900
H  44.82100 18.65000 27.09800
H  45.89100 18.80100 28.44200
H  47.62600 24.39600 23.85600
H  49.50400 26.56100 24.31600
H  49.96600 23.46500 23.56600
H  49.58000 23.11000 25.22400
H  50.54000 24.53000 24.75300
H  47.77600 26.57000 22.39500
H  47.70800 28.08200 23.35700
H  45.79000 26.04600 22.67400
H  45.43700 27.60100 23.26900
H  45.74400 26.12700 24.34400
H  49.74700 31.48800 28.25200
H  49.14500 30.94600 26.60400
H  50.67900 30.36900 27.37300
H  47.60500 29.43200 32.74600
H  49.83200 27.81000 35.62000
H  50.29800 29.46800 35.91900
H  51.28700 28.41200 34.85000
Mg -8.80400 40.45800 42.57900
C  -8.08200 36.97100 41.70700
C  -6.10200 41.35300 40.90000
C  -10.01500 43.52200 42.75300
C  -12.08600 39.16900 43.52000
N  -7.49700 39.28500 41.19400
C  -7.17700 37.91400 41.22400
C  -5.90100 37.61800 40.37900
C  -5.16900 39.02300 40.45900
C  -6.31900 39.96200 40.86000
C  -4.01700 39.20900 41.52500
C  -6.18300 37.03800 38.93900
C  -5.42700 35.76200 38.50900
H  -4.53400 35.81700 37.24700
N  -8.10700 42.27400 42.01600
C  -6.89800 42.41200 41.37500
C  -6.66400 43.82300 41.19100
C  -7.74800 44.53700 41.76000
C  -8.68000 43.47200 42.28900
C  -5.40800 44.26100 40.45400
C  -8.03000 46.04200 41.72400
O  -7.23400 46.77400 41.11500
C  -9.24200 46.62300 42.29700
N  -10.78200 41.16900 43.06100
C  -10.92100 42.51000 43.08100
C  -12.36500 42.90300 43.52400
C  -13.08200 41.50500 43.74500
C  -11.98100 40.54800 43.36800
C  -12.58900 43.85100 44.67700
C  -14.36100 41.25500 42.94100
C  -15.60900 40.58300 43.56500
N  -9.78900 38.48800 42.90900
C  -11.07100 38.19600 43.31200
C  -11.24800 36.75800 43.26300
C  -10.08400 36.26800 42.77500
C  -9.28200 37.33000 42.37800
C  -12.48700 36.08500 43.81100
C  -9.39300 35.03900 42.41200
O  -9.59000 33.84100 42.61900
C  -8.09000 35.53600 41.63500
C  -6.84000 35.00100 42.21800
O  -6.31100 35.37200 43.25500
O  -6.36400 33.98700 41.43700
C  -5.05700 33.50700 41.98900
H  -5.07000 41.60500 40.64800
H  -10.45600 44.49500 42.97900
H  -12.99100 38.70400 43.91600
H  -5.22100 36.93800 40.89200
H  -4.78000 39.18000 39.45300
H  -3.89800 38.31500 42.13800
H  -4.37000 39.89400 42.29600
H  -3.05900 39.49100 41.08700
H  -6.00400 37.86500 38.25100
H  -7.27200 37.01200 38.90100
H  -6.20100 35.03900 38.25200
H  -4.89900 35.35600 39.37100
H  -5.03500 45.13800 40.98300
H  -5.53700 44.65700 39.44700
H  -4.54400 43.60800 40.56900
H  -9.31700 47.71000 42.27000
H  -9.21500 46.26800 43.32700
H  -10.15000 46.34100 41.76300
H  -12.76400 43.37100 42.62400
H  -13.32600 41.39200 44.80100
H  -11.62000 44.24700 44.98000
H  -13.09000 43.39700 45.53200
H  -13.20000 44.71000 44.39600
H  -14.12700 40.76000 41.99900
H  -14.65800 42.20100 42.48700
H  -15.44200 40.47400 44.63700
H  -15.81300 39.60900 43.12100
H  -16.49400 41.21900 43.53200
H  -12.08300 35.11600 44.10300
H  -13.19800 36.05000 42.98500
H  -12.89400 36.59000 44.68700
H  -7.95500 35.13600 40.63000
H  -4.33200 34.30700 42.14400
H  -4.65300 32.94400 41.14700
H  -5.05700 32.83600 42.84700

