158

Mg 23.95400 -5.55400 45.19000
C  25.92000 -3.04000 43.61700
C  21.27300 -4.24900 43.38500
C  22.42600 -8.50300 45.72100
C  27.00000 -6.68200 46.58600
N  23.70500 -3.96600 43.53600
C  24.60600 -2.97200 43.18200
C  24.01700 -2.03800 42.18900
C  22.48400 -2.14000 42.49700
C  22.49000 -3.55900 43.16800
C  21.84200 -1.08700 43.44200
C  24.46500 -2.45400 40.72300
C  25.21300 -1.43900 39.75500
H  24.86500 -1.44100 38.25800
N  22.12700 -6.25300 44.73200
C  21.09100 -5.51900 44.01200
C  19.89800 -6.38100 43.91900
C  20.15300 -7.61900 44.60900
C  21.65100 -7.52300 45.02600
C  18.68900 -5.96600 43.21100
C  19.25200 -8.76200 44.89100
O  18.07300 -8.68900 44.52200
C  19.72000 -10.05700 45.45600
N  24.63400 -7.28700 46.15800
C  23.81400 -8.40900 46.17500
C  24.49700 -9.48600 47.05800
C  25.86200 -8.79100 47.50200
C  25.90700 -7.57900 46.64300
C  23.65100 -9.96700 48.23500
C  27.10700 -9.79600 47.47400
C  27.73300 -10.07600 48.87100
N  25.96900 -4.92700 45.29300
C  27.04200 -5.46400 45.84500
C  28.21700 -4.57400 45.76400
C  27.82500 -3.64900 44.85000
C  26.42900 -3.92300 44.59300
C  29.45700 -4.61400 46.53100
C  28.33200 -2.50500 44.07500
O  29.44800 -2.02100 44.01900
C  27.08900 -2.09100 43.13100
C  26.76500 -0.59500 43.33900
O  26.06200 -0.15000 44.22600
O  27.30900 0.07000 42.23400
C  27.11700 1.54500 42.08200
H  20.36900 -3.72800 43.06000
H  22.05400 -9.50800 45.93200
H  27.83300 -6.99000 47.22100
H  24.32000 -1.01100 42.39000
H  21.87600 -2.21500 41.59500
H  22.63100 -0.37300 43.67900
H  21.44600 -1.53400 44.35300
H  21.03000 -0.64800 42.86100
H  23.64100 -2.88200 40.15100
H  25.01600 -3.37800 40.90000
H  26.27600 -1.63400 39.89500
H  25.13600 -0.43900 40.18100
H  17.97000 -5.52700 43.90300
H  18.15100 -6.83600 42.83400
H  18.83200 -5.35800 42.31900
H  18.89200 -10.74500 45.62200
H  20.00800 -9.91500 46.49700
H  20.33000 -10.64000 44.76400
H  24.74700 -10.21000 46.28300
H  25.71200 -8.46800 48.53300
H  22.87000 -9.20900 48.29600
H  24.01100 -10.05200 49.26000
H  23.06300 -10.85000 47.98800
H  27.83100 -9.37600 46.77600
H  26.80900 -10.75100 47.03900
H  28.75900 -9.73100 48.73800
H  27.56200 -11.13600 49.06200
H  27.30800 -9.46400 49.66600
H  29.79700 -5.64800 46.59400
H  29.34800 -4.33900 47.58000
H  30.12700 -3.93200 46.00700
H  27.30900 -2.32200 42.08900
H  26.10300 1.78200 42.40200
H  27.05200 1.76500 41.01600
H  27.72300 2.16500 42.74300
Mg 24.46400 0.69500 29.45200
C  26.53200 1.03800 32.08600
C  21.84700 1.19200 31.53400
C  22.30500 0.18800 26.79100
C  27.15200 0.42600 27.26300
N  24.28100 1.22200 31.54800
C  25.31500 1.36400 32.48900
C  24.80700 1.68800 33.88300
C  23.25300 1.51500 33.66200
C  23.11300 1.38600 32.14100
C  22.66000 0.33100 34.38400
C  25.35700 2.97400 34.52800
C  26.14100 2.74900 35.83400
H  25.98700 3.60400 37.11500
N  22.44400 0.53700 29.23500
C  21.54500 0.76100 30.26000
C  20.21600 0.38200 29.81900
C  20.31900 0.11800 28.45300
C  21.71400 0.27900 28.08600
C  19.01200 0.48600 30.77800
C  19.25000 -0.27100 27.49000
O  19.46000 -0.68600 26.38700
C  17.82300 -0.15900 27.91500
N  24.71000 0.36500 27.35400
C  23.65200 0.36700 26.46700
C  24.23300 0.53800 24.97700
C  25.82500 0.56500 25.20600
C  25.90500 0.37800 26.68000
C  23.68700 -0.56000 23.99400
C  26.46500 1.96300 24.75300
C  25.67800 3.30000 25.06300
N  26.41400 0.64100 29.56500
C  27.41300 0.51100 28.65000
C  28.69900 0.42100 29.23400
C  28.42700 0.52600 30.59300
C  27.02600 0.77200 30.77800
C  29.97700 0.09100 28.33800
C  29.08400 0.47100 31.90500
O  30.17400 0.36200 32.29600
C  27.88100 0.78800 32.88300
C  27.70600 -0.29300 33.85300
O  27.11700 -1.35100 33.67700
O  28.26600 0.19500 35.02300
C  28.18000 -0.70600 36.19800
H  21.06600 1.47800 32.24200
H  21.66300 0.23100 25.90800
H  28.00300 0.47600 26.58100
H  25.24700 0.83100 34.39300
H  22.81000 2.40800 34.10400
H  22.07300 -0.23700 33.66200
H  21.89900 0.69600 35.07300
H  23.36000 -0.40300 34.78300
H  24.52000 3.66300 34.63800
H  26.01700 3.41400 33.78000
H  27.17000 2.88300 35.50200
H  26.07700 1.70100 36.12700
H  18.14000 -0.11000 30.50800
H  18.79200 1.55300 30.82700
H  19.31000 0.12700 31.76300
H  17.25400 -0.15800 26.98500
H  17.50500 0.84400 28.19900
H  17.65600 -1.00400 28.58300
H  23.91700 1.47200 24.51300
H  26.45100 -0.17800 24.71200
H  23.05900 -1.30600 24.48000
H  24.51800 -1.09800 23.53700
H  23.22700 0.00200 23.18000
H  26.47800 1.93400 23.66300
H  27.53300 2.04100 24.95600
H  26.45000 4.07000 25.06500
H  25.08500 3.41100 25.97100
H  25.12100 3.54100 24.15800
H  30.83100 0.19000 29.00900
H  30.04400 0.79100 27.50500
H  29.87300 -0.94000 28.00100
H  28.21200 1.68600 33.40500
H  27.33500 -0.29000 36.74800
H  29.06900 -0.79500 36.82400
H  27.95900 -1.70900 35.83400

