158

Mg 47.62500 15.40800 28.56800
C  45.54000 15.62900 31.29900
C  50.03200 17.26500 30.49100
C  49.67400 15.51300 26.03700
C  44.96000 14.29200 26.66400
N  47.68000 16.35800 30.58600
C  46.76300 16.22900 31.60500
C  47.31200 16.64300 32.97700
C  48.63300 17.36000 32.60500
C  48.83500 16.93000 31.10700
C  48.62600 18.91500 32.89700
C  47.44200 15.42200 33.92400
C  47.24500 15.67800 35.44600
H  46.78400 17.07000 35.89100
N  49.63400 16.10300 28.25700
C  50.41000 16.82500 29.17400
C  51.64900 17.09700 28.58000
C  51.67000 16.51700 27.28000
C  50.30000 15.99500 27.16800
C  52.77100 17.85900 29.30500
C  52.79100 16.31400 26.22000
O  52.64500 15.88600 25.11900
C  54.13900 16.83900 26.49700
N  47.37100 14.87100 26.62600
C  48.41300 14.94100 25.76800
C  47.90000 14.66500 24.38300
C  46.53200 14.04300 24.56800
C  46.22500 14.44500 26.01000
C  47.93500 15.87000 23.41700
C  46.47600 12.47100 24.42000
C  47.43300 11.60300 25.24500
N  45.63900 14.97400 28.83700
C  44.68100 14.46400 28.03600
C  43.47800 14.22800 28.74700
C  43.71000 14.64500 30.09400
C  45.05000 15.09000 30.09600
C  42.27200 13.62400 28.14000
C  43.22800 14.70900 31.44000
O  42.18500 14.29700 31.92200
C  44.40700 15.29800 32.29300
C  43.87400 16.48800 33.02700
O  44.04900 17.66500 32.71800
O  43.14100 16.08300 34.10500
C  42.27300 16.97000 34.84100
H  50.74300 17.88600 31.03900
H  50.30100 15.64300 25.15200
H  44.21200 13.74500 26.08600
H  46.55100 17.33800 33.33300
H  49.45900 16.99800 33.21600
H  49.43000 19.30400 33.52200
H  47.71700 19.28400 33.37100
H  48.75300 19.43000 31.94500
H  48.40900 14.94800 33.75300
H  46.65600 14.72800 33.62600
H  48.07700 15.43300 36.10600
H  46.54300 14.91700 35.78600
H  53.57400 18.25700 28.68400
H  52.99000 17.28700 30.20600
H  52.25400 18.76000 29.63700
H  54.25800 17.89700 26.26600
H  54.82900 16.37200 25.79400
H  54.42600 16.64800 27.53100
H  48.55200 13.92100 23.92700
H  45.76800 14.54200 23.97100
H  48.17000 16.72400 24.05200
H  46.95900 16.00100 22.95000
H  48.70100 15.76100 22.65000
H  46.61900 12.19100 23.37600
H  45.46200 12.12000 24.61000
H  48.05600 11.05700 24.53700
H  46.89300 10.86600 25.84100
H  48.03200 12.18300 25.94700
H  42.21900 13.74400 27.05800
H  41.43700 13.92900 28.77000
H  42.38900 12.54000 28.14400
H  44.71700 14.59700 33.06800
H  42.41900 17.99400 34.49500
H  42.58200 17.01900 35.88500
H  41.21100 16.74200 34.75500
Mg 29.16100 57.90800 41.33200
C  26.40900 55.90900 40.21900
C  31.24200 55.74600 39.63300
C  31.64100 60.18000 41.35200
C  26.86700 60.28700 42.54300
N  28.82400 56.07100 40.04600
C  27.63500 55.39600 39.65000
C  27.89000 54.15300 38.88400
C  29.41800 53.96300 39.23000
C  29.85000 55.39300 39.62300
C  29.76300 52.97400 40.32800
C  27.45000 54.22400 37.39900
C  28.34700 54.60000 36.16800
H  27.61100 55.27100 34.97000
N  31.23900 57.89300 40.75200
C  31.90700 56.88200 40.14200
C  33.28400 57.23700 40.00200
C  33.44300 58.55100 40.39000
C  32.08100 58.95700 40.86900
C  34.25300 56.21200 39.38600
C  34.70300 59.33500 40.29800
O  35.67200 58.84500 39.70500
C  34.79200 60.71900 40.72100
N  29.19800 59.93500 41.89600
C  30.40200 60.56600 41.91100
C  30.16200 62.04000 42.45300
C  28.62500 62.07800 42.88400
C  28.17300 60.70500 42.35500
C  31.14500 62.64200 43.54500
C  27.89800 63.27100 42.23600
C  26.98500 64.05600 43.10700
N  27.06800 57.99300 41.63400
C  26.29600 59.06600 42.12700
C  24.88600 58.66400 42.11200
C  24.90000 57.44200 41.37000
C  26.26300 57.13800 41.00700
C  23.75400 59.53400 42.55000
C  24.03600 56.49100 40.64200
O  22.83500 56.36800 40.51400
C  25.00200 55.43200 39.94900
C  24.68700 54.08600 40.39200
O  24.55500 53.73900 41.59800
O  24.45600 53.24900 39.21500
C  23.69000 52.05700 39.42700
H  31.91000 54.93600 39.33400
H  32.41600 60.94900 41.34600
H  26.11700 60.96000 42.96400
H  27.36700 53.37600 39.44200
H  29.86300 53.63500 38.29100
H  30.64400 52.37600 40.09300
H  28.91100 52.33000 40.54800
H  29.92300 53.61900 41.19200
H  26.65000 54.96400 37.35900
H  27.01100 53.27200 37.10100
H  28.75300 53.63800 35.85600
H  29.16100 55.21700 36.54800
H  35.28500 56.40800 39.67500
H  33.96900 56.16000 38.33500
H  34.06500 55.23200 39.82500
H  34.15400 61.34400 40.09500
H  35.80300 61.08100 40.53300
H  34.48200 60.72100 41.76600
H  30.23700 62.68200 41.57600
H  28.48800 62.03000 43.96400
H  30.57400 63.19700 44.28900
H  31.70500 63.34100 42.92300
H  31.82000 61.98700 44.09500
H  27.43500 62.91000 41.31800
H  28.66700 63.97600 41.92000
H  27.03700 65.13300 42.94500
H  27.48400 63.95500 44.07100
H  25.96900 63.66100 43.11300
H  23.94600 60.57800 42.30300
H  23.43800 59.23700 43.55000
H  22.93600 59.27900 41.87500
H  24.75600 55.52000 38.89100
H  23.62300 51.82300 40.49000
H  24.34900 51.31900 38.96900
H  22.64400 52.10600 39.12400

