158

Mg 7.53600 3.07400 27.95700
C  8.93000 1.83600 30.82300
C  5.92700 5.38000 29.76900
C  5.87500 4.04500 25.03500
C  9.30800 0.71100 26.08300
N  7.36000 3.52000 30.02700
C  8.03400 2.86900 31.07400
C  7.73400 3.56200 32.38300
C  6.75200 4.70900 32.00600
C  6.65200 4.50800 30.54400
C  5.32400 4.69400 32.70900
C  9.00100 4.06700 33.16800
C  9.17600 3.71900 34.75300
H  9.56200 4.80100 35.73900
N  6.06900 4.44700 27.50700
C  5.64200 5.39600 28.39300
C  4.74000 6.30000 27.68000
C  4.61500 5.93700 26.36500
C  5.53100 4.77900 26.24300
C  4.04100 7.36400 28.43000
C  3.81500 6.56600 25.22500
O  3.66800 6.04700 24.16000
C  3.05700 7.74300 25.53700
N  7.49600 2.32100 25.86400
C  6.73500 2.94800 24.87700
C  6.96100 2.21500 23.54600
C  8.26500 1.43700 23.85400
C  8.32600 1.42500 25.38700
C  5.83400 1.21500 23.14200
C  9.54900 2.05300 23.23400
C  10.30300 1.08000 22.33900
N  8.89700 1.54700 28.31200
C  9.57400 0.71700 27.50200
C  10.49200 -0.13600 28.25900
C  10.31700 0.38400 29.59500
C  9.32100 1.35300 29.54700
C  11.46400 -1.21400 27.80700
C  10.70000 0.15100 30.99500
O  11.43800 -0.60400 31.56800
C  9.80900 1.16200 31.83600
C  9.04200 0.33100 32.76000
O  8.11500 -0.34300 32.45300
O  9.69900 0.21100 33.98700
C  9.07000 -0.54900 35.03100
H  5.64100 6.15000 30.49000
H  5.57600 4.36100 24.03400
H  10.06900 0.22000 25.47200
H  7.09900 2.87800 32.94600
H  7.21200 5.69700 32.00100
H  4.71900 4.00600 32.11900
H  4.93000 5.70900 32.66300
H  5.27700 4.35600 33.74500
H  8.85200 5.14400 33.24200
H  9.98000 4.04800 32.68900
H  10.03300 3.04700 34.81000
H  8.37200 3.08700 35.12900
H  4.51900 8.32400 28.23700
H  4.04200 7.01700 29.46300
H  2.99300 7.45300 28.14300
H  2.35900 7.45100 26.32100
H  2.47500 8.01300 24.65600
H  3.73100 8.54900 25.82700
H  6.99400 2.94000 22.73300
H  8.16700 0.42700 23.45900
H  5.00000 1.23200 23.84400
H  6.11300 0.16100 23.14000
H  5.30700 1.43900 22.21400
H  10.24000 2.37400 24.01500
H  9.25200 2.94800 22.68800
H  10.74900 1.52300 21.44900
H  9.61000 0.30000 22.02500
H  11.18700 0.66300 22.82300
H  11.58200 -1.15900 26.72400
H  11.06700 -2.19000 28.08400
H  12.38400 -1.00700 28.35300
H  10.45300 1.83500 32.40300
H  9.95100 -1.01400 35.47400
H  8.32800 -1.30600 34.77500
H  8.58100 0.06800 35.78400
Mg -1.80900 33.81000 25.95700
C  -3.77500 32.51600 28.58200
C  -0.55600 36.00700 28.07400
C  -0.40200 35.29600 23.20100
C  -3.62700 31.97900 23.65500
N  -2.14700 34.21100 28.04100
C  -2.86900 33.49900 28.96900
C  -2.63100 33.89700 30.44300
C  -1.73400 35.19500 30.26800
C  -1.44600 35.15300 28.67500
C  -2.46300 36.51000 30.62700
C  -1.92500 32.81900 31.35300
C  -2.79900 32.18900 32.46100
H  -2.06200 31.78100 33.64800
N  -0.56200 35.39100 25.67000
C  -0.08500 36.11700 26.72800
C  0.90400 37.04500 26.18000
C  0.92300 36.93600 24.81400
C  -0.05400 35.84800 24.50700
C  1.67900 37.98400 27.01400
C  1.67300 37.68600 23.77900
O  1.59600 37.37900 22.65700
C  2.55500 38.75500 24.12700
N  -1.98500 33.66800 23.66300
C  -1.27800 34.35800 22.84700
C  -1.54200 34.01500 21.41600
C  -2.43000 32.75200 21.53200
C  -2.77100 32.87500 23.03500
C  -1.98300 35.16600 20.41800
C  -1.64200 31.41800 21.31100
C  -2.46700 30.27200 20.71000
N  -3.31300 32.42400 26.04900
C  -3.92400 31.73800 25.05100
C  -4.90400 30.86100 25.67300
C  -4.84400 31.09100 27.04200
C  -3.88400 32.06400 27.21700
C  -5.82300 29.95200 24.91900
C  -5.47300 30.77400 28.23100
O  -6.33300 29.94500 28.44200
C  -4.72100 31.63000 29.37900
C  -5.82100 32.37700 30.16000
O  -6.65900 33.10200 29.73700
O  -5.70300 31.91200 31.46900
C  -6.66700 32.45000 32.49600
H  -0.17000 36.70800 28.81800
H  0.12500 35.82900 22.40600
H  -4.18500 31.38200 22.93100
H  -3.62900 34.06400 30.84900
H  -0.81000 35.13100 30.84200
H  -2.12600 36.86100 31.60200
H  -3.49500 36.33600 30.93100
H  -2.49200 37.34200 29.92300
H  -1.05300 33.28600 31.81000
H  -1.64600 32.05000 30.63200
H  -3.29000 31.26800 32.14300
H  -3.62700 32.82000 32.78400
H  1.41600 37.92400 28.07000
H  1.57900 38.99600 26.62200
H  2.71500 37.66100 26.91000
H  1.89400 39.46600 24.62300
H  3.01100 39.22400 23.25600
H  3.31000 38.47900 24.86300
H  -0.55400 33.76800 21.02700
H  -3.31800 32.74800 20.90000
H  -1.88400 36.14700 20.88200
H  -3.01900 34.96200 20.14800
H  -1.46000 35.08800 19.46500
H  -1.27800 30.94700 22.22500
H  -0.73800 31.59400 20.72800
H  -1.84800 29.52200 20.21800
H  -3.13700 30.54900 19.89600
H  -3.06700 29.81300 21.49600
H  -5.38200 29.73600 23.94600
H  -6.78600 30.36100 24.61300
H  -5.81500 29.04100 25.51800
H  -4.24500 30.89100 30.02300
H  -7.66300 32.63300 32.09400
H  -6.32000 33.38600 32.93400
H  -6.77500 31.59700 33.16700

