158

Mg 8.07600 2.91000 27.45300
C  9.49200 1.35500 30.26500
C  6.27100 5.01900 29.45900
C  6.73800 4.11100 24.71900
C  9.70400 0.34000 25.49500
N  7.66200 2.96600 29.70900
C  8.59500 2.42900 30.58700
C  8.37100 3.08800 32.00000
C  7.01000 3.95900 31.77300
C  7.00800 4.06300 30.19500
C  5.72700 3.53700 32.48100
C  9.51200 3.84800 32.67500
C  9.93100 3.36300 34.09900
H  10.40900 4.39000 35.17800
N  6.80800 4.50700 27.11000
C  6.15000 5.30600 28.07900
C  5.42800 6.35300 27.42100
C  5.44100 6.03100 26.05800
C  6.40100 4.86700 25.88900
C  4.80200 7.57000 28.11100
C  4.80600 6.67100 24.91300
O  4.92900 6.19200 23.80900
C  4.00800 7.95700 25.06600
N  8.09700 2.13400 25.48400
C  7.43900 2.90300 24.51300
C  7.68600 2.40300 23.10600
C  8.86000 1.30200 23.36500
C  8.88000 1.29000 24.89800
C  6.38300 1.88800 22.47100
C  10.24500 1.60700 22.73200
C  10.85700 0.51400 21.84400
N  9.11800 1.01700 27.78000
C  9.79800 0.18500 26.88200
C  10.65900 -0.74800 27.66000
C  10.59400 -0.28700 28.97400
C  9.61400 0.73500 28.98900
C  11.53400 -1.79000 27.14200
C  11.12600 -0.35700 30.32400
O  12.01400 -1.07300 30.69900
C  10.43400 0.70800 31.23700
C  9.78100 -0.16700 32.29400
O  9.09200 -1.13700 32.00900
O  10.29500 0.23600 33.50400
C  9.86000 -0.56200 34.71000
H  5.79900 5.74600 30.12300
H  6.38000 4.42200 23.73500
H  10.37200 -0.30300 24.91800
H  8.14800 2.24600 32.65500
H  7.19600 4.99800 32.04400
H  5.24100 4.40300 32.93100
H  5.96800 2.72200 33.16300
H  4.97300 3.21500 31.76200
H  9.31300 4.91400 32.78300
H  10.36000 3.74500 31.99700
H  10.78600 2.70200 33.95500
H  9.09300 2.87400 34.59400
H  5.38800 8.39300 27.70300
H  4.85000 7.46700 29.19600
H  3.73700 7.55900 27.87900
H  3.51800 8.04700 24.09600
H  4.75300 8.71500 25.30900
H  3.27600 7.75000 25.84600
H  7.92200 3.29500 22.52600
H  8.50900 0.33100 23.01500
H  6.38800 2.32100 21.47100
H  5.48400 2.27300 22.95200
H  6.55100 0.81200 22.42700
H  10.93800 1.82200 23.54500
H  10.23700 2.51100 22.12300
H  11.93300 0.39900 21.97700
H  10.63700 0.70400 20.79300
H  10.40200 -0.45000 22.07000
H  12.60000 -1.69900 27.35100
H  11.49200 -1.90900 26.06000
H  11.22700 -2.74500 27.56700
H  11.25900 1.31600 31.60900
H  9.45800 -1.56400 34.55600
H  9.44700 0.21500 35.35300
H  10.80900 -0.76800 35.20500
Mg -2.39100 34.22900 26.62500
C  -3.94300 32.78500 29.45800
C  -1.37200 36.80600 28.69300
C  -1.37500 35.82600 23.85100
C  -3.96400 31.80600 24.63900
N  -2.73800 34.76900 28.80700
C  -3.27100 33.94200 29.77700
C  -3.05900 34.48000 31.23700
C  -2.38200 35.90900 30.95600
C  -2.16600 35.85700 29.41300
C  -3.25500 37.05700 31.44700
C  -2.21900 33.56200 32.15600
C  -2.88400 32.98800 33.39500
H  -1.97300 32.55100 34.54300
N  -1.39500 36.03000 26.28700
C  -1.06300 36.90800 27.25900
C  -0.25200 37.92700 26.61900
C  -0.20100 37.65000 25.26900
C  -0.99100 36.42300 25.08100
C  0.38700 39.03000 27.40700
C  0.51700 38.34200 24.13200
O  0.57900 37.99300 22.96600
C  1.41400 39.49800 24.50600
N  -2.79600 33.94900 24.54700
C  -2.22600 34.71600 23.55800
C  -2.87600 34.49500 22.18700
C  -3.47800 33.02600 22.45100
C  -3.43400 32.87000 23.97900
C  -3.98600 35.48700 21.63600
C  -2.92700 31.86000 21.69900
C  -1.44200 31.58000 21.60100
N  -3.63500 32.55300 26.95600
C  -4.05900 31.66700 26.02700
C  -4.88800 30.70600 26.73800
C  -4.86700 31.09400 28.05800
C  -4.07800 32.26900 28.20700
C  -5.74200 29.56800 26.22000
C  -5.27700 30.71100 29.39300
O  -5.96000 29.71400 29.62000
C  -4.79100 31.84700 30.37800
C  -5.93500 32.39600 31.15000
O  -6.56600 33.43600 30.89500
O  -6.17300 31.55100 32.26000
C  -7.01000 32.00100 33.28600
H  -0.96600 37.57700 29.35100
H  -1.21100 36.49200 23.00200
H  -4.42400 31.00100 24.06200
H  -4.05100 34.63200 31.66300
H  -1.41800 35.98500 31.45900
H  -4.33200 36.90400 31.51300
H  -3.12200 37.91300 30.78600
H  -2.89200 37.46400 32.39100
H  -1.36600 34.17200 32.45300
H  -1.78300 32.78100 31.53300
H  -3.40300 32.08700 33.06800
H  -3.68000 33.65300 33.72900
H  1.44800 38.87300 27.21400
H  0.12500 39.02800 28.46500
H  0.10000 39.99700 26.99400
H  2.17700 39.40000 25.27800
H  0.69900 40.24900 24.84100
H  1.78500 40.02100 23.62400
H  -2.03900 34.45000 21.49000
H  -4.49700 33.04700 22.06600
H  -3.45400 35.90600 20.78100
H  -4.30600 36.37000 22.18900
H  -4.86300 34.96100 21.26000
H  -3.25500 31.95000 20.66300
H  -3.43500 30.94300 21.99500
H  -1.17700 31.71000 20.55200
H  -1.06600 30.59000 21.86000
H  -0.84800 32.31000 22.15100
H  -5.33000 29.27600 25.25400
H  -6.78900 29.76500 25.98600
H  -5.83200 28.73000 26.91100
H  -4.19000 31.36600 31.15000
H  -7.45200 31.07000 33.64100
H  -7.89300 32.53900 32.94100
H  -6.34600 32.44300 34.02800

