158

Mg 25.81700 -0.39300 29.98000
C  27.57900 -0.32700 32.84400
C  22.89300 0.25800 31.63400
C  24.12700 -0.41900 26.90200
C  28.81400 -1.12200 28.09700
N  25.31300 -0.02300 31.96300
C  26.21600 -0.05400 33.08000
C  25.60900 0.31400 34.38700
C  24.12400 0.54400 33.97300
C  24.07600 0.18700 32.41200
C  23.02100 -0.18900 34.79700
C  26.30500 1.56200 35.12900
C  26.82700 1.25600 36.56800
H  26.55200 2.39800 37.57300
N  23.72300 -0.19000 29.36000
C  22.68500 0.17000 30.19800
C  21.48800 0.32000 29.43100
C  21.81500 -0.04300 28.09900
C  23.26300 -0.30000 28.06700
C  20.12400 0.75700 30.04900
C  20.87400 -0.02900 26.78200
O  21.31300 -0.17200 25.68400
C  19.44100 0.27600 26.89900
N  26.39000 -0.74800 27.84600
C  25.53600 -0.54100 26.81000
C  26.21600 -0.50800 25.43500
C  27.72300 -0.59400 25.80500
C  27.65000 -0.89400 27.33900
C  25.68700 -1.61600 24.46000
C  28.56900 0.59400 25.38500
C  27.95100 1.96400 25.07700
N  27.72400 -0.71000 30.34700
C  28.86800 -1.05300 29.50900
C  30.06300 -1.08500 30.44600
C  29.57100 -0.79400 31.68400
C  28.16900 -0.60500 31.57900
C  31.50200 -1.41000 30.10200
C  30.03700 -0.67200 33.09900
O  31.19100 -0.72700 33.48600
C  28.75900 -0.36600 33.89400
C  28.62000 -1.46300 34.87500
O  27.71300 -2.25400 34.93300
O  29.62700 -1.35200 35.81100
C  29.45000 -1.99700 37.11400
H  22.01000 0.53800 32.21300
H  23.61600 -0.16200 25.97200
H  29.84200 -1.21900 27.74300
H  25.70000 -0.52900 35.07100
H  23.89500 1.60700 34.03600
H  23.40500 -0.35900 35.80300
H  22.80500 -1.15300 34.33600
H  22.09700 0.37100 34.93900
H  25.59000 2.37500 35.25700
H  27.09100 2.02400 34.53000
H  27.91600 1.21100 36.58500
H  26.53400 0.25200 36.87700
H  19.24200 0.18100 29.76900
H  19.89300 1.77300 29.72700
H  20.18500 0.84400 31.13400
H  18.89500 -0.46100 27.48700
H  19.12300 0.55600 25.89500
H  19.37700 1.21200 27.45400
H  25.97200 0.41700 24.91200
H  28.22200 -1.45500 25.36000
H  25.50600 -2.59600 24.90200
H  26.47300 -1.68100 23.70800
H  24.79300 -1.22400 23.97500
H  29.04300 0.32900 24.44000
H  29.38500 0.75900 26.08900
H  28.20000 2.36500 24.09500
H  28.41700 2.69600 25.73700
H  26.86800 2.05000 25.15500
H  31.52400 -1.90200 29.13000
H  31.91700 -2.21400 30.71000
H  32.07600 -0.48400 30.06600
H  28.94100 0.55100 34.45400
H  29.48700 -3.08600 37.07800
H  28.60800 -1.64900 37.71200
H  30.27800 -1.76200 37.78300
Mg 48.19300 46.01400 43.27200
C  45.02100 44.46100 43.58900
C  49.52200 42.79700 42.85700
C  51.01300 47.40100 42.45600
C  46.44700 49.09700 42.91700
N  47.36800 43.82100 43.31700
C  46.07200 43.49800 43.56700
C  45.91400 41.95200 43.49600
C  47.36700 41.45900 43.13000
C  48.18400 42.70700 43.20500
C  47.88400 40.31900 44.10400
C  44.81000 41.37800 42.55000
C  44.78600 41.83100 41.13700
H  45.14700 40.79100 40.07200
N  50.04200 45.18900 42.75700
C  50.38700 43.89000 42.64600
C  51.81000 43.83900 42.32800
C  52.29500 45.18500 42.24100
C  51.06600 45.98600 42.45900
C  52.56200 42.54000 42.20700
C  53.67000 45.58600 41.88200
O  54.52200 44.73100 41.93900
C  54.03500 46.97200 41.51500
N  48.57900 47.95300 42.44500
C  49.90700 48.29600 42.43100
C  50.11600 49.83100 42.56200
C  48.60500 50.35400 42.52100
C  47.76200 49.07200 42.58300
C  50.91100 50.19200 43.86800
C  48.05200 51.32000 41.41900
C  47.93700 52.78600 41.90900
N  46.15700 46.70500 43.28200
C  45.64900 47.93700 43.18200
C  44.26100 47.86500 43.42000
C  43.91600 46.54700 43.55100
C  45.14200 45.84600 43.45000
C  43.37100 49.05000 43.46200
C  42.90800 45.56300 43.84100
O  41.71000 45.75700 44.03100
C  43.53600 44.18800 43.89700
C  43.28700 43.78100 45.28700
O  43.54700 44.43500 46.31900
O  43.02300 42.43800 45.27000
C  43.23700 41.83700 46.58400
H  49.98700 41.83900 42.61600
H  51.93800 47.98100 42.41000
H  45.89200 50.03700 42.94600
H  45.70900 41.64400 44.52100
H  47.27800 41.12200 42.09700
H  46.99600 39.72600 44.31800
H  48.24500 40.76400 45.03100
H  48.73400 39.75900 43.71300
H  43.84100 41.41700 43.04800
H  44.82600 40.29400 42.43000
H  45.43800 42.69800 41.03300
H  43.78700 42.21700 40.93500
H  52.93700 42.39700 41.19300
H  52.08700 41.63500 42.58500
H  53.45900 42.58100 42.82400
H  53.26800 47.37600 40.85400
H  55.01300 47.02300 41.03600
H  54.24500 47.55700 42.41000
H  50.62900 50.13000 41.64800
H  48.40600 50.90500 43.44000
H  50.63400 51.10600 44.39500
H  51.94900 50.34300 43.57100
H  50.86100 49.36600 44.57700
H  47.18100 50.90200 40.91400
H  48.73700 51.22100 40.57700
H  48.02500 53.24400 40.92400
H  48.75900 53.03200 42.58200
H  46.99700 52.85800 42.45700
H  42.33600 48.70800 43.49100
H  43.57000 49.57600 42.52800
H  43.66900 49.71500 44.27200
H  43.01600 43.51000 43.22100
H  44.25700 41.65200 46.92000
H  42.87100 40.81100 46.54900
H  42.74100 42.40700 47.36900

