158

Mg 53.66700 24.55500 44.51500
C  51.17700 26.93400 43.73300
C  51.85800 22.18500 42.85000
C  56.42200 22.62800 44.60100
C  55.68500 27.33600 45.66400
N  51.70800 24.64800 43.23800
C  50.95300 25.68300 43.05200
C  49.65900 25.28400 42.31800
C  49.65600 23.63600 42.44000
C  51.16900 23.45100 42.84600
C  48.81600 23.00700 43.52700
C  49.51400 25.56900 40.79200
C  50.80400 26.00500 40.03000
H  50.52900 26.65200 38.68600
N  54.02100 22.67500 43.96500
C  53.17600 21.81400 43.32500
C  53.83000 20.52200 43.22500
C  55.06100 20.61800 43.81400
C  55.23600 22.03200 44.17600
C  53.09100 19.33700 42.56300
C  56.02200 19.44800 44.04300
O  55.75000 18.30100 43.77100
C  57.34000 19.71800 44.68100
N  55.73800 25.00300 44.96600
C  56.70200 23.96300 45.02500
C  58.09000 24.57400 45.35700
C  57.77400 26.05900 45.56900
C  56.28500 26.08600 45.39300
C  58.80600 23.78000 46.49300
C  58.49400 26.99800 44.48700
C  59.35800 27.99000 45.28300
N  53.44500 26.63600 44.79700
C  54.31300 27.60000 45.33500
C  53.57400 28.85500 45.51800
C  52.35300 28.69600 44.84700
C  52.32500 27.31000 44.46700
C  54.12700 29.98900 46.30300
C  51.07900 29.27400 44.45000
O  50.67400 30.35100 44.54900
C  50.21400 28.21600 43.77100
C  49.84000 28.70700 42.45300
O  50.57800 29.04400 41.51800
O  48.45200 28.75900 42.52400
C  47.90300 29.22200 41.22000
H  51.23000 21.38600 42.45100
H  57.36500 22.07700 44.59000
H  56.18600 28.15100 46.19100
H  48.83200 25.81800 42.78700
H  49.32000 23.12500 41.53800
H  48.24700 23.80000 44.01200
H  49.51000 22.58900 44.25600
H  48.16500 22.26100 43.06900
H  48.82900 26.41600 40.75400
H  49.00700 24.82800 40.17400
H  51.27100 25.02000 39.99700
H  51.31400 26.72800 40.66700
H  53.85500 18.98000 41.87300
H  52.17900 19.67300 42.06900
H  52.92600 18.59400 43.34300
H  57.95600 18.82300 44.76100
H  57.24900 20.05300 45.71500
H  57.86100 20.44800 44.06200
H  58.81800 24.51800 44.54800
H  58.08100 26.30500 46.58600
H  59.70200 23.38100 46.01600
H  58.11900 22.98500 46.78400
H  59.12800 24.30200 47.39400
H  57.83700 27.60200 43.86200
H  59.22100 26.55200 43.80800
H  59.80100 27.65800 46.22200
H  58.77500 28.84800 45.61700
H  60.20400 28.26400 44.65300
H  54.57400 30.78800 45.71100
H  54.82400 29.60500 47.04800
H  53.39100 30.56900 46.86000
H  49.27700 27.96400 44.26600
H  48.12500 30.28600 41.13700
H  46.82600 29.31300 41.36300
H  48.18800 28.48700 40.46700
Mg 37.12300 49.70700 24.73100
C  37.34000 48.07300 27.84000
C  35.65000 52.35900 26.43400
C  36.83200 51.33900 21.78300
C  38.02700 46.82700 23.08600
N  36.53600 50.05400 26.96700
C  36.87800 49.35300 28.05000
C  36.48000 49.98400 29.38600
C  35.85700 51.36300 28.81400
C  36.00600 51.29700 27.31100
C  34.49100 51.71100 29.34600
C  37.63900 50.10200 30.36000
C  37.59000 49.45000 31.76700
H  36.21900 49.69700 32.34300
N  36.40100 51.63200 24.16300
C  35.80800 52.56100 25.02000
C  35.51100 53.73400 24.20400
C  35.87100 53.45500 22.82900
C  36.46900 52.10500 22.89900
C  34.84000 54.97000 24.85600
C  35.64600 54.35700 21.56600
O  35.85800 53.91600 20.43100
C  35.04000 55.67000 21.80500
N  37.48200 49.16300 22.75000
C  37.29700 50.00600 21.73400
C  37.57800 49.34700 20.36100
C  37.92800 47.88200 20.78200
C  37.87200 48.00000 22.28000
C  36.38000 49.56500 19.30100
C  39.32600 47.40500 20.14100
C  40.58300 47.60500 21.06100
N  37.58300 47.77400 25.27600
C  37.97600 46.71300 24.48500
C  38.19400 45.59000 25.38300
C  37.96000 46.06700 26.66600
C  37.64100 47.39900 26.57500
C  38.62700 44.21800 24.95400
C  38.04800 45.72300 28.01700
O  38.38800 44.65900 28.54700
C  37.60400 47.00200 28.84500
C  36.34400 46.58500 29.55900
O  35.18400 46.52000 29.05700
O  36.75700 46.14100 30.86100
C  35.72200 45.45500 31.65300
H  35.23700 53.19900 26.99600
H  36.88600 51.91600 20.85800
H  38.48600 45.94900 22.62600
H  35.71700 49.34500 29.83000
H  36.47200 52.21700 29.09600
H  34.17300 50.93300 30.04100
H  33.78900 51.70300 28.51200
H  34.51300 52.64700 29.90300
H  37.73100 51.14900 30.64900
H  38.54000 49.66700 29.92600
H  38.44000 49.84200 32.32700
H  37.76000 48.40000 31.52800
H  35.13900 55.92600 24.42600
H  35.00400 54.96200 25.93400
H  33.79300 54.75100 24.64900
H  34.02500 55.55800 22.18600
H  34.93200 56.19000 20.85300
H  35.69300 56.19900 22.50000
H  38.45900 49.81400 19.92000
H  37.11200 47.21400 20.50900
H  35.53900 49.87600 19.92000
H  36.13500 48.62800 18.79900
H  36.58200 50.36800 18.59300
H  39.37400 47.92300 19.18300
H  39.27300 46.33100 19.95900
H  40.57300 48.39900 21.80800
H  41.37000 47.94700 20.38900
H  40.98000 46.66900 21.45300
H  38.12900 43.50000 25.60600
H  39.69700 44.04100 25.06200
H  38.28800 43.81400 24.00000
H  38.43300 47.12500 29.54200
H  35.15700 44.76300 31.02900
H  35.11000 46.18900 32.17800
H  36.24700 44.83000 32.37600

