158

Mg 35.18600 2.92600 29.89300
C  33.07300 4.16600 32.32200
C  37.87900 3.30400 32.04700
C  37.14500 1.95400 27.23000
C  32.37000 2.76600 27.74700
N  35.50400 3.78900 31.83800
C  34.45800 3.97700 32.71500
C  35.03600 3.90500 34.23000
C  36.49800 4.09700 33.91800
C  36.65900 3.71900 32.52400
C  37.14400 5.48200 34.20800
C  34.51400 2.72200 35.10100
C  34.13300 3.18200 36.56300
H  35.01600 4.21900 37.34300
N  37.27500 2.59800 29.72500
C  38.22300 2.70100 30.77100
C  39.45900 2.16300 30.20500
C  39.31500 1.87200 28.81100
C  37.85700 2.09800 28.55300
C  40.73700 2.24300 30.98600
C  40.30200 1.31400 27.65700
O  39.89500 1.04100 26.49000
C  41.77100 1.03000 27.91400
N  34.86600 2.50400 27.80300
C  35.79700 2.18800 26.90100
C  35.30200 2.05000 25.52100
C  33.76200 2.07900 25.67800
C  33.60400 2.43800 27.21400
C  35.90000 2.92700 24.41600
C  32.99500 0.83800 25.18600
C  32.64300 -0.27300 26.16200
N  33.09800 3.41900 29.91500
C  32.06000 3.26400 28.98800
C  30.84900 3.78400 29.54000
C  31.11200 4.10900 30.89600
C  32.53000 3.89500 31.04300
C  29.53800 3.90600 28.78700
C  30.65800 4.53000 32.12000
O  29.50400 4.75100 32.51600
C  31.88900 4.51300 33.19100
C  32.02900 5.83500 33.79600
O  32.58400 6.77900 33.24800
O  31.41900 5.72900 35.02800
C  31.57800 6.91900 35.89700
H  38.74600 3.30700 32.71000
H  37.77100 1.74100 26.36000
H  31.53200 2.76200 27.04800
H  34.57500 4.82400 34.59300
H  36.99700 3.37400 34.56400
H  36.48600 6.18200 34.72300
H  37.46200 5.99800 33.30300
H  38.03000 5.45100 34.84100
H  35.27900 1.94700 35.13100
H  33.60300 2.30900 34.66900
H  34.14400 2.31200 37.21900
H  33.07000 3.41700 36.61900
H  41.58100 2.72700 30.49400
H  41.00400 1.20700 31.19300
H  40.66900 2.70200 31.97300
H  42.17200 0.36400 27.15000
H  41.77500 0.60200 28.91600
H  42.25800 2.00500 27.95900
H  35.65400 1.02500 25.40200
H  33.47800 2.94000 25.07400
H  36.51600 3.70600 24.86400
H  35.21000 3.47700 23.77400
H  36.47600 2.22200 23.81700
H  33.62100 0.44600 24.38400
H  32.02600 0.99800 24.71400
H  32.89900 -1.21400 25.67600
H  31.57900 -0.15300 26.36300
H  33.24000 -0.21600 27.07200
H  29.43100 3.28000 27.90100
H  29.34500 4.94900 28.53700
H  28.72300 3.55400 29.41900
H  31.63200 3.78800 33.96400
H  32.30500 6.64800 36.66200
H  30.59600 7.08000 36.34200
H  31.88100 7.85200 35.42100
Mg 47.10600 16.92800 27.60100
C  45.20700 16.84200 30.47300
C  49.40000 18.90800 29.23200
C  48.66700 17.45400 24.72800
C  44.33500 15.60700 25.81700
N  47.22700 17.79900 29.70100
C  46.45200 17.43400 30.72400
C  47.06700 17.95400 32.03200
C  48.40800 18.71800 31.61300
C  48.34800 18.46200 30.07100
C  48.43800 20.13100 32.12600
C  47.31800 16.87600 33.04900
C  47.66700 17.36900 34.45800
H  46.88600 18.58400 34.96400
N  48.84700 17.88000 27.04900
C  49.67300 18.60700 27.88000
C  50.88000 18.97800 27.17100
C  50.73000 18.55200 25.80500
C  49.40100 17.86100 25.79100
C  51.98600 19.76400 27.78100
C  51.61500 18.78300 24.58200
O  51.32000 18.41700 23.47300
C  52.90100 19.63400 24.71600
N  46.60500 16.50800 25.55900
C  47.42900 16.81600 24.56100
C  46.75700 16.50400 23.19700
C  45.65100 15.54600 23.56900
C  45.52200 15.86000 25.06300
C  46.42400 17.76500 22.39300
C  46.02800 14.11800 23.36000
C  45.34000 13.51000 22.11900
N  45.14300 16.42600 27.98600
C  44.16100 15.84300 27.15600
C  42.97900 15.57800 27.98000
C  43.37200 15.90800 29.31500
C  44.70200 16.45300 29.23500
C  41.60900 15.10500 27.56600
C  42.90300 15.98100 30.70800
O  41.83800 15.65000 31.20700
C  44.14500 16.47900 31.54900
C  43.66600 17.63000 32.37600
O  44.02900 18.78700 32.17400
O  42.84000 17.23200 33.38100
C  42.18700 18.20600 34.28000
H  50.07100 19.60900 29.73300
H  49.18400 17.62100 23.78100
H  43.45700 15.23500 25.28300
H  46.42600 18.76000 32.38900
H  49.28900 18.20300 31.99500
H  49.40700 20.26300 32.60800
H  47.67300 20.38300 32.86000
H  48.29900 20.82100 31.29400
H  48.12300 16.27300 32.63000
H  46.43700 16.23900 33.11700
H  48.74600 17.51400 34.51600
H  47.58000 16.48100 35.08400
H  52.94100 19.33900 27.47200
H  51.96300 19.68200 28.86800
H  51.81300 20.82400 27.59700
H  53.70000 19.12400 25.25400
H  52.62600 20.60500 25.12800
H  53.28000 19.70800 23.69700
H  47.42500 16.00300 22.49700
H  44.66700 15.72000 23.13400
H  46.79400 18.68000 22.85600
H  45.34800 17.79100 22.22000
H  47.03500 17.69500 21.49300
H  45.72900 13.51100 24.21500
H  47.10600 13.95800 23.36000
H  45.27000 14.04000 21.16900
H  44.37400 13.09300 22.40400
H  45.98400 12.69000 21.80300
H  41.50900 14.07700 27.91400
H  41.49100 15.21200 26.48800
H  40.82300 15.74100 27.97300
H  44.38400 15.63700 32.19800
H  41.11900 18.06100 34.12000
H  42.49600 19.23500 34.09300
H  42.31300 18.02400 35.34700

