158

Mg -0.16500 33.54300 26.97400
C  -1.99300 31.75000 29.51800
C  1.21000 35.38700 29.44600
C  1.31400 34.96000 24.60700
C  -2.05500 31.46300 24.61400
N  -0.30100 33.52600 29.28800
C  -1.03100 32.66700 30.05500
C  -0.92600 32.98200 31.57300
C  0.05300 34.22700 31.47500
C  0.31100 34.43500 29.96000
C  -0.35200 35.48900 32.22200
C  -0.35600 31.83800 32.43700
C  -1.26800 31.30800 33.58000
H  -0.65500 30.98600 34.97500
N  0.92800 35.08500 27.02700
C  1.49600 35.74700 28.07400
C  2.37100 36.83100 27.59400
C  2.37700 36.67500 26.20500
C  1.53900 35.49900 25.86800
C  3.07200 37.78900 28.45700
C  3.17100 37.47400 25.18500
O  3.09900 37.37000 24.01700
C  4.19400 38.45900 25.65900
N  -0.37500 33.30500 24.94000
C  0.50900 33.97700 24.17600
C  0.36700 33.67300 22.60100
C  -0.67100 32.47900 22.65500
C  -1.15300 32.42900 24.14000
C  0.00800 34.82200 21.68700
C  -0.17300 31.08700 22.31500
C  -1.00600 30.25500 21.38300
N  -1.58500 31.93600 27.00200
C  -2.26200 31.17700 25.95100
C  -3.17900 30.22600 26.54500
C  -3.07700 30.37200 27.94900
C  -2.19500 31.51200 28.12500
C  -4.12500 29.19400 25.86700
C  -3.65700 29.95800 29.23300
O  -4.51200 29.10000 29.48300
C  -2.91300 30.86900 30.31600
C  -3.83000 31.59900 31.18000
O  -4.12300 32.79900 30.95900
O  -4.33000 30.90300 32.29200
C  -5.34000 31.65200 33.07500
H  1.69400 35.86800 30.29800
H  1.78800 35.58100 23.84500
H  -2.52500 30.81400 23.87200
H  -1.86600 33.43200 31.89300
H  0.98900 33.84500 31.88200
H  0.57600 36.01400 32.45000
H  -0.94200 35.34100 33.12600
H  -0.94100 36.15400 31.59000
H  0.63300 32.02100 32.85600
H  -0.27400 30.98000 31.76900
H  -1.67400 30.32300 33.35000
H  -2.09200 31.99600 33.77400
H  2.64900 37.91600 29.45400
H  3.03800 38.82000 28.10300
H  4.12900 37.55300 28.58400
H  3.66800 39.32500 26.06100
H  4.80300 38.62600 24.77000
H  4.74000 38.09900 26.53100
H  1.33600 33.28100 22.29400
H  -1.55200 32.70400 22.05300
H  0.86800 34.83900 21.01700
H  -0.23700 35.70500 22.27600
H  -0.81800 34.74800 20.97900
H  -0.12300 30.46400 23.20800
H  0.83900 31.04800 21.91100
H  -0.24900 29.71900 20.81000
H  -1.73900 30.77400 20.76600
H  -1.48500 29.53200 22.04400
H  -3.41600 28.49900 25.41500
H  -4.78000 29.66800 25.13600
H  -4.54800 28.51900 26.61100
H  -2.27900 30.25100 30.95200
H  -5.89100 32.36600 32.46200
H  -4.96900 32.27900 33.88500
H  -6.00600 30.88600 33.47200
Mg -4.31000 24.71100 26.00900
C  -2.96000 25.82400 28.94900
C  -6.60700 22.84700 27.86600
C  -5.66000 23.36700 23.19200
C  -1.94900 26.30000 24.16700
N  -4.56700 24.33500 28.14300
C  -4.10100 25.09800 29.22700
C  -4.67500 24.65300 30.58000
C  -5.56000 23.46400 30.15700
C  -5.61300 23.51700 28.61900
C  -5.10800 22.12600 30.74600
C  -5.52700 25.87900 31.25300
C  -5.69700 25.80000 32.82200
H  -4.95900 24.70600 33.73400
N  -5.97800 23.38300 25.60200
C  -6.79700 22.80800 26.49000
C  -7.81700 22.05500 25.81600
C  -7.59900 22.23000 24.40100
C  -6.36500 23.06200 24.33000
C  -8.98400 21.33200 26.51000
C  -8.43300 21.73600 23.18500
O  -8.03900 21.79600 22.01000
C  -9.71000 21.06500 23.48100
N  -3.88000 24.91300 23.94700
C  -4.52000 24.22100 22.99000
C  -3.71700 24.27600 21.68000
C  -2.52300 25.21300 22.02500
C  -2.74500 25.47900 23.42800
C  -3.26200 22.84200 21.28900
C  -2.43500 26.45900 21.14200
C  -1.19800 26.51800 20.26600
N  -2.75000 25.93500 26.43600
C  -1.82600 26.50400 25.54500
C  -0.89000 27.32900 26.31700
C  -1.31400 27.11100 27.67800
C  -2.36500 26.17400 27.65800
C  0.22400 28.20200 25.94600
C  -0.92300 27.37300 29.09600
O  -0.10100 28.16200 29.50500
C  -2.01200 26.67800 29.89500
C  -1.37800 26.00200 31.03100
O  -0.47400 25.16300 30.85700
O  -1.85500 26.44700 32.17200
C  -1.10300 25.91100 33.28200
H  -7.34100 22.17600 28.31700
H  -5.93000 22.88100 22.25200
H  -1.30900 26.97800 23.59800
H  -3.90900 24.39700 31.31200
H  -6.57400 23.56700 30.54300
H  -5.98000 21.75100 31.28200
H  -4.28900 22.19700 31.46100
H  -4.86100 21.36800 30.00300
H  -6.49200 26.04800 30.77700
H  -4.92700 26.78700 31.19400
H  -6.78200 25.69700 32.83200
H  -5.54800 26.70200 33.41500
H  -9.06100 21.63000 27.55600
H  -8.80200 20.26200 26.41000
H  -9.92600 21.59000 26.02600
H  -10.16900 20.78300 22.53400
H  -10.28500 21.80200 24.04100
H  -9.56800 20.22000 24.15600
H  -4.39600 24.75300 20.97300
H  -1.58100 24.68700 21.86900
H  -2.18000 22.71100 21.29100
H  -3.49000 22.63800 20.24300
H  -3.49600 22.10700 22.05900
H  -2.42700 27.38000 21.72600
H  -3.30500 26.50600 20.48800
H  -0.60400 25.60600 20.20700
H  -0.52700 27.22700 20.75000
H  -1.32700 26.99800 19.29500
H  0.39500 28.21100 24.87000
H  1.10900 27.78100 26.42400
H  0.09900 29.25200 26.20900
H  -2.54900 27.52500 30.32200
H  -0.04800 25.98000 33.02000
H  -1.32100 24.85700 33.45600
H  -1.36900 26.50700 34.15500

