158

Mg 17.37200 -2.34800 28.01400
C  16.35400 -0.39800 30.84000
C  19.48500 -4.13300 30.09100
C  18.89900 -3.65400 25.36900
C  15.41300 -0.31000 26.07300
N  17.89000 -2.23700 30.21500
C  17.30100 -1.41100 31.18900
C  17.60400 -1.96700 32.60500
C  18.75700 -3.01000 32.29700
C  18.71300 -3.12700 30.77900
C  20.10600 -2.61900 32.82800
C  16.31600 -2.60000 33.17300
C  15.93500 -2.21000 34.56500
H  17.00400 -1.64400 35.54200
N  18.91200 -3.81000 27.76500
C  19.56600 -4.48700 28.76700
C  20.32900 -5.56500 28.19100
C  20.16200 -5.48700 26.77100
C  19.33100 -4.27400 26.52800
C  21.06500 -6.55900 29.07200
C  20.80100 -6.30600 25.68400
O  20.64800 -6.11000 24.50600
C  21.95300 -7.29100 26.05900
N  17.37200 -1.80100 26.04400
C  18.03600 -2.55500 25.09600
C  17.64600 -2.11000 23.71100
C  16.49300 -1.07000 23.87700
C  16.38800 -1.06100 25.43300
C  18.82000 -1.68200 22.86200
C  15.20100 -1.47400 23.07000
C  14.75600 -0.55200 21.91200
N  16.20200 -0.67400 28.36000
C  15.32100 -0.05300 27.47100
C  14.48700 0.92400 28.14100
C  14.89200 0.89100 29.47000
C  15.83400 -0.13000 29.55400
C  13.53600 1.76200 27.49500
C  14.72700 1.43800 30.81700
O  14.04500 2.42000 31.20700
C  15.63800 0.57600 31.75800
C  16.62500 1.46200 32.42400
O  17.66900 1.91700 31.83800
O  16.17300 1.81600 33.68700
C  16.99100 2.90300 34.26500
H  20.01000 -4.74800 30.82500
H  19.22700 -4.28000 24.53600
H  14.65700 0.16100 25.44100
H  18.04100 -1.24300 33.29200
H  18.61700 -4.04200 32.61700
H  20.47500 -1.95700 32.04500
H  20.69100 -3.49800 33.10200
H  19.99200 -1.99700 33.71600
H  16.45800 -3.68100 33.15100
H  15.54100 -2.28200 32.47600
H  15.63300 -3.08000 35.14800
H  15.07000 -1.54900 34.52200
H  21.06500 -7.59100 28.72300
H  20.59400 -6.57100 30.05500
H  22.09800 -6.22100 29.15100
H  21.63100 -8.26400 26.43100
H  22.54100 -6.80200 26.83600
H  22.56400 -7.46700 25.17400
H  17.18600 -3.00300 23.28600
H  16.92800 -0.14500 23.49900
H  18.94500 -2.43200 22.08100
H  19.75400 -1.56200 23.41100
H  18.58900 -0.75100 22.34400
H  14.39500 -1.31800 23.78800
H  15.05300 -2.50200 22.73700
H  14.33300 -1.19100 21.13700
H  15.45600 0.15800 21.47100
H  13.84800 -0.00400 22.16700
H  12.75800 2.02100 28.21300
H  13.26900 1.23000 26.58200
H  14.08200 2.68300 27.29100
H  15.04800 0.11400 32.55000
H  17.17600 3.67400 33.51800
H  17.94300 2.55700 34.66800
H  16.45700 3.35500 35.10100
Mg 26.41900 49.75000 25.99200
C  24.22300 51.03500 28.43400
C  28.40500 48.66400 28.66300
C  28.69700 48.78100 23.67200
C  24.48000 51.14800 23.58100
N  26.23800 49.76900 28.29700
C  25.28800 50.38300 29.07800
C  25.44900 49.96200 30.57800
C  26.90100 49.41900 30.65500
C  27.20000 49.22900 29.08800
C  27.96700 50.36800 31.32600
C  24.26300 49.11200 31.11100
C  23.75100 49.46900 32.53000
H  23.85900 48.28300 33.56500
N  28.32400 48.88900 26.17100
C  29.00000 48.54400 27.32800
C  30.31600 48.00000 27.03500
C  30.47500 48.12100 25.58500
C  29.14800 48.64900 25.08600
C  31.21100 47.46900 28.05900
C  31.68400 47.84100 24.76300
O  31.82600 48.14600 23.57700
C  32.85200 47.17200 25.35900
N  26.57100 49.89000 23.91500
C  27.42900 49.23500 23.16600
C  27.06800 49.31400 21.63600
C  25.86300 50.31100 21.60800
C  25.58400 50.46000 23.09300
C  28.29800 49.77200 20.76300
C  24.62700 49.72500 20.93500
C  23.86100 48.62800 21.73300
N  24.67600 50.85900 25.96600
C  23.96300 51.34400 24.90600
C  22.76800 52.04300 25.35200
C  22.85100 51.98300 26.71700
C  24.08000 51.27800 27.03700
C  21.63100 52.54100 24.44700
C  22.14400 52.31100 27.98000
O  21.12900 52.97100 28.14000
C  22.98100 51.63700 29.10200
C  23.43900 52.70900 30.03800
O  24.28800 53.56400 29.93200
O  22.69200 52.48200 31.22300
C  22.89700 53.29800 32.36500
H  28.90200 48.32400 29.57400
H  29.44100 48.29900 23.03300
H  23.92400 51.60300 22.75800
H  25.45900 50.87400 31.17600
H  26.87500 48.45600 31.16400
H  28.53800 49.92000 32.13900
H  27.46400 51.15100 31.89200
H  28.66100 50.83800 30.62800
H  24.58000 48.07000 31.07400
H  23.43900 49.09300 30.39700
H  22.75600 49.91400 32.51600
H  24.44700 50.21500 32.91400
H  30.75700 47.57400 29.04400
H  32.20100 47.91600 28.15400
H  31.30700 46.42600 27.75800
H  32.53800 46.26700 25.87800
H  33.23200 47.90700 26.06900
H  33.60300 46.97600 24.59400
H  26.76700 48.32400 21.29300
H  26.05800 51.27800 21.14400
H  28.42000 49.02200 19.98100
H  29.24100 49.82700 21.30600
H  28.16600 50.76500 20.33500
H  24.91900 49.25300 19.99700
H  23.95000 50.50300 20.58200
H  22.86800 49.00300 21.97900
H  24.29500 48.38300 22.70300
H  23.77500 47.69000 21.18400
H  21.07400 51.65300 24.15000
H  21.91800 53.10800 23.56100
H  21.02000 53.16000 25.10400
H  22.33200 50.90100 29.57500
H  23.28000 52.61600 33.12400
H  21.93100 53.64200 32.73500
H  23.53700 54.18100 32.34400

