158

Mg 49.25800 46.33100 43.09300
C  46.10000 46.87500 42.12800
C  49.18000 43.24600 41.39000
C  52.75500 46.03500 43.23000
C  49.55500 49.72100 44.06400
N  47.80900 45.30400 41.79300
C  46.56500 45.61700 41.60500
C  45.88400 44.64700 40.63100
C  46.77500 43.33400 40.76600
C  47.99700 43.96000 41.37700
C  46.11900 42.27700 41.68500
C  46.01700 45.22000 39.18000
C  44.80200 45.04900 38.20900
H  45.00100 44.03500 37.15500
N  50.74700 44.78800 42.59500
C  50.47300 43.63400 41.81000
C  51.78000 42.90900 41.58500
C  52.73200 43.62000 42.30700
C  52.12900 44.86700 42.80000
C  51.94600 41.60500 40.86900
C  54.14900 43.21900 42.45400
O  54.41000 42.16600 41.96300
C  55.11900 44.02200 43.24100
N  50.90100 47.66500 43.51000
C  52.21100 47.30000 43.57200
C  53.08400 48.51400 44.03700
C  52.06800 49.59300 44.37400
C  50.74000 48.91600 44.03900
C  54.13000 48.24900 45.10800
C  52.16200 51.07900 43.76000
C  52.18600 52.23500 44.85300
N  48.09000 47.99500 43.22600
C  48.29300 49.25300 43.69000
C  46.94700 49.87100 43.80500
C  46.07700 48.94300 43.18800
C  46.86000 47.85100 42.78600
C  46.56000 51.19100 44.36900
C  44.67700 48.79200 42.80100
O  43.72300 49.52700 42.88700
C  44.67400 47.42500 42.12800
C  43.85700 46.47300 42.99900
O  44.36200 45.72500 43.81700
O  42.49000 46.66100 42.81000
C  41.52400 45.96700 43.69300
H  49.04400 42.28000 40.89900
H  53.81700 46.09000 43.48000
H  49.74600 50.75500 44.36000
H  44.82700 44.58500 40.88900
H  46.89500 42.89900 39.77400
H  46.32900 42.39400 42.74800
H  46.40000 41.27900 41.34800
H  45.02900 42.31000 41.67700
H  46.94200 44.89400 38.70400
H  46.26800 46.27900 39.24900
H  44.51500 46.01900 37.80200
H  43.95600 44.66600 38.77900
H  50.97300 41.36500 40.44100
H  52.22100 40.78100 41.52800
H  52.72100 41.65300 40.10400
H  56.02800 43.42600 43.33000
H  54.65900 44.15700 44.22000
H  55.44700 44.99000 42.86300
H  53.69000 48.78800 43.17400
H  51.86200 49.78000 45.42800
H  54.38100 47.23000 45.40200
H  53.77100 48.70100 46.03200
H  55.06700 48.74300 44.85400
H  51.42800 51.26300 42.97500
H  53.16500 51.25800 43.37300
H  51.66500 52.14100 45.80600
H  51.70600 53.09700 44.39100
H  53.23600 52.46400 45.03700
H  45.68400 51.09300 45.00900
H  46.24100 51.74000 43.48300
H  47.28900 51.78300 44.92300
H  44.39900 47.56600 41.08300
H  41.00900 45.15400 43.18100
H  40.76800 46.67500 44.03400
H  41.90900 45.36200 44.51400
Mg 9.46400 47.97900 26.14200
C  7.51400 47.92500 29.08000
C  12.07400 49.30100 28.02800
C  11.18100 48.36500 23.33400
C  6.60900 47.42300 24.26800
N  9.67900 48.86700 28.27400
C  8.77800 48.52800 29.27700
C  9.45100 48.88700 30.68200
C  10.82600 49.56900 30.28700
C  10.88700 49.26500 28.79000
C  11.07300 51.04600 30.68700
C  9.58900 47.67900 31.57700
C  10.13900 47.87600 32.98100
H  9.78900 46.94100 34.11100
N  11.38300 48.56400 25.71900
C  12.35900 49.01200 26.64900
C  13.62100 49.16700 25.98900
C  13.32300 48.82500 24.61400
C  11.92800 48.65900 24.48200
C  14.91000 49.69800 26.63400
C  14.33400 48.87400 23.46600
O  14.05800 48.49200 22.33000
C  15.71300 49.14900 23.81200
N  8.94800 48.07500 24.16300
C  9.84000 48.14500 23.17900
C  9.20300 48.00500 21.78500
C  7.95100 47.25300 22.14300
C  7.78600 47.62100 23.61200
C  8.81600 49.38800 21.03400
C  8.01100 45.71700 21.80400
C  7.69300 44.61400 22.83100
N  7.48900 47.68200 26.49300
C  6.43200 47.40800 25.67700
C  5.18300 47.19800 26.44100
C  5.58700 47.34900 27.77800
C  6.98500 47.57300 27.77500
C  3.82800 46.89600 25.96800
C  5.12200 47.43400 29.14800
O  3.99800 47.39400 29.66400
C  6.43100 47.60100 30.01900
C  6.69500 46.26200 30.65700
O  6.99800 45.24200 30.11000
O  6.44100 46.42900 31.99300
C  6.74700 45.19200 32.75000
H  12.87500 49.66500 28.67500
H  11.78100 48.29800 22.42400
H  5.76600 47.07700 23.66600
H  8.92500 49.69700 31.18800
H  11.58400 48.94300 30.75700
H  11.78600 51.01100 31.51100
H  10.17800 51.54300 31.06100
H  11.56100 51.60300 29.88700
H  10.25700 46.96700 31.09200
H  8.57400 47.33400 31.77600
H  10.02900 48.92700 33.24700
H  11.20200 47.63700 32.95600
H  15.22700 50.62000 26.14700
H  15.77600 49.04500 26.53000
H  14.73800 49.81800 27.70400
H  16.29100 49.17500 22.88800
H  16.15100 48.48500 24.55800
H  15.69900 50.19000 24.13700
H  9.79700 47.47600 21.04100
H  7.13000 47.65800 21.55100
H  8.61600 50.12600 21.81000
H  7.89300 49.33700 20.45800
H  9.65200 49.74900 20.43400
H  9.05800 45.42400 21.72800
H  7.42600 45.56500 20.89700
H  7.06900 43.85900 22.35200
H  7.20000 45.08700 23.68100
H  8.65800 44.18600 23.10300
H  3.05100 47.23700 26.65200
H  3.80100 45.82700 25.75900
H  3.69500 47.43600 25.03000
H  6.18900 48.35300 30.77100
H  6.95100 45.65900 33.71300
H  7.72600 44.73100 32.61800
H  5.90300 44.50400 32.78300

