158

Mg -1.54800 17.31300 26.54000
C  -1.85100 15.22500 29.41900
C  -1.97600 20.02900 28.48300
C  -1.37400 19.09300 23.78000
C  -1.57000 14.39800 24.56400
N  -1.68100 17.56000 28.62300
C  -1.82900 16.63100 29.66200
C  -1.85600 17.20000 31.04000
C  -2.28800 18.73500 30.74500
C  -1.96000 18.81900 29.20000
C  -3.76900 19.11000 31.31500
C  -0.47300 17.00100 31.62900
C  -0.32700 17.60500 33.01000
H  -0.40400 16.61200 34.19400
N  -1.58700 19.27600 26.17200
C  -1.78700 20.22600 27.07500
C  -1.81300 21.54900 26.35400
C  -1.40600 21.27600 25.00300
C  -1.35000 19.82300 24.95100
C  -2.10000 22.90100 26.93200
C  -1.11500 22.22500 23.82200
O  -0.95200 21.83000 22.70600
C  -0.94400 23.65800 24.14300
N  -1.53400 16.81000 24.43800
C  -1.42800 17.73700 23.48600
C  -1.64300 17.24200 22.08600
C  -1.34800 15.72700 22.41700
C  -1.52900 15.63300 23.90400
C  -3.02200 17.63200 21.43100
C  -0.04300 15.08200 21.96300
C  -0.27300 13.80800 21.05900
N  -1.80400 15.24700 26.83200
C  -1.73800 14.19500 25.94400
C  -1.93500 12.95200 26.64500
C  -1.97600 13.30000 27.99400
C  -1.91000 14.69800 28.04100
C  -1.88400 11.59700 26.07900
C  -2.09700 12.73700 29.35300
O  -2.17200 11.59200 29.73600
C  -2.08700 14.03100 30.29700
C  -1.04300 13.68100 31.32000
O  0.16100 13.52100 31.07100
O  -1.72100 13.49400 32.56400
C  -0.85900 13.08600 33.64800
H  -2.11000 20.91300 29.11000
H  -1.33300 19.56600 22.79600
H  -1.57800 13.58200 23.83800
H  -2.52700 16.67000 31.71600
H  -1.48900 19.27500 31.25300
H  -3.79800 19.73400 32.20900
H  -4.25700 18.15700 31.51800
H  -4.27700 19.63800 30.50800
H  0.20300 17.62900 31.05000
H  -0.08500 15.98300 31.65700
H  -1.21000 18.21800 33.19500
H  0.56300 18.18000 33.26400
H  -2.30100 22.87900 28.00300
H  -2.90200 23.46300 26.45400
H  -1.16600 23.46200 26.92300
H  -0.19400 23.63000 24.93400
H  -1.91800 24.08900 24.37200
H  -0.52500 24.16400 23.27300
H  -0.81400 17.74900 21.59200
H  -2.11900 15.13200 21.92800
H  -2.88600 18.57700 20.90500
H  -3.76000 17.83000 22.20800
H  -3.41600 16.91500 20.71000
H  0.56200 14.81800 22.83100
H  0.53000 15.81300 21.39300
H  0.40300 13.83000 20.20300
H  -1.26400 13.55000 20.68700
H  0.13200 13.03400 21.71100
H  -0.89600 11.14800 26.17500
H  -2.17100 11.65500 25.02900
H  -2.57900 10.98400 26.65300
H  -3.06200 14.12800 30.77300
H  -1.50500 12.97000 34.51800
H  -0.01400 13.74300 33.85000
H  -0.28600 12.19500 33.39300
Mg 6.82000 54.46500 40.58700
C  6.54200 50.89400 40.46200
C  10.12700 54.09400 39.49200
C  6.97800 57.87900 39.68300
C  3.39600 54.62800 40.81800
N  8.07700 52.70900 40.07800
C  7.83500 51.32900 40.11800
C  9.03300 50.49800 39.73500
C  10.19200 51.55700 39.83100
C  9.42100 52.90600 39.71800
C  11.14200 51.41000 41.09300
C  8.91100 49.87000 38.33700
C  8.61700 50.77500 37.23400
H  7.29400 50.65600 36.54400
N  8.38900 55.81800 39.75800
C  9.66400 55.45100 39.47700
C  10.38300 56.65900 39.03700
C  9.52900 57.76400 39.42000
C  8.21900 57.17500 39.63800
C  11.83700 56.74300 38.57700
C  9.92800 59.20800 39.55400
O  11.09000 59.53800 39.32400
C  8.88800 60.22400 39.76500
N  5.42700 56.03800 40.25900
C  5.70800 57.36500 40.12800
C  4.44800 58.24400 40.26500
C  3.28200 57.13300 40.46900
C  4.08300 55.84000 40.48400
C  4.53700 59.32700 41.37500
C  2.09400 57.10100 39.36000
C  0.64500 57.53100 39.77100
N  5.25200 53.12700 40.85300
C  3.90700 53.35600 40.96300
C  3.23500 52.09500 41.22300
C  4.21500 51.20300 41.03800
C  5.41900 51.80300 40.81100
C  1.79100 51.82000 41.36300
C  4.40300 49.75700 41.13000
O  3.67400 48.81800 41.44400
C  5.96200 49.56400 40.69000
C  5.86400 48.72500 39.46000
O  5.54000 49.08500 38.34900
O  6.16000 47.45100 39.77400
C  5.74500 46.45700 38.81100
H  11.15700 53.94400 39.16300
H  6.83700 58.86500 39.23600
H  2.35200 54.76000 41.11000
H  9.17800 49.70700 40.47000
H  10.80100 51.43600 38.93500
H  10.62500 50.79700 41.83200
H  11.37400 52.40700 41.46700
H  12.11200 50.98700 40.83400
H  8.15400 49.09200 38.23700
H  9.86300 49.40200 38.08700
H  9.34400 50.72000 36.42400
H  8.68000 51.82200 37.53100
H  11.97900 57.20300 37.59900
H  12.27200 55.74500 38.52100
H  12.52000 57.30200 39.21700
H  8.26500 60.50500 38.91600
H  9.26500 61.22700 39.96300
H  8.31700 60.05600 40.67800
H  4.24200 58.75800 39.32600
H  2.79300 57.25900 41.43400
H  5.17400 59.01700 42.20300
H  3.51800 59.35900 41.75900
H  4.97200 60.25600 41.00600
H  2.03400 56.03900 39.12200
H  2.35400 57.64400 38.45100
H  -0.12700 56.79600 39.54400
H  0.35700 58.38100 39.15200
H  0.63700 57.78500 40.83000
H  1.79700 50.89000 41.93200
H  1.21700 51.78700 40.43700
H  1.35400 52.62200 41.95800
H  6.47300 48.96000 41.44000
H  4.98500 46.82100 38.12000
H  5.35400 45.53400 39.24000
H  6.69800 46.16600 38.37000

