158

Mg 1.29400 -1.77000 43.47100
C  4.67300 -1.17400 42.82600
C  0.55400 1.11900 41.81800
C  -1.93100 -2.67000 43.57500
C  2.13800 -4.74000 45.07000
N  2.48400 -0.29600 42.37200
C  3.84100 -0.21700 42.27300
C  4.32000 0.97100 41.41700
C  2.96700 1.78800 41.27700
C  1.88700 0.81300 41.91900
C  2.95600 3.13500 42.04800
C  4.92300 0.36300 40.04500
C  6.00900 1.13900 39.51900
H  6.02500 1.71000 38.11500
N  -0.47500 -0.86500 42.73700
C  -0.57700 0.38200 42.15700
C  -1.95600 0.63000 41.85200
C  -2.67000 -0.42900 42.43000
C  -1.67800 -1.40200 43.00800
C  -2.39800 1.88900 41.08400
C  -4.15900 -0.50300 42.40600
O  -4.89100 0.33700 41.83700
C  -4.86400 -1.65500 43.07200
N  0.33700 -3.45200 44.17900
C  -1.01300 -3.62100 44.04000
C  -1.43600 -5.00200 44.59300
C  -0.12100 -5.68200 44.97300
C  0.84600 -4.51200 44.79100
C  -2.47500 -4.87100 45.73800
C  0.26500 -6.91000 44.15000
C  0.32500 -8.18800 45.01300
N  3.04200 -2.85700 43.85000
C  3.26800 -3.96600 44.58300
C  4.69700 -4.20600 44.65900
C  5.33400 -3.06600 44.09200
C  4.30500 -2.35400 43.51300
C  5.25600 -5.41700 45.43100
C  6.60800 -2.40400 43.80100
O  7.83700 -2.63000 44.07100
C  6.17500 -1.15000 42.85200
C  6.83000 0.14100 43.23000
O  7.59900 0.79600 42.51000
O  6.54000 0.55900 44.53700
C  6.99800 1.95700 44.88700
H  0.39600 2.12300 41.41900
H  -2.88200 -3.20200 43.50500
H  2.48200 -5.65100 45.56500
H  5.07000 1.62600 41.85800
H  2.59300 1.84800 40.25500
H  2.33500 3.06700 42.94100
H  2.59600 3.97700 41.45700
H  3.98200 3.29600 42.37800
H  4.18300 0.57300 39.27300
H  5.13600 -0.70200 39.94900
H  6.84600 0.44100 39.52800
H  6.25100 1.98400 40.16300
H  -1.65400 2.66200 40.89400
H  -3.05100 2.43900 41.76200
H  -2.82900 1.58300 40.13000
H  -4.36000 -1.71100 44.03700
H  -4.77100 -2.58600 42.51200
H  -5.92100 -1.42500 43.20600
H  -1.91500 -5.56200 43.79000
H  -0.12300 -5.93500 46.03300
H  -2.62500 -3.82200 45.99700
H  -2.24200 -5.53300 46.57200
H  -3.45300 -5.16800 45.35700
H  1.16500 -6.78500 43.54700
H  -0.53300 -7.09500 43.43100
H  0.02100 -8.99400 44.34400
H  -0.30100 -8.07200 45.89700
H  1.30600 -8.32400 45.46900
H  5.97800 -5.02000 46.14500
H  5.78800 -6.10600 44.77500
H  4.62000 -5.90900 46.16700
H  6.42300 -1.38100 41.81600
H  6.48600 2.66900 44.23900
H  8.07800 2.04600 44.77700
H  6.73500 2.18800 45.91900
Mg 8.27700 3.72800 27.95000
C  9.97900 2.33600 30.58000
C  6.71700 5.87300 30.07300
C  6.57000 4.87900 25.27000
C  9.97900 1.50700 25.88400
N  8.10800 3.94800 30.08100
C  9.00800 3.25900 30.96500
C  9.01300 3.86300 32.35900
C  7.86000 4.92200 32.22100
C  7.50100 4.92600 30.72000
C  6.57500 4.73300 33.16900
C  10.36200 4.50800 32.83200
C  11.14000 3.81300 33.97600
H  11.22100 4.57900 35.30100
N  6.83100 5.18300 27.69700
C  6.30000 5.99700 28.67300
C  5.27300 6.79700 28.03400
C  5.23100 6.58000 26.65200
C  6.25100 5.44600 26.47100
C  4.46500 7.81600 28.89700
C  4.36000 7.21400 25.51800
O  4.53400 6.89000 24.34200
C  3.41400 8.34400 25.81200
N  8.28500 3.23900 25.88900
C  7.50200 3.89200 24.97000
C  7.86200 3.57600 23.50900
C  9.04800 2.56700 23.76600
C  9.05200 2.37500 25.29400
C  6.66200 3.00400 22.70400
C  10.44400 2.98400 23.09500
C  11.14600 1.96200 22.08100
N  9.58900 2.13300 28.16500
C  10.15000 1.29900 27.21500
C  11.09300 0.41000 27.85400
C  11.06100 0.80900 29.20600
C  10.12500 1.85700 29.33600
C  11.91700 -0.67800 27.23400
C  11.55800 0.45800 30.48400
O  12.37800 -0.38900 30.73800
C  10.88400 1.40400 31.50100
C  10.08900 0.61800 32.54300
O  8.92500 0.21200 32.49800
O  10.97600 0.37000 33.54600
C  10.34100 -0.20500 34.69400
H  6.17200 6.51200 30.76900
H  6.07900 5.22900 24.36000
H  10.46600 0.89900 25.11800
H  8.69400 3.16600 33.13400
H  8.29000 5.90000 32.43900
H  5.69500 4.63400 32.53400
H  6.57700 5.53800 33.90300
H  6.54300 3.86900 33.83300
H  10.13400 5.52800 33.14200
H  11.02300 4.50000 31.96500
H  12.15100 3.48400 33.73600
H  10.63600 2.87800 34.21900
H  4.74300 7.68600 29.94300
H  3.44600 7.50600 28.66900
H  4.73400 8.81700 28.55900
H  2.66400 8.19300 26.58900
H  2.97300 8.80400 24.92900
H  4.07800 9.14600 26.13400
H  8.14700 4.58500 23.21200
H  8.90400 1.53600 23.44400
H  5.79700 2.96700 23.36700
H  6.80600 1.95800 22.43500
H  6.55200 3.61100 21.80500
H  11.05600 3.21500 23.96700
H  10.26900 3.94900 22.62000
H  11.08600 2.37000 21.07200
H  10.65100 0.99300 22.02400
H  12.21200 1.90800 22.30000
H  12.30400 -0.18800 26.34000
H  11.46900 -1.64000 26.98800
H  12.71000 -0.88100 27.95400
H  11.71600 1.98600 31.89700
H  9.65600 -0.99400 34.38400
H  9.79800 0.57000 35.23600
H  11.11000 -0.55500 35.38200

