158

Mg 23.95800 -4.52500 45.78200
C  26.14200 -2.13900 44.26800
C  21.64600 -3.61700 43.58400
C  22.32800 -7.40300 46.53300
C  26.78800 -5.73300 47.58600
N  23.90300 -2.98300 44.13000
C  24.87200 -2.15100 43.65000
C  24.41100 -1.38100 42.40400
C  22.84900 -1.67100 42.45100
C  22.74900 -2.76600 43.50700
C  22.04600 -0.38300 42.93900
C  25.08600 -1.95200 41.11400
C  25.69400 -0.94000 40.16700
H  25.20500 -0.96300 38.72100
N  22.20900 -5.41900 45.12900
C  21.39400 -4.89800 44.21500
C  20.30500 -5.78500 43.95900
C  20.42400 -6.85200 44.93600
C  21.64300 -6.57100 45.63600
C  19.20100 -5.44100 43.03000
C  19.41900 -7.95200 45.08400
O  18.50400 -8.04300 44.24200
C  19.43700 -8.90400 46.29200
N  24.55500 -6.38900 46.88400
C  23.63400 -7.35700 47.09800
C  24.26800 -8.49500 47.86000
C  25.65200 -7.91600 48.35500
C  25.68600 -6.63800 47.52300
C  23.44100 -9.01200 49.11200
C  26.91000 -8.83200 48.10200
C  27.90400 -8.98700 49.31700
N  26.01900 -4.00200 45.98900
C  26.99900 -4.56000 46.82600
C  28.22400 -3.83700 46.60100
C  27.92700 -2.82800 45.64500
C  26.61600 -3.01700 45.23200
C  29.51400 -4.21800 47.27300
C  28.44500 -1.65600 44.97300
O  29.58500 -1.16300 45.05400
C  27.33700 -1.23400 44.01000
C  27.14200 0.20500 44.16000
O  26.36800 0.72100 44.95300
O  27.85800 0.92400 43.30400
C  27.43300 2.37700 43.23300
H  20.86400 -3.24700 42.91700
H  21.81400 -8.30900 46.85800
H  27.60400 -6.11800 48.20100
H  24.53800 -0.33000 42.66200
H  22.39700 -1.95600 41.50100
H  22.63700 0.52700 43.03800
H  21.54300 -0.57000 43.88800
H  21.38600 -0.24700 42.08200
H  24.40000 -2.55100 40.51500
H  25.94700 -2.55500 41.40300
H  26.77700 -1.06000 40.13200
H  25.46400 0.05800 40.54100
H  18.26700 -5.65800 43.55000
H  19.38200 -5.99400 42.10900
H  19.12600 -4.37400 42.82300
H  19.73300 -8.38600 47.20400
H  20.02700 -9.79600 46.07700
H  18.38400 -9.18200 46.34000
H  24.47200 -9.27900 47.13100
H  25.62300 -7.64000 49.40900
H  22.89000 -9.92800 48.89900
H  22.75000 -8.24400 49.45900
H  24.09600 -9.19600 49.96400
H  27.50600 -8.50900 47.24800
H  26.54300 -9.80900 47.78800
H  28.78200 -8.44700 48.96300
H  28.15200 -10.03400 49.49600
H  27.51700 -8.51100 50.21900
H  29.23100 -4.49600 48.28800
H  30.30300 -3.47200 47.18400
H  29.73100 -5.11400 46.69200
H  27.59200 -1.37900 42.96000
H  28.32300 3.00500 43.26900
H  26.73500 2.80800 43.95000
H  27.14500 2.35500 42.18200
Mg 9.57900 48.17500 25.40900
C  7.48800 48.20200 28.28300
C  12.17600 49.49400 27.25100
C  11.50700 47.90700 22.70200
C  6.56900 47.72000 23.44200
N  9.71200 48.85300 27.49600
C  8.83500 48.73600 28.55200
C  9.45700 49.16700 29.89900
C  10.71200 49.80400 29.42200
C  10.95600 49.32700 27.96200
C  10.80100 51.32200 29.51600
C  9.55000 48.09000 31.01300
C  9.12500 48.51900 32.38300
H  9.01200 47.44700 33.41800
N  11.57900 48.68400 25.02700
C  12.46700 49.11900 25.96900
C  13.80400 49.00200 25.35300
C  13.68200 48.49000 24.07100
C  12.20100 48.35500 23.86900
C  15.04400 49.44000 26.07100
C  14.81600 48.17900 23.06300
O  14.63600 47.85700 21.93100
C  16.17800 48.24300 23.53500
N  9.06600 47.97300 23.34200
C  10.10800 47.64800 22.47000
C  9.56500 47.13300 21.09500
C  8.01000 47.46400 21.30400
C  7.81600 47.79100 22.75900
C  10.18300 47.73100 19.81400
C  6.92300 46.59500 20.58900
C  5.94700 47.37300 19.73500
N  7.49800 47.85700 25.74000
C  6.39800 47.74300 24.86000
C  5.19300 47.56400 25.60700
C  5.64700 47.60300 26.92100
C  6.98700 47.88700 26.99800
C  3.78100 47.51500 24.96600
C  5.18400 47.45700 28.26000
O  4.07000 47.03600 28.62200
C  6.37300 47.91700 29.21000
C  6.46800 46.72900 30.11200
O  6.90200 45.62100 29.84700
O  5.87700 47.01400 31.31700
C  5.85900 46.07000 32.39300
H  12.97800 49.85100 27.90000
H  12.09300 47.65500 21.81600
H  5.61700 47.56500 22.93000
H  8.82100 49.90700 30.38400
H  11.52700 49.45000 30.05500
H  10.13700 51.77000 30.25500
H  10.60700 51.73000 28.52400
H  11.77100 51.76400 29.74500
H  10.59500 47.85100 31.21300
H  9.09900 47.20700 30.56100
H  8.08200 48.83600 32.38600
H  9.77500 49.36800 32.59200
H  14.74200 50.01200 26.94800
H  15.55300 50.18600 25.46100
H  15.77500 48.70000 26.39600
H  16.89100 47.65800 22.95300
H  16.31200 47.74700 24.49600
H  16.43500 49.30000 23.61300
H  9.57200 46.04800 20.99800
H  7.86400 48.44800 20.85700
H  10.84500 48.52900 20.14900
H  9.49100 48.08400 19.04900
H  10.81600 46.97400 19.35100
H  6.52500 45.87900 21.30800
H  7.29300 45.98000 19.76800
H  4.94500 46.96900 19.87700
H  6.13500 47.25100 18.66900
H  5.91900 48.43900 19.96100
H  2.95800 47.63200 25.67100
H  3.65900 46.68400 24.27100
H  3.72900 48.51800 24.54300
H  6.24100 48.86300 29.73500
H  4.81200 45.86600 32.61900
H  6.36400 46.54900 33.23100
H  6.42300 45.18100 32.10900

