158

Mg 31.22800 58.09200 40.43400
C  28.51200 56.12100 39.40300
C  33.28200 55.57600 39.34000
C  33.87300 60.10400 40.85400
C  28.99100 60.80400 40.60000
N  30.86700 56.08300 39.49100
C  29.70200 55.48300 39.12300
C  29.89800 54.25800 38.30500
C  31.40300 53.90200 38.59000
C  31.88800 55.26600 39.19900
C  31.57000 52.72300 39.55500
C  29.57700 54.58400 36.75900
C  28.45600 53.78900 35.99700
H  27.47000 54.58000 35.14500
N  33.31700 57.83400 40.32200
C  33.89300 56.77500 39.79800
C  35.35600 56.94100 39.86000
C  35.60000 58.23200 40.32000
C  34.26600 58.78300 40.62000
C  36.34600 55.88500 39.52200
C  36.97400 58.84800 40.58600
O  37.95300 58.24500 40.26500
C  37.11800 60.22600 41.06100
N  31.32200 60.12600 40.69400
C  32.57000 60.74500 40.93000
C  32.46500 62.26900 40.95800
C  30.89400 62.41400 41.07000
C  30.34900 61.05200 40.75900
C  33.18700 63.12900 42.00400
C  30.23400 63.45800 40.08300
C  29.22300 64.44300 40.82500
N  29.13500 58.42500 40.14300
C  28.35900 59.55900 40.28000
C  26.96800 59.28100 40.06500
C  26.96900 57.89800 39.76400
C  28.32200 57.43300 39.83500
C  25.77300 60.22800 40.14000
C  26.07900 56.76500 39.40100
O  24.91400 56.73000 39.22500
C  27.10300 55.55900 39.08300
C  26.65600 54.33100 39.78900
O  26.66100 54.20500 41.03800
O  26.27900 53.40200 38.91600
C  25.64200 52.24100 39.42500
H  33.79700 54.62100 39.21800
H  34.74700 60.73400 41.03300
H  28.23300 61.58500 40.69300
H  29.16600 53.52300 38.63800
H  31.95900 53.56400 37.71600
H  31.95400 52.95200 40.54900
H  32.21800 51.98200 39.08800
H  30.63800 52.15900 39.60100
H  30.55100 54.49800 36.27900
H  29.26100 55.62400 36.67400
H  27.99600 53.24300 36.82100
H  28.89100 53.00900 35.37200
H  37.02300 55.71800 40.35900
H  36.98900 56.11400 38.67200
H  35.85000 54.93100 39.34600
H  36.56900 60.30100 41.99900
H  36.77200 60.83700 40.22700
H  38.16600 60.50100 41.17800
H  32.75600 62.52300 39.93800
H  30.54900 62.70000 42.06400
H  33.51600 63.95400 41.37300
H  34.05200 62.54400 42.31600
H  32.64900 63.40000 42.91300
H  29.70500 63.14200 39.18400
H  30.96900 64.13000 39.64000
H  28.89200 64.05900 41.79000
H  28.29600 64.47300 40.25200
H  29.71900 65.38300 41.06800
H  25.00500 59.85700 39.46100
H  26.01500 61.24300 39.82400
H  25.39600 60.09700 41.15500
H  27.10900 55.42800 38.00100
H  24.69700 52.39000 39.94800
H  26.25300 51.70600 40.15200
H  25.44700 51.56000 38.59700
Mg 26.78800 50.26000 26.51700
C  24.65500 51.04700 29.24000
C  29.09500 49.37100 28.95500
C  28.77800 49.59200 24.13400
C  24.57600 51.85900 24.35900
N  26.72700 50.05000 28.88700
C  25.73100 50.42200 29.71300
C  26.19800 50.32500 31.14700
C  27.76700 50.05200 31.07600
C  27.93400 49.84600 29.54700
C  28.70900 51.06700 31.82600
C  25.36100 49.19800 31.82800
C  25.09500 49.34400 33.29400
H  25.97800 50.21800 34.21300
N  28.67400 49.41800 26.50400
C  29.43900 49.10700 27.59000
C  30.67200 48.57200 27.11900
C  30.64700 48.67500 25.70100
C  29.32100 49.18900 25.36000
C  31.79600 47.95700 28.07000
C  31.68300 48.31300 24.65700
O  31.50600 48.58200 23.51300
C  32.95700 47.60300 25.09900
N  26.75200 50.76200 24.55100
C  27.66900 50.31000 23.72900
C  27.29600 50.49900 22.30500
C  25.98500 51.30000 22.30600
C  25.76000 51.43400 23.82900
C  28.29300 51.25700 21.46200
C  24.84800 50.57200 21.56400
C  23.95500 51.57000 20.90000
N  24.98500 51.31400 26.66000
C  24.13100 51.84300 25.69500
C  22.96300 52.43600 26.31200
C  23.12100 52.12900 27.69800
C  24.36600 51.41200 27.85900
C  21.89800 53.20400 25.68500
C  22.54600 52.34300 29.02800
O  21.50500 52.83900 29.32500
C  23.43700 51.65300 30.09400
C  23.85300 52.77000 30.99900
O  24.75700 53.59300 30.83500
O  23.02300 52.68800 32.08200
C  23.21500 53.72900 33.13900
H  29.75400 49.09000 29.77900
H  29.40400 49.26900 23.30000
H  23.86700 52.31200 23.66300
H  26.08600 51.30100 31.62100
H  27.92300 49.06400 31.51000
H  29.09300 50.56500 32.71300
H  28.18800 51.97000 32.14400
H  29.52700 51.37000 31.17300
H  25.82600 48.22600 31.66500
H  24.34400 49.17100 31.43700
H  25.24400 48.34100 33.69200
H  24.05500 49.64900 33.41200
H  31.63100 46.88800 28.20600
H  31.67800 48.22700 29.12000
H  32.75000 48.28400 27.65800
H  33.71200 48.28100 25.49800
H  33.30000 47.25500 24.12500
H  32.79300 46.76000 25.77000
H  27.20700 49.50400 21.86800
H  26.14400 52.34300 22.03200
H  28.99700 51.63400 22.20300
H  27.91400 52.01200 20.77300
H  28.85700 50.55600 20.84600
H  24.28600 49.99000 22.29500
H  25.29000 49.92700 20.80500
H  22.98900 51.09000 20.74700
H  24.31500 51.82800 19.90400
H  23.77800 52.40300 21.58000
H  21.83600 54.20400 26.11300
H  20.92200 52.75800 25.87500
H  22.17700 53.22600 24.63100
H  22.85600 50.87700 30.59300
H  22.30400 53.65300 33.73300
H  23.38400 54.67900 32.63400
H  24.21300 53.63000 33.56400

