158

Mg 0.08600 7.35800 27.54100
C  1.15400 9.76900 29.93800
C  0.12500 5.06200 30.05100
C  -0.92000 5.18300 25.31200
C  0.43900 9.74200 25.10300
N  0.86000 7.42200 29.67900
C  1.04600 8.50500 30.47300
C  0.78700 8.04100 32.03800
C  0.98900 6.53000 31.96300
C  0.62100 6.31500 30.45800
C  2.27400 5.88600 32.58200
C  -0.65800 8.45500 32.62000
C  -0.79200 8.84800 34.12100
H  0.35300 8.32500 35.01000
N  -0.31200 5.38200 27.63000
C  -0.23600 4.58200 28.78100
C  -0.61900 3.27900 28.36100
C  -0.98500 3.29700 27.02600
C  -0.85600 4.67700 26.60400
C  -0.48700 2.11600 29.28700
C  -1.53900 2.10500 26.09800
O  -1.81100 2.15900 24.89700
C  -1.76100 0.79100 26.79600
N  -0.05200 7.42600 25.40100
C  -0.49800 6.39100 24.74300
C  -0.66000 6.63400 23.25800
C  -0.11300 8.05000 23.11100
C  0.13800 8.47600 24.63200
C  0.10100 5.53800 22.38300
C  -0.79400 9.17600 22.20900
C  -2.04800 9.70200 22.82900
N  0.80300 9.33100 27.43700
C  0.80400 10.16300 26.37900
C  1.36200 11.42600 26.79700
C  1.37000 11.36500 28.23600
C  1.08000 10.05400 28.59100
C  1.55700 12.61300 25.88900
C  1.66500 12.04800 29.50400
O  1.98600 13.24000 29.73600
C  1.33500 11.05300 30.65400
C  2.50400 10.98800 31.57700
O  3.68800 10.72500 31.24500
O  2.08000 11.42700 32.81000
C  3.05500 11.54000 33.89200
H  0.00400 4.44600 30.94500
H  -1.19400 4.40800 24.59300
H  0.40400 10.54100 24.35900
H  1.61700 8.45100 32.61300
H  0.13200 6.19200 32.54600
H  2.52200 6.62900 33.34000
H  3.12200 5.82900 31.90000
H  2.13200 5.00700 33.21200
H  -1.39700 7.72700 32.28400
H  -0.95500 9.31400 32.01900
H  -1.66200 8.31400 34.50200
H  -0.79000 9.93300 34.22900
H  -0.16600 1.16500 28.86300
H  -1.50200 1.86000 29.59200
H  -0.00000 2.24600 30.25400
H  -0.88500 0.27500 27.19000
H  -2.12700 0.04900 26.08700
H  -2.42300 0.86800 27.65800
H  -1.68800 6.60300 22.89800
H  0.88500 7.89400 22.70200
H  0.51800 6.00200 21.49000
H  -0.59500 4.79500 21.99300
H  0.89700 5.04300 22.93900
H  -0.94300 8.83500 21.18500
H  -0.17500 10.06600 22.09400
H  -1.92500 10.74700 23.11300
H  -2.39300 9.11700 23.68100
H  -2.86100 9.69400 22.10300
H  2.59000 12.96100 25.86600
H  0.91000 13.42000 26.23400
H  1.26000 12.37000 24.86900
H  0.46400 11.43500 31.18700
H  2.86100 10.91100 34.76100
H  3.06300 12.56900 34.25100
H  4.03700 11.27500 33.50100
Mg -9.84800 38.70900 40.12700
C  -8.94100 35.26800 39.20100
C  -6.58000 39.58100 39.21900
C  -10.80800 41.76600 40.27200
C  -12.96000 37.38000 40.89200
N  -7.98700 37.59800 39.19000
C  -7.90600 36.20100 38.91200
C  -6.49700 35.83400 38.54700
C  -5.69800 37.15900 38.74900
C  -6.75600 38.20700 39.15600
C  -4.51600 37.06500 39.86000
C  -6.31200 35.24700 37.05200
C  -6.78000 36.29000 36.00000
H  -7.71700 35.88200 34.82800
N  -8.80800 40.48100 39.88800
C  -7.47900 40.61700 39.50200
C  -7.23500 42.11100 39.30300
C  -8.50900 42.70100 39.58800
C  -9.41200 41.68700 40.04700
C  -5.93000 42.71900 38.78000
C  -8.79100 44.15000 39.42600
O  -7.99900 44.86000 38.83300
C  -10.09300 44.70400 39.84100
N  -11.70300 39.45200 40.30800
C  -11.87700 40.81100 40.44500
C  -13.36300 41.12200 40.55000
C  -13.92500 39.80000 41.17300
C  -12.85000 38.76900 40.75400
C  -13.74300 42.35900 41.46300
C  -15.31000 39.49400 40.64300
C  -16.32600 39.30200 41.75900
N  -10.84800 36.73200 40.00500
C  -12.08500 36.40200 40.46400
C  -12.28800 35.01300 40.47900
C  -11.10900 34.51700 39.79800
C  -10.27900 35.57200 39.64100
C  -13.51200 34.18100 40.91700
C  -10.44800 33.35300 39.33900
O  -10.82300 32.19200 39.34000
C  -9.01100 33.78500 38.78000
C  -7.95400 32.95600 39.40200
O  -7.84900 32.76600 40.63900
O  -7.06200 32.44300 38.51200
C  -6.01700 31.49700 38.99000
H  -5.58000 39.82000 38.85100
H  -11.25200 42.74100 40.48500
H  -13.89800 37.05100 41.34500
H  -6.05200 35.23000 39.33700
H  -5.23500 37.44300 37.80400
H  -3.57900 36.94000 39.31700
H  -4.65900 36.10700 40.35900
H  -4.50900 37.87100 40.59400
H  -6.80200 34.29100 36.87000
H  -5.25500 35.07000 36.85100
H  -5.90400 36.66100 35.46900
H  -7.24500 37.12300 36.52700
H  -5.12500 42.08600 39.15200
H  -5.73400 43.72800 39.14400
H  -5.91000 42.80200 37.69300
H  -10.28900 44.49100 40.89100
H  -10.81400 44.16000 39.23100
H  -10.15500 45.77200 39.63500
H  -13.79300 41.24800 39.55600
H  -13.91100 39.92700 42.25500
H  -14.13800 43.20900 40.90700
H  -12.88300 42.76700 41.99300
H  -14.48700 42.13300 42.22700
H  -15.24600 38.61900 39.99500
H  -15.63000 40.27000 39.94700
H  -17.18000 39.92200 41.48700
H  -16.10000 39.68000 42.75600
H  -16.73400 38.29200 41.76800
H  -13.53500 34.10600 42.00500
H  -13.54100 33.21400 40.41400
H  -14.33100 34.81200 40.57400
H  -8.99700 33.64200 37.70000
H  -6.24500 30.46100 38.74000
H  -5.82100 31.58600 40.05800
H  -5.11900 31.77400 38.43800

