158

Mg 1.06600 -3.08600 44.18700
C  4.25000 -2.13900 43.30700
C  -0.23800 -0.65000 42.12600
C  -2.12300 -4.28200 44.77900
C  2.32200 -6.03800 45.60900
N  1.88400 -1.60900 42.78400
C  3.27800 -1.41300 42.60000
C  3.54000 -0.11100 41.65100
C  2.05200 0.33200 41.44400
C  1.14900 -0.66400 42.14000
C  1.70400 1.83700 41.72900
C  4.19300 -0.49900 40.25800
C  5.49800 0.31100 39.98100
H  5.91500 0.50200 38.51200
N  -0.95300 -2.51600 43.58700
C  -1.21900 -1.37800 42.87800
C  -2.66600 -1.26200 42.76500
C  -3.25100 -2.37100 43.38800
C  -2.08000 -3.08200 43.97900
C  -3.26100 -0.21600 41.85000
C  -4.76400 -2.62900 43.41000
O  -5.54800 -1.94000 42.85100
C  -5.25300 -3.77500 44.02300
N  0.22700 -5.09000 44.81600
C  -1.11600 -5.18600 45.23400
C  -1.39400 -6.48600 45.95900
C  0.05500 -7.13100 46.03500
C  0.97400 -5.96800 45.57100
C  -2.12300 -6.40200 47.33100
C  0.11200 -8.38600 45.25800
C  -0.59600 -9.62300 45.79600
N  2.87600 -3.85100 44.66100
C  3.26600 -5.11500 45.16400
C  4.71800 -5.13500 45.23000
C  5.06800 -3.99100 44.55400
C  3.93800 -3.28000 44.19900
C  5.56800 -6.15700 45.91700
C  6.24000 -3.28000 44.10800
O  7.43500 -3.57400 44.14000
C  5.76700 -2.01200 43.32300
C  6.27200 -0.70700 43.81900
O  6.84600 0.10200 43.11300
O  5.79500 -0.53300 45.07600
C  6.13700 0.81100 45.58300
H  -0.63600 0.17600 41.53200
H  -3.12000 -4.60000 45.09100
H  2.83300 -6.80100 46.20000
H  4.20800 0.57500 42.17300
H  1.85700 0.21500 40.37800
H  0.77700 1.81000 42.30000
H  1.51500 2.30900 40.76500
H  2.43900 2.35600 42.34500
H  3.51900 -0.49900 39.40200
H  4.44800 -1.53600 40.47300
H  6.28900 -0.36000 40.31600
H  5.48000 1.15100 40.67500
H  -4.24700 0.08100 42.20700
H  -3.33400 -0.33300 40.76900
H  -2.72100 0.71500 42.02600
H  -4.78800 -3.63200 44.99900
H  -4.89100 -4.69600 43.56600
H  -6.33700 -3.87200 44.07700
H  -2.06800 -7.05700 45.32000
H  0.31900 -7.28900 47.08100
H  -1.70600 -7.16500 47.98900
H  -3.15900 -6.63400 47.08500
H  -2.11800 -5.38200 47.71500
H  1.16800 -8.65800 45.27200
H  -0.27200 -8.21900 44.25100
H  -1.31900 -10.02600 45.08600
H  -1.15000 -9.51600 46.72800
H  0.21600 -10.33300 45.95400
H  5.30100 -6.40300 46.94500
H  6.58700 -5.77200 45.95800
H  5.71000 -7.01300 45.25800
H  6.13800 -2.19700 42.31500
H  5.89800 0.85700 46.64600
H  5.55000 1.56800 45.06300
H  7.20000 0.97200 45.40100
Mg -0.34900 7.96400 26.24000
C  0.58400 10.01100 28.87500
C  -0.20000 5.30700 28.30500
C  -0.84700 6.02400 23.59000
C  0.16300 10.77300 24.00100
N  0.27400 7.71600 28.30000
C  0.32400 8.67200 29.22300
C  0.26000 8.12400 30.65300
C  0.40700 6.59000 30.45700
C  0.20400 6.52200 28.89300
C  1.68100 6.05200 31.00600
C  -1.16600 8.55900 31.17800
C  -1.25800 8.87200 32.68400
H  -0.10400 8.33000 33.54400
N  -0.44700 5.93900 25.97400
C  -0.54900 5.01000 26.95700
C  -1.00700 3.77000 26.38400
C  -1.16800 3.95600 25.01600
C  -0.75900 5.34200 24.82100
C  -1.14600 2.50100 27.24300
C  -1.65100 2.98400 23.79600
O  -1.63700 3.27300 22.62200
C  -1.83400 1.58300 24.17500
N  -0.26300 8.36700 24.15600
C  -0.70400 7.42300 23.28300
C  -0.91700 7.91000 21.86000
C  -0.55200 9.45700 22.03200
C  -0.22600 9.56000 23.49300
C  -0.02300 7.13000 20.84800
C  -1.80000 10.34600 21.69800
C  -2.76700 10.98400 22.80200
N  0.19800 9.96800 26.35200
C  0.42000 10.96400 25.40300
C  0.92100 12.16500 26.09100
C  1.00300 11.81700 27.46100
C  0.48900 10.55900 27.58000
C  1.30700 13.42800 25.44800
C  1.22700 12.34300 28.76700
O  1.63700 13.42800 29.17200
C  0.97600 11.21000 29.75400
C  2.25000 11.10600 30.52500
O  3.24400 10.58200 30.06900
O  2.12500 11.56600 31.77000
C  3.31800 11.57100 32.56900
H  -0.14500 4.43600 28.96100
H  -1.34200 5.52100 22.75700
H  0.09200 11.66600 23.37700
H  0.97400 8.74900 31.19100
H  -0.43700 6.08800 30.93000
H  2.17500 6.72000 31.71200
H  2.31300 5.71000 30.18700
H  1.35900 5.14700 31.52000
H  -1.82100 7.70100 31.02600
H  -1.61700 9.43600 30.71300
H  -2.27200 8.57200 32.94800
H  -1.16300 9.95400 32.76700
H  -2.20200 2.23100 27.22200
H  -0.89900 2.60900 28.29900
H  -0.67200 1.61200 26.82800
H  -0.90200 1.08900 23.90100
H  -2.61700 1.12800 23.56800
H  -2.09400 1.50200 25.23100
H  -1.96700 7.66100 21.70300
H  0.38800 9.73500 21.55400
H  0.32300 6.27900 21.43400
H  0.88600 7.67900 20.60200
H  -0.55700 6.87000 19.93300
H  -2.46800 9.89200 20.96600
H  -1.39100 11.09300 21.01700
H  -3.80400 10.80900 22.51500
H  -2.75800 12.07400 22.81800
H  -2.68700 10.59400 23.81700
H  0.62100 14.25600 25.63200
H  1.45900 13.27900 24.37900
H  2.29200 13.73600 25.79800
H  0.14600 11.44400 30.42100
H  3.82700 12.53500 32.56400
H  4.09300 10.87300 32.25200
H  3.01400 11.35400 33.59300

