158

Mg 46.31900 24.56600 28.76800
C  47.49000 26.68300 31.29200
C  45.25000 22.42600 31.27900
C  45.98300 22.16500 26.47500
C  47.99000 26.56800 26.43800
N  46.26600 24.61500 30.93600
C  46.60300 25.71600 31.67800
C  46.02700 25.56400 33.11900
C  45.58300 24.03100 33.24500
C  45.70700 23.63800 31.78900
C  46.56600 23.18400 34.12800
C  44.92000 26.62700 33.42000
C  45.01500 27.38300 34.80800
H  45.82300 26.81200 36.02800
N  45.61400 22.57800 28.85300
C  45.16400 21.92000 30.00000
C  44.51800 20.69400 29.59500
C  44.71200 20.59700 28.12700
C  45.47800 21.84000 27.75000
C  43.72600 19.81000 30.65600
C  44.30700 19.52700 27.16000
O  44.52200 19.68000 25.90700
C  43.52900 18.25300 27.53900
N  46.95500 24.41100 26.78800
C  46.53700 23.32700 26.01900
C  46.89200 23.49800 24.58700
C  47.59700 24.93600 24.55300
C  47.46000 25.38600 25.96000
C  47.66300 22.37800 23.96400
C  46.70800 25.92400 23.69200
C  47.44900 26.85800 22.68000
N  47.44900 26.35900 28.81900
C  47.97500 27.04500 27.73400
C  48.55900 28.34300 28.25700
C  48.39800 28.27100 29.66400
C  47.74500 27.02200 29.92200
C  49.29400 29.35700 27.41600
C  48.59500 28.89800 30.97800
O  49.19100 29.96100 31.38400
C  47.99800 27.93400 32.05500
C  49.06600 27.72000 33.02800
O  50.01500 27.01300 32.82900
O  48.79500 28.42600 34.18200
C  49.89200 28.69100 35.07000
H  44.92700 21.68000 32.00900
H  45.88800 21.36800 25.73400
H  48.38700 27.18800 25.63100
H  46.78300 25.85400 33.84900
H  44.57000 23.97400 33.64300
H  47.07900 23.81800 34.85100
H  47.39000 22.66100 33.64300
H  45.96900 22.52100 34.75300
H  43.92400 26.18500 33.38900
H  44.95600 27.40400 32.65700
H  44.01800 27.40200 35.24900
H  45.37500 28.37900 34.55200
H  42.69100 19.69100 30.33600
H  43.65700 20.21600 31.66500
H  44.08400 18.80000 30.85800
H  43.16900 18.24400 28.56800
H  44.09800 17.33900 27.36800
H  42.62000 18.22200 26.93800
H  45.94800 23.52200 24.04200
H  48.62600 24.88500 24.19700
H  47.71400 21.51200 24.62400
H  48.67600 22.69100 23.71200
H  47.22800 22.19600 22.98100
H  46.23100 26.63700 24.36500
H  46.00300 25.28700 23.15700
H  48.21900 26.29100 22.15700
H  47.98900 27.67500 23.15800
H  46.64800 27.24600 22.05100
H  49.45000 30.20100 28.08800
H  48.57300 29.61900 26.64200
H  50.18000 28.80600 27.10300
H  47.25300 28.58200 32.51700
H  50.79200 28.11300 34.85600
H  49.59600 28.54500 36.10900
H  50.10200 29.75200 34.93700
Mg 27.10500 50.23800 26.66500
C  25.12800 51.29600 29.23200
C  29.58300 49.57200 28.88800
C  29.16100 49.57600 23.99900
C  24.73900 51.46900 24.39500
N  27.30600 50.30300 28.83300
C  26.36200 50.74700 29.64800
C  26.79100 50.55800 31.18000
C  28.31800 50.24400 31.10800
C  28.45300 50.02700 29.59300
C  29.16300 51.40500 31.75100
C  25.90700 49.46500 31.90300
C  25.17900 50.01200 33.15900
H  24.99400 49.05500 34.38000
N  29.00100 49.50200 26.48700
C  29.84400 49.30000 27.53000
C  31.01300 48.60900 26.99900
C  30.97200 48.71700 25.61400
C  29.69900 49.26600 25.29100
C  31.99000 47.91700 27.93200
C  32.04800 48.34500 24.59500
O  32.00200 48.75000 23.44100
C  33.30700 47.70900 25.09300
N  26.91400 50.37800 24.53700
C  27.88000 50.10400 23.63400
C  27.35500 50.19700 22.16400
C  25.86700 50.57400 22.33800
C  25.81000 50.84100 23.83700
C  28.21100 50.97500 21.15200
C  24.78600 49.57500 21.78800
C  24.08700 49.99800 20.47400
N  25.42600 51.34200 26.72800
C  24.53700 51.68400 25.75100
C  23.34700 52.31800 26.33500
C  23.52800 52.18400 27.69800
C  24.84800 51.58200 27.91300
C  22.10600 52.80700 25.55600
C  22.94200 52.35500 28.98800
O  21.85900 52.86000 29.30900
C  23.89100 51.83700 30.05300
C  24.34800 52.96500 30.94400
O  25.36300 53.63500 30.74300
O  23.46900 53.04200 32.04300
C  23.77400 54.20000 32.97100
H  30.40400 49.30800 29.55800
H  29.71000 49.30400 23.09500
H  23.88100 51.75600 23.78400
H  26.68700 51.52300 31.67500
H  28.42200 49.37500 31.75700
H  29.74600 50.97000 32.56300
H  28.55400 52.24700 32.07600
H  29.94500 51.61000 31.01900
H  26.49000 48.62800 32.28500
H  25.06900 49.17800 31.26700
H  24.21400 50.40700 32.84100
H  25.68500 50.88900 33.56200
H  32.98100 48.36900 27.89200
H  32.23500 46.88300 27.68600
H  31.70400 47.95500 28.98300
H  33.89800 47.45000 24.21500
H  33.04500 46.82200 25.67100
H  33.81700 48.40800 25.75600
H  27.49200 49.14900 21.89800
H  25.81300 51.49800 21.76200
H  29.04100 51.48900 21.63700
H  27.76800 51.74300 20.51800
H  28.51400 50.26200 20.38400
H  24.08800 49.33700 22.59100
H  25.31600 48.67100 21.48600
H  23.98700 49.18200 19.75800
H  24.53100 50.85900 19.97500
H  23.08800 50.33900 20.74600
H  22.02700 53.88100 25.72500
H  21.15300 52.35400 25.82900
H  22.18800 52.65200 24.48100
H  23.50600 51.00200 30.63900
H  23.57900 53.85100 33.98500
H  23.20600 55.09500 32.71900
H  24.83600 54.44200 33.01800

