158

Mg 8.30400 3.20900 27.39500
C  9.47200 1.71700 30.32100
C  6.44400 5.35500 29.27000
C  6.85600 4.42200 24.59500
C  9.75700 0.74400 25.48100
N  7.91800 3.36800 29.63700
C  8.62100 2.80800 30.61200
C  8.48800 3.62900 31.96900
C  7.40500 4.72500 31.57100
C  7.28700 4.45900 30.05700
C  6.07800 4.73100 32.45800
C  9.76400 4.27800 32.46500
C  9.55300 4.85100 33.89600
H  10.48800 4.49700 35.09900
N  6.87200 4.74300 27.01200
C  6.25400 5.54800 27.87500
C  5.41900 6.53200 27.23100
C  5.47700 6.22000 25.82500
C  6.47500 5.08700 25.77400
C  4.57600 7.58900 27.94700
C  4.90700 6.84500 24.57600
O  5.21300 6.52700 23.41900
C  4.04800 8.12200 24.78000
N  8.36700 2.70800 25.30200
C  7.69400 3.36600 24.31700
C  8.20700 2.87100 22.94100
C  9.01600 1.60800 23.30300
C  9.08600 1.73400 24.79500
C  7.04200 2.56000 21.88200
C  10.33400 1.66500 22.41100
C  10.17100 1.19000 20.94600
N  9.36300 1.53200 27.75400
C  9.87800 0.55800 26.88200
C  10.66400 -0.37600 27.62200
C  10.61300 0.12700 28.97700
C  9.71300 1.18000 28.98500
C  11.49900 -1.56600 27.14700
C  11.13200 0.01900 30.31800
O  12.07400 -0.67100 30.73800
C  10.48100 1.05100 31.22700
C  9.92100 0.52100 32.51200
O  8.78200 0.18600 32.66100
O  10.79900 0.72100 33.58400
C  10.32400 0.48300 34.93800
H  6.05300 6.16600 29.88800
H  6.66200 4.98700 23.68200
H  10.21900 0.04200 24.78400
H  8.07000 3.10700 32.83000
H  7.97500 5.64600 31.69400
H  5.20000 4.73000 31.81100
H  6.32200 5.68700 32.91900
H  6.07500 4.00500 33.27100
H  10.09300 5.06900 31.79200
H  10.50900 3.48400 32.52800
H  8.52300 4.68400 34.20900
H  9.68500 5.92800 33.79400
H  4.98500 8.53300 27.58800
H  4.73700 7.76300 29.01100
H  3.51100 7.67300 27.73200
H  4.56500 8.94500 25.27300
H  3.21200 7.79700 25.40000
H  3.72100 8.58300 23.84700
H  8.89600 3.56700 22.46400
H  8.50600 0.67100 23.08100
H  6.93900 1.51200 21.60300
H  7.01300 3.09500 20.93200
H  6.13900 2.80200 22.44200
H  11.16600 1.12800 22.86700
H  10.71700 2.68300 22.35400
H  9.29200 1.69400 20.54400
H  10.02600 0.11100 20.99300
H  11.14100 1.35400 20.47600
H  11.60200 -1.61800 26.06300
H  11.11500 -2.52100 27.50500
H  12.50500 -1.38900 27.52600
H  11.34000 1.69100 31.43100
H  9.56100 1.25200 35.05800
H  11.15200 0.83400 35.55500
H  10.07400 -0.50900 35.31300
Mg -5.34900 24.95300 26.12400
C  -3.98900 26.29300 29.12400
C  -6.93000 22.69100 28.06800
C  -6.48100 23.63700 23.34900
C  -3.02900 26.76400 24.34400
N  -5.53200 24.61200 28.40000
C  -4.91200 25.24000 29.38200
C  -5.41700 24.84400 30.73600
C  -6.18700 23.52200 30.42800
C  -6.26700 23.56300 28.88600
C  -5.62900 22.19700 31.06200
C  -6.25500 25.92700 31.47900
C  -5.86400 26.31500 32.86600
H  -5.01600 25.30100 33.76700
N  -6.64000 23.47100 25.74100
C  -7.24300 22.73700 26.70100
C  -8.37100 21.99000 26.12100
C  -8.18400 22.11700 24.72200
C  -7.04500 23.09500 24.53600
C  -9.35900 21.29300 27.03500
C  -8.95100 21.36600 23.63400
O  -8.84100 21.69700 22.45400
C  -9.63400 20.10900 23.99700
N  -4.74900 25.06500 24.06300
C  -5.36900 24.40700 23.08200
C  -4.84000 24.70700 21.63800
C  -3.62100 25.69000 22.04600
C  -3.86200 25.92600 23.56500
C  -4.37900 23.44200 20.91300
C  -3.72400 27.00600 21.14600
C  -2.54500 27.39800 20.13900
N  -3.85500 26.28200 26.63800
C  -2.95100 27.01500 25.75700
C  -2.13300 27.91100 26.53900
C  -2.50600 27.64200 27.87100
C  -3.49700 26.63500 27.90000
C  -1.09100 28.82700 26.02300
C  -2.23500 28.05500 29.26900
O  -1.48600 28.95400 29.74500
C  -3.11200 27.09500 30.17800
C  -2.05200 26.24700 30.81800
O  -1.57900 25.20500 30.43600
O  -1.67800 26.82900 31.95300
C  -0.47200 26.23900 32.61700
H  -7.34900 21.86800 28.65100
H  -6.97200 23.25500 22.45200
H  -2.27500 27.32600 23.78800
H  -4.54800 24.66200 31.36800
H  -7.18900 23.68700 30.82500
H  -5.26700 21.60000 30.22500
H  -6.31800 21.56900 31.62700
H  -4.79700 22.36400 31.74500
H  -7.20800 25.42000 31.62400
H  -6.36700 26.73100 30.75100
H  -6.78000 26.51200 33.42300
H  -5.25300 27.21600 32.81400
H  -9.55400 21.74300 28.00800
H  -9.22800 20.21400 26.95100
H  -10.27000 21.50200 26.47300
H  -10.64500 20.09400 24.40300
H  -8.90200 19.68200 24.68200
H  -9.72700 19.48500 23.10800
H  -5.59800 25.32300 21.15500
H  -2.68200 25.15900 21.88900
H  -3.32700 23.20600 21.07400
H  -4.55000 23.50800 19.83900
H  -4.90300 22.54900 21.25500
H  -3.79400 27.75500 21.93400
H  -4.65600 26.95300 20.58300
H  -2.87800 27.10700 19.14300
H  -1.64800 26.80500 20.32000
H  -2.34900 28.45700 20.31000
H  -1.50100 29.51400 25.28300
H  -0.39000 28.19200 25.48000
H  -0.74800 29.42600 26.86600
H  -3.71800 27.55300 30.96000
H  0.40700 26.73900 32.21100
H  -0.47900 25.15700 32.48000
H  -0.47700 26.40500 33.69400

