158

Mg -1.06400 17.73700 26.49500
C  -1.42600 15.70200 29.38100
C  -1.93700 20.49600 28.45100
C  -1.39800 19.55200 23.70700
C  -0.64400 14.84800 24.64100
N  -1.56200 18.02500 28.69400
C  -1.69100 17.06900 29.69700
C  -1.98800 17.67400 31.03900
C  -2.21000 19.24700 30.73700
C  -1.87900 19.30100 29.19100
C  -3.53600 19.83800 31.14600
C  -0.94300 17.37500 32.19600
C  -1.05700 18.23200 33.54600
H  -0.79600 17.44100 34.85400
N  -1.48500 19.75500 26.15200
C  -1.67100 20.78200 27.06900
C  -1.77000 22.08000 26.40700
C  -1.68400 21.81300 25.03500
C  -1.48000 20.34300 24.89300
C  -2.00700 23.37400 27.24100
C  -1.86200 22.81400 23.95900
O  -1.96900 22.49600 22.80900
C  -1.90100 24.25500 24.24500
N  -1.23600 17.21000 24.45400
C  -1.29000 18.18500 23.44500
C  -0.98400 17.56600 22.11300
C  -0.47400 16.07400 22.50200
C  -0.76100 16.02700 23.97700
C  -2.16300 17.55800 21.07600
C  0.96000 15.67400 22.13300
C  2.10100 16.57200 22.56100
N  -0.97500 15.72100 26.87300
C  -0.84500 14.66200 25.99400
C  -0.86600 13.40300 26.69900
C  -0.99400 13.79500 28.01800
C  -1.14900 15.17700 28.09800
C  -0.63600 11.92600 26.12500
C  -0.91600 13.27500 29.35600
O  -0.60100 12.14900 29.79800
C  -1.21300 14.51000 30.34700
C  -0.03200 14.40300 31.33300
O  1.14400 14.65100 31.08300
O  -0.49700 13.75500 32.44800
C  0.58800 13.50500 33.41400
H  -2.23600 21.36500 29.04100
H  -1.37700 20.11400 22.77100
H  -0.32800 13.95200 24.10100
H  -2.85300 17.15600 31.45600
H  -1.38900 19.71000 31.28500
H  -4.00700 20.65800 30.60400
H  -3.29500 20.28100 32.11200
H  -4.30700 19.06800 31.14400
H  0.03600 17.38800 31.71700
H  -1.25300 16.37600 32.50000
H  -2.01800 18.74300 33.59900
H  -0.19800 18.89100 33.41700
H  -1.26000 24.13000 27.00000
H  -1.94400 23.24800 28.32200
H  -3.01000 23.69900 26.96700
H  -2.85300 24.51400 24.70900
H  -1.87400 24.78700 23.29400
H  -0.95700 24.46000 24.75100
H  -0.15700 18.09900 21.64300
H  -1.11500 15.39300 21.94200
H  -2.97000 18.05600 21.61500
H  -2.42800 16.54300 20.78000
H  -1.90500 17.98100 20.10500
H  0.89100 15.54300 21.05300
H  1.10900 14.69600 22.59100
H  1.83500 17.32400 23.30400
H  2.49100 17.11900 21.70200
H  2.94600 16.07400 23.03500
H  0.21300 11.97400 25.44300
H  -1.53200 11.43000 25.75000
H  -0.33900 11.41900 27.04300
H  -2.17000 14.39600 30.85500
H  1.21400 12.65900 33.13000
H  0.12800 13.33600 34.38800
H  1.13100 14.42100 33.64400
Mg 24.81200 -8.98000 46.28700
C  27.10800 -6.77300 44.74400
C  22.25800 -7.78200 44.33900
C  22.95600 -11.65700 47.19500
C  27.68900 -10.75000 47.46100
N  24.72100 -7.54800 44.62500
C  25.74400 -6.64300 44.34300
C  25.21900 -5.66600 43.28800
C  23.70800 -6.00400 43.23600
C  23.52700 -7.15500 44.13400
C  22.89800 -4.79000 43.86300
C  25.99800 -5.91000 42.01900
C  26.33700 -4.62700 41.18700
H  25.69800 -4.58400 39.71600
N  22.82600 -9.56900 45.83300
C  21.92000 -8.94800 45.04900
C  20.68100 -9.61600 45.11900
C  20.91100 -10.84100 45.83700
C  22.28900 -10.70400 46.41300
C  19.45900 -9.10300 44.39000
C  19.95500 -12.04100 46.02700
O  18.84100 -11.99800 45.48700
C  20.24800 -13.26300 46.82700
N  25.25100 -10.88400 47.13400
C  24.31400 -11.80100 47.58900
C  24.92000 -13.08300 48.23700
C  26.42400 -12.79800 48.09700
C  26.50000 -11.40600 47.46300
C  24.49100 -13.36300 49.71900
C  27.25000 -13.81600 47.28600
C  28.72900 -13.99900 47.85000
N  26.88500 -8.75800 46.34800
C  27.89900 -9.52800 46.88300
C  29.20200 -8.84100 46.69000
C  28.87300 -7.71500 46.00300
C  27.50600 -7.76000 45.70100
C  30.49200 -9.44600 47.19600
C  29.50700 -6.49800 45.49700
O  30.65200 -6.07700 45.52700
C  28.30300 -5.79200 44.62200
C  27.99300 -4.54100 45.38200
O  28.43900 -3.41600 45.07000
O  27.19700 -4.76100 46.54200
C  26.81300 -3.56500 47.33700
H  21.49600 -7.27000 43.74800
H  22.44800 -12.41700 47.79200
H  28.59800 -11.27000 47.76800
H  25.38700 -4.69500 43.75500
H  23.25000 -6.33000 42.30200
H  22.04800 -4.51000 43.24100
H  23.50400 -3.88400 43.91000
H  22.44600 -5.06900 44.81400
H  25.38400 -6.48900 41.32900
H  26.95000 -6.42200 42.16000
H  27.38700 -4.33600 41.17800
H  25.91100 -3.78000 41.72500
H  19.39200 -9.57300 43.40900
H  19.44500 -8.02500 44.22700
H  18.59900 -9.34100 45.01500
H  20.42900 -12.87500 47.83000
H  21.10200 -13.74600 46.35200
H  19.41100 -13.96000 46.80600
H  24.55200 -13.89300 47.60600
H  26.86800 -12.59400 49.07100
H  24.09100 -14.37500 49.78900
H  23.69000 -12.66600 49.96400
H  25.19800 -13.19600 50.53100
H  27.26900 -13.51800 46.23800
H  26.70200 -14.75400 47.37500
H  29.44200 -13.39800 47.28600
H  28.97800 -15.05200 47.71100
H  28.92500 -13.64400 48.86200
H  30.63300 -10.36800 46.63300
H  30.53900 -9.59200 48.27500
H  31.22200 -8.68600 46.91400
H  28.57600 -5.54300 43.59700
H  27.69300 -3.05800 47.73200
H  26.26000 -3.94700 48.19600
H  26.21500 -2.91900 46.69500

