158

Mg 47.83200 15.29900 27.61100
C  45.68500 15.20200 30.28600
C  49.81400 17.53600 29.21100
C  49.64100 15.37500 24.85500
C  45.24800 13.40900 25.86600
N  47.73000 16.31500 29.38300
C  46.86500 15.92100 30.47300
C  47.29300 16.57000 31.84300
C  48.46700 17.54300 31.31700
C  48.66300 17.21400 29.87500
C  48.17700 19.05700 31.61700
C  47.80000 15.41900 32.83400
C  47.50200 15.67100 34.34200
H  48.82900 16.07000 35.08000
N  49.50800 16.26800 27.12900
C  50.23400 17.08000 27.95700
C  51.49600 17.24300 27.31300
C  51.51900 16.55200 26.08600
C  50.20100 16.02800 25.97700
C  52.68800 18.09800 27.95100
C  52.54700 16.39100 25.06200
O  52.41400 15.76000 24.02900
C  53.91400 17.02900 25.30400
N  47.47900 14.58500 25.66700
C  48.39100 14.76100 24.69800
C  47.85000 14.41900 23.34800
C  46.71200 13.39300 23.74400
C  46.40400 13.76500 25.23100
C  47.34900 15.59400 22.56100
C  47.05000 11.89800 23.48100
C  47.35000 11.10100 24.70400
N  45.79700 14.43800 27.93000
C  44.92000 13.69800 27.18000
C  43.85200 13.28600 27.98100
C  44.06000 13.82100 29.30400
C  45.27300 14.53200 29.15000
C  42.67400 12.46700 27.50500
C  43.62300 13.99500 30.66700
O  42.63200 13.52300 31.18600
C  44.61100 14.92900 31.37800
C  43.80000 16.05900 31.94600
O  43.72500 17.20200 31.41900
O  43.21400 15.69000 33.17800
C  42.71600 16.83600 33.99700
H  50.54300 18.12500 29.77100
H  50.18900 15.38700 23.91100
H  44.58400 12.73200 25.32400
H  46.45200 17.07900 32.31500
H  49.34600 17.26100 31.89600
H  48.34700 19.73100 30.77800
H  48.80700 19.33600 32.46100
H  47.17100 19.30200 31.95800
H  48.88300 15.29800 32.84600
H  47.42200 14.44800 32.51400
H  47.14600 14.76500 34.83400
H  46.80800 16.50700 34.42500
H  53.63600 17.58700 27.78200
H  52.62600 18.28100 29.02400
H  52.75800 19.10800 27.54800
H  53.81600 18.08400 25.56300
H  54.62700 16.90800 24.48900
H  54.27500 16.41600 26.12900
H  48.54700 13.82000 22.76400
H  45.87200 13.66400 23.10500
H  46.29200 15.75100 22.77200
H  47.40600 15.51700 21.47600
H  47.86700 16.51100 22.84400
H  47.77800 11.77700 22.67900
H  46.17400 11.41400 23.04800
H  47.71000 10.10900 24.43200
H  46.48500 11.08000 25.36700
H  48.12600 11.67600 25.20800
H  42.12100 12.01700 28.33000
H  42.91200 11.73300 26.73600
H  42.11800 13.28100 27.04000
H  45.00300 14.32500 32.19700
H  41.62800 16.78000 34.02900
H  43.00700 17.83900 33.68500
H  43.09500 16.66500 35.00500
Mg 8.48200 47.95800 27.88500
C  6.91900 46.92100 30.82200
C  11.33300 48.28600 29.56200
C  9.88200 49.02700 24.94000
C  5.39300 47.86300 26.24100
N  8.92500 47.82100 29.99000
C  8.15300 47.30900 31.03300
C  8.89700 47.35700 32.33100
C  10.28700 48.08800 31.84200
C  10.20700 48.00600 30.35200
C  10.53500 49.53600 32.28800
C  9.17100 46.04800 33.07100
C  9.07700 46.16500 34.60500
H  9.89000 45.23300 35.50400
N  10.38200 48.35600 27.35800
C  11.43400 48.44000 28.17800
C  12.62300 48.77100 27.40300
C  12.25300 48.99500 26.07300
C  10.74600 48.79100 26.04000
C  13.95600 48.85500 27.99200
C  13.08200 49.37800 24.89300
O  12.62300 49.54400 23.76400
C  14.64900 49.44800 25.06400
N  7.71800 48.45400 25.90200
C  8.52200 48.91100 24.88900
C  7.68400 49.23300 23.62500
C  6.31500 48.55400 23.97600
C  6.48100 48.22100 25.43700
C  7.71300 50.76900 23.19600
C  5.94400 47.30200 23.11700
C  6.98400 46.19700 22.91400
N  6.51600 47.60500 28.39200
C  5.38500 47.51600 27.62500
C  4.22500 47.10400 28.43200
C  4.73900 46.86500 29.68200
C  6.16000 47.11500 29.60100
C  2.86900 46.93700 27.94100
C  4.39200 46.49000 31.00000
O  3.35200 46.32300 31.52600
C  5.76400 46.54200 31.80400
C  5.87400 45.17200 32.36900
O  6.25700 44.12500 31.83700
O  5.55600 45.27700 33.71100
C  5.79100 44.04800 34.57000
H  12.17300 48.37600 30.25300
H  10.28400 49.29200 23.96100
H  4.42400 47.57800 25.82700
H  8.29100 47.98900 32.98000
H  11.13700 47.54600 32.25600
H  10.43700 50.24000 31.46100
H  11.57600 49.64600 32.59000
H  9.87000 49.91000 33.06700
H  10.11100 45.54900 32.83900
H  8.43800 45.27000 32.85900
H  8.03100 46.06900 34.89800
H  9.38700 47.18900 34.81300
H  14.42000 47.99500 27.50800
H  13.94200 48.66700 29.06500
H  14.35500 49.83000 27.71300
H  14.87400 50.21500 25.80600
H  15.06000 49.72700 24.09400
H  15.08300 48.47200 25.28300
H  8.14000 48.62900 22.84000
H  5.52800 49.29600 23.84000
H  8.31600 50.77400 22.28800
H  8.28900 51.35500 23.91200
H  6.78900 51.29100 22.94600
H  5.56500 47.59600 22.13800
H  5.07800 46.86300 23.61200
H  7.25800 46.22400 21.86000
H  6.47200 45.23800 22.99600
H  7.76500 46.29600 23.66800
H  2.24300 46.47300 28.70300
H  2.83100 46.25100 27.09600
H  2.36200 47.85900 27.65800
H  5.66000 47.35600 32.52200
H  5.25100 43.14400 34.28800
H  5.45700 44.17500 35.60000
H  6.82600 43.72800 34.68900

