158

Mg 48.13200 15.54800 28.79500
C  45.91000 15.41300 31.58400
C  50.08100 17.66400 30.69800
C  50.01300 15.92700 26.21400
C  45.54500 14.10800 26.90400
N  47.97400 16.28600 30.91000
C  47.09000 16.11600 31.84200
C  47.47900 16.80200 33.17600
C  48.59000 17.75500 32.71800
C  48.92800 17.19500 31.30200
C  48.19300 19.22500 32.91800
C  47.91400 15.61000 34.10800
C  47.68000 15.86600 35.64200
H  47.65200 17.21800 36.38700
N  49.88900 16.50700 28.53500
C  50.59300 17.22600 29.40400
C  51.80400 17.72600 28.76600
C  51.86900 17.09500 27.46900
C  50.54900 16.42600 27.37200
C  52.77100 18.69800 29.44300
C  53.00100 17.24500 26.43900
O  52.96100 16.61100 25.35600
C  54.27900 17.85900 26.83800
N  47.74000 15.24900 26.80900
C  48.74700 15.36700 25.96000
C  48.42900 14.82300 24.51300
C  46.96200 14.40100 24.70300
C  46.69700 14.54400 26.19300
C  48.56700 15.88800 23.43800
C  46.87800 13.01800 24.07500
C  47.50200 11.84400 24.87600
N  46.14400 14.88000 29.12100
C  45.28500 14.20400 28.26800
C  44.05200 13.91300 28.96400
C  44.29100 14.28600 30.27400
C  45.56000 14.91400 30.34600
C  42.76400 13.26100 28.40700
C  43.70400 14.27100 31.58300
O  42.58500 13.90900 31.92800
C  44.75000 14.99900 32.47200
C  44.10700 16.11800 33.16200
O  43.77900 17.16000 32.61800
O  43.81900 15.72000 34.43100
C  42.86100 16.60100 35.12100
H  50.60300 18.45600 31.23900
H  50.70000 15.87100 25.36700
H  44.84000 13.49200 26.34200
H  46.60700 17.29500 33.60500
H  49.55400 17.61700 33.20800
H  47.17600 19.29600 33.30300
H  48.20000 19.74500 31.96000
H  48.89100 19.72100 33.59200
H  48.96900 15.45200 33.88400
H  47.47000 14.65100 33.84000
H  48.46900 15.30600 36.14400
H  46.76900 15.46000 36.08200
H  53.02000 19.46600 28.71100
H  53.54700 17.95600 29.63200
H  52.45200 19.01800 30.43500
H  55.03500 17.77900 26.05700
H  54.66700 17.24000 27.64700
H  54.32400 18.90400 27.14600
H  49.16900 14.05900 24.27300
H  46.21000 15.04300 24.24300
H  49.63800 16.07700 23.37300
H  48.17700 16.88100 23.66500
H  48.10800 15.49000 22.53300
H  47.35300 13.01100 23.09400
H  45.81000 12.89800 23.89300
H  46.74100 11.09700 25.10300
H  47.95500 12.17300 25.81100
H  48.30000 11.40400 24.27800
H  42.31400 12.82400 29.29800
H  43.02500 12.50500 27.66600
H  42.10900 14.05400 28.04500
H  45.08400 14.21500 33.15200
H  43.40200 17.31700 35.74000
H  42.40000 15.95600 35.86900
H  42.02800 17.04400 34.57600
Mg 26.49000 50.04300 26.93000
C  24.44900 51.49100 29.46300
C  28.46200 48.82300 29.39700
C  28.74200 49.24300 24.54900
C  24.59700 51.84600 24.58600
N  26.41700 50.14600 29.21200
C  25.47100 50.75000 30.01500
C  25.64100 50.30400 31.55500
C  27.07000 49.56700 31.40900
C  27.35600 49.49900 29.94300
C  28.18300 50.17700 32.27000
C  24.43200 49.48700 32.15500
C  24.00600 49.93200 33.62900
H  25.04300 50.55700 34.52200
N  28.27600 49.09000 26.97500
C  28.93200 48.65900 28.09300
C  30.06400 47.93300 27.66300
C  30.15600 47.95000 26.25500
C  29.07200 48.78700 25.78800
C  31.05500 47.33000 28.59100
C  31.14300 47.28700 25.31300
O  31.02300 47.31900 24.13100
C  32.30600 46.54200 25.81800
N  26.60300 50.47500 24.86100
C  27.67000 49.99600 24.09500
C  27.47800 50.23000 22.58100
C  26.14300 51.15100 22.61600
C  25.72300 51.12900 24.09700
C  28.62700 50.92400 21.93600
C  25.02800 50.43500 21.74100
C  23.96400 49.52400 22.38700
N  24.84100 51.30900 26.93800
C  24.09100 51.88800 25.88400
C  22.88000 52.54300 26.41500
C  23.02500 52.40200 27.75200
C  24.23400 51.74600 28.06600
C  21.74100 53.25400 25.71300
C  22.38800 52.75400 29.00500
O  21.31500 53.33100 29.23700
C  23.29600 52.15300 30.16700
C  23.55900 53.26900 31.09900
O  24.23600 54.25100 30.81300
O  22.84700 53.08200 32.20800
C  22.78700 54.05900 33.24800
H  29.11500 48.33900 30.12600
H  29.37000 49.01900 23.68400
H  23.92800 52.37200 23.90100
H  25.79900 51.22700 32.11200
H  27.03400 48.54100 31.77500
H  28.88300 50.80400 31.71800
H  28.81800 49.34900 32.58400
H  27.66800 50.75400 33.03900
H  24.64900 48.42200 32.23000
H  23.57300 49.60300 31.49500
H  23.44300 49.15300 34.14200
H  23.29500 50.73900 33.45200
H  31.32900 46.30300 28.34800
H  30.77300 47.41400 29.64000
H  31.92000 47.97700 28.44300
H  33.05300 46.39400 25.03800
H  31.89800 45.59500 26.17300
H  32.70100 47.21000 26.58300
H  27.37400 49.26500 22.08500
H  26.28900 52.15800 22.22700
H  29.35100 50.23200 21.50700
H  29.14200 51.60800 22.61100
H  28.20000 51.50000 21.11500
H  25.49400 49.84700 20.95000
H  24.50200 51.20900 21.18300
H  24.28900 49.02600 23.30100
H  23.71700 48.76700 21.64300
H  23.03900 50.02600 22.67100
H  20.82000 53.11500 26.27900
H  21.51100 53.03900 24.67000
H  21.94700 54.31700 25.58100
H  22.64200 51.46100 30.69800
H  23.54500 53.66200 33.92300
H  21.80900 54.11200 33.72500
H  23.20500 55.04200 33.03100

