158

Mg 2.34700 -1.46900 43.29700
C  5.63700 -0.51000 43.11800
C  1.54600 1.51200 41.71800
C  -0.86500 -2.63200 42.65500
C  3.29900 -4.46700 44.80000
N  3.49800 0.24900 42.36900
C  4.80400 0.50400 42.58300
C  5.18500 1.83000 41.99700
C  3.78100 2.57500 41.90200
C  2.89200 1.39300 42.02300
C  3.61300 3.86600 42.77500
C  6.22300 1.83800 40.77300
C  5.97400 0.71900 39.82300
H  5.15600 1.19300 38.56800
N  0.60200 -0.71700 42.24700
C  0.53900 0.57000 41.78600
C  -0.76600 0.80400 41.22100
C  -1.51200 -0.44200 41.46800
C  -0.58400 -1.34700 42.17100
C  -1.21500 2.03300 40.52900
C  -2.82100 -0.64200 40.78800
O  -3.29100 0.21200 40.03200
C  -3.57300 -1.96000 41.03900
N  1.42600 -3.31200 43.51700
C  0.05900 -3.50400 43.32000
C  -0.41100 -4.87400 43.87200
C  0.91200 -5.37500 44.60300
C  2.00700 -4.39300 44.25000
C  -1.60900 -4.88300 44.85800
C  1.24700 -6.84900 44.18900
C  1.24200 -7.77500 45.38800
N  4.02100 -2.42800 43.80600
C  4.32700 -3.64600 44.38900
C  5.72900 -3.83300 44.61600
C  6.34300 -2.58800 44.12900
C  5.21600 -1.81300 43.60600
C  6.31400 -4.96200 45.45300
C  7.57400 -1.83500 44.04300
O  8.71900 -2.14000 44.33400
C  7.18100 -0.55000 43.31200
C  7.60400 0.55900 44.28600
O  7.22100 0.64400 45.46700
O  8.45600 1.50300 43.68400
C  8.79000 2.61200 44.50400
H  1.31500 2.54000 41.43000
H  -1.85200 -3.07000 42.49300
H  3.50200 -5.39500 45.33800
H  5.84000 2.32600 42.71400
H  3.64700 2.83100 40.85100
H  3.45500 3.68100 43.83800
H  2.66300 4.29300 42.45400
H  4.43800 4.54900 42.57300
H  7.22700 1.94700 41.18300
H  6.16100 2.75200 40.18200
H  5.22900 0.00800 40.18000
H  6.90400 0.18700 39.62300
H  -2.15800 2.35100 40.97300
H  -1.45200 1.80700 39.48900
H  -0.52500 2.86600 40.66200
H  -3.16600 -2.77800 40.44600
H  -4.58600 -1.76800 40.68500
H  -3.62600 -2.16700 42.10800
H  -0.68900 -5.36100 42.93800
H  0.84500 -5.35500 45.69100
H  -1.43900 -5.40700 45.79900
H  -2.44700 -5.36000 44.35000
H  -1.84200 -3.85200 45.12600
H  2.19000 -6.82200 43.64400
H  0.50100 -7.22800 43.49000
H  0.85300 -8.78600 45.26700
H  0.62500 -7.46000 46.22900
H  2.16800 -7.83200 45.95900
H  7.27800 -4.57600 45.78600
H  6.52600 -5.81900 44.81400
H  5.63400 -5.29800 46.23600
H  7.64800 -0.25100 42.37400
H  8.00100 2.86800 45.21000
H  8.87400 3.29300 43.65700
H  9.73700 2.44100 45.01700
Mg -0.91700 33.52400 26.67100
C  -2.48500 31.97900 29.52200
C  0.68900 35.45300 28.80500
C  -0.14100 35.31500 24.03500
C  -2.78800 31.31900 24.63000
N  -0.96700 33.65100 28.95100
C  -1.57400 32.97400 29.91500
C  -1.08200 33.18500 31.30100
C  -0.06800 34.40000 31.12100
C  -0.05300 34.57000 29.53000
C  -0.30000 35.71600 31.98900
C  -0.43700 31.93800 31.98200
C  -1.06100 31.55700 33.38100
H  -0.26000 32.09100 34.66500
N  0.12400 35.21400 26.50800
C  0.76700 35.85800 27.46300
C  1.53500 36.92500 26.91500
C  1.23300 36.91700 25.53600
C  0.37100 35.75400 25.31300
C  2.37600 37.83900 27.77000
C  1.71400 37.80000 24.43300
O  1.36400 37.73000 23.24600
C  2.66000 38.84600 24.84400
N  -1.65800 33.49800 24.55800
C  -0.99900 34.26800 23.66800
C  -1.47500 33.91500 22.27600
C  -2.09500 32.51500 22.46900
C  -2.22300 32.41000 23.96200
C  -2.42100 34.92800 21.67900
C  -1.23600 31.27300 21.95000
C  0.22200 31.07100 22.30500
N  -2.32700 31.95400 26.97700
C  -2.94700 31.14800 26.02900
C  -3.75200 30.24500 26.72400
C  -3.68400 30.54300 28.09400
C  -2.73800 31.58000 28.23300
C  -4.77400 29.29400 26.10200
C  -4.19900 30.28800 29.46400
O  -5.00900 29.49600 29.82800
C  -3.34800 31.14800 30.46500
C  -4.33200 31.91400 31.22800
O  -5.07200 32.82300 30.75900
O  -4.29400 31.62700 32.52900
C  -5.23900 32.43400 33.28800
H  1.46500 35.89600 29.43200
H  0.08700 35.82100 23.09500
H  -3.07900 30.52900 23.93400
H  -1.94000 33.49500 31.89900
H  0.98400 34.14100 31.24600
H  -0.66800 36.46600 31.29000
H  0.68600 36.03900 32.32400
H  -0.90500 35.53000 32.87700
H  0.60600 32.17500 32.19100
H  -0.50400 31.10600 31.28000
H  -1.04300 30.47500 33.50800
H  -2.04400 32.00700 33.52000
H  3.44700 37.67300 27.88600
H  2.03600 37.82300 28.80600
H  2.02100 38.80900 27.42200
H  2.94500 39.43000 23.96900
H  3.58800 38.35300 25.13400
H  2.20100 39.52600 25.56200
H  -0.65100 33.81200 21.57100
H  -3.06800 32.47600 21.97800
H  -1.94000 35.83300 21.30700
H  -3.12500 35.18100 22.47300
H  -3.03300 34.49000 20.89100
H  -1.25600 31.44100 20.87300
H  -1.80100 30.36500 22.16300
H  0.47600 31.90200 22.96300
H  0.84100 31.22700 21.42200
H  0.30800 30.13600 22.85900
H  -4.82400 29.33000 25.01300
H  -5.81600 29.48800 26.35300
H  -4.59200 28.29800 26.50600
H  -2.80000 30.44800 31.09600
H  -6.27000 32.08300 33.23500
H  -5.20200 33.49800 33.05400
H  -5.05800 32.34600 34.35900

