158

Mg 43.61300 4.14400 47.03700
C  41.06900 6.56500 46.99000
C  41.10300 1.79500 47.16800
C  45.91000 1.69300 47.01600
C  46.04700 6.56800 46.57300
N  41.39400 4.24200 47.11100
C  40.50900 5.29200 47.25000
C  39.02500 4.90400 47.16300
C  39.06700 3.31900 47.35300
C  40.63300 3.09400 47.28500
C  38.39100 2.91200 48.63100
C  38.38800 5.30500 45.83800
C  39.04700 4.92100 44.47900
H  39.29700 5.97700 43.41400
N  43.50900 2.05000 47.03100
C  42.40800 1.30700 47.05200
C  42.67400 -0.08300 46.90100
C  44.10200 -0.22800 46.88900
C  44.60500 1.20200 47.02800
C  41.65200 -1.20200 46.86400
C  44.89000 -1.48400 46.62400
O  44.28500 -2.58600 46.59700
C  46.36700 -1.56800 46.51200
N  45.65900 4.13900 46.62000
C  46.40200 3.02300 46.91900
C  47.91200 3.30400 46.83100
C  47.91800 4.87400 46.88100
C  46.47300 5.24900 46.68200
C  48.90000 2.60800 47.83000
C  48.97300 5.65000 46.05600
C  49.62800 6.82200 46.71400
N  43.64300 6.21000 46.78900
C  44.69800 7.02100 46.54000
C  44.13700 8.40500 46.50100
C  42.75300 8.26200 46.75700
C  42.47400 6.92900 46.85700
C  44.93500 9.67900 46.28100
C  41.55200 9.02100 46.88900
O  41.28400 10.20600 46.78100
C  40.34100 7.92900 47.06500
C  39.69300 8.09900 48.37200
O  40.17200 7.82000 49.49500
O  38.38700 8.30100 48.21100
C  37.64600 7.90400 49.47700
H  40.36400 0.99800 47.26900
H  46.71300 1.01600 47.31700
H  46.81300 7.34400 46.51900
H  38.54700 5.46900 47.96300
H  38.65900 2.74400 46.52100
H  38.01300 3.72600 49.24900
H  39.13000 2.58600 49.36300
H  37.76400 2.03300 48.48500
H  38.24400 6.38500 45.80800
H  37.42300 4.80200 45.88500
H  38.40100 4.13800 44.08000
H  40.05400 4.51500 44.56800
H  41.79100 -2.05800 47.52500
H  41.71900 -1.60900 45.85500
H  40.61700 -0.86300 46.91400
H  46.89600 -1.10700 47.34600
H  46.63100 -1.22600 45.51100
H  46.73300 -2.59100 46.61000
H  48.33300 2.97200 45.88200
H  48.17100 5.06100 47.92400
H  49.52600 1.82500 47.40300
H  48.30400 2.16600 48.62900
H  49.56400 3.32500 48.31300
H  48.43500 6.09400 45.21800
H  49.68600 5.01000 45.53700
H  50.70200 6.75700 46.54000
H  49.43800 6.96900 47.77800
H  49.27700 7.75200 46.26700
H  45.49000 9.77100 47.21400
H  44.31900 10.56100 46.10700
H  45.60500 9.44500 45.45400
H  39.65400 8.11200 46.23900
H  37.81400 8.78800 50.09300
H  38.04800 7.02600 49.98100
H  36.62200 7.62800 49.22800
Mg 6.16200 54.76500 42.18600
C  5.70900 51.36500 41.52200
C  9.20900 54.40000 40.62100
C  6.46400 58.08200 42.16600
C  2.86100 54.88500 43.00400
N  7.29400 53.03200 41.07000
C  6.93500 51.78900 40.97800
C  7.94200 50.95400 40.27800
C  9.27900 51.89800 40.43200
C  8.57000 53.21400 40.71400
C  10.43300 51.53700 41.41300
C  7.62000 50.64500 38.69900
C  7.54500 51.78900 37.71100
H  6.30800 51.77500 36.75800
N  7.59900 56.03600 41.38600
C  8.80500 55.71700 40.93200
C  9.71500 56.93800 40.89200
C  8.93600 58.01700 41.36800
C  7.56400 57.42300 41.59800
C  11.16400 56.88100 40.45000
C  9.44200 59.45700 41.51800
O  10.61300 59.79800 41.06800
C  8.53500 60.54200 42.07600
N  4.77100 56.31700 42.34000
C  5.14500 57.65000 42.41200
C  4.07300 58.41600 43.11400
C  2.78200 57.51400 42.98000
C  3.46000 56.13300 42.74900
C  4.46000 58.66100 44.65900
C  1.88400 57.84600 41.79600
C  0.38900 58.24700 42.06700
N  4.59200 53.44800 42.48600
C  3.32400 53.62100 42.90100
C  2.57100 52.38400 43.01600
C  3.55300 51.37000 42.59900
C  4.70500 52.19600 42.16400
C  1.16000 52.26000 43.55100
C  3.87200 49.98100 42.44600
O  3.16300 48.99600 42.60100
C  5.26300 49.94700 41.75000
C  5.16600 49.18600 40.46400
O  4.40200 49.40200 39.52700
O  5.81300 48.01800 40.65700
C  5.65100 46.98600 39.60600
H  10.25000 54.24600 40.32900
H  6.56100 59.14500 42.39500
H  1.80800 54.93900 43.28900
H  8.02200 50.01400 40.82500
H  9.72000 51.90300 39.43500
H  10.39100 52.28200 42.20700
H  11.27300 51.87500 40.80600
H  10.47100 50.50400 41.75900
H  6.72000 50.03300 38.64700
H  8.29400 49.96200 38.18300
H  8.42100 51.57700 37.09800
H  7.60200 52.77400 38.17500
H  11.52200 55.92600 40.06500
H  11.77900 57.08900 41.32500
H  11.34500 57.75000 39.81800
H  7.57000 60.65200 41.58200
H  8.98100 61.53600 42.06200
H  8.31700 60.27300 43.10900
H  4.08500 59.41800 42.68500
H  2.17600 57.54300 43.88500
H  3.69200 58.18800 45.27100
H  4.57600 59.70100 44.96300
H  5.40900 58.14600 44.81000
H  1.88800 57.13200 40.97200
H  2.45600 58.66900 41.36800
H  0.30200 59.04500 42.80500
H  0.03300 57.35900 42.58900
H  -0.07600 58.44300 41.10100
H  0.61500 53.18000 43.33600
H  1.17300 52.04600 44.62000
H  0.65300 51.44700 43.03300
H  5.90700 49.41300 42.44800
H  6.08300 46.01000 39.82700
H  6.17400 47.33600 38.71700
H  4.61400 46.81600 39.31700

