158

Mg 16.23200 -1.02000 28.14100
C  15.17900 1.01000 30.71000
C  18.50100 -2.54700 30.42900
C  18.00700 -2.19700 25.65000
C  14.41900 0.92700 25.87500
N  16.74800 -0.72200 30.35200
C  16.06300 0.07100 31.18800
C  16.56100 -0.02800 32.63600
C  17.81800 -0.90600 32.48200
C  17.74800 -1.42400 31.01000
C  19.23100 -0.42600 32.75500
C  15.43100 -0.53700 33.69100
C  15.26900 0.03900 35.07000
H  16.42400 0.84600 35.61900
N  17.91400 -2.27200 28.07000
C  18.64200 -2.85200 29.08700
C  19.61100 -3.82600 28.57400
C  19.44400 -3.78100 27.11100
C  18.40700 -2.71000 26.89900
C  20.50300 -4.69300 29.49900
C  20.21100 -4.52600 26.02800
O  20.03900 -4.29900 24.80400
C  21.19000 -5.58900 26.40100
N  16.08700 -0.77500 26.05000
C  16.96600 -1.35100 25.18300
C  16.60600 -1.09300 23.70400
C  15.48800 -0.10700 23.86100
C  15.26300 0.00100 25.33100
C  17.80100 -0.53100 22.88000
C  14.18000 -0.48500 23.19300
C  14.00900 -0.23300 21.65200
N  14.99300 0.57700 28.24500
C  14.26500 1.24800 27.25900
C  13.54600 2.37500 27.79500
C  13.83800 2.26300 29.20100
C  14.78000 1.21000 29.40300
C  12.70300 3.33800 27.09500
C  13.61100 2.88200 30.44300
O  12.92800 3.84300 30.74900
C  14.52300 2.11400 31.53400
C  15.45000 3.15100 32.06000
O  16.30300 3.66800 31.31100
O  15.14800 3.67900 33.34100
C  16.06700 4.83800 33.66000
H  19.18900 -2.93500 31.18200
H  18.37500 -2.76800 24.79500
H  13.79500 1.51300 25.19800
H  16.90800 0.94600 32.98000
H  17.52300 -1.73300 33.12800
H  19.11800 0.64500 32.92300
H  19.77400 -0.40900 31.81000
H  19.75400 -0.92600 33.57100
H  15.54300 -1.62100 33.71600
H  14.49300 -0.26000 33.21100
H  15.11500 -0.82300 35.71900
H  14.38000 0.67000 35.08300
H  21.58300 -4.55500 29.46000
H  20.50500 -5.73500 29.18000
H  20.15200 -4.75000 30.53000
H  21.69600 -5.76600 25.45200
H  20.68100 -6.52400 26.63500
H  21.91300 -5.33800 27.17700
H  16.17800 -2.02200 23.32800
H  15.73200 0.92000 23.58900
H  18.55400 -0.08300 23.52900
H  17.46700 0.14500 22.09300
H  18.38500 -1.26800 22.32900
H  13.32500 0.07400 23.57200
H  14.02000 -1.55400 23.33600
H  14.97500 0.10100 21.27600
H  13.17800 0.46700 21.56500
H  13.75600 -1.20000 21.21600
H  13.19700 3.52300 26.14100
H  12.73300 4.29500 27.61500
H  11.73100 2.85000 27.01800
H  13.94100 1.74100 32.37700
H  15.82900 5.03600 34.70500
H  15.87100 5.72700 33.06100
H  17.09700 4.50800 33.52400
Mg 30.10000 57.19100 41.39900
C  27.34300 55.35500 40.36400
C  32.08700 54.69500 40.37700
C  32.50700 59.43200 41.56500
C  27.88000 59.72700 42.66500
N  29.70300 55.39700 40.39000
C  28.51200 54.78200 40.04100
C  28.74800 53.44700 39.28700
C  30.14700 53.02000 39.82500
C  30.74100 54.46200 40.27300
C  30.14600 51.95300 40.91700
C  28.62300 53.52400 37.67000
C  27.63500 52.55400 36.94400
H  26.59700 53.12600 35.98100
N  32.02700 57.11100 40.95300
C  32.68100 55.92500 40.65400
C  34.11300 56.21000 40.63300
C  34.24400 57.59600 40.94600
C  32.92000 58.13800 41.18600
C  35.16800 55.18500 40.38100
C  35.55300 58.29400 41.00700
O  36.54700 57.68000 40.67600
C  35.69600 59.70700 41.39000
N  30.11700 59.40000 41.90600
C  31.24600 60.01200 41.84200
C  31.14400 61.54500 42.13200
C  29.73600 61.56600 42.87400
C  29.17800 60.12500 42.42600
C  32.33400 62.44000 42.68500
C  28.73300 62.72500 42.53700
C  28.10300 62.80900 41.05100
N  27.99700 57.44800 41.53000
C  27.26900 58.48100 42.17300
C  25.86500 58.03700 42.24700
C  25.82700 56.81000 41.44300
C  27.15900 56.51900 41.10600
C  24.63500 58.64000 42.87000
C  24.98300 55.75100 41.03100
O  23.79800 55.54600 41.14000
C  25.96000 54.76100 40.26600
C  25.87100 53.39300 40.90600
O  26.23700 53.10700 42.06200
O  25.27600 52.56100 39.98800
C  25.34800 51.14900 40.33400
H  32.77800 53.86300 40.22800
H  33.33600 60.14000 41.50200
H  27.17400 60.35800 43.20800
H  28.05600 52.73300 39.73400
H  30.70400 52.49200 39.05100
H  30.70700 52.40100 41.73700
H  30.59600 51.05200 40.50000
H  29.13000 51.73500 41.24600
H  29.62200 53.40100 37.25100
H  28.26900 54.47800 37.28000
H  27.07000 51.89900 37.60700
H  28.28300 51.96300 36.29700
H  35.89000 55.68000 39.73100
H  34.70800 54.39200 39.79100
H  35.68300 54.93500 41.30800
H  35.13000 59.98700 42.27900
H  35.23500 60.32900 40.62300
H  36.75600 59.88600 41.57200
H  30.95100 62.13000 41.23300
H  29.89500 61.51500 43.95100
H  32.74300 61.78300 43.45300
H  31.84700 63.27400 43.19000
H  32.93800 62.81800 41.86100
H  29.12100 63.68500 42.88000
H  27.87400 62.51500 43.17500
H  27.17400 62.24500 40.97500
H  28.81600 62.32700 40.38300
H  28.00200 63.84100 40.71400
H  24.08100 59.32200 42.22500
H  25.14200 59.29100 43.58200
H  23.99700 57.83300 43.22900
H  25.61900 54.78900 39.23100
H  26.37700 50.81700 40.20200
H  24.79500 50.62900 39.55200
H  24.84000 50.97600 41.28400

