158

Mg 46.90600 24.80300 28.79700
C  47.62400 26.88800 31.47500
C  45.98200 22.39200 30.97700
C  46.98000 22.67300 26.27900
C  48.07100 27.24700 26.67700
N  46.60600 24.79100 30.85400
C  47.04900 25.67200 31.83900
C  46.67300 25.27100 33.24700
C  46.41100 23.80100 33.00500
C  46.23100 23.69700 31.52600
C  47.54400 22.85000 33.59000
C  45.57100 26.08500 33.94000
C  45.79900 26.60500 35.39100
H  44.62600 26.41300 36.35100
N  46.49400 22.80900 28.68100
C  46.05300 21.96300 29.63000
C  45.78900 20.67600 29.11500
C  46.31900 20.66100 27.76400
C  46.66100 22.09000 27.50500
C  45.01900 19.55300 29.87100
C  46.33100 19.57600 26.67100
O  46.69900 19.86900 25.52400
C  45.95900 18.16000 26.94400
N  47.21900 25.00600 26.73500
C  47.28700 23.94600 25.91600
C  47.41500 24.36600 24.42100
C  47.47800 25.92500 24.52500
C  47.52300 26.09700 26.01600
C  48.45900 23.70900 23.51900
C  46.27600 26.67900 23.86200
C  44.81600 26.38500 24.37300
N  47.60300 26.77300 28.96700
C  48.04700 27.61800 28.04400
C  48.39800 28.91400 28.58400
C  48.28400 28.64700 29.95500
C  47.77600 27.36900 30.13800
C  49.00100 30.05800 27.88200
C  48.58000 29.15900 31.27200
O  49.11300 30.26800 31.56400
C  48.21600 28.01200 32.40300
C  49.44500 27.61500 33.09500
O  50.57100 27.62700 32.55400
O  49.25800 27.51700 34.49100
C  50.45100 27.34600 35.28100
H  45.85900 21.61400 31.73400
H  47.04300 22.06500 25.37400
H  48.37400 28.00500 25.95100
H  47.51200 25.40000 33.93000
H  45.49100 23.47900 33.49200
H  48.21200 23.35000 34.29200
H  48.16700 22.50000 32.76600
H  47.02000 22.04000 34.09900
H  44.74200 25.39400 34.09200
H  45.32000 26.92300 33.28900
H  46.07100 27.65900 35.33000
H  46.58600 26.06700 35.92100
H  45.51100 18.58300 29.94300
H  44.15300 19.28400 29.26600
H  44.65400 19.81200 30.86500
H  44.93500 18.24600 27.30800
H  46.60200 17.84000 27.76500
H  46.14800 17.60300 26.02600
H  46.47100 24.18700 23.90500
H  48.46300 26.27700 24.21900
H  47.96600 23.63900 22.54900
H  48.76200 22.75500 23.95100
H  49.37100 24.30500 23.56700
H  46.26800 26.38300 22.81300
H  46.49300 27.73800 24.00500
H  44.29900 25.97900 23.50400
H  44.32100 27.28900 24.72600
H  44.87700 25.64700 25.17300
H  49.50200 30.67800 28.62500
H  48.14000 30.65000 27.57100
H  49.60200 29.69800 27.04700
H  47.48600 28.33000 33.14800
H  51.41900 27.40900 34.78500
H  50.33400 26.35400 35.71800
H  50.48100 28.16100 36.00300
Mg 47.36000 34.86800 28.80000
C  45.70100 32.76000 31.19400
C  47.85600 37.15100 31.43900
C  48.21700 37.06700 26.53800
C  46.34600 32.61100 26.29100
N  46.83200 34.93200 30.98400
C  46.22100 33.95900 31.73200
C  46.31900 34.34600 33.28500
C  46.30800 35.88600 33.15600
C  47.12700 35.99400 31.79500
C  44.85400 36.55000 33.00000
C  47.60800 33.82800 34.01600
C  47.30600 33.15800 35.37600
H  46.39900 33.87900 36.41500
N  48.02300 36.81100 29.00900
C  48.32600 37.59000 30.11700
C  49.07200 38.78200 29.76600
C  49.01300 38.80500 28.37600
C  48.45200 37.51000 27.91400
C  49.63700 39.77700 30.74100
C  49.44400 39.86800 27.33500
O  49.21500 39.75100 26.13100
C  50.17000 41.10700 27.85400
N  47.20100 34.83700 26.70300
C  47.67600 35.85700 26.00600
C  47.67000 35.60100 24.51900
C  47.14100 34.14700 24.40400
C  46.87300 33.82200 25.87900
C  46.79800 36.55100 23.61800
C  48.13300 33.06500 23.78200
C  47.58900 32.06800 22.76600
N  46.29600 33.07500 28.66900
C  46.03800 32.24500 27.61500
C  45.46100 31.01300 28.05800
C  45.22000 31.23500 29.48900
C  45.78400 32.45400 29.81700
C  44.95400 29.93500 27.08900
C  44.69100 30.62300 30.67900
O  44.23000 29.48900 30.70200
C  44.94500 31.58700 31.76800
C  45.62600 30.95500 32.89000
O  46.81900 30.76700 33.04800
O  44.63300 30.60300 33.75100
C  45.01000 30.14500 35.07400
H  48.04700 37.88200 32.22800
H  48.59500 37.66700 25.70800
H  46.17400 31.84500 25.53200
H  45.37100 34.10100 33.76400
H  46.87100 36.32600 33.97900
H  44.78000 37.25300 33.83000
H  43.98700 35.91500 33.18100
H  44.73800 36.90700 31.97700
H  48.30000 34.65300 34.18500
H  48.05200 33.02000 33.43500
H  48.27000 32.86000 35.78800
H  46.82700 32.20600 35.15100
H  49.14400 40.73200 30.55600
H  50.71300 39.88100 30.60700
H  49.48900 39.50800 31.78700
H  49.43500 41.74800 28.34100
H  50.63200 41.48300 26.94100
H  51.00700 40.85500 28.50500
H  48.71600 35.70000 24.22600
H  46.18300 34.10000 23.88600
H  46.27800 37.21600 24.30700
H  46.09800 36.19900 22.86100
H  47.46300 37.26900 23.13800
H  48.40300 32.34500 24.55500
H  48.96300 33.63000 23.35900
H  48.12500 32.17200 21.82200
H  46.53800 32.22600 22.52400
H  47.65500 31.00400 22.99200
H  44.12400 30.35500 26.52100
H  44.54400 29.05900 27.59300
H  45.74500 29.46900 26.50200
H  43.95100 31.92200 32.06600
H  44.36600 29.32600 35.39600
H  44.79600 30.94400 35.78400
H  46.07100 29.95900 35.24100

