158

Mg 1.39900 -2.31700 44.67900
C  4.69800 -1.18400 44.18800
C  0.36500 0.62100 42.88400
C  -1.79400 -3.43600 44.64800
C  2.65500 -5.37200 45.40800
N  2.38500 -0.48500 43.74800
C  3.75500 -0.21700 43.76100
C  4.04900 1.07000 43.05900
C  2.60200 1.82200 43.01700
C  1.72500 0.54800 43.18300
C  2.37900 2.86300 44.10800
C  4.64200 0.83600 41.56100
C  5.97400 1.48700 41.11800
H  6.75000 0.75000 40.01500
N  -0.48600 -1.47300 43.84800
C  -0.62500 -0.27000 43.25200
C  -2.06100 -0.13900 43.04900
C  -2.78400 -1.30300 43.52400
C  -1.67200 -2.14600 44.01800
C  -2.64500 1.11700 42.44100
C  -4.27800 -1.59200 43.50500
O  -5.07400 -0.66100 43.34300
C  -4.82600 -2.98600 43.70500
N  0.56700 -4.12800 44.92300
C  -0.79100 -4.34900 45.06800
C  -1.15000 -5.70500 45.66500
C  0.33400 -6.38200 45.77200
C  1.27400 -5.19200 45.43900
C  -1.97700 -5.72400 46.96700
C  0.52500 -7.68000 44.77500
C  1.29800 -8.84300 45.45200
N  3.32400 -3.19900 44.94200
C  3.71300 -4.48000 45.26000
C  5.10600 -4.59800 45.35100
C  5.54300 -3.26400 45.01300
C  4.42300 -2.49900 44.67500
C  5.89500 -5.87800 45.73900
C  6.78200 -2.53100 44.83400
O  7.95500 -2.79800 44.86600
C  6.20900 -1.08000 44.28600
C  6.64000 -0.07100 45.25200
O  6.57100 -0.21100 46.45400
O  7.06000 1.06800 44.68300
C  7.42600 2.16200 45.49400
H  -0.03900 1.59200 42.59000
H  -2.80800 -3.76200 44.88600
H  2.98000 -6.36800 45.71300
H  4.72600 1.60100 43.72700
H  2.37100 2.40400 42.12500
H  2.48600 3.85800 43.67700
H  3.11900 2.71400 44.89500
H  1.44600 2.67500 44.64100
H  3.90500 0.92800 40.76300
H  4.90500 -0.22000 41.61000
H  6.62300 1.70800 41.96500
H  5.53300 2.40400 40.72900
H  -3.64600 0.96400 42.03900
H  -2.07600 1.41100 41.55900
H  -2.59200 1.96900 43.11900
H  -4.24200 -3.70400 43.12900
H  -5.81100 -2.86500 43.25500
H  -4.96400 -3.24200 44.75600
H  -1.76600 -6.17000 44.89700
H  0.60000 -6.68200 46.78500
H  -1.44200 -6.33100 47.69700
H  -2.95000 -6.18000 46.78300
H  -2.16500 -4.74800 47.41500
H  0.96000 -7.38600 43.82000
H  -0.46600 -8.12400 44.67800
H  1.88100 -8.61700 46.34500
H  2.03200 -9.22600 44.74400
H  0.60700 -9.67200 45.60300
H  6.05400 -6.40300 44.79700
H  5.20300 -6.45700 46.34900
H  6.83700 -5.57200 46.19400
H  6.63800 -0.81800 43.31800
H  7.79900 2.94300 44.83200
H  8.02600 1.97100 46.38400
H  6.46400 2.39500 45.95200
Mg 6.76200 52.82100 40.98700
C  6.05100 49.31900 41.03300
C  9.79900 52.24600 39.58600
C  7.14200 56.06200 40.53200
C  3.46900 53.32000 42.10000
N  7.70100 50.98500 40.31500
C  7.28500 49.66100 40.50400
C  8.41800 48.68900 39.91300
C  9.62200 49.60600 39.75800
C  9.03700 51.06100 39.91300
C  10.79700 49.46500 40.82000
C  7.99600 47.97300 38.63600
C  7.16200 48.73600 37.58400
H  7.83000 49.35600 36.32200
N  8.29500 53.97400 40.21300
C  9.48800 53.56600 39.72200
C  10.39800 54.67500 39.45600
C  9.70700 55.87200 39.73400
C  8.28100 55.38700 40.13500
C  11.85500 54.48600 39.01300
C  10.23700 57.24200 39.50500
O  11.40700 57.50600 39.06100
C  9.34200 58.46400 39.76700
N  5.45100 54.33600 40.97700
C  5.88400 55.65400 40.83400
C  4.85800 56.68100 41.24500
C  3.68500 55.77200 41.73000
C  4.20900 54.34300 41.50400
C  5.27300 57.75100 42.29300
C  2.39000 56.10900 40.99800
C  1.07600 55.69300 41.68600
N  5.03600 51.64600 41.45500
C  3.84700 52.01000 42.10000
C  3.12300 50.85900 42.63600
C  3.94700 49.77600 42.16200
C  5.04500 50.36500 41.43100
C  1.79400 50.85100 43.38600
C  4.08700 48.32600 42.15000
O  3.28800 47.48900 42.54600
C  5.42900 48.01700 41.47600
C  5.06400 47.18400 40.31000
O  4.59100 47.53700 39.19700
O  5.44500 45.91200 40.57100
C  5.32800 44.98000 39.41500
H  10.78100 51.92300 39.23300
H  7.27200 57.13700 40.39200
H  2.51200 53.42900 42.61500
H  8.58800 48.02700 40.76200
H  10.18600 49.54400 38.82800
H  10.92100 50.34800 41.44600
H  11.75100 49.22500 40.35100
H  10.60100 48.70700 41.57900
H  7.58900 46.99200 38.88200
H  8.98000 47.79000 38.20400
H  6.56800 49.54700 38.00600
H  6.55400 47.91700 37.20000
H  12.05700 55.06900 38.11400
H  12.21500 53.47400 38.82800
H  12.36600 54.86200 39.89900
H  9.84800 59.39000 39.49500
H  9.03900 58.38200 40.81100
H  8.51700 58.28600 39.07700
H  4.54400 57.33400 40.43000
H  3.55800 55.82500 42.81100
H  6.30200 57.61800 42.62700
H  4.66100 57.77800 43.19400
H  5.25700 58.70400 41.76400
H  2.27100 55.77200 39.96900
H  2.23600 57.16500 40.77900
H  1.13200 55.63900 42.77300
H  0.89900 54.69700 41.28000
H  0.28700 56.42100 41.49800
H  1.02200 50.63000 42.64900
H  1.69600 51.84600 43.81900
H  1.92500 50.19700 44.24800
H  6.10200 47.54300 42.19000
H  6.14800 45.03800 38.70000
H  4.43100 45.13400 38.81600
H  5.29300 43.97500 39.83400

