158

Mg 35.96600 49.40300 25.08400
C  36.56800 47.60800 28.02700
C  34.87600 52.11300 27.07000
C  35.46700 51.12800 22.24000
C  37.13200 46.69800 23.28200
N  35.99300 49.91700 27.24800
C  36.14700 48.95100 28.19000
C  36.00500 49.55700 29.62200
C  35.16900 50.82800 29.25100
C  35.42500 51.02000 27.75800
C  33.64600 50.82800 29.51400
C  37.41800 49.80400 30.36600
C  37.44700 50.34100 31.76300
H  36.14200 50.40900 32.59800
N  35.18000 51.35900 24.74100
C  34.78500 52.31600 25.69200
C  34.29600 53.51200 24.94900
C  34.39800 53.23900 23.57500
C  35.00500 51.83900 23.45200
C  33.87900 54.85000 25.67600
C  34.18300 54.12800 22.38900
O  34.32900 53.80400 21.23200
C  33.60800 55.51100 22.51800
N  35.98000 48.87900 22.99900
C  35.84900 49.80000 22.02900
C  36.37200 49.30800 20.67600
C  37.02400 47.95300 21.01600
C  36.72000 47.82400 22.52400
C  35.20800 49.23600 19.72200
C  38.54500 47.90400 20.68600
C  39.04100 46.55600 20.15700
N  36.64900 47.42300 25.45600
C  37.14200 46.47500 24.62800
C  37.44600 45.30700 25.44600
C  37.26400 45.72800 26.77000
C  36.72800 47.04900 26.71500
C  37.91600 44.04800 24.93100
C  37.31300 45.30200 28.17300
O  37.65600 44.27300 28.71200
C  36.93400 46.51500 29.03400
C  35.97300 46.01600 30.08900
O  35.04900 45.25400 29.94200
O  36.37000 46.50100 31.32200
C  35.66100 46.24000 32.58300
H  34.52700 52.92000 27.71800
H  35.35700 51.66600 21.29600
H  37.56400 45.94500 22.61900
H  35.40800 48.78900 30.11400
H  35.62700 51.62900 29.83100
H  32.97600 50.67700 28.66700
H  33.38700 51.70400 30.10800
H  33.45100 49.88600 30.02700
H  37.86000 50.56200 29.72000
H  38.03400 48.90800 30.28700
H  37.93200 51.31600 31.82000
H  38.02200 49.62100 32.34500
H  33.94400 55.75000 25.06400
H  34.49400 54.82400 26.57500
H  32.81600 54.77800 25.90400
H  33.55600 55.93300 21.51400
H  34.24400 56.23600 23.02600
H  32.57700 55.38500 22.84800
H  37.16800 50.00800 20.42000
H  36.46700 47.14100 20.54900
H  35.12400 48.25400 19.25600
H  35.40000 49.68900 18.75000
H  34.22100 49.50700 20.09700
H  39.13100 48.25100 21.53700
H  38.69900 48.66300 19.91900
H  39.06900 46.47400 19.07100
H  38.26700 45.82400 20.38700
H  40.04000 46.37800 20.55600
H  37.61100 43.89000 23.89600
H  37.43500 43.26400 25.51600
H  39.00600 44.04400 24.90500
H  37.94500 46.77700 29.34700
H  34.77100 46.85100 32.73000
H  36.27400 46.53700 33.43400
H  35.46900 45.17600 32.72400
Mg 16.31600 51.53700 26.90000
C  18.28800 50.34200 29.52700
C  13.98400 52.48600 29.11900
C  14.43700 52.55700 24.25600
C  18.94500 50.66900 24.70900
N  16.18700 51.47300 29.05300
C  17.12600 50.98400 29.92000
C  16.66900 51.22400 31.39900
C  15.14800 51.57800 31.31300
C  15.09600 51.86100 29.76100
C  14.04900 50.45600 31.68100
C  17.60300 52.38200 32.01500
C  17.93500 52.33300 33.57000
H  17.02500 51.40500 34.46000
N  14.42100 52.40000 26.69100
C  13.65900 52.76300 27.74400
C  12.59100 53.52100 27.21700
C  12.60900 53.48000 25.83500
C  13.82200 52.74300 25.47700
C  11.64700 54.23600 28.08200
C  11.68200 54.12100 24.86700
O  11.81500 53.99900 23.67000
C  10.56900 55.04200 25.35500
N  16.66100 51.59800 24.83000
C  15.67300 52.02200 23.88500
C  16.34900 52.21000 22.53900
C  17.73100 51.60600 22.70700
C  17.81700 51.29400 24.19200
C  15.50800 51.80300 21.28100
C  18.88800 52.44900 22.11100
C  20.03100 51.73400 21.29800
N  18.22100 50.58300 27.00500
C  19.19900 50.32900 26.09400
C  20.38800 49.67100 26.70600
C  20.04900 49.77400 28.06600
C  18.75100 50.27800 28.21200
C  21.72600 49.23700 26.01400
C  20.58000 49.51500 29.32500
O  21.70800 49.10900 29.65000
C  19.46800 49.89400 30.37900
C  19.17500 48.54000 30.95300
O  19.14200 47.42800 30.40200
O  18.92600 48.66300 32.34400
C  18.11900 47.56600 32.86800
H  13.18200 52.82400 29.77900
H  13.81200 53.02600 23.49300
H  19.73000 50.38100 24.00800
H  16.59400 50.35200 32.04800
H  15.01500 52.43200 31.97600
H  13.41800 50.59700 32.55800
H  14.55900 49.49500 31.75900
H  13.40900 50.53400 30.80300
H  17.05500 53.32300 31.96600
H  18.56100 52.36400 31.49500
H  17.96200 53.35700 33.94200
H  18.93800 51.92600 33.69600
H  11.72700 54.11700 29.16200
H  10.70100 53.71800 27.92400
H  11.34100 55.24100 27.78800
H  9.96900 55.43100 24.53200
H  10.77700 55.98100 25.86800
H  9.93800 54.48800 26.05000
H  16.55200 53.28100 22.51200
H  17.80700 50.59300 22.31200
H  15.47500 52.65100 20.59700
H  14.46300 51.54400 21.45100
H  16.03100 51.00100 20.75900
H  19.40600 52.87100 22.97200
H  18.42200 53.24700 21.53300
H  20.43800 52.47000 20.60400
H  19.77700 50.78300 20.83000
H  20.84300 51.54600 22.00100
H  22.47500 48.90500 26.73300
H  22.13900 50.09300 25.47800
H  21.53000 48.39800 25.34600
H  19.86100 50.55700 31.15000
H  17.64200 47.91300 33.78500
H  18.63600 46.62800 33.06900
H  17.21600 47.43800 32.27100

