158

Mg 48.45800 15.56800 28.74900
C  46.35000 15.30800 31.70300
C  50.38300 17.63300 30.72100
C  49.94900 16.48200 25.90000
C  45.89200 14.05900 26.97600
N  48.32600 16.39100 31.05000
C  47.51400 15.99400 32.05200
C  48.08300 16.48400 33.48100
C  49.35200 17.28000 33.07700
C  49.34300 17.16000 31.53400
C  49.51100 18.76900 33.48400
C  48.22700 15.31100 34.56100
C  49.01500 15.65400 35.74800
H  48.61400 16.80700 36.77200
N  50.03600 16.74600 28.36400
C  50.71700 17.53400 29.31500
C  51.79300 18.22900 28.59300
C  51.67500 17.95300 27.22500
C  50.57200 16.99800 27.08600
C  52.82800 19.07800 29.30900
C  52.50200 18.41700 26.03100
O  52.33900 17.99700 24.88400
C  53.69500 19.38800 26.30600
N  48.09000 15.13600 26.71800
C  48.77300 15.72300 25.66400
C  48.12200 15.44700 24.28500
C  47.05600 14.33300 24.76600
C  46.95500 14.53300 26.27400
C  47.60700 16.72100 23.68700
C  47.54300 12.90400 24.35000
C  48.04100 11.91800 25.40400
N  46.52700 14.89500 29.15800
C  45.67100 14.10600 28.39100
C  44.50900 13.63000 29.13600
C  44.82400 14.03700 30.41700
C  45.98800 14.83400 30.40500
C  43.38300 12.84300 28.60300
C  44.29200 13.93100 31.75800
O  43.36000 13.34300 32.28400
C  45.18300 14.82700 32.60000
C  44.31100 15.83100 33.35800
O  43.44300 16.46400 32.79900
O  44.53600 15.77800 34.69500
C  43.58100 16.60000 35.42500
H  50.98600 18.29200 31.34900
H  50.34500 16.91200 24.97700
H  45.13800 13.54100 26.38000
H  47.31000 17.12400 33.90800
H  50.27000 16.85500 33.48200
H  48.86100 18.88800 34.35100
H  49.28400 19.50400 32.71200
H  50.57000 18.87800 33.71500
H  48.58400 14.39100 34.09900
H  47.22600 15.09500 34.93500
H  50.06000 15.77300 35.46000
H  48.95500 14.83400 36.46400
H  52.81200 20.14300 29.07700
H  53.77800 18.59300 29.08400
H  52.73700 18.87400 30.37600
H  53.46900 20.35300 26.76000
H  54.16800 19.42500 25.32500
H  54.28400 18.69900 26.91000
H  48.95900 15.09300 23.68200
H  46.10700 14.58200 24.29300
H  46.67000 17.14000 24.05300
H  47.45400 16.34100 22.67600
H  48.31500 17.55000 23.67700
H  48.35300 12.79000 23.62900
H  46.70700 12.25800 24.08200
H  48.70900 11.28700 24.81800
H  47.30200 11.24700 25.84200
H  48.44300 12.35800 26.31600
H  42.40300 13.25300 28.84700
H  43.64600 11.84600 28.95800
H  43.43000 12.88400 27.51500
H  45.49300 14.22700 33.45500
H  43.83500 16.35000 36.45500
H  42.56000 16.24000 35.29600
H  43.63700 17.67100 35.22700
Mg 49.01100 44.60200 43.15700
C  45.67100 45.41300 42.06900
C  48.60400 41.62200 41.35900
C  52.34400 44.27200 43.10300
C  49.26500 47.82100 44.37400
N  47.43200 43.75000 41.75300
C  46.13300 44.27200 41.50900
C  45.31500 43.31000 40.66400
C  46.05300 42.03100 40.78900
C  47.49000 42.45100 41.27500
C  45.33900 41.00400 41.70700
C  45.25000 43.87800 39.20700
C  43.98200 43.67300 38.41400
H  44.03900 42.79000 37.15700
N  50.30500 43.14100 42.41900
C  49.91600 41.96000 41.80000
C  51.12100 41.23600 41.47200
C  52.21500 41.89700 42.10300
C  51.61600 43.17800 42.53800
C  51.04800 39.88700 40.67400
C  53.60300 41.42900 42.15500
O  53.89200 40.35600 41.64000
C  54.64800 42.12400 42.87800
N  50.57900 45.90700 43.58600
C  51.90000 45.45900 43.54300
C  52.89700 46.52300 44.09600
C  51.87400 47.59200 44.69600
C  50.45100 47.10500 44.21400
C  53.99600 46.12000 45.09100
C  52.24800 49.16700 44.48300
C  52.61500 50.02500 45.65300
N  47.67900 46.22900 43.43000
C  47.95000 47.46800 43.95800
C  46.66500 48.23000 44.02100
C  45.82400 47.46000 43.29900
C  46.46000 46.24500 42.90300
C  46.43500 49.57800 44.66300
C  44.50100 47.45100 42.72500
O  43.58700 48.28700 42.62400
C  44.39300 46.08200 41.90200
C  43.15500 45.28600 42.34900
O  42.24100 44.87900 41.63400
O  43.18200 45.08900 43.68300
C  42.04100 44.45100 44.33900
H  48.43600 40.60900 40.98600
H  53.43200 44.31600 43.02100
H  49.35300 48.78600 44.87700
H  44.31300 43.24700 41.09000
H  46.22000 41.56600 39.81700
H  44.51800 41.49900 42.22600
H  45.96400 40.55700 42.47900
H  44.91200 40.16000 41.16400
H  46.01800 43.38500 38.61100
H  45.46600 44.94600 39.17500
H  43.58900 44.62500 38.05500
H  43.23400 43.22900 39.07100
H  51.82000 39.84300 39.90500
H  50.04900 39.66900 40.29600
H  51.14900 39.07700 41.39500
H  54.88300 42.94300 42.20000
H  55.42300 41.43200 43.20900
H  54.30800 42.64800 43.77100
H  53.29100 47.05400 43.22900
H  51.73900 47.41800 45.76300
H  53.97100 46.74300 45.98500
H  54.93800 46.27300 44.56600
H  53.95400 45.05700 45.32900
H  51.33200 49.69200 44.21300
H  52.93000 49.32300 43.64700
H  51.92900 50.84400 45.86700
H  53.61900 50.38100 45.42000
H  52.62000 49.42600 46.56400
H  47.32600 50.17000 44.87500
H  46.11700 49.48400 45.70100
H  45.67500 50.15000 44.13100
H  44.18900 46.23500 40.84200
H  41.73100 44.98400 45.23800
H  42.19000 43.40400 44.60400
H  41.14100 44.56700 43.73500

