158

Mg 35.85900 1.02300 30.02800
C  33.62700 2.47300 32.61600
C  38.41600 1.50300 32.34500
C  37.81800 0.28500 27.63700
C  33.14200 1.27200 27.83800
N  35.96200 1.83500 32.23700
C  34.93100 2.26500 33.07500
C  35.45400 2.44000 34.50900
C  37.02600 2.34700 34.32700
C  37.15200 1.83600 32.84000
C  37.64600 3.67100 34.43700
C  34.97600 1.25800 35.43000
C  34.44600 1.68500 36.77600
H  34.78700 3.03500 37.42700
N  37.87900 0.71000 30.01800
C  38.78400 1.03600 31.04900
C  40.16800 0.72000 30.56200
C  39.97300 0.25900 29.21900
C  38.53800 0.32000 28.88000
C  41.39500 0.83200 31.50000
C  41.09100 -0.15200 28.22900
O  40.80500 -0.44500 27.08800
C  42.42400 -0.40400 28.83500
N  35.49400 0.88400 28.07100
C  36.47500 0.50000 27.22100
C  35.95700 0.59700 25.81900
C  34.44500 0.27400 25.97600
C  34.31700 0.79600 27.36900
C  36.30100 1.92200 25.12000
C  33.99600 -1.18400 26.00300
C  33.46900 -1.67900 24.63200
N  33.86600 1.77500 30.09200
C  32.93900 1.78800 29.14100
C  31.67200 2.23300 29.58900
C  31.89100 2.50800 30.92300
C  33.26100 2.21800 31.23000
C  30.36700 2.35400 28.79400
C  31.20000 3.03800 32.14200
O  30.11100 3.55000 32.29500
C  32.35500 3.03800 33.24700
C  32.58000 4.46900 33.71900
O  33.38100 5.24000 33.17900
O  31.75900 4.80000 34.75000
C  31.92900 6.14500 35.33700
H  39.14200 1.63500 33.15000
H  38.46100 0.15000 26.76500
H  32.42200 1.44100 27.03500
H  35.06800 3.40700 34.83200
H  37.49800 1.64900 35.01900
H  36.94400 4.50400 34.49100
H  38.19200 3.92700 33.52900
H  38.29800 3.55600 35.30200
H  35.77400 0.55500 35.66800
H  34.19200 0.78600 34.83800
H  34.90900 0.97300 37.45900
H  33.37300 1.52000 36.87400
H  40.99900 0.87800 32.51400
H  41.89300 1.76200 31.22500
H  42.16000 0.05500 31.48600
H  42.32700 -1.13300 29.64000
H  42.84300 0.55700 29.13300
H  43.11000 -0.79100 28.08100
H  36.35800 -0.27800 25.30700
H  33.77400 0.87400 25.36100
H  35.61200 2.76200 25.02800
H  36.60900 1.66800 24.10600
H  37.19800 2.36300 25.55400
H  33.26200 -1.34800 26.79200
H  34.87400 -1.80800 26.16700
H  33.46900 -1.06300 23.73200
H  32.43600 -1.97200 24.82200
H  33.98700 -2.59200 24.33900
H  30.09800 3.37900 29.04800
H  29.62300 1.61000 29.07800
H  30.60400 2.40900 27.73100
H  31.96100 2.48800 34.10200
H  31.19300 6.57000 36.02100
H  32.03600 6.93900 34.59800
H  32.77700 6.00800 36.00900
Mg 54.23700 23.51800 44.21200
C  51.80900 26.13800 43.52900
C  51.94400 21.15200 43.15200
C  56.75900 21.42700 44.11200
C  56.48600 26.12600 45.16100
N  52.18100 23.67200 43.06900
C  51.40100 24.77100 43.03300
C  49.95200 24.35100 42.68700
C  50.00400 22.82800 43.09200
C  51.50900 22.49600 43.07500
C  49.28000 22.43500 44.42300
C  49.61900 24.68500 41.16800
C  50.54800 24.28700 40.00400
H  51.14300 25.40000 39.02800
N  54.35200 21.56000 43.69300
C  53.32400 20.71500 43.37600
C  53.80900 19.38500 43.27600
C  55.20500 19.44600 43.35700
C  55.52200 20.86800 43.74400
C  53.05600 18.13500 42.95800
C  56.17400 18.37800 43.12600
O  55.82900 17.19300 42.91000
C  57.69300 18.59600 42.87600
N  56.34400 23.80300 44.31800
C  57.08600 22.70600 44.49300
C  58.42500 22.93500 45.22800
C  58.41700 24.48800 45.39200
C  56.97700 24.83900 44.86200
C  58.58000 22.00000 46.49100
C  59.53800 25.22800 44.56100
C  60.59200 25.88700 45.52600
N  54.19400 25.71700 44.40500
C  55.14200 26.55200 44.84600
C  54.53500 27.83600 45.11400
C  53.25000 27.72500 44.60700
C  53.14900 26.44000 43.99500
C  55.12800 29.04000 45.77700
C  51.97300 28.43600 44.42200
O  51.69900 29.57800 44.78400
C  51.04500 27.48700 43.60800
C  50.80800 28.04800 42.30400
O  51.68100 28.59400 41.63500
O  49.43900 28.28600 42.15800
C  48.95500 28.82800 40.88000
H  51.19700 20.36400 43.03300
H  57.46800 20.65400 44.41300
H  57.18100 26.86300 45.56900
H  49.24600 24.93400 43.27800
H  49.52800 22.23900 42.30800
H  50.02100 22.14100 45.16800
H  48.48800 21.69500 44.31200
H  48.77100 23.30400 44.83900
H  49.56000 25.76800 41.06400
H  48.57700 24.39200 41.04200
H  49.85000 23.67600 39.43200
H  51.37900 23.69700 40.39100
H  52.00400 18.31200 43.18100
H  53.31800 17.34800 43.66600
H  53.18800 17.89500 41.90300
H  58.20200 18.56400 43.84000
H  57.89500 19.56000 42.41000
H  58.07000 17.81100 42.22000
H  59.12800 22.65400 44.44400
H  58.49500 24.73900 46.45000
H  57.58400 21.89900 46.92200
H  59.27200 22.46600 47.19100
H  58.97900 21.02700 46.20400
H  59.01100 26.01300 44.01900
H  59.99900 24.58100 43.81500
H  61.60600 25.55900 45.29600
H  60.34500 25.73200 46.57600
H  60.52700 26.96600 45.38500
H  56.01800 28.65300 46.27200
H  54.44100 29.40400 46.54100
H  55.36500 29.76500 44.99900
H  50.14800 27.47400 44.22800
H  49.12000 28.24200 39.97600
H  49.38500 29.80300 40.64700
H  47.87100 28.94000 40.90100

