158

Mg 16.80800 51.46800 26.99900
C  18.88100 49.85800 29.26900
C  14.76000 52.31300 29.54200
C  14.80500 52.92700 24.64800
C  18.93000 50.37300 24.25800
N  16.83600 51.12800 29.22100
C  17.91300 50.58900 29.96000
C  17.66800 50.76100 31.48800
C  16.15600 51.13300 31.48900
C  15.83600 51.55600 30.01500
C  15.17800 50.04300 32.01600
C  18.52800 51.95100 31.95500
C  18.44500 52.18000 33.40500
H  17.74700 51.20400 34.33800
N  15.00800 52.43700 27.08200
C  14.30700 52.68100 28.29100
C  13.21800 53.56900 27.96300
C  13.11200 53.78600 26.51500
C  14.33200 53.01000 26.01300
C  12.33900 54.14200 29.12200
C  12.14300 54.56600 25.63700
O  12.14900 54.52800 24.42100
C  11.05100 55.23600 26.40800
N  16.96600 51.80200 24.82200
C  16.00900 52.40300 24.15400
C  16.29000 52.42600 22.61100
C  17.69200 51.72700 22.54600
C  17.88900 51.24200 23.99600
C  15.28000 51.78300 21.65100
C  18.81400 52.61700 21.96600
C  19.74500 51.97500 20.96800
N  18.42000 50.26400 26.78100
C  19.19600 49.96600 25.60900
C  20.34500 49.24200 26.08700
C  20.27600 49.09900 27.51000
C  19.13200 49.79100 27.83400
C  21.33800 48.59500 25.19700
C  20.84400 48.39400 28.65800
O  21.81800 47.60900 28.70600
C  20.03500 49.09900 29.91400
C  19.68900 48.08700 30.85200
O  19.07300 47.05900 30.64900
O  20.28400 48.39000 32.06200
C  20.06100 47.51700 33.21600
H  14.08900 52.47100 30.38900
H  14.18800 53.37800 23.86800
H  19.55100 49.97900 23.45000
H  17.88900 49.82000 31.99300
H  16.00600 52.03500 32.08200
H  15.69100 49.11800 32.27800
H  14.48300 49.70900 31.24600
H  14.56200 50.33300 32.86700
H  18.25900 52.91300 31.51800
H  19.57800 51.75300 31.73700
H  17.99800 53.17400 33.39200
H  19.45000 52.15500 33.82800
H  11.31900 53.86000 28.86200
H  12.38500 55.22100 28.97500
H  12.53000 53.90900 30.16900
H  10.24200 55.53800 25.74200
H  11.45900 56.15400 26.83200
H  10.58700 54.68600 27.22700
H  16.34800 53.46100 22.27400
H  17.73700 50.81100 21.95800
H  15.36400 50.69600 21.64300
H  15.40800 52.22200 20.66100
H  14.28900 52.12900 21.94400
H  19.38700 52.89000 22.85300
H  18.41100 53.54900 21.57100
H  20.77100 51.87500 21.32200
H  19.72400 52.57100 20.05500
H  19.40900 50.98000 20.67700
H  20.68500 48.18700 24.42500
H  21.91000 47.85600 25.75800
H  22.04500 49.35700 24.87100
H  20.74000 49.83300 30.30200
H  19.62500 48.17700 33.96600
H  21.00000 47.08400 33.56200
H  19.33900 46.72900 33.00000
Mg 10.06500 47.54600 26.60600
C  8.30300 47.45900 29.53200
C  12.69500 48.93200 28.32700
C  11.70400 47.77300 23.66300
C  7.14200 46.50400 24.88400
N  10.43500 48.07200 28.67800
C  9.58800 47.97400 29.73100
C  10.26000 48.36100 31.04400
C  11.38700 49.30900 30.51800
C  11.49500 48.75100 29.02200
C  11.22000 50.79500 30.51600
C  10.88700 47.18600 31.86400
C  11.06400 47.57900 33.36900
H  11.06300 46.46400 34.40700
N  11.94900 48.27900 26.07200
C  12.96400 48.59300 26.96200
C  14.25800 48.61500 26.31500
C  13.93000 48.28900 24.96200
C  12.49400 48.16100 24.83700
C  15.56700 48.95100 27.00100
C  14.95800 48.06600 23.92700
O  14.71000 47.93100 22.71100
C  16.43600 48.00100 24.25600
N  9.36100 47.58400 24.56200
C  10.32200 47.53300 23.54400
C  9.63700 47.16300 22.24800
C  8.51300 46.24000 22.74100
C  8.29600 46.80800 24.14300
C  9.14600 48.36800 21.52800
C  8.94300 44.70300 22.78800
C  9.06400 43.85300 21.46500
N  8.09500 47.15800 27.01700
C  6.96900 46.74000 26.27100
C  5.86600 46.34700 27.10800
C  6.37300 46.71400 28.42900
C  7.68800 47.16300 28.28500
C  4.46100 45.93600 26.72300
C  5.95600 46.76900 29.78900
O  4.95600 46.37500 30.37200
C  7.27600 47.15300 30.60400
C  7.55300 45.97400 31.46900
O  7.85900 44.93500 31.00600
O  7.44800 46.30600 32.82000
C  7.60800 45.17700 33.72100
H  13.53200 49.44700 28.80300
H  12.38400 47.68300 22.81300
H  6.37400 45.96300 24.32900
H  9.54600 48.95000 31.62000
H  12.28600 49.12400 31.10600
H  10.24200 50.92700 30.97800
H  11.23000 51.08200 29.46500
H  11.93000 51.33800 31.14000
H  11.91500 47.06200 31.52500
H  10.37500 46.22600 31.80000
H  10.56700 48.47700 33.73500
H  12.07700 47.96500 33.48200
H  15.38800 49.09800 28.06600
H  15.96600 49.89100 26.62000
H  16.32600 48.19400 26.79800
H  16.58800 47.09200 24.83900
H  16.85800 48.89400 24.71600
H  17.05200 47.71300 23.40400
H  10.35000 46.68100 21.57900
H  7.70200 46.45600 22.04600
H  9.81400 48.35700 20.66700
H  9.32200 49.32700 22.01500
H  8.10900 48.24100 21.21600
H  8.29500 44.11100 23.43500
H  9.92700 44.77200 23.25200
H  8.89500 44.54300 20.63800
H  8.27500 43.10200 21.45300
H  10.12300 43.59800 21.43000
H  3.79600 45.79900 27.57500
H  4.51700 45.01000 26.15100
H  4.15200 46.67000 25.97900
H  7.10900 48.01400 31.25200
H  7.56200 44.17100 33.30500
H  6.77300 45.25800 34.41700
H  8.54100 45.16700 34.28500

