158

Mg 49.69600 47.09400 43.49100
C  46.45600 47.60200 42.30700
C  49.78400 44.07200 41.78000
C  52.99300 46.80500 44.09100
C  49.82500 50.49000 44.13800
N  48.26900 45.96600 42.29100
C  47.03500 46.36200 41.87600
C  46.35300 45.25600 41.04800
C  47.29200 44.05100 41.27300
C  48.57600 44.71900 41.71600
C  46.97500 42.86900 42.20300
C  45.96100 45.59200 39.54000
C  44.46500 45.25800 39.09800
H  44.21200 44.69100 37.65300
N  51.15600 45.53200 43.26400
C  50.98200 44.38500 42.53700
C  52.17900 43.64700 42.51100
C  53.21400 44.35900 43.22700
C  52.51500 45.60600 43.67500
C  52.31800 42.35200 41.77800
C  54.58500 43.91700 43.39300
O  54.93400 42.81700 42.97100
C  55.66600 44.69300 44.08900
N  51.17800 48.42700 44.18600
C  52.47700 48.09400 44.36800
C  53.36600 49.25900 44.74800
C  52.44400 50.48600 44.47200
C  51.05400 49.77200 44.27800
C  53.95500 49.29900 46.20000
C  53.00000 51.38200 43.35900
C  53.27100 52.87500 43.73300
N  48.38100 48.74900 43.39300
C  48.54200 50.00800 43.82400
C  47.34200 50.67300 43.78900
C  46.35900 49.76100 43.40400
C  47.15000 48.61700 43.01900
C  47.07200 52.09000 44.18900
C  44.96800 49.63300 43.01600
O  43.99400 50.37400 43.06200
C  45.02100 48.15700 42.24400
C  44.02100 47.33500 42.96100
O  44.06800 46.91300 44.14100
O  42.98700 47.00800 42.12100
C  42.03600 46.00900 42.59400
H  49.73800 43.13200 41.22600
H  54.06700 46.63600 44.19100
H  49.82700 51.54600 44.41300
H  45.40700 45.05600 41.55100
H  47.44300 43.55100 40.31700
H  46.50900 42.12600 41.55600
H  46.33100 43.04400 43.06500
H  47.82700 42.35000 42.64200
H  46.74100 45.05000 39.00500
H  46.05500 46.66800 39.38800
H  44.01800 46.25100 39.11400
H  44.07000 44.54000 39.81800
H  52.94900 42.32300 40.88900
H  51.37200 41.87500 41.52400
H  52.86400 41.70500 42.46500
H  56.53500 44.05200 44.23900
H  55.19000 44.90800 45.04600
H  55.91500 45.62600 43.58300
H  54.11900 49.21400 43.96200
H  52.27600 51.14800 45.32100
H  55.02400 49.47800 46.08600
H  53.75800 48.29800 46.58400
H  53.41200 49.97800 46.85800
H  52.28300 51.33100 42.53900
H  53.96900 51.04400 42.99000
H  54.31400 53.01400 44.01700
H  52.55900 53.13500 44.51600
H  53.06800 53.52800 42.88500
H  47.83200 52.64300 43.63600
H  47.03700 52.30000 45.25800
H  46.17800 52.42300 43.66200
H  44.65200 48.05100 41.22300
H  41.34300 46.07300 41.75500
H  41.51000 46.33300 43.49300
H  42.45600 45.00400 42.55800
Mg 9.60700 47.40400 26.66000
C  7.66000 46.99000 29.55000
C  12.04800 48.69200 28.54200
C  11.22800 48.10900 23.76200
C  6.83600 46.37000 24.73400
N  9.82700 47.84500 28.77700
C  8.96100 47.51700 29.78800
C  9.54400 47.91600 31.17000
C  10.90400 48.60500 30.77800
C  10.95800 48.38300 29.27000
C  10.97800 50.17000 31.09100
C  9.77500 46.82700 32.26100
C  9.52700 47.45900 33.66500
H  9.63900 46.49700 34.81500
N  11.46100 48.21700 26.20200
C  12.36500 48.61500 27.12200
C  13.61000 48.77300 26.43600
C  13.38200 48.51400 25.07400
C  11.96400 48.26700 24.96900
C  14.95400 49.04800 27.18900
C  14.38300 48.64100 23.92500
O  14.07900 48.36500 22.76300
C  15.87800 48.89900 24.16600
N  9.12600 47.42300 24.55000
C  9.95000 47.70600 23.50400
C  9.33200 47.48300 22.08900
C  8.18800 46.56400 22.53400
C  8.02500 46.80100 24.03700
C  8.97100 48.82800 21.38000
C  8.19900 45.10100 22.12600
C  8.74400 44.09300 23.17800
N  7.69000 46.77800 27.03300
C  6.68300 46.36000 26.12600
C  5.55700 45.91400 26.81500
C  5.86000 46.17000 28.19400
C  7.19300 46.68900 28.27500
C  4.23900 45.26200 26.27300
C  5.32200 46.12200 29.47300
O  4.22400 45.67700 29.85200
C  6.52000 46.50400 30.49400
C  6.74700 45.19000 31.20000
O  7.37400 44.28900 30.73000
O  6.26000 45.22200 32.44100
C  6.42600 44.06600 33.33800
H  12.91200 48.93700 29.16300
H  11.72300 48.47600 22.86000
H  5.96200 45.91600 24.26300
H  8.87000 48.61800 31.66100
H  11.85400 48.18600 31.11000
H  11.82800 50.32000 31.75600
H  10.11100 50.54200 31.63800
H  11.09300 50.74100 30.17000
H  10.74300 46.33200 32.19100
H  9.03500 46.04900 32.07100
H  8.48300 47.77200 33.65400
H  10.20000 48.30100 33.83000
H  15.49300 49.88700 26.74600
H  15.51300 48.11500 27.12000
H  14.91300 49.25600 28.25800
H  16.29500 48.23000 24.91900
H  15.91500 49.94500 24.46800
H  16.34300 48.81700 23.18400
H  10.03900 46.93900 21.46300
H  7.23100 46.98500 22.22600
H  9.38300 49.65500 21.95800
H  7.88100 48.83700 21.35200
H  9.39400 48.74800 20.37900
H  8.84400 44.99200 21.25400
H  7.19400 44.78600 21.84900
H  9.41000 44.53900 23.91600
H  9.37600 43.40300 22.61900
H  7.90700 43.55400 23.62400
H  4.46500 44.27500 25.87000
H  3.76700 45.79500 25.44800
H  3.43000 45.13300 26.99300
H  6.26700 47.25600 31.24100
H  6.70100 44.45300 34.31900
H  7.17300 43.34500 33.00600
H  5.50900 43.48500 33.42900

