158

Mg 0.53600 8.41200 26.90100
C  1.29100 10.61000 29.53300
C  0.70400 5.81200 29.13400
C  0.65500 6.30500 24.27800
C  0.79900 11.10600 24.66700
N  0.90300 8.22300 29.03500
C  1.08600 9.29200 29.93900
C  1.01600 8.84000 31.43400
C  1.01700 7.32100 31.25000
C  0.84600 7.08400 29.71300
C  2.29500 6.56900 31.88700
C  -0.26200 9.40100 32.17800
C  -0.31100 9.14800 33.72800
H  0.95500 8.74900 34.39800
N  0.42200 6.38300 26.73500
C  0.56900 5.48200 27.79700
C  0.55300 4.13900 27.22900
C  0.43400 4.22900 25.80300
C  0.46700 5.70900 25.52100
C  0.53700 2.93500 28.08500
C  0.38300 3.11500 24.65400
O  0.29900 3.32300 23.46000
C  0.66800 1.68800 25.14000
N  0.59600 8.69700 24.75900
C  0.55300 7.65800 23.89500
C  0.66100 8.13400 22.44200
C  0.45100 9.67400 22.61600
C  0.66400 9.84900 24.11900
C  2.07300 7.81600 21.81200
C  -0.91800 10.10900 22.02700
C  -0.98500 11.02200 20.79900
N  0.97700 10.50500 27.02900
C  0.97700 11.45900 26.01400
C  1.19700 12.70500 26.59000
C  1.43600 12.45600 27.95800
C  1.22500 11.07700 28.17100
C  1.34400 14.03000 25.92600
C  1.80300 13.02800 29.20100
O  2.07500 14.16500 29.52000
C  1.59700 11.90500 30.30200
C  2.76000 11.85900 31.16600
O  3.89300 11.53100 30.86900
O  2.32800 12.18700 32.42300
C  3.46900 12.55900 33.23300
H  0.89900 4.96100 29.79100
H  0.79700 5.52500 23.52700
H  0.61700 11.86800 23.90700
H  1.92500 9.16400 31.94100
H  0.10200 6.90300 31.66800
H  2.57700 5.77700 31.19300
H  1.90100 6.04400 32.75600
H  3.05300 7.27300 32.23100
H  -1.14800 8.90100 31.78600
H  -0.22700 10.46400 31.93700
H  -1.17300 8.55400 34.03100
H  -0.50500 10.17100 34.04900
H  1.57700 2.64000 28.22900
H  -0.01400 2.08400 27.68400
H  0.19700 3.01500 29.11800
H  1.38700 1.70800 25.95800
H  0.98100 0.98300 24.37000
H  -0.19300 1.23800 25.63500
H  -0.07200 7.64800 21.79800
H  1.18400 10.33900 22.16000
H  2.69800 8.70900 21.84600
H  1.86300 7.46300 20.80300
H  2.50900 7.03900 22.44000
H  -1.37400 10.69700 22.82500
H  -1.57000 9.23500 22.05700
H  -0.09500 10.98500 20.17200
H  -1.04000 12.06000 21.12700
H  -1.77700 10.67000 20.13900
H  0.70200 14.00700 25.04600
H  2.38000 14.17400 25.62000
H  1.07900 14.91500 26.50400
H  0.67700 12.17700 30.82100
H  4.22200 13.01200 32.58900
H  3.88400 11.69600 33.75500
H  3.13600 13.32900 33.92900
Mg 41.09700 8.94500 29.39800
C  43.32800 10.17200 31.82300
C  38.98400 7.90800 32.08500
C  39.12100 7.51100 27.23900
C  43.64000 9.43800 26.98200
N  41.22900 8.97900 31.69000
C  42.18600 9.57900 32.44800
C  41.77000 9.64300 33.98500
C  40.55500 8.68400 34.02700
C  40.20900 8.51600 32.49900
C  40.79000 7.29500 34.77800
C  41.69200 11.06600 34.60500
C  40.96300 11.10200 35.93600
H  41.56100 11.83600 37.17400
N  39.32000 7.89400 29.60900
C  38.57000 7.61300 30.73200
C  37.35400 6.85500 30.30700
C  37.26200 6.96000 28.89100
C  38.62900 7.49200 28.53300
C  36.33900 6.27100 31.37300
C  36.12300 6.77700 28.00700
O  36.11700 6.78200 26.77500
C  34.69200 6.51500 28.63500
N  41.31700 8.48600 27.42600
C  40.30200 7.96700 26.62000
C  40.64700 7.91000 25.12700
C  41.97700 8.73100 25.15100
C  42.36300 8.85400 26.58500
C  40.76500 6.45300 24.69500
C  41.92400 10.07300 24.56000
C  42.96700 10.63400 23.73400
N  43.10000 9.72300 29.33700
C  44.02700 9.84600 28.31400
C  45.19900 10.46400 28.80000
C  44.99800 10.67200 30.15600
C  43.69400 10.10400 30.45300
C  46.48500 10.97100 28.06200
C  45.44800 11.24700 31.32700
O  46.45200 11.96300 31.51600
C  44.43100 10.90300 32.51900
C  45.10200 10.17100 33.52800
O  45.24900 8.97100 33.52500
O  45.36500 10.96600 34.58300
C  45.84000 10.30800 35.74600
H  38.25000 7.65400 32.85200
H  38.48300 7.18000 26.41700
H  44.20400 9.49100 26.04900
H  42.62400 9.08300 34.36600
H  39.72100 9.16100 34.54100
H  41.75600 7.23400 35.28000
H  40.77400 6.45200 34.08700
H  39.96500 7.07300 35.45400
H  40.97500 11.63600 34.01600
H  42.67100 11.54500 34.62400
H  40.75000 10.08900 36.27600
H  39.98900 11.58700 35.86800
H  36.64200 6.26100 32.42000
H  36.11600 5.23200 31.13000
H  35.33800 6.66700 31.20200
H  34.32200 7.45800 29.03700
H  34.57400 5.75300 29.40500
H  34.02900 6.20000 27.82800
H  39.94200 8.53000 24.57300
H  42.62400 8.08400 24.55700
H  39.75100 6.14500 24.43800
H  41.15300 5.89800 25.55000
H  41.34000 6.22700 23.79800
H  41.52100 10.79800 25.26800
H  41.10200 9.91300 23.86300
H  42.61600 10.70300 22.70400
H  43.90000 10.07100 23.77400
H  43.03400 11.67600 24.04400
H  46.72300 12.01000 28.28800
H  46.40300 10.95500 26.97600
H  47.27300 10.29600 28.39700
H  44.20900 11.90300 32.89100
H  45.01800 9.76100 36.20900
H  46.14100 10.92300 36.59400
H  46.67700 9.64400 35.53000

