158

Mg -12.70900 39.44800 42.31700
C  -11.35400 36.37200 41.33800
C  -10.05700 41.08000 40.53200
C  -14.41600 42.37400 42.31000
C  -15.63700 37.83100 43.36800
N  -11.08500 38.78100 40.87600
C  -10.61700 37.44400 40.77600
C  -9.34200 37.35700 40.02100
C  -8.80500 38.80700 40.03500
C  -10.05100 39.64000 40.48200
C  -7.45400 38.92200 40.88100
C  -9.33400 36.73500 38.59500
C  -8.11200 35.92400 38.20400
H  -7.21700 36.53100 37.11200
N  -12.29600 41.43200 41.61300
C  -11.10700 41.89800 41.00000
C  -11.17100 43.31300 40.82400
C  -12.53300 43.66500 41.06600
C  -13.16900 42.47900 41.69700
C  -10.05000 44.07300 40.30000
C  -13.21300 45.02600 40.80400
O  -12.65800 45.91500 40.29000
C  -14.66400 45.20600 41.06700
N  -14.68600 40.03400 42.94300
C  -15.12200 41.29700 42.88900
C  -16.61700 41.41600 43.35200
C  -16.89700 39.98200 43.85900
C  -15.70600 39.21300 43.29300
C  -16.95700 42.49000 44.34500
C  -18.28500 39.47100 43.29700
C  -19.14100 38.50800 44.19200
N  -13.34800 37.51700 42.57000
C  -14.56300 37.03200 42.95000
C  -14.44200 35.56400 42.90100
C  -13.17400 35.30200 42.28200
C  -12.59100 36.50600 42.03600
C  -15.45300 34.61200 43.38400
C  -12.30200 34.28100 41.84800
O  -12.36400 33.06700 41.90100
C  -11.06300 34.91900 41.21700
C  -9.83600 34.53700 42.03300
O  -9.60500 34.90700 43.15800
O  -9.05000 33.70300 41.30900
C  -7.70800 33.43100 41.78600
H  -9.12600 41.57400 40.24800
H  -15.02400 43.27000 42.44700
H  -16.45300 37.36300 43.92200
H  -8.72000 36.61100 40.51600
H  -8.53900 39.22600 39.06500
H  -6.91100 37.98400 40.76400
H  -7.70400 39.08200 41.93000
H  -6.86100 39.77400 40.55000
H  -9.36400 37.54100 37.86200
H  -10.23900 36.16600 38.38300
H  -8.54400 34.95500 37.95100
H  -7.50400 35.69900 39.08000
H  -10.18000 44.34700 39.25300
H  -9.10900 43.56600 40.51700
H  -10.05100 45.06300 40.75600
H  -15.14700 44.30300 40.69400
H  -15.07500 46.06500 40.53700
H  -14.84600 45.39600 42.12500
H  -17.27000 41.61500 42.50200
H  -16.85700 39.88400 44.94400
H  -17.55000 43.20400 43.77400
H  -16.04900 42.99800 44.67200
H  -17.45500 42.03900 45.20400
H  -18.27800 38.95600 42.33600
H  -18.92300 40.33200 43.09500
H  -20.14400 38.60800 43.77700
H  -19.12000 38.83900 45.23000
H  -18.84900 37.45700 44.18400
H  -16.42000 35.01400 43.08200
H  -15.34800 34.65300 44.46800
H  -15.25500 33.60200 43.02700
H  -11.01400 34.52100 40.20300
H  -7.47100 32.37700 41.64600
H  -7.54300 33.59100 42.85200
H  -7.04500 34.08200 41.21600
Mg -0.16300 44.35900 26.18400
C  2.00300 44.19400 28.97000
C  -2.78400 43.94500 28.30200
C  -2.03500 43.72100 23.40300
C  2.71500 44.46100 24.15300
N  -0.29900 44.03600 28.39100
C  0.63900 44.21800 29.32500
C  0.02900 44.00300 30.72800
C  -1.46700 43.90800 30.43600
C  -1.50900 43.94900 28.90500
C  -2.20000 42.67800 31.02700
C  0.45900 45.17900 31.68200
C  1.28600 44.94000 32.97300
H  0.67900 43.79500 33.91400
N  -2.20700 44.06700 25.90500
C  -3.09300 43.93800 26.90900
C  -4.42600 43.73300 26.34600
C  -4.24500 43.62000 24.94500
C  -2.76700 43.80100 24.66700
C  -5.65800 43.78100 27.26200
C  -5.29700 43.33500 23.88400
O  -4.96500 43.27000 22.68300
C  -6.65900 43.06400 24.22300
N  0.27100 44.10900 24.11000
C  -0.64900 43.80300 23.16100
C  -0.03600 43.58600 21.67200
C  1.39400 43.95500 22.04200
C  1.49100 44.30100 23.51000
C  -0.21200 42.09200 21.33000
C  1.93600 45.19800 21.20400
C  1.59500 46.50500 21.75400
N  1.90700 44.45500 26.43300
C  2.94100 44.42300 25.50100
C  4.21700 44.28900 26.21800
C  3.88300 44.24100 27.59300
C  2.47400 44.31300 27.66100
C  5.63900 44.27400 25.68400
C  4.49700 44.02400 28.86700
O  5.63100 43.79200 29.20200
C  3.28900 43.99000 29.87100
C  3.32400 42.69900 30.60900
O  2.97100 41.63700 30.19300
O  3.90900 42.88900 31.85600
C  4.13900 41.71800 32.76500
H  -3.55600 43.80900 29.06200
H  -2.68000 43.59700 22.53000
H  3.56400 44.61700 23.48400
H  0.54000 43.16100 31.19600
H  -2.05800 44.78200 30.71200
H  -3.23200 42.96000 31.23100
H  -1.68400 42.45600 31.96200
H  -2.28600 41.78800 30.40400
H  -0.40800 45.79700 31.91800
H  1.09400 45.83100 31.08200
H  1.40600 45.79900 33.63400
H  2.33100 44.69700 32.78200
H  -5.66100 42.82100 27.77700
H  -6.58300 43.98000 26.72000
H  -5.56600 44.64300 27.92300
H  -7.20300 42.78300 23.32200
H  -7.18300 43.86000 24.75200
H  -6.70500 42.24800 24.94500
H  -0.54500 44.31300 21.03900
H  2.07000 43.14100 21.78300
H  -0.60300 41.52200 22.17300
H  0.76100 41.64200 21.13600
H  -0.97100 41.99800 20.55400
H  1.51900 45.23600 20.19700
H  3.02200 45.20700 21.10800
H  2.47800 46.94600 22.21600
H  0.75000 46.45400 22.44100
H  1.28200 47.21000 20.98400
H  5.73500 44.03500 24.62500
H  6.27400 43.53000 26.16600
H  5.95800 45.27600 25.97000
H  3.43700 44.78500 30.60200
H  3.74700 41.92600 33.76100
H  5.21800 41.70200 32.92000
H  3.84700 40.74100 32.38000

