158

Mg 2.30600 -0.65400 44.35100
C  5.86400 -0.24900 43.64500
C  1.87200 2.21800 42.40600
C  -0.98900 -1.29100 44.35000
C  2.97200 -3.58600 46.05700
N  3.72900 0.94800 43.32000
C  5.10100 0.72900 42.97300
C  5.65100 1.85600 42.07600
C  4.41500 2.85500 42.04200
C  3.23500 2.02000 42.63600
C  4.59200 4.12200 42.81800
C  5.92900 1.29700 40.68300
C  7.29900 1.73000 40.08500
H  7.20600 2.68600 38.92500
N  0.69500 0.33800 43.57200
C  0.75400 1.50800 42.86000
C  -0.63100 2.00600 42.53800
C  -1.52500 0.88900 42.88700
C  -0.62500 -0.09900 43.56900
C  -0.93200 3.30800 41.84600
C  -2.95700 0.89300 42.51600
O  -3.47300 1.86400 42.00800
C  -3.75900 -0.32800 42.81500
N  1.14700 -2.27500 45.02500
C  -0.21200 -2.31600 44.99100
C  -0.82200 -3.53100 45.71400
C  0.49800 -4.12500 46.35600
C  1.66500 -3.28800 45.77900
C  -1.96700 -3.21500 46.70900
C  0.59600 -5.71600 46.03400
C  1.24400 -6.59500 47.24900
N  4.00100 -1.76200 44.79000
C  4.15600 -2.90100 45.57300
C  5.52600 -3.22000 45.73700
C  6.18200 -2.21400 45.04600
C  5.26300 -1.31000 44.42700
C  6.11100 -4.39100 46.50200
C  7.43200 -1.68600 44.74000
O  8.53200 -2.16500 45.05700
C  7.32700 -0.37100 43.75900
C  7.88600 0.75500 44.46800
O  7.60100 1.06800 45.64100
O  8.82000 1.49400 43.71100
C  9.22100 2.76800 44.31200
H  1.67600 3.18800 41.94500
H  -2.07400 -1.41200 44.39200
H  3.15000 -4.47600 46.66500
H  6.51800 2.25200 42.60500
H  4.17800 3.15700 41.02200
H  4.11000 3.99700 43.78700
H  4.19400 5.01000 42.32700
H  5.61300 4.47700 42.96100
H  5.18800 1.77400 40.04100
H  5.87300 0.21400 40.79100
H  7.85600 0.87600 39.70100
H  7.91700 2.09500 40.90600
H  -1.87700 3.64300 42.27300
H  -0.91700 3.19300 40.76200
H  -0.19000 4.08500 42.03000
H  -4.70100 -0.34900 42.26700
H  -3.79400 -0.49400 43.89100
H  -3.07000 -1.10200 42.47700
H  -1.22400 -4.26400 45.01500
H  0.47400 -4.07200 47.44500
H  -1.72200 -3.65600 47.67500
H  -2.78100 -3.85100 46.36100
H  -2.30800 -2.18300 46.79500
H  0.90500 -5.98800 45.02500
H  -0.44600 -6.01700 45.92400
H  2.05700 -7.24900 46.93300
H  0.46000 -7.27200 47.58700
H  1.43100 -5.93700 48.09800
H  5.46300 -5.26400 46.42100
H  6.46000 -4.22200 47.52100
H  6.97200 -4.78700 45.96400
H  7.88900 -0.53700 42.84000
H  10.11200 2.59500 44.91500
H  8.44300 3.13200 44.98400
H  9.44600 3.55300 43.59000
Mg 47.81400 15.46900 28.16000
C  45.54300 15.31900 30.78200
C  49.79600 17.47100 30.17300
C  50.08300 15.67800 25.65600
C  45.47800 13.91200 26.18800
N  47.58100 16.35700 30.20600
C  46.73400 15.93900 31.12900
C  47.08400 16.47300 32.53200
C  48.35400 17.34300 32.22000
C  48.58600 17.09200 30.72800
C  48.43400 18.81600 32.68800
C  47.29100 15.35700 33.60200
C  46.52300 15.58000 34.94100
H  46.52500 16.99800 35.56900
N  49.71100 16.39200 27.96600
C  50.33100 17.17800 28.91400
C  51.69900 17.56600 28.40400
C  51.77100 16.99300 27.06900
C  50.50700 16.31400 26.83600
C  52.73300 18.34500 29.27500
C  52.98900 17.08500 26.07300
O  53.03400 16.58800 24.95800
C  54.18700 17.92300 26.49600
N  47.83200 14.87900 26.27900
C  48.79800 15.11900 25.36800
C  48.32000 14.72100 23.97200
C  47.10900 13.76200 24.15700
C  46.82000 14.12600 25.66400
C  48.10500 15.96000 23.11100
C  47.19500 12.26900 23.81600
C  46.92500 11.24200 24.96400
N  45.84900 14.73300 28.33800
C  45.04400 14.13200 27.48500
C  43.79800 13.66400 28.18600
C  43.98600 14.15400 29.48700
C  45.22300 14.78600 29.54200
C  42.64700 12.83000 27.64700
C  43.47600 14.11100 30.78900
O  42.43300 13.55300 31.20500
C  44.32600 15.02500 31.70200
C  43.68100 16.18600 32.33000
O  43.71700 17.33900 31.90400
O  42.91500 15.75900 33.39200
C  42.20600 16.81800 34.16600
H  50.46500 18.02700 30.83200
H  50.67400 15.68500 24.73800
H  44.71100 13.53500 25.50700
H  46.30200 17.18700 32.79000
H  49.22000 16.79100 32.58500
H  47.53700 19.05800 33.25800
H  48.26200 19.40100 31.78500
H  49.33700 19.12400 33.21500
H  48.33900 15.26700 33.88900
H  46.94000 14.38400 33.26000
H  46.80000 14.97200 35.80300
H  45.49500 15.40700 34.62200
H  53.17800 19.21100 28.78500
H  53.59200 17.71600 29.50900
H  52.35000 18.70200 30.23100
H  53.81800 18.90600 26.78700
H  54.89300 17.99500 25.66900
H  54.56000 17.51800 27.43700
H  49.20700 14.18000 23.64200
H  46.32300 14.15200 23.51000
H  48.24200 16.73700 23.86300
H  47.09500 16.10600 22.72700
H  48.86000 16.01400 22.32600
H  48.15200 12.06100 23.33900
H  46.46600 12.11500 23.02100
H  46.83900 11.74300 25.92800
H  47.72500 10.50700 25.05100
H  45.97300 10.80600 24.66400
H  42.60300 11.81700 28.04700
H  42.77200 12.78300 26.56500
H  41.65100 13.23900 27.81700
H  44.60000 14.26300 32.43100
H  41.70000 17.47900 33.46300
H  42.85500 17.45300 34.77000
H  41.38500 16.49100 34.80500

