158

Mg -1.99300 17.21300 26.46400
C  -2.20200 14.92700 29.08600
C  -2.87100 19.69100 28.63400
C  -2.10000 19.35800 23.88800
C  -1.67800 14.54200 24.19900
N  -2.63000 17.27200 28.62900
C  -2.51500 16.27000 29.53300
C  -2.54600 16.81100 30.96600
C  -3.02300 18.34600 30.70100
C  -2.89400 18.49000 29.23100
C  -4.43000 18.66900 31.23400
C  -1.14900 16.63400 31.64600
C  -1.02200 17.50600 32.95900
H  -1.09100 16.70800 34.29700
N  -2.30600 19.28700 26.37800
C  -2.63500 20.11500 27.30100
C  -2.56700 21.46200 26.88600
C  -2.45100 21.41300 25.45000
C  -2.29200 19.94900 25.19200
C  -2.65200 22.68500 27.68700
C  -2.38100 22.47200 24.39700
O  -2.34500 22.22200 23.19800
C  -2.34000 23.96200 24.82900
N  -1.99800 16.90600 24.34400
C  -2.00500 18.04000 23.51100
C  -1.95600 17.59600 21.99200
C  -1.49600 16.02900 22.20500
C  -1.64300 15.81600 23.72400
C  -3.37000 17.77700 21.36000
C  -0.07700 15.87300 21.66500
C  1.10900 16.45800 22.45500
N  -2.01700 15.18800 26.61700
C  -1.84800 14.21700 25.57400
C  -1.96100 12.87500 26.09300
C  -2.04500 13.11600 27.51100
C  -2.07200 14.55600 27.72700
C  -1.82900 11.68200 25.27000
C  -2.13900 12.44000 28.82800
O  -2.06500 11.21900 29.16900
C  -2.30200 13.64300 29.95700
C  -1.31200 13.35300 30.94400
O  -0.09100 13.42800 30.83600
O  -1.91800 12.84500 32.06200
C  -1.04800 12.54700 33.19600
H  -3.05900 20.47500 29.37000
H  -2.07300 19.91200 22.94800
H  -1.41800 13.78500 23.45600
H  -3.28100 16.29500 31.58300
H  -2.25300 19.05200 31.01200
H  -4.41700 19.16200 32.20700
H  -4.99700 17.80100 31.56900
H  -4.99600 19.36300 30.61200
H  -0.42600 16.95600 30.89500
H  -0.90700 15.60800 31.92200
H  -1.93500 18.07200 33.14600
H  -0.18700 18.20500 33.00700
H  -2.50000 22.51800 28.75400
H  -3.63000 23.16000 27.62400
H  -1.83600 23.35100 27.40600
H  -1.44800 24.13300 25.43200
H  -3.28100 24.15900 25.34300
H  -2.07900 24.58600 23.97500
H  -1.17600 18.08400 21.40800
H  -2.16500 15.46800 21.55200
H  -3.28900 18.43900 20.49800
H  -4.01100 18.27100 22.09000
H  -3.79600 16.81700 21.06800
H  0.08300 16.22200 20.64500
H  0.00300 14.79000 21.57200
H  1.76000 17.02000 21.78600
H  1.78300 15.72200 22.89400
H  0.78300 17.15000 23.23200
H  -1.30100 11.85600 24.33200
H  -2.89000 11.49100 25.10600
H  -1.31600 10.92400 25.86200
H  -3.30700 13.41900 30.31400
H  -1.65900 12.04700 33.94800
H  -0.83100 13.54700 33.57200
H  -0.10200 12.03100 33.02800
Mg 36.21500 1.32200 29.81800
C  34.03200 2.58200 32.35100
C  38.60600 1.30900 32.35800
C  38.40200 0.70500 27.48800
C  33.69700 1.87500 27.46500
N  36.28600 1.97500 32.05500
C  35.32000 2.44200 32.82400
C  35.68500 2.42400 34.32100
C  37.21300 2.37200 34.24500
C  37.42900 1.89600 32.77600
C  38.06800 3.72600 34.55300
C  35.16500 1.16600 35.10500
C  34.74200 1.33100 36.56500
H  35.69000 2.15600 37.42300
N  38.18900 0.88900 29.91400
C  38.97400 0.84100 31.00700
C  40.31100 0.39500 30.67600
C  40.23400 0.27400 29.21900
C  38.91300 0.57800 28.80600
C  41.39800 0.17900 31.64700
C  41.28200 -0.18700 28.22100
O  41.15700 -0.39000 27.01600
C  42.58300 -0.68900 28.87400
N  36.03800 1.37300 27.75800
C  37.18700 1.21200 27.01800
C  36.92100 1.38300 25.51600
C  35.36500 1.53100 25.43500
C  34.94400 1.46300 26.95000
C  37.78900 2.54400 24.80100
C  34.62000 0.55200 24.46700
C  34.14800 -0.73700 25.07800
N  34.23300 2.03700 29.86400
C  33.37300 2.22800 28.88100
C  32.12600 2.71100 29.41700
C  32.30400 2.81700 30.78400
C  33.60500 2.39100 31.04800
C  30.91300 3.00800 28.54200
C  31.58000 3.20300 31.99700
O  30.41000 3.48600 32.16200
C  32.78100 2.93100 33.16500
C  32.85500 4.11800 33.95100
O  33.37500 5.15500 33.61300
O  32.43700 3.87800 35.25200
C  32.97300 4.93200 36.17200
H  39.28700 1.21700 33.20700
H  39.05100 0.44200 26.65000
H  32.88300 1.92400 26.73900
H  35.27300 3.36700 34.67900
H  37.64500 1.66000 34.94800
H  38.81300 3.93300 33.78400
H  38.62400 3.61200 35.48400
H  37.38700 4.57200 34.64100
H  35.83400 0.34100 34.86000
H  34.17900 0.89200 34.72900
H  34.83100 0.33800 37.00700
H  33.73800 1.73200 36.69700
H  41.80700 -0.80600 31.42300
H  41.03000 0.10500 32.67000
H  42.24900 0.85600 31.57500
H  42.94200 0.01500 29.62500
H  43.35500 -0.93800 28.14500
H  42.25600 -1.64600 29.28000
H  37.17900 0.45600 25.00300
H  35.17700 2.52700 25.03400
H  37.06300 3.35200 24.88800
H  37.99900 2.18900 23.79200
H  38.65200 2.82500 25.40400
H  35.37600 0.24200 23.74600
H  33.86800 0.96700 23.79700
H  34.92100 -1.50300 25.13100
H  33.30200 -1.08900 24.48800
H  33.87200 -0.72700 26.13200
H  30.53500 2.01300 28.30800
H  31.16500 3.46300 27.58500
H  30.16900 3.58400 29.09300
H  32.38900 2.10900 33.76400
H  32.39700 4.96000 37.09700
H  32.98100 5.97000 35.83900
H  34.00000 4.69600 36.45000

