158

Mg 27.33000 50.56500 26.69400
C  25.22900 51.84600 29.25400
C  29.33100 49.29400 29.01700
C  29.23300 49.46200 24.18500
C  24.96600 51.80100 24.33200
N  27.29600 50.62300 28.92100
C  26.33800 51.17800 29.78200
C  26.76100 50.88400 31.21600
C  28.19200 50.18500 31.09400
C  28.30700 50.04200 29.60000
C  29.39900 50.96100 31.67800
C  25.62900 50.13500 32.07700
C  25.00300 50.90600 33.32900
H  25.35500 50.53500 34.80900
N  29.07600 49.64100 26.60800
C  29.75000 49.17600 27.69900
C  31.00400 48.53700 27.29700
C  30.99000 48.43400 25.88200
C  29.74200 49.20600 25.48800
C  31.96200 48.01500 28.30400
C  31.98400 47.76200 24.95000
O  31.76700 47.75300 23.75200
C  33.16200 46.93200 25.46100
N  27.16000 50.70700 24.49000
C  28.02300 50.13500 23.74500
C  27.72800 50.16500 22.23300
C  26.29000 50.94600 22.28800
C  26.08500 51.12000 23.77600
C  28.63400 50.99300 21.24200
C  25.06600 50.17300 21.66000
C  24.35500 49.13800 22.60600
N  25.56200 51.74100 26.71600
C  24.70800 52.00500 25.68600
C  23.54800 52.75300 26.22700
C  23.72100 52.67300 27.67100
C  24.95200 52.01900 27.88600
C  22.44000 53.40400 25.48100
C  23.00800 52.94100 28.90600
O  21.93900 53.53800 29.16000
C  23.96500 52.33800 30.00200
C  24.25200 53.47300 30.89700
O  25.04900 54.33100 30.57600
O  23.59700 53.49000 32.06100
C  23.98000 54.46500 33.12700
H  29.98700 48.84400 29.76600
H  29.82100 49.10700 23.33700
H  24.22100 51.97000 23.55100
H  26.96100 51.80100 31.77000
H  28.26400 49.15200 31.43300
H  30.09700 51.38900 30.95900
H  29.91100 50.25300 32.33000
H  29.14900 51.79400 32.33600
H  26.16500 49.28200 32.49200
H  24.81200 49.69800 31.50400
H  23.94400 51.13800 33.21400
H  25.45400 51.89400 33.41300
H  31.96800 46.92600 28.25900
H  31.70300 48.16400 29.35300
H  32.92500 48.50700 28.16600
H  33.84000 47.50300 26.09600
H  33.77200 46.62900 24.60900
H  32.80400 46.00600 25.90900
H  27.70500 49.15900 21.81400
H  26.34700 51.86000 21.69600
H  28.92500 50.40800 20.37000
H  29.59300 51.16100 21.73200
H  28.22000 51.94300 20.90300
H  25.28300 49.58900 20.76600
H  24.35200 50.88100 21.24000
H  23.60200 49.68800 23.17100
H  25.09100 48.79800 23.33400
H  23.92200 48.46000 21.87100
H  22.16500 52.96100 24.52400
H  22.73900 54.44800 25.38300
H  21.53000 53.29100 26.07000
H  23.44800 51.51800 30.49900
H  24.29400 55.41600 32.69600
H  24.78700 54.15900 33.79100
H  23.19400 54.51500 33.88000
Mg -12.36900 16.57400 41.05300
C  -9.70600 14.27800 40.73100
C  -10.40900 18.96500 39.60400
C  -15.09300 18.41900 40.90900
C  -14.36600 13.91700 42.20800
N  -10.27200 16.61600 40.25600
C  -9.36100 15.55100 40.20800
C  -7.99700 16.03900 39.72800
C  -8.16300 17.54600 39.45000
C  -9.70900 17.77100 39.81300
C  -7.19700 18.48300 40.11100
C  -7.60700 15.21500 38.48400
C  -6.29600 14.39900 38.61500
H  -5.14200 14.92700 37.79400
N  -12.69000 18.46900 40.41300
C  -11.79600 19.32600 39.84100
C  -12.44100 20.61100 39.54300
C  -13.75200 20.54400 40.10600
C  -13.90300 19.08000 40.44700
C  -11.79200 21.72800 38.87400
C  -14.73800 21.67600 40.23400
O  -14.38300 22.79200 39.82700
C  -16.06700 21.61100 40.88100
N  -14.54500 16.19900 41.36500
C  -15.38900 17.16800 41.44600
C  -16.74900 16.78100 41.94400
C  -16.49600 15.31200 42.30400
C  -15.03300 15.11200 42.00400
C  -17.30000 17.68300 43.09000
C  -17.25200 14.26100 41.51700
C  -17.90300 13.19600 42.38800
N  -12.13000 14.48500 41.37700
C  -13.03000 13.58600 41.88600
C  -12.33300 12.34100 42.06900
C  -11.01900 12.52000 41.67700
C  -10.94900 13.86800 41.21100
C  -13.00800 11.06900 42.49000
C  -9.78900 11.90500 41.49500
O  -9.46200 10.74900 41.78100
C  -8.92100 12.92200 40.82900
C  -7.63300 13.01700 41.53300
O  -7.43700 13.60800 42.50500
O  -6.78200 12.16700 40.89500
C  -5.50300 11.98500 41.53200
H  -9.69800 19.73600 39.30300
H  -15.98200 19.04300 40.79900
H  -14.73500 13.18100 42.92600
H  -7.24000 15.95400 40.50700
H  -8.16100 17.76700 38.38300
H  -6.34400 17.86400 40.38800
H  -7.67600 18.95700 40.96700
H  -6.88100 19.21900 39.37100
H  -7.65900 15.72700 37.52300
H  -8.36900 14.44300 38.37800
H  -6.57600 13.39500 38.29600
H  -5.99600 14.29500 39.65800
H  -10.79500 21.45600 38.52900
H  -11.79600 22.66200 39.43500
H  -12.48100 21.85000 38.03800
H  -16.02500 20.94800 41.74500
H  -16.85400 21.15800 40.27700
H  -16.39200 22.61500 41.15300
H  -17.30400 16.85000 41.00900
H  -16.63100 15.17600 43.37700
H  -16.35200 18.08100 43.45000
H  -17.78800 17.13800 43.89900
H  -17.98300 18.43600 42.69400
H  -16.61600 13.79000 40.76800
H  -18.03800 14.69800 40.90000
H  -18.99300 13.15500 42.37900
H  -17.58700 13.16700 43.43100
H  -17.58500 12.25600 41.93700
H  -13.58200 11.28400 43.39200
H  -12.41500 10.19600 42.76100
H  -13.67300 10.77800 41.67600
H  -8.65900 12.52000 39.85100
H  -4.75500 12.71900 41.23000
H  -5.17800 11.01600 41.15600
H  -5.51200 11.84300 42.61200

