158

Mg 16.73800 -2.43100 27.75400
C  15.46800 -0.20900 30.20300
C  18.77400 -3.73100 30.16400
C  18.48800 -3.92300 25.18000
C  15.20300 -0.32500 25.39000
N  17.14200 -1.94300 29.91100
C  16.45300 -1.05400 30.68900
C  16.86100 -1.20700 32.15600
C  18.07600 -2.20100 32.05200
C  18.01500 -2.67800 30.66000
C  19.44200 -1.58300 32.34800
C  15.70100 -1.58100 33.15200
C  15.52900 -0.83400 34.55100
H  16.76800 -0.18700 35.19400
N  18.29800 -3.77900 27.62000
C  18.92400 -4.15200 28.76100
C  19.71700 -5.34900 28.42000
C  19.66000 -5.46600 27.02200
C  18.80700 -4.35500 26.51200
C  20.48800 -6.22700 29.43700
C  20.44200 -6.49300 26.08600
O  20.32200 -6.38900 24.88500
C  21.24800 -7.59800 26.64200
N  16.88000 -2.08100 25.54800
C  17.63900 -2.87600 24.77500
C  17.38000 -2.57000 23.31900
C  16.45300 -1.33300 23.36800
C  16.12600 -1.22800 24.82100
C  18.68500 -2.31900 22.53400
C  15.25700 -1.24500 22.38600
C  15.32100 -0.17700 21.38100
N  15.56600 -0.66300 27.73800
C  14.89800 -0.07900 26.73300
C  13.88700 0.87500 27.20600
C  14.09700 0.84400 28.59000
C  15.12500 -0.13200 28.85000
C  12.97500 1.64900 26.37200
C  13.73900 1.40600 29.86000
O  12.97000 2.30700 30.09100
C  14.57400 0.78000 30.97900
C  15.53000 1.81800 31.62700
O  16.58900 2.19600 31.10500
O  15.03100 2.36100 32.79100
C  15.60200 3.52800 33.31200
H  19.38100 -4.18600 30.94900
H  18.92300 -4.52100 24.37700
H  14.68200 0.27800 24.64300
H  17.38900 -0.28600 32.40100
H  18.02500 -3.10500 32.65900
H  19.78400 -1.88000 33.34000
H  19.39100 -0.49500 32.34600
H  20.32300 -1.80300 31.74600
H  15.74300 -2.61800 33.48500
H  14.77700 -1.39500 32.60400
H  15.13200 -1.57700 35.24300
H  14.72100 -0.16800 34.24800
H  19.92600 -7.15800 29.51600
H  20.55400 -5.74500 30.41200
H  21.52900 -6.39300 29.16200
H  20.73700 -8.30000 27.30100
H  22.13600 -7.24600 27.16600
H  21.42900 -8.21100 25.75900
H  16.86000 -3.46100 22.96500
H  16.95300 -0.38000 23.19400
H  19.51800 -1.98900 23.15500
H  18.48200 -1.56600 21.77300
H  18.94500 -3.26800 22.06500
H  14.22200 -1.35500 22.71100
H  15.44500 -2.11000 21.75000
H  16.27300 -0.07400 20.85900
H  15.24700 0.78500 21.88800
H  14.60800 -0.42500 20.59400
H  12.52000 1.02800 25.60100
H  13.52400 2.47600 25.92200
H  12.25000 2.08400 27.06000
H  13.84900 0.41800 31.70900
H  14.77100 4.21700 33.46200
H  16.26900 4.03500 32.61400
H  16.08600 3.25600 34.25000
Mg 35.30000 2.89700 28.85000
C  33.59500 4.22000 31.65800
C  38.07600 2.68000 30.74900
C  37.12700 2.30600 26.07100
C  32.60600 3.75200 26.96700
N  35.70500 3.44100 30.98900
C  34.92700 3.78400 32.00300
C  35.62400 3.74300 33.41700
C  37.08700 3.45500 33.00800
C  36.95800 3.14000 31.43200
C  38.09700 4.59800 33.15100
C  34.93400 2.69900 34.38500
C  34.41900 3.22800 35.77500
H  34.92300 4.61600 36.37000
N  37.32600 2.49800 28.46800
C  38.26700 2.31600 29.40900
C  39.46200 1.87400 28.81600
C  39.27900 1.86600 27.41600
C  37.88800 2.17800 27.26500
C  40.67600 1.42100 29.60600
C  40.24800 1.50100 26.34900
O  39.90900 1.58100 25.13700
C  41.70000 1.15500 26.54700
N  34.82900 2.88500 26.83600
C  35.77800 2.46300 25.91600
C  35.20200 2.55200 24.54100
C  33.67300 2.93500 24.70000
C  33.69500 3.30100 26.21300
C  35.96700 3.28000 23.44400
C  32.68600 1.74200 24.28900
C  31.50200 2.19500 23.32700
N  33.51100 3.72100 29.22200
C  32.45900 3.88300 28.31700
C  31.24700 4.18300 28.98500
C  31.57100 4.32200 30.34900
C  33.01800 4.10300 30.41900
C  29.83300 4.38100 28.35300
C  31.05200 4.60500 31.70000
O  29.93800 4.85700 32.16500
C  32.38300 4.54100 32.58200
C  32.48800 5.81900 33.41400
O  33.09300 6.84300 33.12200
O  31.78900 5.59600 34.59900
C  31.49200 6.81900 35.27400
H  38.94900 2.67700 31.40500
H  37.67300 2.08000 25.15200
H  31.73700 4.00600 26.35600
H  35.47500 4.73200 33.85000
H  37.53000 2.61300 33.54100
H  38.99400 4.16600 33.59300
H  37.66600 5.37000 33.78800
H  38.24900 5.10200 32.19600
H  35.76300 2.00200 34.50400
H  34.15500 2.23800 33.77800
H  34.80000 2.44300 36.42800
H  33.33000 3.23400 35.72400
H  40.51800 1.44600 30.68400
H  41.58600 1.98700 29.40500
H  40.92400 0.40400 29.30300
H  41.73500 0.27900 27.19400
H  42.16300 1.99800 27.06000
H  42.21100 0.86800 25.62800
H  35.16800 1.49600 24.27300
H  33.43300 3.76900 24.04000
H  37.01500 3.52600 23.61000
H  35.55500 4.28500 23.34700
H  35.83200 2.71500 22.52100
H  32.26600 1.35600 25.21800
H  33.10300 0.88000 23.76800
H  30.62800 2.36200 23.95600
H  31.24200 1.50900 22.52100
H  31.61900 3.18200 22.87900
H  29.23200 3.55800 28.74100
H  29.68800 4.39900 27.27300
H  29.35800 5.32200 28.63000
H  32.22800 3.70900 33.26800
H  32.40200 7.40300 35.41000
H  31.04900 6.59700 36.24500
H  30.74900 7.37200 34.70000

