158

Mg -1.16000 17.45600 25.93200
C  -1.67900 15.04600 28.54900
C  -1.48800 19.96100 28.23100
C  -1.06900 19.51600 23.43300
C  -1.47400 14.68400 23.67000
N  -1.59000 17.46900 28.13100
C  -1.56700 16.39100 28.97500
C  -1.45600 16.91000 30.41500
C  -1.88200 18.37600 30.29000
C  -1.61200 18.64800 28.83000
C  -3.38700 18.60100 30.69000
C  -0.09200 16.65800 31.12500
C  -0.03800 15.83400 32.40600
H  0.81500 16.09500 33.63200
N  -1.24400 19.49700 25.82300
C  -1.36300 20.33100 26.89600
C  -1.39000 21.74400 26.32700
C  -1.13700 21.60000 24.92900
C  -1.27600 20.16700 24.65400
C  -1.68900 22.93500 27.10800
C  -1.03500 22.65600 23.89900
O  -1.21500 22.43800 22.70300
C  -0.80600 24.06300 24.32000
N  -1.42700 17.19500 23.83000
C  -1.22500 18.14300 23.01200
C  -1.40500 17.79300 21.55100
C  -1.17900 16.21500 21.61800
C  -1.33800 15.97100 23.10200
C  -2.78100 18.21200 20.90400
C  0.08200 15.77100 20.84600
C  1.43400 16.38800 21.26900
N  -1.35000 15.31900 26.05000
C  -1.55100 14.35300 25.02400
C  -1.66500 13.07900 25.63500
C  -1.77500 13.29900 26.96400
C  -1.56700 14.67800 27.21100
C  -1.79100 11.80100 24.87500
C  -1.93800 12.67600 28.29400
O  -2.00700 11.52000 28.57100
C  -2.00700 13.80100 29.32100
C  -1.04600 13.38600 30.40900
O  0.16700 13.29700 30.36600
O  -1.78300 13.10800 31.45600
C  -1.19500 12.43700 32.60900
H  -1.59700 20.74900 28.97800
H  -0.82900 20.20600 22.62100
H  -1.41500 13.85200 22.96500
H  -2.27300 16.38300 30.90900
H  -1.28400 19.04100 30.91300
H  -3.46700 19.15300 31.62700
H  -3.93200 17.67100 30.85700
H  -3.93100 19.04400 29.85600
H  0.42900 17.58800 31.35500
H  0.52400 16.12700 30.39900
H  0.24400 14.80200 32.19800
H  -1.01100 15.97300 32.87700
H  -2.53200 23.37800 26.57800
H  -0.83800 23.61200 27.03100
H  -2.05400 22.74700 28.11800
H  -1.64800 24.47800 24.87400
H  -0.49300 24.74000 23.52500
H  0.08000 24.09600 24.95300
H  -0.72500 18.30800 20.87200
H  -2.08800 15.68300 21.34000
H  -3.18700 18.70400 21.78800
H  -3.44400 17.43800 20.51600
H  -2.57300 18.98600 20.16600
H  -0.08000 16.08100 19.81400
H  0.13900 14.68300 20.83700
H  1.80900 16.88200 20.37200
H  2.12900 15.74300 21.80600
H  1.16700 17.16200 21.98900
H  -1.06100 11.12600 25.32200
H  -1.74400 11.83800 23.78700
H  -2.75500 11.33100 25.07100
H  -3.02800 13.76700 29.70100
H  -1.03300 11.42300 32.24200
H  -1.88400 12.57800 33.44200
H  -0.26800 12.92100 32.91600
Mg 52.48300 24.32200 45.35500
C  49.62300 26.06100 44.59900
C  50.92600 21.60200 43.82400
C  55.46200 22.78600 45.29600
C  54.02300 27.33300 46.35700
N  50.48000 23.93300 44.40100
C  49.51400 24.81800 44.08800
C  48.58100 24.29500 43.05100
C  48.71600 22.76900 43.29400
C  50.11100 22.69700 43.92900
C  47.62100 22.18100 44.25500
C  49.00300 24.70800 41.56200
C  47.83000 24.98400 40.59100
H  47.78700 24.04400 39.32800
N  53.12500 22.44300 44.70800
C  52.32000 21.43100 44.13500
C  53.10600 20.20600 43.94500
C  54.40300 20.52400 44.31800
C  54.41600 21.99300 44.77700
C  52.60400 18.98600 43.23600
C  55.59300 19.56200 44.18800
O  55.41800 18.39300 43.73500
C  56.93400 19.95400 44.53200
N  54.55900 25.07900 45.52400
C  55.53500 24.18300 45.68900
C  56.81100 24.90000 46.32700
C  56.37400 26.39500 46.29000
C  54.91200 26.29300 46.06500
C  57.28000 24.38800 47.71500
C  56.93600 27.29400 45.18800
C  57.90200 28.50100 45.55900
N  51.96800 26.21800 45.55300
C  52.65300 27.31900 46.04300
C  51.66500 28.36100 46.22600
C  50.47800 27.87700 45.66200
C  50.72300 26.58700 45.29700
C  51.76000 29.68200 46.85500
C  49.10900 28.24700 45.30900
O  48.53500 29.27600 45.55200
C  48.52500 27.11100 44.53400
C  48.21900 27.66100 43.20000
O  48.97500 28.12300 42.39000
O  46.81900 27.73700 43.01800
C  46.24900 28.36800 41.86000
H  50.45500 20.81100 43.23700
H  56.39600 22.22200 45.34700
H  54.37900 28.26600 46.79900
H  47.56800 24.57600 43.33900
H  48.58600 22.31000 42.31400
H  46.86000 21.67900 43.65700
H  47.10400 22.92100 44.86600
H  48.08800 21.47000 44.93700
H  49.48400 23.84600 41.10000
H  49.60600 25.61100 41.46300
H  47.67000 26.01200 40.26800
H  46.89200 24.77800 41.10600
H  51.66600 19.20000 42.72300
H  52.41600 18.19700 43.96400
H  53.31100 18.55500 42.52700
H  57.20500 20.80400 43.90600
H  57.74200 19.22700 44.45100
H  56.90700 20.30100 45.56500
H  57.66600 24.82900 45.65400
H  56.63000 26.83200 47.25600
H  56.87900 23.38700 47.87800
H  56.92500 25.10100 48.46000
H  58.35800 24.25200 47.79700
H  56.11500 27.68800 44.58900
H  57.39100 26.64500 44.44100
H  58.87200 28.23900 45.13800
H  58.04200 28.64800 46.63000
H  57.68000 29.50800 45.20400
H  52.39400 29.55300 47.73200
H  50.76300 29.96200 47.19600
H  52.13100 30.35100 46.07900
H  47.62600 26.70400 44.99700
H  45.25300 28.66200 42.19000
H  46.12400 27.61000 41.08600
H  46.89400 29.18600 41.54000

