158

Mg 34.67900 3.21600 30.35300
C  32.33300 4.19900 32.58300
C  36.98500 2.85700 32.67700
C  36.93600 2.52700 27.86400
C  32.11300 3.54900 27.85000
N  34.71000 3.75400 32.33000
C  33.67100 4.08100 33.03000
C  34.02000 3.93600 34.54700
C  35.55000 3.94800 34.56900
C  35.79200 3.45100 33.10700
C  36.28600 5.23900 34.91300
C  33.35000 2.62200 35.27500
C  32.93200 2.83400 36.74600
H  33.61900 3.94300 37.59600
N  36.70200 2.88600 30.26300
C  37.41200 2.61500 31.37400
C  38.76200 2.29600 31.04700
C  38.83900 2.23500 29.59500
C  37.40800 2.53800 29.18100
C  39.77500 2.11600 32.09500
C  39.97900 2.05800 28.67800
O  39.85300 2.04200 27.42900
C  41.28100 1.63600 29.27300
N  34.56700 3.09400 28.15500
C  35.59800 2.68600 27.40600
C  35.21800 2.48100 25.94700
C  33.67000 2.77100 26.01300
C  33.40900 3.12100 27.41900
C  36.04500 3.38300 24.94800
C  32.89500 1.65300 25.42900
C  32.70400 0.43600 26.24300
N  32.63900 3.70400 30.19100
C  31.73000 3.93500 29.15900
C  30.43900 4.33200 29.65300
C  30.60400 4.48800 31.03000
C  31.94400 4.12800 31.28900
C  29.14800 4.58600 28.93000
C  30.02500 4.88200 32.29400
O  28.86600 5.20000 32.51300
C  31.09200 4.68000 33.33900
C  31.27300 5.99000 34.07100
O  31.50600 7.01500 33.55700
O  30.98500 5.75000 35.39400
C  30.85600 7.03000 36.21700
H  37.63700 2.60500 33.51600
H  37.60300 2.14500 27.08800
H  31.43200 3.56900 26.99600
H  33.75200 4.87100 35.03800
H  35.81000 3.20300 35.32000
H  35.70100 6.10300 34.59800
H  37.16200 5.33900 34.27300
H  36.75500 5.23700 35.89700
H  33.97000 1.72800 35.21000
H  32.37300 2.47400 34.81500
H  33.06900 1.91700 37.31900
H  31.85900 3.02400 36.79000
H  39.61700 1.16000 32.59400
H  39.63800 2.82200 32.91300
H  40.82100 2.30000 31.84800
H  41.37300 0.62800 29.67800
H  41.69200 2.44100 29.88100
H  42.02700 1.49800 28.49000
H  35.44400 1.41600 25.89100
H  33.42400 3.57000 25.31300
H  36.93600 3.82500 25.39400
H  35.50100 4.24600 24.56600
H  36.43600 2.83300 24.09200
H  33.47400 1.22900 24.60800
H  32.03800 2.13700 24.96000
H  33.19700 -0.46000 25.86800
H  31.71200 0.01600 26.07800
H  32.95700 0.58200 27.29300
H  28.85400 5.60900 29.16800
H  28.43900 3.80800 29.21300
H  29.22900 4.56600 27.84300
H  30.71900 3.90700 34.01100
H  30.24900 7.75200 35.67100
H  31.79900 7.50800 36.48100
H  30.21900 6.78200 37.06600
Mg 27.67100 49.95400 26.08600
C  25.51300 51.06300 28.76200
C  29.90500 48.89800 28.43100
C  29.49800 49.16600 23.54000
C  25.42700 51.58900 23.99000
N  27.74200 50.07000 28.34800
C  26.75600 50.49800 29.21000
C  27.11500 50.16700 30.70900
C  28.53800 49.58100 30.52700
C  28.69800 49.41200 28.96200
C  29.76300 50.46600 31.04200
C  25.99900 49.23400 31.43100
C  25.34100 49.92400 32.61900
H  26.35300 50.34000 33.76200
N  29.47400 49.09400 25.99800
C  30.29200 48.70700 27.02900
C  31.49700 48.08300 26.51800
C  31.39100 48.25700 25.12800
C  30.08300 48.81500 24.79300
C  32.55300 47.39000 27.40200
C  32.50700 47.87300 24.14300
O  32.34700 47.98800 22.97400
C  33.90100 47.38500 24.56800
N  27.52400 50.37300 24.05300
C  28.37400 49.85700 23.20100
C  28.08100 50.25800 21.75100
C  26.60500 50.73900 21.81900
C  26.40600 50.79400 23.42100
C  29.19800 51.13000 21.08200
C  25.56100 49.85500 21.11800
C  24.34000 50.67400 20.62600
N  25.95600 51.22200 26.29600
C  25.14800 51.78800 25.33200
C  23.96700 52.28700 25.95200
C  24.04500 52.08000 27.28900
C  25.25900 51.40100 27.44800
C  22.71300 52.84300 25.21800
C  23.37900 52.28500 28.57100
O  22.30400 52.78100 28.89800
C  24.42000 51.78300 29.60000
C  24.76300 52.93800 30.48500
O  25.67200 53.73100 30.32400
O  23.95200 52.87600 31.53000
C  24.29200 53.83300 32.64300
H  30.59200 48.63600 29.23800
H  30.12000 48.86200 22.69500
H  24.66800 51.98600 23.31300
H  27.15800 51.09800 31.27300
H  28.61900 48.60700 31.00900
H  30.44800 50.85700 30.28900
H  30.31200 49.82500 31.73100
H  29.39500 51.35300 31.55800
H  26.51000 48.32600 31.75300
H  25.25300 48.95300 30.68800
H  24.56100 49.21300 32.89400
H  24.74000 50.78800 32.33300
H  32.19400 47.37300 28.43100
H  33.57300 47.77500 27.38100
H  32.55400 46.37800 26.99800
H  34.37700 48.17900 25.14300
H  34.43900 47.04900 23.68200
H  33.75800 46.43500 25.08300
H  28.07700 49.36900 21.12100
H  26.68100 51.72800 21.36700
H  29.76900 50.58200 20.33200
H  29.85900 51.53200 21.85000
H  28.73200 51.98900 20.59900
H  25.07600 49.12700 21.77000
H  26.06700 49.33500 20.30500
H  23.45700 50.27700 21.12600
H  24.36400 50.56000 19.54200
H  24.35200 51.71300 20.95500
H  21.87100 53.02500 25.88600
H  22.41200 52.01200 24.58000
H  22.92700 53.62300 24.48800
H  23.87300 51.02700 30.16300
H  25.26900 53.47600 32.96800
H  23.55700 53.75400 33.44400
H  24.47200 54.84600 32.28300

