158

Mg 23.66000 -6.04800 46.55600
C  26.11300 -3.54700 45.80400
C  21.54000 -4.45200 44.38500
C  21.70300 -8.66300 46.90400
C  26.38100 -7.93000 48.08000
N  23.89600 -4.22600 45.23600
C  24.96200 -3.35200 45.12300
C  24.70900 -2.40800 43.98800
C  23.09300 -2.46200 43.76500
C  22.83300 -3.83000 44.49400
C  22.30900 -1.25900 44.40900
C  25.48600 -2.85500 42.74200
C  26.78700 -2.08300 42.50600
H  27.08300 -1.48400 41.14000
N  21.82000 -6.48600 45.83100
C  21.05000 -5.66000 45.03100
C  19.73500 -6.27900 44.84100
C  19.70900 -7.51800 45.54300
C  21.14600 -7.63300 46.15000
C  18.63500 -5.60200 44.06200
C  18.55700 -8.51700 45.58900
O  17.46700 -8.44100 45.00000
C  18.69100 -9.68700 46.42500
N  23.94900 -7.96600 47.43600
C  22.95900 -8.86100 47.42400
C  23.43600 -10.23200 48.01500
C  25.01300 -10.09000 48.11000
C  25.14300 -8.58400 47.88300
C  22.73000 -10.81200 49.22700
C  25.78300 -10.91700 47.09400
C  26.69300 -11.97600 47.83600
N  25.70300 -5.76900 47.07800
C  26.62700 -6.64100 47.68000
C  27.85200 -5.95500 47.88300
C  27.76100 -4.83600 47.04200
C  26.41200 -4.72600 46.64600
C  29.14200 -6.45300 48.57900
C  28.50800 -3.72700 46.55300
O  29.65300 -3.45500 46.68400
C  27.43500 -2.80200 45.92300
C  27.36600 -1.51000 46.67700
O  27.08700 -1.31200 47.88300
O  27.42600 -0.42900 45.87200
C  27.09000 0.92700 46.39100
H  20.78700 -3.97400 43.75400
H  21.12100 -9.57200 47.07100
H  27.15800 -8.58700 48.47500
H  25.02600 -1.42500 44.33600
H  22.80600 -2.48300 42.71400
H  22.96200 -0.46200 44.76500
H  21.65400 -1.64600 45.19000
H  21.66100 -0.94700 43.59000
H  24.85400 -2.96800 41.86100
H  25.72600 -3.90000 42.94100
H  27.62200 -2.77400 42.61400
H  26.84200 -1.29600 43.25900
H  17.78100 -6.25700 43.89000
H  18.89200 -5.07400 43.14300
H  18.28100 -4.91200 44.82800
H  17.73800 -10.21500 46.46100
H  18.90600 -9.22000 47.38600
H  19.43200 -10.40000 46.06300
H  23.16700 -10.97500 47.26400
H  25.29900 -10.25700 49.14900
H  23.31000 -11.55100 49.78000
H  21.75500 -11.25800 49.02900
H  22.52700 -9.99200 49.91600
H  26.38000 -10.29600 46.42600
H  25.12800 -11.51000 46.45700
H  27.71500 -12.03300 47.45900
H  26.42000 -12.95200 47.43500
H  26.64800 -11.88200 48.92100
H  29.02700 -7.22000 49.34400
H  29.57600 -5.58900 49.08200
H  29.73000 -6.89500 47.77400
H  27.81900 -2.54700 44.93500
H  26.24000 0.86200 47.07000
H  27.06800 1.63900 45.56600
H  27.95300 1.12400 47.02700
Mg 46.83700 25.35000 28.86000
C  47.58700 27.80600 31.25400
C  45.81000 23.26600 31.41500
C  46.38500 22.80900 26.71200
C  48.37600 27.36800 26.46500
N  46.47600 25.62600 31.07000
C  46.95900 26.63300 31.82400
C  46.70600 26.36600 33.29400
C  46.20000 24.86800 33.31000
C  46.24400 24.52400 31.84000
C  47.02800 24.00900 34.38100
C  45.53600 27.35400 33.82300
C  46.00100 28.10200 35.10900
H  46.49500 27.32800 36.36000
N  45.94400 23.38700 29.03000
C  45.60800 22.69800 30.14100
C  45.19300 21.37900 29.80200
C  45.27800 21.26700 28.39600
C  45.85100 22.52100 27.97800
C  44.44000 20.45500 30.74900
C  44.77500 20.17600 27.47100
O  44.66500 20.35400 26.27300
C  44.21000 18.84900 28.00700
N  47.39600 25.11700 26.95400
C  47.06400 23.96600 26.26400
C  47.52300 24.10100 24.84100
C  47.92000 25.64800 24.62300
C  47.87100 26.09400 26.11700
C  48.62400 23.17500 24.55100
C  46.88000 26.47900 23.83600
C  47.50500 27.57100 22.99600
N  47.78100 27.19800 28.72200
C  48.34600 27.89000 27.73000
C  48.86600 29.12200 28.16100
C  48.61400 29.09000 29.56400
C  47.93100 27.96900 29.88200
C  49.43900 30.12400 27.31300
C  48.69200 29.94300 30.77300
O  49.13900 31.06100 30.88500
C  48.22900 29.02100 31.96600
C  49.40600 28.68600 32.84600
O  50.53500 28.50800 32.39400
O  49.08200 28.68300 34.19000
C  50.27200 28.75300 35.07700
H  45.56800 22.62600 32.26600
H  46.23300 22.06900 25.92300
H  48.83600 27.99100 25.69500
H  47.59500 26.48600 33.91300
H  45.15700 24.67600 33.56300
H  46.44700 23.13300 34.67200
H  47.41900 24.58300 35.22100
H  47.86900 23.66300 33.78200
H  44.53600 26.93400 33.92600
H  45.40100 28.12300 33.06200
H  45.06800 28.49400 35.51300
H  46.66900 28.95300 34.96900
H  44.95400 19.49400 30.72300
H  43.44300 20.26300 30.35200
H  44.46800 20.77100 31.79100
H  44.75100 18.40700 28.84400
H  44.24300 18.13700 27.18200
H  43.19800 18.86200 28.41200
H  46.71200 23.90900 24.13800
H  48.98800 25.77400 24.44600
H  48.66700 23.24200 23.46400
H  48.41600 22.18400 24.95600
H  49.54700 23.52200 25.01600
H  46.18400 26.91600 24.55200
H  46.42900 25.80800 23.10500
H  48.58300 27.52600 22.84300
H  47.27400 28.56600 23.37600
H  47.08400 27.53700 21.99100
H  49.50900 30.99500 27.96500
H  48.81300 30.20100 26.42400
H  50.48100 29.89100 27.09000
H  47.42800 29.46400 32.55800
H  50.91000 27.91400 34.79900
H  49.84800 28.52400 36.05500
H  50.73900 29.72700 35.22200

