158

Mg 16.39300 53.15600 27.00500
C  18.59200 51.64300 29.20300
C  14.22400 53.63700 29.66200
C  14.29900 54.37300 24.82900
C  18.67000 52.37400 24.42600
N  16.43200 52.70200 29.16800
C  17.46500 52.13000 29.82800
C  17.20600 52.23100 31.36800
C  15.68000 52.30200 31.39400
C  15.35700 52.88000 29.97700
C  15.01000 50.82500 31.65600
C  17.98900 53.40000 32.09300
C  18.23300 53.10400 33.60000
H  17.19500 52.23400 34.40600
N  14.62200 54.08900 27.25900
C  13.86700 54.21800 28.40400
C  12.63000 54.88100 28.08700
C  12.71200 55.25400 26.67000
C  13.91100 54.55600 26.20500
C  11.64500 55.39300 29.14900
C  11.73500 56.17700 25.79100
O  12.00800 56.52400 24.64700
C  10.49600 56.71500 26.46800
N  16.42300 53.29200 24.92800
C  15.37000 53.82600 24.18500
C  15.73200 54.05100 22.66500
C  17.17900 53.41700 22.69400
C  17.45100 53.00800 24.13200
C  14.86300 53.24300 21.62400
C  18.28800 54.27400 21.90100
C  19.44000 54.79300 22.72600
N  18.29500 52.12100 26.79000
C  19.05100 51.75900 25.65900
C  20.17300 51.01100 26.04500
C  20.03900 50.94800 27.42700
C  18.84800 51.64100 27.83200
C  21.18800 50.45800 25.08100
C  20.65000 50.37100 28.64100
O  21.51100 49.54500 28.79100
C  19.75600 50.92600 29.83900
C  19.36300 49.83200 30.77800
O  18.51100 48.99200 30.51700
O  19.96700 49.95700 31.97100
C  19.57500 48.98700 32.99000
H  13.48300 53.75600 30.45600
H  13.53800 54.71900 24.12700
H  19.38500 52.25000 23.61000
H  17.48100 51.30200 31.86700
H  15.25500 52.92700 32.17900
H  15.73300 50.12300 32.07300
H  14.75500 50.44300 30.66700
H  14.18300 50.99800 32.34400
H  17.37700 54.27900 31.88800
H  18.95400 53.51000 31.59800
H  18.39600 54.07700 34.06300
H  19.18400 52.58600 33.72000
H  11.64000 56.48100 29.22800
H  11.93500 55.00600 30.12600
H  10.61500 55.10200 28.93900
H  10.02600 57.40400 25.76600
H  10.93100 57.30500 27.27500
H  9.88400 55.86200 26.76100
H  15.80300 55.11200 22.42200
H  17.13100 52.43800 22.21700
H  15.14600 52.19100 21.60800
H  14.91800 53.68100 20.62800
H  13.84700 53.34600 22.00600
H  17.79300 55.11400 21.41300
H  18.80900 53.69200 21.14100
H  19.11200 54.85300 23.76400
H  19.75000 55.82900 22.58800
H  20.36900 54.22200 22.72600
H  21.28400 49.38400 25.23900
H  22.12300 51.01400 25.14600
H  20.78500 50.57700 24.07500
H  20.40300 51.62900 30.36300
H  18.57500 49.22400 33.35600
H  20.33200 49.09900 33.76600
H  19.62100 47.94900 32.66300
Mg 0.31500 43.36600 26.54200
C  2.40400 43.19500 29.41800
C  -2.31600 42.83200 28.52700
C  -1.36200 42.62700 23.85100
C  3.28300 43.54200 24.67900
N  0.14600 43.02200 28.63100
C  1.02300 43.15200 29.68200
C  0.38600 43.16000 31.03900
C  -1.02600 42.61600 30.71400
C  -1.09400 42.72800 29.20200
C  -1.45500 41.21700 31.30500
C  0.32700 44.56200 31.68900
C  0.94500 44.52300 33.10100
H  0.54400 43.34000 33.92600
N  -1.55500 42.97900 26.18300
C  -2.53400 42.76400 27.18000
C  -3.77500 42.57900 26.53600
C  -3.58800 42.58800 25.14600
C  -2.13400 42.74800 25.03300
C  -5.11600 42.36500 27.26900
C  -4.54900 42.45800 23.94600
O  -4.28100 42.29000 22.76600
C  -6.04000 42.45700 24.34700
N  0.85900 43.17500 24.51700
C  -0.02900 42.87700 23.58600
C  0.62600 42.53600 22.25500
C  1.98700 43.29600 22.38600
C  2.07000 43.36200 23.91200
C  0.87500 41.03800 22.05700
C  2.05600 44.79200 21.85700
C  2.54900 44.93500 20.40200
N  2.43100 43.43100 26.90700
C  3.53500 43.62600 26.05900
C  4.77300 43.78600 26.72700
C  4.39200 43.48700 28.03900
C  2.96100 43.30100 28.11300
C  6.12700 44.13100 26.09100
C  4.85600 43.22600 29.44000
O  5.95400 43.08400 29.94200
C  3.58500 43.26900 30.33400
C  3.65200 42.19800 31.27600
O  3.17000 41.03500 31.10500
O  4.23700 42.54700 32.37000
C  4.34700 41.54600 33.51600
H  -3.17500 42.70100 29.18800
H  -1.82200 42.39800 22.88800
H  4.19500 43.78800 24.13200
H  0.87700 42.34800 31.57600
H  -1.85000 43.24800 31.04500
H  -0.75300 40.67300 31.93700
H  -1.56400 40.48800 30.50200
H  -2.39100 41.38500 31.83800
H  -0.70800 44.90300 31.73200
H  0.93100 45.25200 31.10000
H  0.49100 45.33800 33.66600
H  2.01300 44.66000 32.93200
H  -5.59800 43.34200 27.30400
H  -4.91400 42.00900 28.27900
H  -5.82300 41.61600 26.91100
H  -6.29500 43.19600 25.10700
H  -6.22300 41.44600 24.71200
H  -6.64500 42.59600 23.45100
H  -0.05600 42.91000 21.49200
H  2.85900 42.76700 21.99900
H  1.87900 40.74600 21.74800
H  0.15700 40.57000 21.38300
H  0.77500 40.53300 23.01700
H  2.69200 45.41700 22.48500
H  1.01700 45.12000 21.87500
H  1.88900 45.58800 19.83100
H  2.69900 43.94600 19.96900
H  3.49700 45.47300 20.43700
H  6.20000 45.18700 25.83100
H  6.31900 43.61100 25.15300
H  6.86900 43.85400 26.84100
H  3.69200 44.26300 30.77000
H  4.01600 40.54300 33.24700
H  3.70000 41.79100 34.35800
H  5.39500 41.52100 33.81500

