158

Mg 7.21200 54.87100 41.68500
C  6.66500 51.49700 41.11400
C  10.22200 54.49500 39.82300
C  7.62600 58.16300 41.61800
C  3.98600 55.12400 42.80000
N  8.31200 53.18100 40.73200
C  7.88300 51.94100 40.48800
C  8.82600 51.14300 39.44200
C  10.11800 51.96000 39.70500
C  9.52300 53.30600 40.06500
C  11.07900 51.39500 40.77200
C  8.45600 51.28400 37.86600
C  8.85700 50.02200 37.15900
H  8.33200 49.86800 35.72000
N  8.71700 56.16000 40.96500
C  9.90900 55.79500 40.28400
C  10.71300 56.96700 40.06800
C  10.02100 58.07700 40.61900
C  8.75200 57.50800 41.13700
C  12.09500 56.77000 39.50000
C  10.50000 59.49200 40.51500
O  11.54600 59.71900 39.91500
C  9.64600 60.59200 41.16200
N  5.86700 56.46400 41.97500
C  6.30700 57.74700 42.01200
C  5.22600 58.66000 42.50400
C  4.05100 57.69700 42.89200
C  4.66300 56.34300 42.56000
C  5.62800 59.56300 43.68300
C  2.66800 57.90300 42.20300
C  1.57500 58.13600 43.23400
N  5.70000 53.57800 42.21100
C  4.39100 53.81000 42.59400
C  3.65500 52.61700 42.65700
C  4.54000 51.69000 42.12000
C  5.76000 52.30800 41.82400
C  2.21900 52.38000 43.07400
C  4.69700 50.26200 41.91000
O  3.88300 49.37500 42.15400
C  6.07800 50.07300 41.17600
C  5.70100 49.51500 39.88100
O  5.43100 50.08800 38.82900
O  5.75800 48.16200 40.00100
C  5.56900 47.43400 38.71800
H  11.13500 54.36100 39.23900
H  7.58400 59.25300 41.56000
H  2.98700 55.28800 43.20900
H  8.90500 50.08600 39.69600
H  10.59900 52.16800 38.74900
H  10.89800 50.36800 41.08800
H  11.11200 52.00000 41.67900
H  12.03000 51.44000 40.24200
H  8.99700 52.02300 37.27700
H  7.40400 51.48200 37.66400
H  8.45300 49.21900 37.77500
H  9.93600 49.99100 37.31000
H  12.59300 57.69300 39.20200
H  12.10500 56.11500 38.62900
H  12.69200 56.24500 40.24600
H  9.33100 60.24900 42.14800
H  8.75700 60.74800 40.55100
H  10.16400 61.54800 41.23300
H  5.01400 59.27100 41.62600
H  3.99600 57.66600 43.98000
H  6.36400 60.30700 43.37600
H  6.07200 58.97200 44.48400
H  4.73800 60.09800 44.01500
H  2.43100 57.03900 41.58200
H  2.73700 58.80300 41.59100
H  1.73700 57.91000 44.28800
H  0.69500 57.51100 43.08100
H  1.03300 59.07700 43.13800
H  2.36200 51.79600 43.98400
H  1.74700 51.75300 42.31800
H  1.73300 53.34900 43.18900
H  6.64600 49.36100 41.77500
H  5.74500 46.37700 38.91400
H  6.18900 47.76400 37.88400
H  4.54400 47.69100 38.45200
Mg -11.97600 15.17700 41.87600
C  -8.77900 14.05700 41.35800
C  -11.21900 18.23800 40.34700
C  -15.25700 15.94900 42.09400
C  -12.87000 11.71300 42.36100
N  -10.19900 16.03800 40.86600
C  -8.97300 15.35700 40.91200
C  -7.90100 16.24500 40.15800
C  -8.73400 17.66800 40.01400
C  -10.14800 17.32400 40.38600
C  -8.16300 18.99700 40.67400
C  -7.61100 15.62700 38.70800
C  -6.08600 15.55400 38.38800
H  -5.51900 16.40500 37.26100
N  -13.09200 16.80200 41.33900
C  -12.58200 18.00500 40.80900
C  -13.65900 18.97600 40.71000
C  -14.81000 18.37800 41.35900
C  -14.40500 17.01600 41.70400
C  -13.47400 20.38600 40.05100
C  -16.25800 19.02400 41.48800
O  -16.44200 20.14400 40.97900
C  -17.38600 18.36900 42.13100
N  -13.77300 14.05300 42.06000
C  -14.94000 14.60800 42.25500
C  -16.03900 13.56100 42.57700
C  -15.34200 12.23800 42.05600
C  -13.91300 12.68600 42.29600
C  -16.35300 13.53100 44.11000
C  -15.56900 11.93800 40.57500
C  -16.25400 10.57600 40.21100
N  -11.04800 13.20000 42.15700
C  -11.51200 11.99100 42.26800
C  -10.44200 11.01900 42.33700
C  -9.30300 11.73200 41.97700
C  -9.72200 13.08400 41.86200
C  -10.66300 9.53700 42.73300
C  -7.90500 11.67500 41.65000
O  -7.18700 10.65700 41.58900
C  -7.52600 13.13600 41.28000
C  -6.57600 13.64800 42.27100
O  -6.73200 13.60400 43.46200
O  -5.62000 14.34000 41.56500
C  -4.42300 14.74500 42.36900
H  -10.98800 19.24100 39.98100
H  -16.32200 16.17200 42.18400
H  -13.19400 10.67500 42.46200
H  -7.02800 16.46400 40.77300
H  -8.74700 17.85800 38.94000
H  -8.34600 19.76900 39.92700
H  -7.08300 18.84900 40.66200
H  -8.63200 19.28100 41.61600
H  -8.11700 16.17500 37.91200
H  -8.00000 14.61600 38.58800
H  -5.75700 14.51900 38.30100
H  -5.54600 15.80600 39.30100
H  -14.23200 21.07800 40.41700
H  -13.64800 20.28900 38.97900
H  -12.51000 20.78300 40.37100
H  -18.27400 18.98100 41.97600
H  -17.20400 18.16300 43.18600
H  -17.66600 17.54000 41.48100
H  -16.88100 13.66200 41.89200
H  -15.50300 11.38700 42.71800
H  -15.85100 14.27200 44.73200
H  -16.21400 12.53200 44.52100
H  -17.42600 13.61800 44.27800
H  -14.65100 12.04400 39.99700
H  -16.23900 12.66500 40.11700
H  -15.77600 9.74600 40.73100
H  -16.21400 10.44100 39.13000
H  -17.31300 10.56100 40.46600
H  -11.30300 9.02000 42.01800
H  -11.25200 9.40100 43.64000
H  -9.67100 9.08800 42.78400
H  -7.04500 13.15900 40.30200
H  -4.60100 15.67900 42.90400
H  -3.54900 14.94300 41.75000
H  -4.16700 13.94900 43.06800

