158

Mg 37.02600 50.16700 25.17600
C  37.32400 47.96000 27.88900
C  35.40000 52.35100 27.22300
C  36.58700 52.13900 22.54100
C  38.18700 47.58300 23.10600
N  36.19900 50.12500 27.34600
C  36.66900 49.19100 28.23800
C  36.37800 49.74700 29.70100
C  35.53500 51.05100 29.39400
C  35.67800 51.16100 27.91000
C  34.04900 51.03300 29.94400
C  37.68300 50.03800 30.48900
C  37.69100 49.54700 31.91800
H  36.25300 49.56400 32.76300
N  36.26500 52.11100 24.92900
C  35.62200 52.81600 25.87000
C  35.20400 54.06700 25.36800
C  35.52100 54.04900 23.95400
C  36.17000 52.74500 23.70200
C  34.63500 55.21600 26.21200
C  35.32300 55.09600 22.90300
O  35.72700 55.00100 21.76100
C  34.48200 56.33000 23.19200
N  37.28600 49.87600 23.11900
C  37.12600 50.88800 22.18600
C  37.48100 50.42100 20.72200
C  37.90400 48.93800 20.96600
C  37.78200 48.75900 22.47800
C  36.30000 50.51200 19.72500
C  39.32400 48.57700 20.41400
C  40.49500 49.20200 21.19400
N  37.60000 48.21300 25.38000
C  38.07100 47.29400 24.45100
C  38.38700 46.04600 25.08400
C  38.11100 46.25300 26.44300
C  37.64500 47.57600 26.55500
C  38.95200 44.82400 24.38600
C  38.11800 45.62400 27.74000
O  38.49800 44.51200 28.06400
C  37.69900 46.72300 28.75700
C  36.53000 46.28000 29.51600
O  35.46600 45.96200 29.02600
O  36.86500 46.36900 30.85100
C  35.81000 45.87300 31.79200
H  34.93300 53.07700 27.89300
H  36.46900 52.75900 21.65000
H  38.52000 46.74900 22.48500
H  35.76100 48.99900 30.20100
H  36.04000 51.89700 29.86100
H  33.84800 51.98100 30.44400
H  33.88100 50.21000 30.63800
H  33.36600 51.12500 29.09900
H  38.03900 51.06200 30.38000
H  38.48100 49.54600 29.93200
H  38.39000 50.16200 32.48400
H  38.12800 48.55000 31.98300
H  35.12600 56.16600 26.42300
H  34.29900 54.86900 27.18900
H  33.66700 55.50800 25.80600
H  33.51600 56.06900 23.62400
H  34.33500 56.87800 22.26100
H  34.87400 57.03100 23.93000
H  38.37900 50.93500 20.37800
H  37.21700 48.26300 20.45500
H  36.27900 51.56700 19.45200
H  35.37700 50.35800 20.28300
H  36.23600 49.73100 18.96700
H  39.35800 49.02700 19.42200
H  39.43300 47.49400 20.47300
H  40.92300 48.35300 21.72700
H  40.11500 49.78700 22.03100
H  41.16200 49.83500 20.60900
H  39.90600 45.06500 23.91900
H  38.31500 44.42500 23.59700
H  39.05200 43.97800 25.06600
H  38.50900 46.99600 29.43300
H  35.61900 44.84400 31.48700
H  34.90300 46.47100 31.69400
H  36.22200 45.76500 32.79500
Mg -11.78400 38.26900 41.40900
C  -9.32600 35.75800 41.06300
C  -9.50700 40.55500 40.61900
C  -14.35800 40.49400 41.37600
C  -14.11300 35.70900 42.08800
N  -9.75000 38.14500 40.69100
C  -8.90800 37.07900 40.69300
C  -7.56000 37.40900 40.05900
C  -7.49600 38.97500 40.31600
C  -8.96800 39.23800 40.62700
C  -6.53700 39.24200 41.47400
C  -7.43000 36.95500 38.58100
C  -6.29500 35.91500 38.33100
H  -5.34600 36.49100 37.26300
N  -11.87500 40.24100 41.10100
C  -10.81500 41.03000 40.79500
C  -11.21200 42.34100 40.59900
C  -12.62400 42.36900 40.83500
C  -13.05400 40.96400 41.08900
C  -10.42100 43.44900 40.03500
C  -13.53900 43.56100 40.62400
O  -12.94600 44.59400 40.55700
C  -15.00300 43.48200 40.45500
N  -13.92900 38.03100 41.48400
C  -14.74700 39.13800 41.49900
C  -16.18300 38.73000 41.85200
C  -16.09200 37.16800 42.00600
C  -14.59600 36.96900 41.84000
C  -16.64700 39.48800 43.10100
C  -17.00900 36.35800 41.08600
C  -17.93200 35.34100 41.75300
N  -11.78800 36.13900 41.51200
C  -12.78700 35.28800 41.85100
C  -12.22900 33.94500 41.99400
C  -10.89400 34.10900 41.65800
C  -10.66200 35.44600 41.44500
C  -12.95600 32.74700 42.51400
C  -9.67200 33.37400 41.48000
O  -9.45200 32.19100 41.49400
C  -8.47700 34.48400 41.17300
C  -7.61600 34.53500 42.45500
O  -7.78000 35.28000 43.46700
O  -6.56900 33.63600 42.26200
C  -5.68400 33.54800 43.35100
H  -8.63100 41.16800 40.39500
H  -15.21800 41.15800 41.49200
H  -14.81000 34.92600 42.39100
H  -6.88800 36.80900 40.67300
H  -7.24200 39.63200 39.48400
H  -5.98300 40.16500 41.30500
H  -5.82000 38.47200 41.76100
H  -7.23200 39.37400 42.30300
H  -7.26400 37.87400 38.02000
H  -8.38200 36.55500 38.23400
H  -6.74800 35.03400 37.87700
H  -5.83400 35.52300 39.23800
H  -9.39400 43.17800 39.79000
H  -10.41100 44.24200 40.78200
H  -10.89500 43.65300 39.07400
H  -15.34700 44.38600 39.95200
H  -15.59300 43.55300 41.36900
H  -15.20600 42.58600 39.86900
H  -16.77200 39.01800 40.98100
H  -16.35800 37.00400 43.05000
H  -17.53300 39.99000 42.71300
H  -15.92500 40.22600 43.45300
H  -16.86600 38.85200 43.95900
H  -16.38700 35.83200 40.36100
H  -17.66800 36.99000 40.49100
H  -18.86800 35.23000 41.20500
H  -18.04300 35.36000 42.83700
H  -17.55200 34.34200 41.53900
H  -13.22400 32.20000 41.61000
H  -13.85800 33.00800 43.06800
H  -12.30300 32.12000 43.12000
H  -7.84400 34.10300 40.37200
H  -5.98900 33.99400 44.29800
H  -4.74900 34.05900 43.12100
H  -5.42600 32.52600 43.62500

