158

Mg 5.28000 54.42400 40.61700
C  5.06500 50.74300 40.51500
C  8.58100 54.06800 39.95600
C  5.20000 57.57200 39.65900
C  1.76600 54.40000 41.09500
N  6.58600 52.61600 39.89800
C  6.37400 51.24400 40.14400
C  7.71300 50.41400 40.18300
C  8.81500 51.50700 40.08300
C  7.93300 52.85000 40.00600
C  9.90900 51.48900 41.16700
C  7.82900 49.22000 39.20900
C  7.17500 49.54500 37.83700
H  8.05800 49.86700 36.58900
N  6.77300 55.72400 40.15300
C  8.03800 55.35300 39.87700
C  8.76400 56.54200 39.51100
C  7.80600 57.59200 39.46000
C  6.50900 57.01800 39.77400
C  10.27900 56.54600 39.13800
C  8.18800 59.02800 39.19500
O  9.31400 59.29600 38.88300
C  7.17200 60.23800 39.23200
N  3.70700 55.72400 40.23700
C  3.96800 57.04500 40.01500
C  2.68500 57.91000 39.91100
C  1.64600 56.88600 40.51700
C  2.36100 55.55800 40.57600
C  2.79200 59.26500 40.60900
C  0.24400 56.82900 39.91000
C  -0.99100 57.17000 40.81200
N  3.72900 53.00200 40.77200
C  2.35600 53.18000 41.10800
C  1.76300 51.88500 41.45600
C  2.86200 51.01200 41.39300
C  3.93900 51.65200 40.76500
C  0.36900 51.64000 41.82200
C  3.22600 49.62500 41.66400
O  2.62900 48.72900 42.23000
C  4.61300 49.35100 40.93800
C  4.48000 48.40300 39.72900
O  4.13400 48.71500 38.59600
O  4.73200 47.14000 40.10800
C  4.57800 46.12000 39.02400
H  9.66800 53.97100 39.93500
H  5.22000 58.55100 39.17600
H  0.70600 54.41200 41.35700
H  7.63800 50.04600 41.20600
H  9.32500 51.32900 39.13600
H  10.86900 51.45200 40.65100
H  9.72000 50.66000 41.84800
H  9.81900 52.36800 41.80600
H  7.46800 48.28300 39.63300
H  8.83700 48.92900 38.91200
H  6.41900 50.33000 37.82000
H  6.67200 48.63400 37.51100
H  10.92900 55.80600 39.60600
H  10.81000 57.45100 39.43200
H  10.51700 56.37000 38.08900
H  7.70000 61.19200 39.24300
H  6.61100 60.18100 40.16400
H  6.58800 60.15600 38.31500
H  2.48800 58.14400 38.86500
H  1.66700 57.22500 41.55300
H  3.68700 59.19900 41.22700
H  2.01900 59.55400 41.32100
H  2.89100 60.07400 39.88500
H  0.14600 55.83100 39.48200
H  0.21600 57.47800 39.03500
H  -1.70900 57.95500 40.57400
H  -0.70400 57.28100 41.85800
H  -1.55100 56.24200 40.93300
H  0.53400 51.08000 42.74300
H  -0.19800 50.95800 41.18900
H  -0.20500 52.55000 41.99500
H  5.35100 48.94500 41.63000
H  4.83400 45.21400 39.57400
H  5.18000 46.33600 38.14100
H  3.55000 45.95000 38.70400
Mg 0.90300 43.20600 25.62800
C  2.84100 42.99100 28.50600
C  -1.86100 42.43000 27.73700
C  -0.99400 42.55000 22.88800
C  3.69400 43.29600 23.67300
N  0.49800 43.00300 27.92100
C  1.46600 42.96300 28.87700
C  0.83500 42.74300 30.24800
C  -0.62500 42.54400 29.94500
C  -0.67300 42.63400 28.41900
C  -1.47200 41.41000 30.62200
C  1.17900 43.99600 31.14100
C  1.46600 43.71500 32.59900
H  0.89000 42.45300 33.33700
N  -1.14300 42.77100 25.36300
C  -2.11500 42.58200 26.35100
C  -3.40900 42.69800 25.72300
C  -3.19100 42.67200 24.24100
C  -1.71600 42.59300 24.11000
C  -4.71000 42.83800 26.51100
C  -4.25000 42.69400 23.18500
O  -3.94600 42.66200 22.00300
C  -5.70400 42.73500 23.52500
N  1.32700 42.82000 23.55900
C  0.35700 42.70900 22.60400
C  0.91600 42.97900 21.20900
C  2.47400 43.38300 21.51500
C  2.53600 43.11000 23.01200
C  0.77900 41.85300 20.13400
C  2.91700 44.81500 21.20200
C  4.20000 44.99400 20.49500
N  2.86800 43.27100 25.93100
C  3.89100 43.28000 25.06100
C  5.18400 43.14900 25.73100
C  4.78500 43.08100 27.11000
C  3.40000 43.17700 27.19300
C  6.56000 43.21700 25.12600
C  5.30900 42.91300 28.44300
O  6.45900 42.79100 28.78900
C  4.04600 42.97400 29.40600
C  4.13500 41.74000 30.25100
O  4.34200 40.60300 29.82100
O  3.98800 42.09800 31.59200
C  4.20300 40.99700 32.47100
H  -2.72600 42.32700 28.39600
H  -1.65100 42.45400 22.02100
H  4.59500 43.41300 23.06700
H  1.30800 41.84100 30.63600
H  -1.13500 43.45400 30.25800
H  -2.35500 41.86400 31.07100
H  -0.82400 40.91500 31.34500
H  -1.79000 40.70400 29.85400
H  0.32800 44.67600 31.10800
H  1.91200 44.71300 30.77300
H  1.02900 44.56100 33.13000
H  2.55300 43.76300 32.66200
H  -5.33400 43.66800 26.17900
H  -4.59400 42.82100 27.59500
H  -5.24900 41.93900 26.21400
H  -6.24700 42.87300 22.59000
H  -5.82200 43.67000 24.07300
H  -6.02400 41.86300 24.09600
H  0.37700 43.85600 20.85000
H  3.12800 42.71500 20.95400
H  0.16200 41.01100 20.44900
H  1.74300 41.38100 19.94800
H  0.30800 42.24400 19.23200
H  2.86100 45.38700 22.12800
H  2.13000 45.26000 20.59300
H  4.10100 45.74600 19.71300
H  4.38600 44.13000 19.85700
H  5.04700 45.28200 21.11900
H  6.69000 42.44900 24.36400
H  7.29800 42.92100 25.87200
H  6.81400 44.17100 24.66400
H  4.04800 43.80200 30.11500
H  5.23400 40.64400 32.42600
H  3.58400 40.10000 32.45400
H  4.16700 41.42200 33.47400

