158

Mg -1.51000 16.87200 26.05400
C  -2.15800 14.36700 28.53900
C  -2.76800 19.11100 28.34500
C  -1.58300 19.08500 23.72100
C  -1.35600 14.24400 23.77300
N  -2.12600 16.70600 28.26100
C  -2.15800 15.64400 29.07400
C  -2.45100 16.03000 30.52300
C  -2.91600 17.52900 30.30100
C  -2.58800 17.84900 28.89300
C  -4.34700 17.86900 30.81300
C  -1.30900 15.82400 31.59700
C  -1.35700 16.77200 32.84500
H  -1.26000 16.18700 34.23700
N  -2.10200 18.92700 26.05200
C  -2.55100 19.66600 27.06400
C  -2.68100 20.99200 26.65900
C  -2.33600 21.02000 25.24200
C  -1.98200 19.63400 24.94400
C  -2.96900 22.10200 27.65500
C  -2.23900 22.22100 24.27900
O  -1.69500 22.22500 23.18800
C  -2.76100 23.52300 24.70800
N  -1.41300 16.67000 23.99500
C  -1.34400 17.79500 23.26000
C  -0.99600 17.42300 21.88400
C  -0.72800 15.85100 21.91100
C  -1.16800 15.56100 23.30900
C  -2.17900 17.72000 20.80500
C  0.74000 15.40700 21.62300
C  1.79700 15.34400 22.76700
N  -1.74000 14.74600 26.10000
C  -1.58100 13.82300 25.05000
C  -1.88700 12.50100 25.44500
C  -2.04600 12.64200 26.84600
C  -1.89500 13.99300 27.17800
C  -2.07400 11.31000 24.61200
C  -2.47100 11.96200 28.01000
O  -2.71500 10.74300 28.20100
C  -2.50200 12.97100 29.20200
C  -1.61000 12.46400 30.28400
O  -0.41600 12.76300 30.39000
O  -2.24500 11.67700 31.16100
C  -1.49900 11.41600 32.43000
H  -3.09700 19.78400 29.14000
H  -1.61000 19.88800 22.98100
H  -1.19700 13.45100 23.03900
H  -3.24700 15.44400 30.98200
H  -2.15500 18.19700 30.70500
H  -4.94700 18.48000 30.13900
H  -4.40500 18.38100 31.77300
H  -4.81700 16.89200 30.92500
H  -0.32800 15.98700 31.15000
H  -1.35900 14.79600 31.95500
H  -2.30300 17.31100 32.90300
H  -0.57700 17.52300 32.71600
H  -3.71400 22.74700 27.18700
H  -2.12200 22.73100 27.92700
H  -3.43600 21.72900 28.56600
H  -3.78000 23.19900 24.92000
H  -2.74700 24.16600 23.82900
H  -2.31900 24.06300 25.54600
H  -0.11000 17.99300 21.60400
H  -1.29000 15.24300 21.20200
H  -2.52800 16.76500 20.41100
H  -1.75600 18.32300 20.00200
H  -2.94500 18.28200 21.34000
H  1.22500 16.02500 20.86800
H  0.71900 14.37400 21.27500
H  2.24900 14.35200 22.74400
H  1.24500 15.56300 23.68100
H  2.58900 16.06100 22.55600
H  -2.33900 11.61100 23.59900
H  -2.84000 10.75000 25.14800
H  -1.13300 10.76200 24.65500
H  -3.49600 12.92900 29.64600
H  -0.45100 11.14600 32.30100
H  -2.05800 10.63000 32.93700
H  -1.56300 12.26700 33.10800
Mg 43.61300 4.14400 47.03700
C  41.06900 6.56500 46.99000
C  41.10300 1.79500 47.16800
C  45.91000 1.69300 47.01600
C  46.04700 6.56800 46.57300
N  41.39400 4.24200 47.11100
C  40.50900 5.29200 47.25000
C  39.02500 4.90400 47.16300
C  39.06700 3.31900 47.35300
C  40.63300 3.09400 47.28500
C  38.39100 2.91200 48.63100
C  38.38800 5.30500 45.83800
C  39.04700 4.92100 44.47900
H  39.29700 5.97700 43.41400
N  43.50900 2.05000 47.03100
C  42.40800 1.30700 47.05200
C  42.67400 -0.08300 46.90100
C  44.10200 -0.22800 46.88900
C  44.60500 1.20200 47.02800
C  41.65200 -1.20200 46.86400
C  44.89000 -1.48400 46.62400
O  44.28500 -2.58600 46.59700
C  46.36700 -1.56800 46.51200
N  45.65900 4.13900 46.62000
C  46.40200 3.02300 46.91900
C  47.91200 3.30400 46.83100
C  47.91800 4.87400 46.88100
C  46.47300 5.24900 46.68200
C  48.90000 2.60800 47.83000
C  48.97300 5.65000 46.05600
C  49.62800 6.82200 46.71400
N  43.64300 6.21000 46.78900
C  44.69800 7.02100 46.54000
C  44.13700 8.40500 46.50100
C  42.75300 8.26200 46.75700
C  42.47400 6.92900 46.85700
C  44.93500 9.67900 46.28100
C  41.55200 9.02100 46.88900
O  41.28400 10.20600 46.78100
C  40.34100 7.92900 47.06500
C  39.69300 8.09900 48.37200
O  40.17200 7.82000 49.49500
O  38.38700 8.30100 48.21100
C  37.64600 7.90400 49.47700
H  40.36400 0.99800 47.26900
H  46.71300 1.01600 47.31700
H  46.81300 7.34400 46.51900
H  38.54700 5.46900 47.96300
H  38.65900 2.74400 46.52100
H  38.01300 3.72600 49.24900
H  39.13000 2.58600 49.36300
H  37.76400 2.03300 48.48500
H  38.24400 6.38500 45.80800
H  37.42300 4.80200 45.88500
H  38.40100 4.13800 44.08000
H  40.05400 4.51500 44.56800
H  41.79100 -2.05800 47.52500
H  41.71900 -1.60900 45.85500
H  40.61700 -0.86300 46.91400
H  46.89600 -1.10700 47.34600
H  46.63100 -1.22600 45.51100
H  46.73300 -2.59100 46.61000
H  48.33300 2.97200 45.88200
H  48.17100 5.06100 47.92400
H  49.52600 1.82500 47.40300
H  48.30400 2.16600 48.62900
H  49.56400 3.32500 48.31300
H  48.43500 6.09400 45.21800
H  49.68600 5.01000 45.53700
H  50.70200 6.75700 46.54000
H  49.43800 6.96900 47.77800
H  49.27700 7.75200 46.26700
H  45.49000 9.77100 47.21400
H  44.31900 10.56100 46.10700
H  45.60500 9.44500 45.45400
H  39.65400 8.11200 46.23900
H  37.81400 8.78800 50.09300
H  38.04800 7.02600 49.98100
H  36.62200 7.62800 49.22800

