158

Mg 47.22700 15.68600 28.06400
C  45.24300 15.44200 30.93000
C  49.24900 17.82200 29.78200
C  48.87200 16.14800 25.22400
C  44.74000 14.11200 26.25000
N  47.19200 16.57500 30.13700
C  46.35000 16.29100 31.11800
C  46.88100 16.93200 32.45300
C  47.98900 17.88600 32.01200
C  48.19200 17.46400 30.55400
C  47.76600 19.43900 32.07200
C  47.27200 15.82700 33.44900
C  47.99200 16.25200 34.71900
H  47.63900 17.76200 35.26900
N  48.91600 16.76000 27.60800
C  49.66300 17.51700 28.46600
C  50.92000 17.92300 27.72300
C  50.78700 17.53500 26.34900
C  49.49100 16.77600 26.31400
C  52.01200 18.69700 28.30100
C  51.77300 17.68400 25.17100
O  51.44900 17.33100 24.01600
C  53.07900 18.41300 25.31100
N  46.78300 15.31900 25.97200
C  47.70700 15.48500 25.00400
C  47.32400 14.88400 23.67500
C  46.02000 14.14100 24.03900
C  45.82000 14.49100 25.51100
C  47.03200 15.93800 22.58500
C  45.83900 12.69900 23.61500
C  46.29500 11.58700 24.52100
N  45.48700 14.83400 28.48500
C  44.52300 14.21800 27.65700
C  43.43600 13.81100 28.42100
C  43.72000 14.14900 29.70700
C  44.95300 14.83700 29.73700
C  42.07100 13.16200 27.83000
C  43.04500 14.20700 31.00400
O  41.96400 13.75800 31.34800
C  44.14600 15.00100 31.87300
C  43.44000 16.20000 32.54100
O  43.08100 17.21300 32.05000
O  43.27300 15.89700 33.87000
C  42.60500 16.89000 34.73900
H  49.93800 18.43400 30.36800
H  49.51100 16.10500 24.33900
H  44.01200 13.52800 25.68300
H  46.02900 17.46700 32.87200
H  48.88300 17.59500 32.56300
H  46.69100 19.60700 32.14000
H  48.04700 19.99500 31.17800
H  48.31300 19.77100 32.95500
H  47.92600 15.19000 32.85400
H  46.33200 15.35900 33.74100
H  49.07300 16.17600 34.59700
H  47.73500 15.47200 35.43600
H  52.96900 18.18500 28.19900
H  52.00400 18.78500 29.38800
H  52.10700 19.61200 27.71700
H  53.73300 18.02100 26.08900
H  52.81400 19.38700 25.72300
H  53.58400 18.53000 24.35200
H  48.06200 14.14200 23.36800
H  45.15800 14.53200 23.49700
H  47.57500 16.82400 22.91400
H  45.96900 16.16600 22.50700
H  47.37700 15.51200 21.64300
H  46.33600 12.59100 22.65100
H  44.79000 12.43400 23.48000
H  45.43600 11.11700 24.99700
H  46.92000 11.98200 25.32200
H  46.87900 10.85300 23.96500
H  41.24400 13.22300 28.53800
H  42.12500 12.12300 27.50400
H  41.79000 13.74200 26.95000
H  44.46800 14.47200 32.77100
H  43.10900 17.85600 34.69800
H  42.56100 16.40300 35.71300
H  41.57500 17.06800 34.42900
Mg 0.53700 43.94500 25.84400
C  2.88200 43.46900 28.59400
C  -1.86300 42.59800 27.88700
C  -1.45000 43.77200 23.19000
C  3.33500 44.88700 23.93300
N  0.66300 43.08700 27.92600
C  1.62100 43.06400 28.90200
C  1.00400 42.88500 30.27600
C  -0.43600 42.44000 29.93600
C  -0.57600 42.72200 28.47900
C  -0.75700 40.96200 30.21000
C  1.02400 44.16900 31.21300
C  1.35400 43.81700 32.71300
H  0.80500 42.59500 33.41000
N  -1.40700 43.33100 25.62100
C  -2.24800 42.76300 26.50600
C  -3.56600 42.57700 25.89800
C  -3.43800 42.88100 24.50200
C  -2.08000 43.32100 24.38500
C  -4.72300 42.08600 26.72800
C  -4.49100 42.85000 23.49300
O  -4.27600 42.99600 22.31000
C  -5.86100 42.56200 23.93100
N  0.83800 44.23500 23.89100
C  -0.17100 44.27200 22.99000
C  0.26900 45.05900 21.70100
C  1.67200 45.58200 22.19700
C  2.02900 44.80600 23.42900
C  0.37100 44.24300 20.40400
C  1.60000 47.04500 22.52700
C  1.26900 47.90300 21.20000
N  2.68500 44.22800 26.13200
C  3.64700 44.65500 25.22800
C  4.97800 44.60500 25.91700
C  4.66600 44.29900 27.24200
C  3.31700 44.01000 27.32700
C  6.35500 44.81900 25.23000
C  5.30000 44.06800 28.55200
O  6.46000 44.03700 28.88600
C  4.07900 43.72500 29.54400
C  4.48100 42.52600 30.31000
O  4.99400 41.49900 29.83300
O  4.53300 42.80300 31.66400
C  5.22100 41.84100 32.57100
H  -2.64200 42.19800 28.54000
H  -2.02500 43.93500 22.27600
H  4.14500 45.26000 23.30300
H  1.46300 42.03700 30.78300
H  -1.10900 43.01800 30.56900
H  -1.53600 40.96900 30.97300
H  0.10400 40.38000 30.53800
H  -1.19500 40.48000 29.33600
H  0.07100 44.69500 31.26900
H  1.74400 44.90200 30.85000
H  0.99400 44.65300 33.31200
H  2.44000 43.91200 32.69600
H  -5.54400 42.80300 26.76100
H  -4.38000 42.03200 27.76100
H  -4.90900 41.08500 26.33900
H  -6.06800 41.64400 24.48000
H  -6.51500 42.64700 23.06300
H  -6.22700 43.40200 24.52100
H  -0.53500 45.77600 21.53200
H  2.46500 45.39600 21.47200
H  0.85500 44.91600 19.69500
H  -0.56700 43.92900 19.94500
H  0.91400 43.35300 20.72000
H  2.58600 47.35400 22.87600
H  0.88800 47.27400 23.32000
H  0.24800 48.24900 21.36100
H  1.18000 47.27000 20.31700
H  1.94200 48.75000 21.07200
H  6.20400 45.16900 24.20900
H  7.07500 44.03200 25.45000
H  6.80700 45.70200 25.68200
H  3.91100 44.64200 30.10900
H  5.51400 42.35700 33.48500
H  6.06700 41.42800 32.02200
H  4.59100 40.98100 32.79700

