158

Mg 7.04600 2.87500 27.94800
C  8.65500 1.44200 30.88700
C  5.23100 4.78700 30.08800
C  5.50700 4.20300 25.26400
C  8.71300 0.67000 26.04700
N  6.91900 3.00400 30.32000
C  7.77200 2.44600 31.23000
C  7.46100 3.09900 32.60100
C  6.10400 4.01100 32.38200
C  6.14300 3.99900 30.82400
C  4.81200 3.44100 32.85000
C  8.61300 3.99600 33.01900
C  8.42200 4.72700 34.40000
H  9.34900 4.25000 35.47400
N  5.60600 4.28500 27.70000
C  4.91300 4.96300 28.70000
C  3.93400 5.91000 28.17700
C  4.10600 5.85500 26.74600
C  5.11700 4.80900 26.49200
C  3.08900 6.76700 29.10100
C  3.35200 6.65300 25.76400
O  3.61200 6.52100 24.59300
C  2.27700 7.73000 26.11800
N  6.99300 2.46200 25.96700
C  6.39200 3.14800 24.97700
C  6.72800 2.65400 23.54800
C  7.91500 1.66800 23.90000
C  7.82000 1.53300 25.43500
C  5.45200 2.04500 22.88400
C  9.27800 2.21800 23.39000
C  10.06200 3.18800 24.33600
N  8.25600 1.28300 28.35700
C  8.96300 0.54100 27.47700
C  9.82500 -0.34700 28.10400
C  9.72800 -0.09700 29.48700
C  8.82100 0.98800 29.58400
C  10.69100 -1.37300 27.33800
C  10.28100 -0.35900 30.79800
O  11.16200 -1.16500 31.12600
C  9.66000 0.68900 31.75200
C  9.07200 -0.01000 32.86800
O  7.95500 -0.44500 32.87500
O  9.96900 -0.18100 33.90700
C  9.50500 -0.56400 35.27800
H  4.87900 5.50900 30.82800
H  4.92500 4.58500 24.42200
H  9.21900 -0.06700 25.42000
H  7.21800 2.32300 33.32800
H  6.27300 4.99200 32.82600
H  4.57900 4.00600 33.75200
H  4.90500 2.36900 33.03000
H  4.00400 3.67100 32.15600
H  8.70600 4.81800 32.30900
H  9.53800 3.42000 33.05900
H  7.42500 4.43600 34.73000
H  8.52400 5.77700 34.12600
H  3.13800 7.80700 28.77800
H  3.50300 6.73400 30.10900
H  2.04300 6.45800 29.11000
H  1.57400 7.32900 26.84800
H  1.78700 8.08300 25.21100
H  2.79600 8.51900 26.66300
H  7.11800 3.60000 23.17300
H  7.57900 0.71700 23.48600
H  4.52300 2.34900 23.36700
H  5.52200 0.96000 22.95200
H  5.37200 2.27000 21.82000
H  9.03900 2.66000 22.42300
H  9.83600 1.32700 23.10000
H  9.90000 4.19500 23.95300
H  11.13900 3.02000 24.34500
H  9.80900 3.14500 25.39500
H  11.63200 -1.68400 27.79100
H  10.98600 -1.06200 26.33600
H  10.04500 -2.23600 27.17600
H  10.35000 1.48800 32.02200
H  8.58900 -1.15400 35.28700
H  9.21600 0.38300 35.73500
H  10.24200 -1.07100 35.90000
Mg 45.13700 4.60600 47.04900
C  43.06900 7.22500 46.35500
C  42.50400 2.29000 46.61200
C  47.43000 2.03000 47.22300
C  47.81800 6.92600 47.02600
N  43.10700 4.77100 46.51800
C  42.46200 5.95100 46.37600
C  41.05200 5.68700 46.06400
C  40.83800 4.20900 46.51000
C  42.22000 3.69000 46.50300
C  40.17700 4.02700 47.91500
C  40.67400 5.93800 44.56100
C  39.65600 7.06500 44.17300
H  39.97000 7.79000 42.83000
N  44.98400 2.47500 47.00100
C  43.84300 1.74900 46.78600
C  44.16400 0.28900 46.93500
C  45.58200 0.17900 46.92200
C  46.08300 1.57600 47.04600
C  43.12400 -0.80900 46.63300
C  46.32000 -1.14600 46.63400
O  45.73100 -2.19000 46.55800
C  47.76800 -1.15900 46.20800
N  47.29900 4.45500 47.03600
C  47.98700 3.27100 47.19500
C  49.50300 3.50300 47.35100
C  49.66500 5.07300 47.12700
C  48.18800 5.53300 47.03500
C  49.97200 2.95200 48.75400
C  50.56800 5.46300 46.02200
C  51.79700 6.25200 46.55400
N  45.45900 6.69800 46.84900
C  46.58600 7.53100 46.93300
C  46.21900 8.91100 46.64300
C  44.77100 8.86100 46.50900
C  44.42600 7.47500 46.61000
C  47.15100 10.06000 46.68200
C  43.57100 9.64700 46.23600
O  43.32800 10.81700 46.09000
C  42.47300 8.61600 46.15100
C  41.51200 8.92000 47.30200
O  41.56200 8.53200 48.48200
O  40.65000 9.87200 46.83600
C  39.67900 10.31100 47.88200
H  41.78800 1.46600 46.59500
H  48.23100 1.29900 47.09100
H  48.57100 7.70700 47.15000
H  40.41000 6.33600 46.65900
H  40.27000 3.68800 45.73900
H  40.95200 3.68300 48.60000
H  39.48100 3.23500 47.63900
H  39.65200 4.92400 48.24400
H  40.22700 5.03500 44.14400
H  41.62900 6.10300 44.06200
H  39.55300 7.76700 45.00000
H  38.68100 6.57700 44.16800
H  43.36200 -1.23700 45.65900
H  42.12900 -0.46900 46.34300
H  42.99400 -1.55800 47.41400
H  48.38700 -1.22400 47.10300
H  47.91500 -0.18400 45.74300
H  47.83500 -1.97700 45.49000
H  50.10600 2.92900 46.64800
H  50.06700 5.55300 48.01900
H  50.32500 1.93500 48.58400
H  49.06000 2.83600 49.34000
H  50.75700 3.59400 49.15500
H  50.03100 6.04100 45.27000
H  51.02100 4.59500 45.54200
H  52.72600 6.02600 46.03000
H  52.05400 6.07800 47.59800
H  51.66100 7.32400 46.40500
H  46.70800 11.03100 46.46100
H  47.87500 9.84400 45.89700
H  47.64300 10.05600 47.65500
H  42.01500 8.68600 45.16400
H  38.87600 9.57600 47.84000
H  39.27500 11.26400 47.54000
H  40.21700 10.38500 48.82700

