158

Mg 2.19400 -1.47800 43.30400
C  5.63900 -1.09800 43.09700
C  1.77200 1.20400 41.23800
C  -1.12800 -2.30400 42.97500
C  2.66900 -4.60400 44.75700
N  3.62900 -0.12700 42.27300
C  5.02600 -0.08100 42.33900
C  5.58500 1.02900 41.47900
C  4.32800 1.72300 40.90500
C  3.10800 0.86900 41.47100
C  4.08200 3.24500 41.23700
C  6.50800 0.38900 40.45600
C  8.01400 0.83100 40.45600
H  8.52500 1.20300 39.06400
N  0.53700 -0.55500 42.35200
C  0.55200 0.51300 41.62000
C  -0.82100 0.79300 41.08200
C  -1.62700 -0.11100 41.73900
C  -0.74000 -1.09100 42.38800
C  -1.13400 2.07000 40.34400
C  -3.11200 -0.17700 41.65500
O  -3.71200 0.63700 40.96000
C  -3.97800 -0.94000 42.54000
N  0.94800 -3.28300 43.85800
C  -0.40600 -3.31300 43.51000
C  -1.09300 -4.53400 44.22500
C  0.13900 -5.29200 44.76900
C  1.33500 -4.40200 44.42000
C  -2.19600 -4.11300 45.24800
C  0.34700 -6.73600 44.35300
C  -0.04400 -7.81100 45.43700
N  3.74200 -2.64700 43.86400
C  3.78100 -3.82400 44.52900
C  5.19200 -4.11600 44.86700
C  5.91700 -3.07700 44.30300
C  4.98900 -2.23000 43.74500
C  5.73900 -5.35300 45.47400
C  7.24200 -2.59800 44.16000
O  8.25400 -2.96600 44.57000
C  7.10700 -1.27100 43.36600
C  7.49800 -0.18100 44.16900
O  7.37300 -0.17900 45.37300
O  8.11800 0.78800 43.49900
C  8.33500 2.08200 44.08600
H  1.71500 2.02600 40.52000
H  -2.18100 -2.52300 42.79000
H  2.95400 -5.44300 45.39600
H  6.11100 1.68700 42.17100
H  4.39400 1.64200 39.82000
H  4.09200 3.79400 40.29500
H  4.91100 3.65700 41.81200
H  3.11700 3.41800 41.71500
H  6.10900 0.62100 39.46900
H  6.48100 -0.69500 40.56100
H  8.60200 0.00900 40.86500
H  8.20800 1.64800 41.15100
H  -0.22200 2.31200 39.79800
H  -1.50800 2.93700 40.89000
H  -1.70000 1.80700 39.45100
H  -5.02600 -0.64100 42.53500
H  -3.62500 -0.92200 43.57100
H  -4.12200 -2.00200 42.33900
H  -1.46100 -5.08700 43.36100
H  -0.02200 -5.17300 45.84100
H  -2.17700 -3.03500 45.40600
H  -2.20800 -4.54100 46.25000
H  -3.13900 -4.19100 44.70700
H  1.37900 -6.87500 44.03000
H  -0.15500 -7.01400 43.42600
H  0.91300 -8.19600 45.78900
H  -0.65000 -8.61800 45.02500
H  -0.54200 -7.44700 46.33600
H  5.34900 -5.54700 46.47300
H  6.82700 -5.38200 45.40900
H  5.43500 -6.22600 44.89700
H  7.75300 -1.34800 42.49100
H  7.61400 2.88200 43.91600
H  9.24900 2.44300 43.61300
H  8.64600 1.98200 45.12600
Mg 7.22900 53.69200 41.47100
C  6.39100 50.30300 40.90800
C  10.40600 52.89000 40.52100
C  7.91100 56.90100 41.17000
C  3.84900 54.37700 42.06100
N  8.20800 51.78800 40.63600
C  7.72200 50.50200 40.58600
C  8.77100 49.45400 40.04600
C  10.05700 50.27500 40.32000
C  9.55300 51.75000 40.51300
C  10.87100 49.83000 41.52500
C  8.52600 48.99900 38.52600
C  7.81500 50.11300 37.66000
H  7.90400 49.87300 36.17000
N  8.91700 54.70300 40.86400
C  10.15500 54.22600 40.59200
C  11.04100 55.22900 40.24600
C  10.37100 56.40500 40.34500
C  9.03200 56.08500 40.85500
C  12.48100 55.05600 40.06200
C  10.84300 57.77900 39.90600
O  11.97000 57.93900 39.44300
C  9.92700 58.85900 39.77700
N  5.98300 55.40600 41.32500
C  6.63600 56.59700 41.52500
C  5.64300 57.58800 42.08200
C  4.31700 56.84300 42.37400
C  4.71500 55.48000 41.83900
C  6.17100 58.35300 43.21000
C  3.05600 57.57300 41.79100
C  1.80200 57.46100 42.60100
N  5.43300 52.56000 41.67100
C  4.15900 53.03700 41.92500
C  3.34800 51.85900 41.98600
C  4.15900 50.76300 41.63500
C  5.42900 51.30300 41.35900
C  1.85100 51.85700 42.37200
C  4.18700 49.31900 41.52400
O  3.41400 48.42800 41.83000
C  5.61700 48.93200 40.98600
C  5.39800 47.97800 39.77900
O  4.73700 48.22400 38.78700
O  5.87200 46.73300 40.13500
C  5.47900 45.66600 39.13800
H  11.44700 52.64400 40.30000
H  8.21500 57.94200 41.29800
H  2.81700 54.61800 42.32400
H  8.72900 48.56400 40.67400
H  10.76900 50.27100 39.49500
H  10.15000 49.71200 42.33400
H  11.73900 50.47500 41.66500
H  11.22600 48.82200 41.31300
H  7.93300 48.09200 38.41400
H  9.53000 48.91400 38.10900
H  8.27600 51.09400 37.77200
H  6.77900 50.20800 37.98500
H  12.83900 55.01700 39.03300
H  12.76700 54.13900 40.57600
H  13.03700 55.82000 40.60700
H  8.90300 58.53500 39.59500
H  10.14200 59.49200 38.91700
H  9.96000 59.54000 40.62700
H  5.42100 58.28300 41.27200
H  4.18300 56.66300 43.44000
H  7.03000 57.78700 43.56700
H  5.39400 58.38000 43.97400
H  6.33100 59.42400 43.07900
H  2.95300 56.86700 40.96700
H  3.23700 58.60500 41.49300
H  1.48600 58.40800 43.03900
H  1.97500 56.73700 43.39700
H  0.96200 57.15600 41.97800
H  1.70200 50.94300 42.94800
H  1.32400 51.86300 41.41800
H  1.66000 52.76700 42.94100
H  6.13500 48.38400 41.77300
H  5.96600 46.06000 38.24500
H  4.41500 45.52900 38.94900
H  5.81800 44.71500 39.54900

