158

Mg 35.64400 2.77700 29.41200
C  33.65500 3.95700 32.11100
C  38.22800 2.44000 31.46500
C  37.36000 2.15400 26.69000
C  32.72800 3.27900 27.38100
N  35.87400 3.32400 31.59300
C  34.91200 3.59300 32.54900
C  35.51700 3.57500 33.90000
C  37.03500 3.25400 33.63500
C  37.00800 2.84800 32.14600
C  37.96900 4.45500 33.95100
C  34.76600 2.64400 34.90000
C  34.32900 3.24100 36.27700
H  35.30000 4.16800 36.93900
N  37.57200 2.25100 29.12900
C  38.57500 2.21700 30.07200
C  39.84400 1.83500 29.49200
C  39.56300 1.75700 28.04000
C  38.10600 2.03300 27.88900
C  41.07700 1.54100 30.23200
C  40.37700 1.37100 26.85000
O  39.92800 1.09700 25.77000
C  41.86300 1.14700 27.15900
N  35.15700 2.74100 27.34300
C  36.07100 2.46700 26.41700
C  35.44700 2.39100 25.01600
C  33.97400 2.70600 25.29600
C  33.95000 2.90900 26.77400
C  36.08200 3.21800 23.92300
C  32.93000 1.58200 24.78100
C  31.62900 2.18000 24.17500
N  33.62100 3.60100 29.56300
C  32.58400 3.70400 28.68900
C  31.43100 4.35400 29.39900
C  31.81900 4.39700 30.68900
C  33.15200 3.97300 30.79100
C  30.02500 4.50200 28.95800
C  31.29900 4.76500 31.96200
O  30.26600 5.24500 32.38900
C  32.52600 4.43400 33.01900
C  32.77800 5.74700 33.77300
O  33.55600 6.60300 33.47100
O  31.95500 5.81000 34.86700
C  31.93700 7.04400 35.66300
H  39.00900 2.28000 32.21200
H  37.92000 1.92500 25.78100
H  31.81600 3.35100 26.78500
H  35.46400 4.61300 34.23000
H  37.39700 2.38500 34.18400
H  37.57800 5.24200 34.59600
H  38.04100 4.96800 32.99200
H  38.92600 4.11100 34.34200
H  35.40500 1.77200 35.03900
H  33.84400 2.31500 34.42000
H  34.24500 2.38900 36.95200
H  33.38100 3.75100 36.10700
H  41.44300 0.58000 29.87300
H  40.99800 1.38700 31.30800
H  41.75400 2.38900 30.12400
H  42.19700 2.01300 27.73000
H  42.24400 1.25200 26.14400
H  42.05600 0.18700 27.63900
H  35.63500 1.32800 24.86900
H  33.76200 3.69800 24.89600
H  35.25600 3.70700 23.40600
H  36.67200 2.61600 23.23300
H  36.68500 4.02200 24.34600
H  32.51200 0.91400 25.53500
H  33.37300 1.01600 23.96200
H  30.81900 1.85100 24.82600
H  31.45100 1.92900 23.12900
H  31.61100 3.27000 24.18300
H  29.75600 3.60500 28.40100
H  29.67400 5.41700 28.48100
H  29.21100 4.43500 29.68000
H  32.09600 3.70200 33.70200
H  32.82200 7.68000 35.64800
H  31.85100 6.55000 36.63100
H  31.03600 7.62900 35.48000
Mg 54.22800 24.57600 44.21100
C  51.39000 26.82600 43.66900
C  52.16700 21.94700 43.56400
C  56.99500 22.80500 43.83200
C  56.16100 27.52400 44.12900
N  52.03900 24.47400 43.61500
C  51.06400 25.49000 43.49900
C  49.74100 24.79100 43.19800
C  50.00500 23.27200 43.49200
C  51.50900 23.20400 43.58700
C  49.40600 22.64000 44.78500
C  49.20900 25.19700 41.75800
C  50.30500 25.08900 40.67000
H  49.74200 24.63800 39.27000
N  54.49900 22.58100 43.92300
C  53.55500 21.67900 43.73200
C  54.24200 20.30400 43.77300
C  55.60200 20.58300 43.89600
C  55.78200 22.02800 43.89200
C  53.53600 19.01000 43.58100
C  56.62300 19.47300 43.99400
O  56.25200 18.32300 43.93300
C  58.01800 19.73000 44.13900
N  56.33700 25.07900 44.13200
C  57.25200 24.19400 43.93700
C  58.70500 24.75100 43.94700
C  58.45800 26.28300 43.83300
C  56.88100 26.32400 44.01700
C  59.57900 24.38500 45.27800
C  58.88500 26.84900 42.43600
C  60.41700 27.00900 42.20900
N  53.86300 26.74800 44.08600
C  54.79700 27.75100 44.19300
C  54.16500 28.95900 44.40100
C  52.78700 28.63500 44.13900
C  52.66100 27.30700 44.00900
C  54.75800 30.32700 44.65600
C  51.45500 29.19500 44.08400
O  51.03800 30.26300 44.35900
C  50.52100 28.00100 43.59800
C  50.18300 28.50700 42.18200
O  50.87300 28.56300 41.15800
O  48.89900 28.92000 42.21900
C  48.36500 29.42600 40.95000
H  51.55100 21.04900 43.48500
H  57.91400 22.29700 43.53500
H  56.79400 28.39800 44.29700
H  49.04900 25.11600 43.97500
H  49.68700 22.69700 42.62200
H  50.23300 22.38400 45.44800
H  48.85600 21.76500 44.43800
H  48.70300 23.31300 45.27500
H  48.89500 26.23900 41.80700
H  48.32300 24.59600 41.55100
H  51.10000 24.48400 41.10600
H  50.74800 26.06600 40.47400
H  53.64300 18.39800 44.47600
H  54.03500 18.39000 42.83600
H  52.45600 19.15400 43.53700
H  58.57100 18.85000 44.46700
H  58.18800 20.47000 44.92200
H  58.29300 20.11200 43.15600
H  59.21900 24.37400 43.06400
H  59.02900 26.74500 44.63800
H  60.55500 24.06600 44.91000
H  59.06200 23.65100 45.89600
H  59.78800 25.19400 45.97800
H  58.44500 27.83300 42.27200
H  58.47100 26.23200 41.63900
H  60.84300 27.96300 41.89900
H  60.95600 26.22900 41.67200
H  60.82400 26.90100 43.21400
H  54.05600 30.79900 45.34300
H  54.63300 30.92700 43.75500
H  55.79500 30.24900 44.98400
H  49.68600 27.85300 44.28200
H  47.31200 29.70600 40.94000
H  48.35800 28.78400 40.06900
H  48.94600 30.32700 40.75600

