158

Mg 24.49700 -4.40700 45.34700
C  26.79400 -2.04500 44.10100
C  22.11200 -3.14800 43.53600
C  22.75700 -7.25900 46.02000
C  27.29200 -5.85700 47.10300
N  24.43300 -2.73300 43.99300
C  25.44900 -1.90900 43.64300
C  25.01600 -1.00400 42.53500
C  23.43900 -1.10200 42.64100
C  23.23500 -2.34600 43.42600
C  22.62000 0.17300 43.16700
C  25.61900 -1.50600 41.13600
C  26.31500 -0.47100 40.17000
H  26.17700 -0.80400 38.64700
N  22.56900 -5.05900 44.89800
C  21.75100 -4.36300 44.09300
C  20.48600 -4.99600 44.08800
C  20.66900 -6.31800 44.62200
C  22.08600 -6.25400 45.24100
C  19.25300 -4.44000 43.67400
C  19.64400 -7.41700 44.80900
O  18.53700 -7.30600 44.40700
C  19.95400 -8.84300 45.26200
N  25.05700 -6.40000 46.34900
C  24.07400 -7.31700 46.57000
C  24.61700 -8.48600 47.32900
C  25.93700 -7.92700 47.88900
C  26.15000 -6.62500 47.14500
C  23.71300 -9.26100 48.40100
C  27.12200 -8.86800 47.72700
C  28.33800 -8.76900 48.66900
N  26.61000 -4.02200 45.59400
C  27.56600 -4.68100 46.37000
C  28.83700 -3.91900 46.22800
C  28.54600 -2.88500 45.37600
C  27.19300 -2.96200 45.11500
C  30.16700 -4.35200 46.76300
C  29.16300 -1.68600 44.80900
O  30.27700 -1.17700 44.99400
C  27.97800 -1.12400 43.88900
C  27.83100 0.29700 44.47400
O  27.25900 0.64500 45.48200
O  28.25500 1.13100 43.44500
C  27.64100 2.46400 43.47900
H  21.30300 -2.69200 42.96100
H  22.17100 -8.14800 46.26400
H  28.15900 -6.31300 47.58500
H  25.32900 -0.00500 42.83800
H  23.05300 -1.29600 41.64100
H  21.67200 0.37000 42.66600
H  23.33100 0.99800 43.11900
H  22.29600 -0.06100 44.18100
H  24.79700 -1.91800 40.55100
H  26.34300 -2.30400 41.30100
H  27.37600 -0.35000 40.38800
H  25.95300 0.54200 40.34900
H  19.35300 -3.46800 43.19100
H  18.58600 -4.30000 44.52500
H  18.83500 -5.08000 42.89600
H  20.89400 -9.25900 44.90100
H  19.18300 -9.57100 45.01100
H  19.96400 -9.00300 46.34000
H  24.89900 -9.21900 46.57200
H  25.81300 -7.64900 48.93600
H  23.41300 -10.24600 48.04500
H  22.84400 -8.60500 48.43900
H  24.07400 -9.26700 49.43000
H  27.44300 -8.71800 46.69600
H  26.60400 -9.82000 47.84800
H  28.58700 -9.74200 49.09100
H  28.11100 -8.02800 49.43600
H  29.19300 -8.27100 48.21200
H  30.72700 -5.00600 46.09500
H  29.99000 -5.09300 47.54200
H  30.82100 -3.50300 46.96600
H  28.17500 -1.02100 42.82200
H  27.66700 2.99700 42.52900
H  28.09200 3.05500 44.27600
H  26.59300 2.35400 43.76000
Mg 48.65000 34.48500 27.53400
C  46.74100 33.09000 29.98100
C  48.86400 37.36100 29.58100
C  50.25800 36.13300 25.07800
C  48.23800 31.76500 25.49400
N  47.83400 35.11900 29.48400
C  47.20500 34.33100 30.34900
C  47.25100 34.90000 31.79500
C  47.59000 36.43000 31.46700
C  48.18300 36.27900 30.09700
C  46.40500 37.47900 31.66800
C  48.35500 34.19100 32.55500
C  48.20000 34.03000 34.10700
H  49.00100 35.07000 34.90200
N  49.59100 36.33400 27.38400
C  49.59900 37.38900 28.33600
C  50.43800 38.50300 27.82200
C  50.86700 38.05900 26.53900
C  50.20900 36.81300 26.26200
C  50.70200 39.74600 28.68000
C  51.80800 38.75900 25.54800
O  52.28100 38.27900 24.48600
C  52.25400 40.26600 25.77600
N  49.10800 34.04900 25.50800
C  49.76200 34.85900 24.74500
C  49.88200 34.27300 23.30500
C  49.56300 32.76300 23.58400
C  48.94600 32.81200 24.91600
C  48.93800 34.94100 22.20200
C  50.75000 31.78300 23.56500
C  51.17500 31.34200 22.19800
N  47.63600 32.75500 27.61500
C  47.56900 31.62200 26.76100
C  46.72800 30.60000 27.36500
C  46.34200 31.15300 28.59300
C  47.04200 32.42200 28.73500
C  46.54500 29.23400 26.85400
C  45.58700 30.86600 29.82100
O  44.97200 29.88900 30.18400
C  45.75400 32.14800 30.69000
C  46.10200 31.75800 32.05600
O  47.16200 31.33700 32.51000
O  45.03600 32.12700 32.89100
C  45.01900 32.03900 34.35000
H  48.84000 38.29700 30.14300
H  50.72900 36.56900 24.19500
H  48.25500 30.82200 24.94200
H  46.36100 34.92500 32.42300
H  48.29400 36.74600 32.23700
H  46.70300 38.50200 31.89600
H  45.60100 37.25700 32.36900
H  45.95000 37.60500 30.68500
H  49.34800 34.49800 32.22800
H  48.51400 33.16900 32.21100
H  48.43300 33.07200 34.57200
H  47.17200 34.27300 34.37300
H  50.14000 40.61600 28.33900
H  51.78400 39.86800 28.71900
H  50.39700 39.61900 29.71800
H  52.70500 40.40400 26.75900
H  51.32900 40.84100 25.73100
H  52.97000 40.47800 24.98200
H  50.87400 34.39500 22.86900
H  48.85700 32.48600 22.80100
H  48.40600 34.20000 21.60500
H  49.49400 35.58900 21.52300
H  48.12200 35.45200 22.71200
H  50.49100 30.83500 24.03700
H  51.62600 32.26400 23.99900
H  52.18900 31.59800 21.88800
H  50.63400 31.94300 21.46700
H  51.03500 30.27800 22.01100
H  45.48700 28.99300 26.74700
H  46.94700 28.58700 27.63400
H  47.05600 28.90200 25.95000
H  44.77800 32.63200 30.71300
H  45.40600 31.09300 34.72800
H  43.97100 32.00400 34.64700
H  45.51000 32.82000 34.93100

