158

Mg 48.19600 15.25500 27.97300
C  46.40300 15.09200 30.93300
C  50.55200 17.29800 29.56300
C  49.82000 15.64200 25.03300
C  45.53700 13.74100 26.27400
N  48.37100 16.05300 30.00300
C  47.55100 15.92200 31.08900
C  47.96000 16.65200 32.29900
C  49.07100 17.58300 31.65900
C  49.40100 16.91200 30.28200
C  48.76000 19.12000 31.60100
C  48.48500 15.77100 33.49400
C  47.95400 16.16500 34.88100
H  49.05800 16.25500 35.93800
N  50.07100 16.21200 27.40700
C  50.87800 16.90800 28.24000
C  52.04600 17.26100 27.51600
C  51.81000 16.99200 26.15500
C  50.53100 16.21600 26.14400
C  53.20700 17.84600 28.27000
C  52.62300 17.30900 24.99500
O  52.46700 16.73500 23.87900
C  53.93900 18.12600 25.20200
N  47.71300 14.71500 25.86300
C  48.61300 14.92800 24.83900
C  48.20500 14.25700 23.56300
C  46.84100 13.59300 24.01900
C  46.66000 13.96700 25.48500
C  48.09400 15.26700 22.28800
C  46.62700 12.11400 23.77800
C  47.25400 11.03400 24.72300
N  46.31300 14.57100 28.42200
C  45.37200 13.95600 27.64400
C  44.34400 13.44600 28.50800
C  44.70200 13.85100 29.80200
C  45.91200 14.52600 29.68600
C  43.17200 12.54100 27.98400
C  44.36300 13.72500 31.19000
O  43.45800 13.16600 31.80700
C  45.37800 14.66700 31.95800
C  44.41200 15.72700 32.50600
O  44.02200 16.66600 31.83900
O  44.06900 15.42600 33.80400
C  43.05300 16.19400 34.44300
H  51.27800 17.97300 30.02000
H  50.37400 15.72400 24.09500
H  44.70000 13.22400 25.80000
H  47.07700 17.25600 32.50800
H  49.94100 17.53900 32.31400
H  47.80500 19.35200 32.07200
H  48.75800 19.46900 30.56800
H  49.56700 19.72200 32.01900
H  49.57300 15.79300 33.43700
H  48.23300 14.73400 33.26800
H  47.18600 15.40500 35.02600
H  47.49400 17.15100 34.92800
H  53.24700 17.25600 29.18600
H  53.10500 18.87700 28.60700
H  54.16800 17.76700 27.76200
H  54.67800 17.39300 25.52600
H  53.67800 18.87700 25.94800
H  54.31000 18.63200 24.31100
H  48.88500 13.42400 23.38200
H  46.09300 14.11900 23.42600
H  48.86500 15.06900 21.54300
H  48.22200 16.32500 22.51500
H  47.14100 15.04400 21.80800
H  46.95800 11.99500 22.74700
H  45.55100 12.14100 23.94800
H  47.82100 11.60500 25.45700
H  47.91800 10.38900 24.14700
H  46.42500 10.50200 25.19000
H  43.53000 11.86800 27.20500
H  42.35400 13.18000 27.65000
H  42.80300 11.88200 28.76900
H  45.73600 14.09500 32.81300
H  42.22300 16.52800 33.82000
H  43.45700 17.11600 34.86100
H  42.74300 15.64900 35.33500
Mg 26.53100 51.15700 25.79200
C  24.29500 52.41000 28.09800
C  28.76100 50.45900 28.30300
C  28.92100 50.67300 23.54100
C  24.40000 52.30500 23.18100
N  26.49000 51.46000 27.86400
C  25.52200 51.97200 28.61200
C  25.71800 51.96200 30.11600
C  27.25600 51.57700 30.09200
C  27.54400 51.16100 28.67000
C  28.25500 52.68400 30.51600
C  24.84100 51.01700 30.88000
C  23.93000 51.54800 32.05600
H  24.12700 50.93500 33.49300
N  28.42700 50.41800 25.93500
C  29.18900 50.22300 27.01700
C  30.49300 49.54100 26.63700
C  30.51300 49.54100 25.21300
C  29.27000 50.29400 24.77900
C  31.50200 49.10600 27.68300
C  31.59100 48.92200 24.25800
O  31.52400 49.11500 23.05300
C  32.81600 48.29100 24.91600
N  26.57100 51.40900 23.70000
C  27.67500 51.09100 23.00000
C  27.46100 51.24500 21.45000
C  26.00400 51.72300 21.32900
C  25.61000 51.73800 22.81300
C  28.48800 52.16400 20.73100
C  25.03800 50.88600 20.50500
C  24.56800 51.58200 19.19000
N  24.69700 52.10700 25.65700
C  23.93400 52.48500 24.53400
C  22.69300 53.14700 25.00000
C  22.84300 53.11700 26.43900
C  24.05100 52.48900 26.68900
C  21.60400 53.69300 24.15100
C  22.10500 53.45700 27.64400
O  20.98100 53.95400 27.87100
C  23.07400 53.04900 28.83300
C  23.62300 54.31100 29.51800
O  24.60000 54.99200 29.16200
O  22.78600 54.55200 30.52800
C  23.15100 55.67000 31.43600
H  29.45200 50.21100 29.11200
H  29.68700 50.59300 22.76600
H  23.70500 52.69200 22.43300
H  25.61900 52.95600 30.55400
H  27.38100 50.70400 30.73300
H  28.94400 53.04100 29.75000
H  28.87300 52.44700 31.38200
H  27.65500 53.57300 30.71200
H  25.46400 50.23600 31.31600
H  24.15900 50.45200 30.24400
H  22.88500 51.47200 31.75600
H  24.12000 52.60900 32.21600
H  31.38100 49.56400 28.66500
H  32.42600 49.61400 27.40900
H  31.49300 48.04500 27.93300
H  33.28400 49.13600 25.42100
H  33.51200 48.03500 24.11700
H  32.39100 47.37400 25.32300
H  27.51800 50.20900 21.11700
H  25.82100 52.70800 20.89800
H  28.86400 51.60100 19.87700
H  29.26600 52.41900 21.45100
H  28.00600 53.07200 20.37100
H  24.22400 50.58800 21.16600
H  25.44200 49.91900 20.20700
H  24.57200 50.83400 18.39700
H  25.16700 52.46600 18.97300
H  23.50400 51.81600 19.19300
H  21.26700 52.97200 23.40700
H  21.90800 54.60600 23.64000
H  20.78100 53.97600 24.80800
H  22.49900 52.38700 29.48000
H  23.66400 56.49000 30.93400
H  23.91700 55.35800 32.14600
H  22.19000 55.92000 31.88700

