158

Mg 46.50600 24.94600 29.16100
C  47.11000 27.31200 31.63600
C  45.51500 22.74200 31.56700
C  46.46400 22.64400 26.87800
C  48.17300 27.21100 26.87500
N  46.23500 25.10400 31.34200
C  46.55100 26.14400 32.12300
C  46.08700 25.85400 33.52100
C  45.80900 24.30500 33.53600
C  45.96900 23.96100 32.07200
C  46.63900 23.44400 34.45800
C  44.95100 26.78300 34.12600
C  45.17900 27.62500 35.46000
H  45.73400 26.87000 36.66000
N  45.90000 22.98700 29.17900
C  45.47400 22.27200 30.24300
C  45.04000 20.92200 29.83700
C  45.28800 20.85700 28.38500
C  45.96300 22.17400 28.08700
C  44.44500 19.88700 30.66200
C  44.88800 19.77700 27.35500
O  45.16100 19.89000 26.18400
C  44.10600 18.57200 27.75400
N  47.17300 25.01200 27.15800
C  47.10100 23.84900 26.42800
C  47.67900 24.03800 24.96300
C  48.27600 25.46400 25.11000
C  47.81000 25.93000 26.44300
C  48.83100 23.03900 24.69600
C  47.78300 26.34400 23.92300
C  48.73200 26.55400 22.75700
N  47.38500 26.95100 29.18000
C  47.98400 27.68000 28.18900
C  48.34200 28.93300 28.64900
C  48.01500 28.90700 30.05700
C  47.47100 27.61600 30.31300
C  49.16300 29.98800 27.94200
C  48.12300 29.62800 31.31500
O  48.52400 30.80900 31.51300
C  47.57600 28.50700 32.42200
C  48.57800 28.04800 33.45700
O  49.22900 27.00800 33.40700
O  48.70800 29.07600 34.35700
C  49.51400 28.74800 35.52500
H  45.17800 22.04500 32.33700
H  46.37700 21.87500 26.10800
H  48.67300 27.86000 26.15300
H  46.96700 25.97600 34.15200
H  44.76900 24.06300 33.75600
H  47.34100 22.76200 33.97800
H  46.02600 22.83400 35.12200
H  47.20300 24.04500 35.17200
H  44.02800 26.25400 34.36200
H  44.62700 27.46800 33.34300
H  44.17000 27.93600 35.73100
H  45.91100 28.35500 35.11500
H  43.55500 19.45000 30.20900
H  44.11600 20.19200 31.65600
H  45.03900 18.99200 30.84600
H  43.06400 18.86500 27.87900
H  44.52900 18.08200 28.63000
H  44.17100 17.84700 26.94200
H  46.80000 23.81700 24.35700
H  49.36500 25.42800 25.08600
H  49.41300 23.48100 23.88800
H  48.35100 22.10300 24.41100
H  49.46100 22.76000 25.54000
H  47.52500 27.34700 24.26200
H  46.88700 25.87800 23.51400
H  49.26300 27.50500 22.70200
H  48.02600 26.53300 21.92600
H  49.45200 25.74600 22.63500
H  49.48800 29.59700 26.97800
H  49.96100 30.39600 28.56300
H  48.59200 30.89400 27.73600
H  46.81800 28.91900 33.08700
H  48.85200 28.54500 36.36600
H  50.09600 29.57300 35.93600
H  50.22100 27.92600 35.41300
Mg 30.73300 57.75000 39.38700
C  27.95600 55.70300 38.57100
C  32.77600 55.00200 38.20800
C  33.39100 59.72600 39.53800
C  28.55000 60.36600 39.88300
N  30.35000 55.63700 38.45200
C  29.18100 54.99200 38.46200
C  29.31200 53.50500 38.16900
C  30.87300 53.33900 38.14800
C  31.41900 54.80800 38.25500
C  31.33400 52.49000 39.30700
C  28.62000 52.96000 36.92500
C  29.03500 53.70400 35.61500
H  27.92000 54.42100 34.74400
N  32.81200 57.40500 38.97900
C  33.45300 56.24800 38.54200
C  34.83300 56.52900 38.47500
C  35.05400 57.80700 39.05000
C  33.71200 58.44300 39.24300
C  35.86000 55.69900 37.86500
C  36.48600 58.41400 39.33300
O  37.48600 57.80500 38.94800
C  36.59800 59.68000 40.11000
N  30.92700 59.74700 39.62300
C  32.14400 60.36100 39.56400
C  32.05400 61.88600 39.69500
C  30.52200 62.09800 39.76100
C  29.90900 60.63000 39.78500
C  32.92600 62.58800 40.80100
C  29.95300 63.04800 38.66000
C  28.96600 64.12000 39.12300
N  28.65300 57.99300 39.26400
C  27.90500 59.17000 39.45300
C  26.50400 58.81000 39.22400
C  26.50900 57.46700 38.95400
C  27.82800 57.06800 38.89800
C  25.36700 59.68600 39.47400
C  25.60600 56.34700 38.66000
O  24.39000 56.25000 38.56900
C  26.52800 55.13500 38.35100
C  26.12700 54.04700 39.33800
O  26.65700 53.76000 40.42400
O  25.16300 53.27700 38.69400
C  24.80000 52.08700 39.35600
H  33.32000 54.06700 38.05500
H  34.22600 60.41200 39.69400
H  27.90400 61.21200 40.12600
H  28.77100 53.01000 38.97500
H  31.23500 52.88100 37.22700
H  32.22300 51.93800 39.00400
H  30.61900 51.76100 39.68800
H  31.67000 52.97500 40.22300
H  27.53400 52.92900 37.01100
H  28.98100 51.93300 36.89600
H  29.51200 52.95600 34.98100
H  29.75900 54.49300 35.81700
H  36.63500 55.27800 38.50600
H  36.33100 56.29400 37.08200
H  35.35300 54.93600 37.27500
H  35.79500 59.76000 40.84300
H  36.65600 60.45600 39.34700
H  37.53700 59.70100 40.66300
H  32.50700 62.38800 38.84000
H  30.24200 62.48900 40.73900
H  32.18000 63.18600 41.32300
H  33.73900 63.18800 40.39200
H  33.35400 61.91700 41.54500
H  29.76600 62.39700 37.80600
H  30.81100 63.68300 38.44000
H  29.48400 65.06600 39.27800
H  28.47200 63.78400 40.03500
H  28.26600 64.28600 38.30400
H  25.52500 60.57900 38.87100
H  25.16800 59.84700 40.53400
H  24.48500 59.10700 39.19900
H  26.15200 54.71100 37.42100
H  23.90300 51.61800 38.95100
H  24.73500 52.35600 40.41000
H  25.64500 51.40600 39.25000

