158

Mg 47.34400 35.10500 27.82300
C  45.31500 33.29100 30.24500
C  47.59600 37.55700 30.31500
C  48.36700 37.19500 25.48400
C  46.47100 32.77000 25.47000
N  46.42500 35.40200 29.97900
C  45.84000 34.48900 30.78700
C  45.96900 34.84800 32.23800
C  46.22800 36.34300 32.19700
C  46.87100 36.41400 30.77600
C  45.06500 37.31600 32.36100
C  47.21200 34.07400 32.78600
C  47.35700 34.01400 34.34000
H  46.46700 34.82200 35.32500
N  47.95800 37.08600 27.89700
C  48.14500 37.87000 29.05500
C  48.80400 39.10800 28.65900
C  49.15100 39.00300 27.20800
C  48.51300 37.72700 26.78000
C  49.23600 40.16100 29.69600
C  49.83800 39.93800 26.31900
O  50.14400 39.72400 25.15800
C  50.25900 41.26200 26.96300
N  47.12600 35.10700 25.76400
C  47.76100 36.03600 24.99200
C  48.03700 35.58000 23.55800
C  47.27400 34.19700 23.52200
C  46.93500 33.98700 25.06100
C  47.68000 36.57500 22.45600
C  48.23100 33.02500 22.94900
C  47.60900 32.07400 21.88300
N  46.17100 33.37700 27.80500
C  46.04600 32.45900 26.77900
C  45.40700 31.27400 27.26700
C  45.05900 31.59000 28.62200
C  45.47000 32.89000 28.88600
C  45.02100 30.13900 26.49900
C  44.38700 31.04800 29.85100
O  43.90900 29.97700 30.15100
C  44.33500 32.35700 30.82700
C  44.42600 31.94000 32.29000
O  45.40500 31.41500 32.82500
O  43.18700 32.02300 32.78300
C  42.89300 31.40700 34.13500
H  47.78200 38.37200 31.01700
H  48.84500 37.80300 24.71300
H  46.24400 32.08700 24.64800
H  45.07500 34.60300 32.81000
H  46.97800 36.73000 32.88600
H  45.07300 37.76000 33.35600
H  44.14500 36.75500 32.19900
H  44.90800 38.16600 31.69700
H  48.12400 34.45000 32.32200
H  47.15200 33.02700 32.48900
H  48.40200 34.32100 34.38400
H  47.36200 32.95500 34.59800
H  50.24300 40.53500 29.51200
H  49.31300 39.62900 30.64400
H  48.50300 40.91200 29.98900
H  49.30900 41.69800 27.27400
H  50.72800 41.81700 26.15000
H  51.04600 41.11000 27.70100
H  49.11100 35.44400 23.42700
H  46.40200 34.29200 22.87400
H  48.57600 36.80300 21.88000
H  47.22300 37.39500 23.01100
H  46.94200 36.24100 21.72600
H  48.51000 32.34000 23.75000
H  49.17200 33.36800 22.52000
H  47.30700 31.16700 22.40700
H  48.22200 31.85100 21.01000
H  46.70600 32.50200 21.45000
H  45.89300 29.80900 25.93500
H  44.15400 30.43600 25.90900
H  44.75500 29.41400 27.26800
H  43.35100 32.81900 30.74700
H  43.47400 30.53100 34.42500
H  41.83400 31.16500 34.23200
H  42.98500 32.25200 34.81700
Mg -0.92500 34.34500 26.79500
C  -1.95500 32.89300 29.78700
C  0.77600 36.73800 28.79500
C  -0.15200 36.05300 24.09900
C  -2.63600 31.93500 25.02300
N  -0.40000 34.58100 29.09500
C  -0.99500 33.89200 30.15200
C  -0.55400 34.32000 31.48200
C  0.17200 35.70200 31.10400
C  0.19600 35.73200 29.55300
C  -0.45100 36.95400 31.78300
C  0.22300 33.20400 32.20300
C  -0.53800 32.66200 33.43400
H  -0.00900 32.77200 34.81500
N  0.28800 36.02900 26.49500
C  0.98800 36.87800 27.35400
C  1.82700 37.82500 26.66000
C  1.66300 37.55800 25.30000
C  0.52300 36.62000 25.18500
C  2.85300 38.64600 27.37800
C  2.35100 38.25200 24.09200
O  1.97300 38.02200 22.92800
C  3.44300 39.29100 24.35400
N  -1.58300 34.14000 24.87700
C  -1.02400 34.92200 23.89500
C  -1.46800 34.49300 22.52900
C  -1.95100 33.04800 22.84400
C  -2.07900 33.00100 24.35400
C  -2.54000 35.42700 21.89800
C  -0.95100 31.94000 22.21500
C  0.25500 31.34100 22.97600
N  -2.12100 32.80400 27.24500
C  -2.78400 31.87200 26.46500
C  -3.40000 30.85000 27.19300
C  -3.21000 31.29300 28.56200
C  -2.38200 32.43900 28.51300
C  -4.47400 29.84200 26.65600
C  -3.43600 30.94300 29.97200
O  -4.01900 30.03200 30.51700
C  -2.80700 32.14600 30.74800
C  -4.00900 32.89700 31.37700
O  -4.57500 33.78700 30.75500
O  -4.57200 32.29000 32.50800
C  -5.81300 32.85600 32.97900
H  1.34500 37.51300 29.31300
H  0.09400 36.55100 23.15900
H  -2.97000 31.09600 24.41000
H  -1.52600 34.66100 31.83700
H  1.20100 35.73600 31.46100
H  0.36400 37.53600 32.21400
H  -1.18000 36.83900 32.58500
H  -0.88200 37.46500 30.92200
H  1.16000 33.63700 32.55500
H  0.47200 32.43900 31.46800
H  -0.79700 31.63500 33.17600
H  -1.45100 33.25600 33.47500
H  3.85400 38.23400 27.24700
H  2.66100 38.71700 28.44800
H  2.87500 39.66400 26.99000
H  2.85600 40.14300 24.69700
H  4.04300 39.53200 23.47600
H  4.13300 39.07400 25.16900
H  -0.60200 34.46800 21.86700
H  -2.92600 32.76200 22.44900
H  -3.05100 35.96600 22.69500
H  -3.40100 35.04300 21.35000
H  -2.10000 36.15900 21.22000
H  -0.61400 32.37200 21.27200
H  -1.62100 31.09300 22.07100
H  0.37700 31.74900 23.98000
H  1.14900 31.50900 22.37600
H  0.13900 30.26400 23.09400
H  -5.44100 30.34400 26.65400
H  -4.44300 28.98900 27.33400
H  -4.24000 29.70800 25.60000
H  -2.17500 31.77400 31.55500
H  -6.32500 32.10100 33.57600
H  -6.41700 33.31700 32.19700
H  -5.65300 33.68600 33.66600

