158

Mg 25.03600 0.48400 29.64100
C  27.34800 0.83000 32.18800
C  22.46700 0.56800 31.77100
C  23.08300 0.25100 26.95700
C  27.93800 0.01100 27.48000
N  24.95800 0.60800 31.71000
C  26.02200 0.84400 32.61900
C  25.44800 0.97400 33.99900
C  23.84300 0.61300 33.86100
C  23.75800 0.61300 32.32000
C  23.36900 -0.72000 34.51300
C  25.79400 2.35100 34.67700
C  26.13100 2.10800 36.19600
H  25.48100 2.93700 37.27400
N  23.10500 0.56600 29.41200
C  22.14900 0.60200 30.41200
C  20.80300 0.43200 29.90800
C  20.94400 0.29600 28.53000
C  22.43700 0.39400 28.24800
C  19.57500 0.22600 30.77100
C  19.89700 0.18500 27.52900
O  20.14100 0.01000 26.34400
C  18.43700 0.34000 27.88100
N  25.53000 0.26900 27.55800
C  24.44300 0.10100 26.63800
C  24.98900 -0.17800 25.19200
C  26.51000 -0.15200 25.31300
C  26.73400 0.06600 26.88900
C  24.36100 -1.38400 24.39300
C  27.24900 0.83800 24.38200
C  27.71300 0.22600 22.94400
N  27.29000 0.40800 29.72700
C  28.28100 0.12600 28.85800
C  29.59400 0.13300 29.53900
C  29.27700 0.37300 30.84900
C  27.87800 0.55100 30.87200
C  30.89200 -0.17800 28.90300
C  29.77900 0.48200 32.19600
O  30.90900 0.24300 32.65500
C  28.54300 0.84500 33.12000
C  28.36300 -0.16000 34.27400
O  27.83100 -1.25100 34.14400
O  28.89600 0.22200 35.45700
C  28.56600 -0.61800 36.67100
H  21.65600 0.40100 32.48200
H  22.41900 -0.05200 26.14500
H  28.77700 -0.07900 26.78700
H  25.89500 0.22900 34.65800
H  23.26300 1.42200 34.30500
H  22.90500 -0.64300 35.49600
H  24.20600 -1.40700 34.63300
H  22.68100 -1.17300 33.79900
H  24.99700 3.08900 34.59600
H  26.69400 2.76600 34.22400
H  27.20200 2.27000 36.32600
H  25.82800 1.12200 36.54800
H  18.75600 0.92000 30.58100
H  19.80300 0.47700 31.80700
H  19.17700 -0.78600 30.69300
H  17.82800 0.35100 26.97700
H  18.25900 1.28000 28.40400
H  18.08000 -0.40500 28.59300
H  24.60300 0.65100 24.59900
H  26.85100 -1.18000 25.18800
H  25.14000 -2.06000 24.04200
H  23.92300 -0.88800 23.52700
H  23.66400 -2.06200 24.88500
H  28.12600 1.39500 24.71100
H  26.50700 1.61300 24.18900
H  27.22100 0.68600 22.08700
H  27.45500 -0.82800 22.84700
H  28.78800 0.32300 22.79100
H  31.66600 -0.05600 29.66100
H  30.99400 0.57800 28.12500
H  30.86100 -1.16200 28.43500
H  28.74800 1.85200 33.48400
H  27.48800 -0.77700 36.63100
H  29.00200 -0.20400 37.58000
H  28.98300 -1.61500 36.52600
Mg 53.74600 24.53700 43.82000
C  51.02700 26.99000 43.03800
C  51.41200 22.28200 42.72000
C  56.24200 22.49800 43.34200
C  55.73200 27.21700 44.61700
N  51.48600 24.67400 42.75400
C  50.59500 25.71200 42.72200
C  49.21900 25.24000 42.25200
C  49.27300 23.67600 42.45000
C  50.82000 23.53000 42.72100
C  48.48500 23.13300 43.71500
C  48.76700 25.72300 40.91500
C  49.84500 25.77200 39.75500
H  49.23400 25.78200 38.35600
N  53.80600 22.55700 43.42700
C  52.76100 21.84000 42.99900
C  53.23300 20.42900 42.77200
C  54.68200 20.46100 43.06900
C  54.96100 21.87900 43.27100
C  52.40100 19.33300 42.26900
C  55.64600 19.25100 42.92500
O  55.19800 18.14300 42.54300
C  57.08500 19.32000 43.22600
N  55.76100 24.89500 43.76600
C  56.69800 23.84400 43.58800
C  58.14500 24.39000 43.51200
C  57.85300 25.89600 44.06600
C  56.36000 26.02700 44.20400
C  59.26300 23.55900 44.19500
C  58.54500 27.02300 43.31300
C  57.79500 27.73900 42.23300
N  53.40100 26.59800 44.00500
C  54.34700 27.56200 44.44700
C  53.71600 28.89800 44.52400
C  52.43300 28.68500 43.98100
C  52.27400 27.32200 43.62600
C  54.20500 30.08700 45.22400
C  51.12900 29.31700 43.70700
O  50.74900 30.45100 43.83200
C  50.25900 28.31200 42.99500
C  49.87200 28.83600 41.60900
O  50.62200 29.09500 40.65800
O  48.56200 29.07800 41.73400
C  47.95300 29.54100 40.45900
H  50.73600 21.48500 42.40300
H  57.09600 21.83900 43.17000
H  56.38700 28.04300 44.90100
H  48.60400 25.71200 43.01900
H  49.03300 23.19500 41.50200
H  47.58500 22.69400 43.28500
H  48.40100 23.93600 44.44700
H  49.12500 22.40700 44.21600
H  48.18300 26.64300 40.93700
H  48.08000 24.91900 40.65300
H  50.66700 25.06500 39.86800
H  50.27400 26.77000 39.66000
H  52.34700 19.51400 41.19600
H  51.36800 19.49000 42.58100
H  52.69400 18.30600 42.48300
H  57.56700 19.50400 42.26600
H  57.50500 18.37200 43.56300
H  57.37200 20.06900 43.96500
H  58.42200 24.35500 42.45800
H  58.31400 25.88300 45.05400
H  58.84300 23.27000 45.15800
H  60.14900 24.15900 44.40200
H  59.41600 22.69300 43.55000
H  59.39200 26.53700 42.83000
H  58.90000 27.70700 44.08500
H  57.46100 28.69600 42.63300
H  56.83300 27.26700 42.03700
H  58.35100 27.74300 41.29500
H  53.70600 30.92900 44.74400
H  55.27100 30.15100 45.00900
H  54.04200 30.01900 46.29900
H  49.39000 28.23600 43.65000
H  47.67600 30.59500 40.48700
H  47.03600 28.95900 40.37200
H  48.52500 29.28700 39.56600

