158

Mg 44.94000 5.50300 48.03000
C  43.05100 8.47900 47.57800
C  42.29900 3.68000 47.12800
C  47.02600 2.92000 47.96200
C  47.79200 7.59600 48.55500
N  42.98700 6.04000 47.31000
C  42.44200 7.28000 47.12300
C  41.14900 7.18200 46.52000
C  40.69300 5.71700 46.75700
C  41.96300 5.05200 47.20300
C  39.49300 5.46700 47.76300
C  41.13300 7.69300 45.03100
C  40.00100 8.63000 44.73200
H  39.19000 8.24300 43.49300
N  44.67700 3.51000 47.74500
C  43.45800 2.94100 47.32600
C  43.66300 1.51400 47.41000
C  45.06500 1.25100 47.62700
C  45.67300 2.57600 47.79600
C  42.45700 0.63900 47.16900
C  45.60500 -0.13300 47.67900
O  44.92300 -1.08500 47.39500
C  47.01100 -0.31200 48.21100
N  47.11100 5.35000 48.22800
C  47.71700 4.07400 48.19200
C  49.28800 4.21100 48.16700
C  49.48100 5.65600 48.64800
C  48.09100 6.28500 48.36700
C  50.07700 3.14000 49.01300
C  50.65100 6.46100 47.97400
C  51.46800 7.29600 48.93900
N  45.41300 7.62500 48.01900
C  46.58800 8.28500 48.32800
C  46.32600 9.70000 48.34700
C  44.93000 9.88000 48.03700
C  44.47400 8.55500 47.93900
C  47.30200 10.75400 48.64900
C  43.79400 10.77600 47.89100
O  43.66100 11.97400 48.13300
C  42.59900 9.93200 47.45100
C  41.44400 10.12200 48.43800
O  41.19000 9.49400 49.44000
O  40.57400 11.03800 47.87900
C  39.40700 11.33000 48.68700
H  41.33400 3.22500 46.89700
H  47.78400 2.15900 47.76600
H  48.57900 8.26200 48.91600
H  40.44000 7.85100 47.00900
H  40.50600 5.28800 45.77200
H  39.15900 6.44700 48.10400
H  39.83100 4.87000 48.61000
H  38.70700 4.92400 47.23900
H  41.15600 6.90600 44.27800
H  42.02700 8.30300 44.89900
H  40.42700 9.59900 44.47100
H  39.29100 8.75800 45.55000
H  42.40900 -0.21400 47.84600
H  42.51600 0.37900 46.11200
H  41.52800 1.18200 47.34300
H  46.95500 -1.16200 48.89100
H  47.24600 0.50300 48.89500
H  47.79100 -0.32100 47.45000
H  49.62900 4.17200 47.13200
H  49.66200 5.61400 49.72300
H  49.34400 2.53100 49.54100
H  50.76600 3.58500 49.73200
H  50.71300 2.55600 48.34700
H  50.16900 7.20200 47.33700
H  51.34800 5.81700 47.43800
H  51.09100 7.32800 49.96100
H  51.55900 8.32300 48.58500
H  52.46100 6.87200 49.08600
H  46.91300 11.77100 48.60000
H  48.15200 10.63800 47.97600
H  47.54000 10.70600 49.71100
H  42.18900 10.29500 46.50900
H  39.19900 12.35000 49.01000
H  39.34000 10.77700 49.62400
H  38.58300 11.00500 48.05200
Mg 6.58600 53.21100 40.81300
C  6.09000 49.78800 40.26900
C  9.81100 52.93000 39.93300
C  6.86800 56.66900 40.99300
C  3.07500 53.55000 41.14400
N  7.85400 51.54900 39.92200
C  7.43800 50.24100 39.95900
C  8.66100 49.42100 39.89100
C  9.87200 50.37400 40.08100
C  9.18800 51.73900 39.97900
C  10.70300 50.20900 41.42400
C  8.87200 48.51200 38.67000
C  8.88000 49.17800 37.29000
H  7.75300 48.75900 36.30600
N  8.15800 54.62600 40.54700
C  9.34900 54.27700 40.04200
C  10.16300 55.43200 39.78900
C  9.35500 56.51200 40.18200
C  8.04600 55.98100 40.63400
C  11.59400 55.37000 39.18500
C  9.74000 57.93300 40.12500
O  10.78800 58.21200 39.65100
C  8.98700 59.12100 40.68200
N  5.12900 54.84000 41.01900
C  5.52800 56.13500 41.06200
C  4.38300 57.06200 41.30100
C  3.18500 56.12400 41.10100
C  3.84100 54.73400 41.12500
C  4.47500 57.83600 42.65100
C  2.25000 56.29800 39.88300
C  0.74200 56.06500 40.14500
N  4.90200 51.98200 40.82900
C  3.55100 52.21100 41.04800
C  2.73100 50.95300 40.95500
C  3.72400 50.05700 40.70900
C  4.98900 50.67300 40.53300
C  1.33100 50.68500 41.08200
C  3.99100 48.62800 40.56100
O  3.24600 47.63100 40.64100
C  5.47100 48.37000 40.28400
C  5.44300 47.55500 38.96500
O  4.90900 47.91300 37.99800
O  6.16000 46.36500 39.07300
C  5.89000 45.36600 38.02600
H  10.89600 52.83900 39.84800
H  6.78800 57.75800 40.96100
H  1.98300 53.57100 41.15100
H  8.54300 48.79400 40.77400
H  10.67600 50.15000 39.38100
H  11.03100 51.08800 41.97800
H  11.59700 49.65600 41.13400
H  10.10400 49.67100 42.15900
H  8.06400 47.78600 38.75500
H  9.77900 47.91700 38.77900
H  9.83500 49.05600 36.77800
H  8.72500 50.23500 37.50600
H  11.63500 55.89000 38.22800
H  11.93900 54.33800 39.12800
H  12.23800 55.81500 39.94400
H  9.61800 60.01000 40.70800
H  8.80000 58.85500 41.72200
H  8.03000 59.32800 40.20300
H  4.21100 57.80500 40.52300
H  2.62900 56.07500 42.03700
H  4.65600 58.86700 42.34800
H  5.23300 57.50800 43.36200
H  3.45500 57.68600 43.00700
H  2.58300 55.74000 39.00800
H  2.33300 57.32100 39.51700
H  0.62200 56.06100 41.22800
H  0.52400 55.13700 39.61600
H  0.21400 56.96900 39.84200
H  1.17300 49.84800 40.40100
H  0.86000 51.64700 40.88100
H  1.14200 50.42700 42.12400
H  5.70800 47.63500 41.05300
H  4.81900 45.29300 37.83800
H  6.31900 44.39500 38.27200
H  6.34000 45.72500 37.10000

