158

Mg 54.71800 24.47300 44.55700
C  52.10400 26.76100 43.82300
C  52.58400 21.86600 43.54000
C  57.32900 22.39500 44.59300
C  56.69300 27.10300 45.38300
N  52.55700 24.34500 43.94000
C  51.75800 25.43100 43.58200
C  50.40700 24.87800 42.92400
C  50.47800 23.32000 43.37400
C  52.01800 23.14700 43.59600
C  49.70900 22.82400 44.58400
C  50.20000 25.04600 41.41100
C  48.83200 25.05200 40.74700
H  48.68100 24.28100 39.45100
N  54.94100 22.42000 44.03600
C  53.92700 21.49100 43.71600
C  54.54300 20.20600 43.53100
C  55.89500 20.30000 43.94600
C  56.10100 21.71600 44.17600
C  53.72900 19.06600 43.21300
C  56.89500 19.08600 44.07700
O  56.62900 17.90200 43.71200
C  58.18800 19.29000 44.73600
N  56.76000 24.67500 44.86800
C  57.70600 23.68800 44.84300
C  59.04100 24.14300 45.39600
C  58.70400 25.70200 45.60800
C  57.30200 25.83900 45.26000
C  59.57600 23.40400 46.69700
C  59.56200 26.59100 44.66300
C  60.58300 27.42000 45.40400
N  54.54800 26.55600 44.58200
C  55.38100 27.48900 45.12700
C  54.75900 28.76500 45.24400
C  53.49400 28.54600 44.64000
C  53.39800 27.20500 44.30600
C  55.37200 29.96000 45.86600
C  52.27800 29.20700 44.26500
O  51.94300 30.38500 44.39900
C  51.27900 28.05700 43.62300
C  50.84200 28.34500 42.24300
O  51.62500 28.41900 41.24700
O  49.52500 28.42900 42.22100
C  49.08100 28.71600 40.89000
H  51.85000 21.08200 43.34200
H  58.19600 21.74800 44.74200
H  57.36100 27.91700 45.67100
H  49.60100 25.32700 43.50500
H  50.27300 22.69900 42.50200
H  50.43900 22.69900 45.38400
H  49.04900 21.97100 44.42700
H  49.00400 23.61000 44.85300
H  50.88700 24.31700 40.98100
H  50.61100 26.01600 41.13200
H  48.57800 26.10600 40.64200
H  48.13800 24.57600 41.43900
H  53.26000 19.22400 42.24100
H  52.96200 18.94400 43.97800
H  54.22400 18.09700 43.15200
H  58.46900 18.28300 45.04500
H  58.12800 19.83300 45.68000
H  59.02000 19.67200 44.14600
H  59.78800 24.00200 44.61600
H  58.91200 25.91900 46.65600
H  59.33000 24.03300 47.55300
H  60.63800 23.16100 46.72900
H  59.06200 22.44400 46.75700
H  58.99400 27.29200 44.05100
H  60.11900 25.94700 43.98300
H  60.38900 27.41100 46.47600
H  60.54700 28.47900 45.15100
H  61.54000 26.97700 45.12600
H  56.39700 30.16400 45.55500
H  55.31900 29.79600 46.94200
H  54.79400 30.84100 45.59000
H  50.34900 27.91500 44.17200
H  48.84600 29.77400 40.77400
H  48.13100 28.20500 40.73300
H  49.70300 28.41100 40.04800
Mg 29.91200 58.00300 39.92400
C  27.07100 56.05200 39.10900
C  31.91200 55.33200 38.79100
C  32.60500 60.03100 40.01500
C  27.77800 60.70000 40.68300
N  29.49100 55.96700 38.95200
C  28.21000 55.39100 38.85500
C  28.40400 53.88500 38.39500
C  29.99500 53.63700 38.59900
C  30.53900 55.06600 38.80600
C  30.34000 52.70500 39.79500
C  27.68400 53.71300 36.96300
C  28.22700 54.70600 35.98300
H  28.74200 54.34200 34.58000
N  31.96800 57.75200 39.48100
C  32.59300 56.54000 39.07000
C  33.97000 56.82400 38.97800
C  34.18100 58.08300 39.61900
C  32.90800 58.68400 39.78200
C  35.04800 55.70200 38.50700
C  35.51900 58.61100 40.05900
O  36.54800 58.01900 39.87300
C  35.65500 59.83300 40.88400
N  30.13300 60.09800 40.10500
C  31.34100 60.71200 40.24700
C  31.21900 62.29800 40.54500
C  29.70100 62.42700 40.79800
C  29.15600 61.02200 40.45700
C  32.21200 62.82100 41.64400
C  29.08500 63.65500 40.12500
C  28.48800 63.48600 38.73200
N  27.82700 58.32900 40.09000
C  27.11000 59.44700 40.45100
C  25.74300 59.14700 40.41600
C  25.68800 57.82000 39.85800
C  27.01900 57.36100 39.62900
C  24.56100 60.02400 40.75400
C  24.78500 56.77700 39.47300
O  23.59900 56.65300 39.41800
C  25.66200 55.61200 38.98700
C  25.33100 54.38200 39.84600
O  25.79100 54.19600 41.01600
O  24.31800 53.61200 39.27300
C  23.65200 52.53400 40.07500
H  32.51000 54.44800 38.56100
H  33.44800 60.71400 39.88800
H  27.08500 61.52600 40.86100
H  27.90000 53.25900 39.13200
H  30.35600 53.15100 37.69300
H  29.41000 52.25200 40.13700
H  30.69100 53.27500 40.65600
H  31.03100 51.96200 39.39600
H  26.63200 53.87400 37.19900
H  28.07900 52.77100 36.58300
H  29.08500 55.19000 36.45000
H  27.43900 55.44500 35.83400
H  35.81300 56.15100 37.87300
H  34.58800 54.91800 37.90400
H  35.37300 55.18200 39.40800
H  36.60600 59.83000 41.41600
H  34.91000 59.97800 41.66700
H  35.69500 60.64000 40.15200
H  31.44700 62.86300 39.64200
H  29.61300 62.54200 41.87800
H  31.72800 62.97000 42.61000
H  32.65000 63.76100 41.30700
H  33.02400 62.09900 41.72900
H  29.76000 64.51100 40.09300
H  28.30600 63.98300 40.81400
H  28.96900 64.27000 38.14700
H  27.46000 63.84800 38.74800
H  28.65700 62.58200 38.14500
H  24.91800 61.01000 41.05400
H  23.85900 59.64500 41.49700
H  23.94900 60.16300 39.86300
H  25.39200 55.47400 37.94000
H  23.60000 51.57500 39.56000
H  22.64100 52.85500 40.32800
H  24.17600 52.46900 41.02800

