158

Mg -0.96900 17.81400 27.31800
C  -1.68900 15.66700 30.09800
C  -1.55200 20.45300 29.41300
C  -0.64100 19.79900 24.73500
C  -0.64400 14.95600 25.30200
N  -1.57800 18.01300 29.57100
C  -1.74000 17.05100 30.49600
C  -2.00400 17.68600 31.82700
C  -2.21200 19.15600 31.50400
C  -1.67200 19.22900 30.09200
C  -3.59400 19.73400 31.66900
C  -0.83300 17.53200 32.82000
C  -1.29100 16.81800 34.14800
H  -0.17800 16.57900 35.14300
N  -1.11100 19.82500 27.11400
C  -1.30300 20.78200 28.10200
C  -1.17400 22.15400 27.60000
C  -1.00800 21.99400 26.18800
C  -0.93700 20.54200 25.91700
C  -1.22300 23.39500 28.37700
C  -0.80700 23.03100 25.07300
O  -0.75400 22.76300 23.88200
C  -0.62300 24.46600 25.44300
N  -0.66700 17.40200 25.24700
C  -0.60600 18.44700 24.40600
C  -0.34300 17.92700 22.98100
C  -0.16000 16.39900 23.14200
C  -0.60000 16.20000 24.64200
C  -1.50900 18.40400 21.97300
C  1.31400 15.84600 22.93800
C  2.42000 16.31400 23.90600
N  -1.06200 15.77300 27.53900
C  -0.78800 14.76100 26.70200
C  -1.02900 13.52900 27.38200
C  -1.30700 13.79600 28.67900
C  -1.34600 15.24000 28.75500
C  -1.05300 12.16200 26.79600
C  -1.65300 13.18900 29.95100
O  -1.79300 12.02800 30.24100
C  -1.77800 14.38100 30.94700
C  -0.73800 14.17100 32.01300
O  0.39300 14.63800 31.98200
O  -1.33400 13.48100 32.99400
C  -0.55500 13.11700 34.15600
H  -1.79300 21.29900 30.06100
H  -0.53800 20.33800 23.79100
H  -0.47400 14.02500 24.75700
H  -2.89000 17.20900 32.24400
H  -1.58100 19.81200 32.10500
H  -3.98500 20.00700 30.68900
H  -3.52100 20.57800 32.35400
H  -4.31700 19.11800 32.20400
H  -0.44600 18.50300 33.12800
H  0.07500 17.08200 32.41900
H  -1.73500 15.86600 33.85600
H  -1.96300 17.44100 34.73700
H  -1.56200 23.25300 29.40300
H  -1.96500 24.04800 27.91600
H  -0.24700 23.87800 28.33400
H  -0.21000 24.94000 24.55300
H  0.10000 24.31700 26.24500
H  -1.50100 24.96100 25.85900
H  0.62600 18.25700 22.60600
H  -0.77900 15.85200 22.43100
H  -2.15900 17.62200 21.58100
H  -1.10100 19.12500 21.26400
H  -2.30500 18.88400 22.54200
H  1.66900 16.23600 21.98400
H  1.23600 14.75900 22.97500
H  1.91400 16.87300 24.69400
H  3.05200 17.09100 23.47600
H  3.00000 15.42200 24.14300
H  -0.50300 12.22000 25.85600
H  -2.07100 11.97800 26.45600
H  -0.77800 11.32900 27.44300
H  -2.75600 14.26000 31.41300
H  0.38300 13.67300 34.16600
H  -0.25600 12.06900 34.16300
H  -1.21000 13.43300 34.96800
Mg 10.14300 47.75900 26.03300
C  7.79600 48.09200 28.75100
C  12.32300 49.39700 27.95000
C  12.07200 47.94200 23.41500
C  7.36600 46.93700 23.88100
N  10.05500 48.42500 28.10900
C  9.10500 48.42400 29.08700
C  9.63300 48.93800 30.48200
C  10.86000 49.74000 29.94500
C  11.09900 49.17900 28.55600
C  10.70600 51.28500 29.91200
C  9.98900 47.80000 31.47400
C  10.01800 48.08800 33.00100
H  9.47500 47.12000 34.07400
N  12.02800 48.34200 25.84000
C  12.83500 48.94000 26.72000
C  14.16400 49.02200 26.21700
C  14.10800 48.60000 24.85800
C  12.67900 48.27600 24.64000
C  15.24900 49.48000 27.16300
C  15.15500 48.50700 23.84700
O  14.90600 48.10900 22.71000
C  16.61500 48.82000 24.14200
N  9.78300 47.63800 23.88200
C  10.78100 47.56600 23.06300
C  10.41600 47.19000 21.59700
C  9.00700 46.60100 21.82900
C  8.71000 47.04300 23.30000
C  10.31400 48.42300 20.68900
C  8.87100 45.01100 21.60200
C  9.24800 44.13000 22.78000
N  8.03300 47.53000 26.24800
C  7.07500 47.10700 25.27700
C  5.78600 47.28400 25.88000
C  6.03500 47.63300 27.24000
C  7.42800 47.79300 27.39200
C  4.51400 47.06200 25.22700
C  5.39400 47.84900 28.47700
O  4.19100 47.73700 28.65400
C  6.51900 48.31400 29.53600
C  6.38600 47.46700 30.71500
O  6.82200 46.34500 30.88400
O  5.66500 48.15300 31.64300
C  5.52000 47.50800 32.95400
H  12.89200 50.10500 28.55700
H  12.71400 47.99300 22.53400
H  6.52100 46.68100 23.23800
H  8.90100 49.58600 30.96300
H  11.67600 49.71900 30.66800
H  9.74500 51.62700 30.29600
H  10.81900 51.65700 28.89400
H  11.58800 51.76700 30.33300
H  10.96700 47.43400 31.16200
H  9.32200 46.95300 31.31200
H  9.52600 49.05700 33.08500
H  11.07700 48.23600 33.20800
H  15.05500 49.35900 28.22900
H  15.43600 50.53200 26.94800
H  16.18500 48.96600 26.94600
H  16.96700 48.09500 24.87600
H  16.56400 49.82600 24.55800
H  17.19100 48.78100 23.21800
H  11.10400 46.47400 21.14800
H  8.28900 47.12900 21.20100
H  11.12400 48.22400 19.98700
H  10.59100 49.25100 21.34200
H  9.42800 48.58100 20.07400
H  9.68200 44.73500 20.92900
H  7.90800 44.88600 21.10500
H  8.83100 44.43600 23.74000
H  10.30700 43.98800 22.99800
H  8.88300 43.13800 22.51200
H  3.95600 47.99400 25.13200
H  3.99000 46.38800 25.90500
H  4.57500 46.52900 24.27900
H  6.39700 49.39000 29.65700
H  5.46700 46.41900 32.95400
H  4.52800 47.75300 33.33300
H  6.32700 47.81700 33.61800

