158

Mg 15.78300 -1.87200 27.38400
C  14.80000 0.21800 30.37400
C  17.87300 -3.57700 29.48200
C  16.96300 -3.30700 24.75000
C  13.88900 0.37900 25.52000
N  16.32100 -1.60500 29.69100
C  15.75700 -0.80400 30.68000
C  16.32800 -1.23900 32.00700
C  17.19100 -2.50900 31.72200
C  17.11600 -2.58600 30.21700
C  18.64800 -2.40600 32.32900
C  15.30100 -1.59200 33.12000
C  15.53800 -0.83300 34.49200
H  16.86800 -0.28000 34.94700
N  17.23600 -3.36800 27.12600
C  17.98700 -3.93500 28.06300
C  18.83400 -4.92200 27.48100
C  18.50900 -4.89200 26.09300
C  17.54100 -3.81000 25.89100
C  19.80000 -5.84800 28.24900
C  19.12900 -5.66400 25.00700
O  18.82800 -5.53600 23.81800
C  20.09600 -6.78100 25.28100
N  15.32400 -1.59600 25.39200
C  15.99900 -2.31100 24.44500
C  15.61100 -1.75300 23.05600
C  14.39700 -0.79600 23.30300
C  14.44200 -0.70600 24.82700
C  16.81700 -1.08200 22.33800
C  13.08900 -1.41600 22.87900
C  12.81500 -1.23200 21.37600
N  14.69200 -0.07300 27.76700
C  14.01600 0.64300 26.87500
C  13.34500 1.75200 27.53600
C  13.59500 1.63200 28.89200
C  14.36300 0.47500 29.03800
C  12.64100 2.88800 26.85400
C  13.34000 2.28400 30.22500
O  12.97600 3.39100 30.57200
C  14.10900 1.34100 31.24200
C  15.00400 2.22700 32.04300
O  15.99000 2.77000 31.59900
O  14.49800 2.50500 33.23100
C  15.20000 3.39800 34.13300
H  18.44300 -4.18100 30.19100
H  17.37900 -3.65900 23.80400
H  13.25300 1.05800 24.94900
H  16.96300 -0.45900 32.42600
H  16.59700 -3.37900 32.00500
H  18.71100 -1.47200 32.88700
H  19.39700 -2.40800 31.53700
H  18.67900 -3.35700 32.86100
H  15.33000 -2.66600 33.30600
H  14.31200 -1.33000 32.74600
H  15.15900 -1.43200 35.32000
H  14.96400 0.06800 34.27400
H  20.77100 -5.37600 28.40100
H  19.91000 -6.88900 27.94300
H  19.40700 -5.90000 29.26400
H  21.02200 -6.32800 25.63500
H  20.27600 -7.42700 24.42100
H  19.64400 -7.38600 26.06700
H  15.21500 -2.50700 22.37600
H  14.58300 0.23100 22.98800
H  16.77100 -0.02800 22.61200
H  16.76000 -1.23800 21.26100
H  17.79000 -1.47000 22.64000
H  12.25500 -0.95600 23.40900
H  12.93300 -2.43000 23.24700
H  13.76800 -0.91200 20.95400
H  12.17300 -0.37400 21.17700
H  12.39800 -2.08300 20.83900
H  13.30100 3.45400 26.19600
H  12.25400 3.55300 27.62600
H  11.81500 2.54400 26.23100
H  13.41800 0.91200 31.96700
H  15.04200 4.45400 33.91500
H  16.24500 3.11100 34.25600
H  14.72200 3.28700 35.10600
Mg 45.37800 5.58200 47.15600
C  43.39200 8.45300 46.38200
C  42.82100 3.76700 46.08400
C  47.49100 3.03200 46.89000
C  48.02000 7.91700 47.57600
N  43.40900 6.04300 46.23300
C  42.80700 7.25100 46.05300
C  41.40000 7.12900 45.46300
C  41.09600 5.64700 45.92500
C  42.49900 5.08100 46.12600
C  40.22200 5.61800 47.21400
C  41.46700 7.18100 43.89700
C  40.48400 8.03600 43.11400
H  40.85400 8.73200 41.73100
N  45.18200 3.54500 46.75700
C  43.99900 2.97900 46.39800
C  44.12300 1.57900 46.20400
C  45.51100 1.29300 46.44700
C  46.15500 2.61500 46.70500
C  43.11500 0.61700 45.71900
C  46.19000 -0.01600 46.34300
O  45.54100 -1.02100 46.01700
C  47.65100 -0.25700 46.52600
N  47.34900 5.58000 47.16200
C  48.01400 4.35000 47.17800
C  49.48000 4.47700 47.55000
C  49.64600 6.04800 47.68800
C  48.25900 6.55600 47.48100
C  49.89400 3.62100 48.81200
C  50.62300 6.66800 46.58100
C  51.98600 7.12100 47.07400
N  45.70600 7.81200 47.07800
C  46.80200 8.57600 47.32600
C  46.40800 9.95700 47.32200
C  45.09300 9.92200 46.98500
C  44.72100 8.59800 46.84900
C  47.28400 11.17100 47.41500
C  43.89200 10.76200 46.78900
O  43.79200 11.93100 46.95000
C  42.73400 9.81400 46.28200
C  41.64300 9.89600 47.28400
O  41.69500 9.49900 48.44300
O  40.66900 10.68100 46.79300
C  39.66900 11.03900 47.83000
H  41.93200 3.17800 45.84800
H  48.23700 2.24000 46.79300
H  48.89700 8.52000 47.81900
H  40.67600 7.85500 45.83300
H  40.44200 5.14100 45.21500
H  39.78600 6.58900 47.45000
H  40.72300 5.41100 48.15900
H  39.41200 4.89500 47.11400
H  41.38100 6.17900 43.47600
H  42.43900 7.60500 43.64400
H  40.35400 8.84400 43.83400
H  39.44100 7.72800 43.05100
H  42.13400 1.05600 45.90300
H  43.32500 -0.28700 46.29000
H  43.26200 0.51800 44.64400
H  47.84800 -0.04000 47.57600
H  48.27300 0.22500 45.77200
H  47.77600 -1.33100 46.38800
H  50.09500 4.11600 46.72500
H  49.89000 6.29600 48.72000
H  48.91700 3.28700 49.16100
H  50.59800 3.97700 49.56400
H  50.32000 2.73500 48.34100
H  50.12800 7.57700 46.23800
H  50.77800 6.03100 45.71100
H  52.13000 6.51000 47.96500
H  51.99800 8.20700 47.16800
H  52.77400 6.97400 46.33500
H  46.68200 12.07900 47.41600
H  47.97100 11.11300 46.57100
H  47.83800 11.09600 48.35100
H  42.41000 10.17300 45.30500
H  39.04500 11.68200 47.20900
H  40.13600 11.52300 48.68800
H  39.09100 10.16800 48.13800

