158

Mg 27.04200 51.64300 26.03200
C  24.70400 52.76100 28.68000
C  29.14900 50.65800 28.52800
C  29.03500 50.85300 23.67300
C  24.58600 53.00600 23.74500
N  26.91400 51.76700 28.39900
C  25.82500 52.02300 29.19000
C  26.14200 51.56300 30.59900
C  27.70000 51.30000 30.56000
C  27.94600 51.21600 29.05900
C  28.63300 52.32500 31.13200
C  25.23400 50.31600 31.11100
C  24.67400 50.48000 32.49300
H  25.24900 51.38200 33.59600
N  28.86000 50.84200 26.10500
C  29.59500 50.51900 27.21200
C  30.91500 49.90900 26.75700
C  30.87400 49.93300 25.30000
C  29.59400 50.57100 24.94700
C  31.94700 49.38100 27.74300
C  31.91700 49.55500 24.26800
O  31.69200 49.70900 23.06900
C  33.18400 48.92900 24.75800
N  26.79300 51.83100 24.01800
C  27.80300 51.34700 23.24300
C  27.46200 51.48000 21.79000
C  25.98300 52.09000 21.82600
C  25.78400 52.35000 23.29400
C  28.48200 52.44200 21.10200
C  24.81000 51.28200 21.22100
C  24.37400 50.07800 22.02500
N  25.11000 52.72800 26.09000
C  24.28600 53.13600 25.07900
C  23.07700 53.75600 25.69700
C  23.25300 53.67200 27.07600
C  24.46600 52.97600 27.27700
C  21.96000 54.39500 24.88200
C  22.73500 54.00700 28.38500
O  21.77400 54.69900 28.74500
C  23.56300 53.21900 29.48300
C  23.89500 54.23700 30.53200
O  24.82400 55.04400 30.60100
O  22.92500 54.27400 31.45500
C  23.24400 55.06500 32.65300
H  29.86700 50.23100 29.23200
H  29.59800 50.58500 22.77700
H  23.84800 53.38400 23.03400
H  25.97800 52.44800 31.21400
H  27.90300 50.32100 30.99500
H  29.06000 52.81400 30.25700
H  29.46700 51.94300 31.72200
H  28.10500 53.00800 31.79800
H  25.86100 49.44200 30.93200
H  24.42300 50.23300 30.38700
H  24.50600 49.51700 32.97400
H  23.73800 51.00500 32.29700
H  32.50000 50.24100 28.11900
H  32.60600 48.56900 27.43400
H  31.50400 48.91800 28.62500
H  33.68200 48.52400 23.87800
H  33.04000 48.12200 25.47600
H  33.84600 49.68000 25.18900
H  27.44500 50.47200 21.37500
H  26.08300 53.09000 21.40600
H  29.17100 52.80900 21.86300
H  27.98100 53.30800 20.66900
H  29.03400 51.86400 20.36100
H  25.11700 50.98400 20.21900
H  23.93600 51.92500 21.11500
H  25.02800 49.25400 21.74000
H  23.32400 49.95700 21.76000
H  24.40800 50.10400 23.11500
H  22.20700 54.64100 23.84900
H  21.62000 55.36600 25.24400
H  21.11200 53.72100 24.75700
H  22.97300 52.40500 29.90400
H  22.42400 54.96100 33.36300
H  23.34200 56.09800 32.31900
H  24.12500 54.70800 33.18600
Mg 1.83000 42.82200 25.35500
C  3.45000 42.86900 28.53300
C  -0.92700 41.81300 26.90200
C  0.63200 42.66200 22.23600
C  5.13400 43.68000 23.91600
N  1.36200 42.29000 27.53200
C  2.09000 42.50500 28.64700
C  1.18300 42.35300 29.88800
C  -0.16300 41.86500 29.27000
C  0.09500 42.02800 27.79700
C  -0.59100 40.40200 29.60100
C  1.05300 43.81400 30.53600
C  1.48800 43.98200 32.03500
H  0.90100 43.18000 33.15800
N  0.12400 42.38300 24.70600
C  -0.94400 41.97100 25.50200
C  -2.05300 41.80500 24.63600
C  -1.65000 42.18800 23.33000
C  -0.24100 42.41400 23.33300
C  -3.39800 41.24700 25.18200
C  -2.49100 42.30000 22.00800
O  -1.97500 42.68300 20.92100
C  -4.00300 42.10800 22.14500
N  2.81600 42.97300 23.38100
C  1.98900 42.99000 22.25500
C  2.80600 43.23900 21.00300
C  4.14300 43.74900 21.55100
C  4.06300 43.43600 23.03200
C  3.03200 41.96800 20.11700
C  4.40200 45.23100 21.30000
C  4.70900 45.65200 19.87600
N  3.83700 43.37300 25.99200
C  5.01600 43.60800 25.32800
C  6.04200 43.82800 26.31900
C  5.50200 43.44900 27.59300
C  4.16200 43.18300 27.32700
C  7.35500 44.32200 26.12800
C  5.84900 43.20500 28.98300
O  6.87300 43.28600 29.54600
C  4.47000 43.02800 29.70100
C  4.52100 41.77300 30.52200
O  4.87300 40.66800 30.19900
O  4.21400 42.10200 31.83100
C  4.51100 41.22800 32.91100
H  -1.88300 41.56600 27.36900
H  0.23000 42.65100 21.22100
H  6.15500 43.86800 23.57800
H  1.59000 41.62100 30.58600
H  -1.01300 42.49800 29.52400
H  -1.67300 40.28900 29.67000
H  -0.25400 40.07700 30.58600
H  -0.29500 39.73100 28.79500
H  0.00400 44.10800 30.51400
H  1.72400 44.41200 29.91900
H  1.26500 45.03000 32.23500
H  2.56900 43.88800 32.14500
H  -4.26000 41.89800 25.04100
H  -3.36400 41.04200 26.25200
H  -3.69400 40.36500 24.61500
H  -4.50800 42.04700 21.18100
H  -4.36200 42.86900 22.83700
H  -4.15200 41.14400 22.63100
H  2.34600 44.06300 20.45800
H  5.08700 43.29100 21.25500
H  4.07000 41.64900 20.02300
H  2.81000 42.18400 19.07200
H  2.59900 41.07200 20.56200
H  5.23400 45.49800 21.95200
H  3.53500 45.86100 21.49900
H  4.97900 44.85700 19.18000
H  5.56600 46.32600 19.89300
H  3.79500 46.14400 19.54300
H  7.82200 44.48600 27.09900
H  7.40200 45.15200 25.42400
H  7.97200 43.48900 25.79100
H  4.29500 43.85800 30.38500
H  5.59700 41.13100 32.90800
H  3.99500 40.27400 32.79700
H  4.11700 41.56100 33.87100

