158

Mg 36.09100 2.10700 31.05000
C  33.58800 3.32400 33.22800
C  38.39500 2.38900 33.48600
C  38.53100 1.55600 28.79600
C  33.82900 2.76100 28.41600
N  35.98100 2.91000 33.04700
C  34.84900 3.11800 33.84800
C  35.19900 3.14700 35.38600
C  36.83600 3.13800 35.39300
C  37.12100 2.80900 33.88300
C  37.51500 4.47000 35.93500
C  34.44400 1.90600 36.06300
C  33.99700 2.20500 37.53500
H  34.78700 3.29100 38.39800
N  38.16900 1.72800 31.22200
C  38.87800 1.85200 32.33400
C  40.24700 1.41800 32.03100
C  40.24200 1.09700 30.64900
C  38.97000 1.43900 30.14300
C  41.34300 1.33700 33.09300
C  41.34600 0.68200 29.74300
O  41.24600 0.58600 28.53600
C  42.80800 0.47700 30.32600
N  36.17200 2.19900 28.94200
C  37.24400 1.75300 28.24900
C  36.97100 1.71900 26.75000
C  35.48600 1.93300 26.60900
C  35.11500 2.34800 28.03800
C  37.94200 2.72200 25.96500
C  34.69900 0.63000 26.28100
C  33.48100 0.91300 25.41900
N  34.08700 2.78900 30.77100
C  33.30100 2.99100 29.67400
C  31.99800 3.34800 30.12500
C  32.05800 3.45900 31.50400
C  33.34700 3.20000 31.84500
C  30.82800 3.57700 29.25200
C  31.30900 3.79100 32.68200
O  30.16700 4.18800 32.76700
C  32.27400 3.79400 33.85300
C  32.37400 5.20800 34.36600
O  32.71300 6.19000 33.79000
O  32.04300 5.20000 35.70000
C  31.86400 6.53500 36.30700
H  39.02500 2.45100 34.37500
H  39.27900 1.39600 28.01600
H  33.10400 2.90600 27.61300
H  34.80800 4.08100 35.79000
H  37.21200 2.25900 35.91700
H  36.76200 5.25000 36.04300
H  38.21500 4.83900 35.18600
H  38.14300 4.28800 36.80700
H  35.14100 1.07200 35.97500
H  33.54100 1.66700 35.50200
H  34.11500 1.22500 37.99800
H  32.94200 2.43600 37.39000
H  42.15000 0.63000 32.89700
H  40.85000 1.06400 34.02600
H  41.84500 2.29400 33.23500
H  43.55600 0.36800 29.54100
H  42.72100 -0.26100 31.12300
H  42.98600 1.38500 30.90200
H  37.18900 0.71400 26.38700
H  35.32200 2.79300 25.95900
H  38.59500 3.28200 26.63500
H  37.27400 3.40600 25.44200
H  38.50500 2.14500 25.23200
H  34.28900 0.11600 27.15000
H  35.37400 -0.12900 25.88500
H  33.52800 1.88600 24.93000
H  32.56900 0.69800 25.97700
H  33.60700 0.25000 24.56300
H  29.99500 2.94000 29.55100
H  31.04800 3.31500 28.21700
H  30.66000 4.65400 29.25300
H  32.05900 3.05100 34.62100
H  31.69800 6.44700 37.38000
H  30.99800 6.90500 35.75700
H  32.74200 7.13700 36.07100
Mg 7.21200 55.59300 40.57100
C  6.05600 52.25500 40.27400
C  10.39000 54.46800 39.78000
C  8.28600 58.86400 40.25100
C  3.95300 56.59600 40.96200
N  8.01700 53.58800 39.83200
C  7.38000 52.34800 39.96300
C  8.43100 51.27700 39.67900
C  9.80000 52.03100 39.81600
C  9.40500 53.47400 39.77200
C  10.66100 51.64000 41.02400
C  8.32200 50.62500 38.26500
C  7.89500 51.55900 37.07200
H  6.43400 51.44000 36.52100
N  9.05500 56.53400 40.07500
C  10.25000 55.89300 39.80100
C  11.27200 56.87600 39.50600
C  10.72000 58.12900 39.69400
C  9.32800 57.87000 40.13200
C  12.70500 56.54800 39.19200
C  11.46100 59.43500 39.50000
O  12.65700 59.49800 39.36000
C  10.76800 60.72500 39.64700
N  6.17600 57.43900 40.46700
C  6.88400 58.61700 40.48100
C  5.83000 59.76800 40.53600
C  4.44700 59.06500 40.94900
C  4.87200 57.59400 40.84300
C  6.17300 60.93200 41.52000
C  3.29200 59.54600 40.03900
C  2.08300 60.15700 40.80000
N  5.41600 54.63000 40.62300
C  4.19900 55.22500 40.90700
C  3.19200 54.20800 41.12400
C  3.91400 52.99300 40.92200
C  5.22800 53.33700 40.63600
C  1.67200 54.33700 41.35200
C  3.91200 51.54000 40.92100
O  2.96000 50.86100 41.18200
C  5.30000 51.00400 40.45300
C  5.11300 50.09100 39.33000
O  4.41900 50.42400 38.38500
O  5.59500 48.79400 39.54500
C  5.33000 47.81500 38.53700
H  11.40300 54.06000 39.75400
H  8.53000 59.91800 40.10300
H  2.90400 56.82300 41.16100
H  8.40900 50.48800 40.43100
H  10.46300 51.69600 39.01800
H  11.55300 51.12000 40.67500
H  10.11500 51.02100 41.73600
H  11.03900 52.49900 41.57800
H  7.64100 49.77500 38.31500
H  9.30900 50.27200 37.96600
H  8.49900 51.29600 36.20300
H  8.05700 52.62400 37.24200
H  12.83100 55.48800 38.97000
H  13.33900 56.91900 39.99800
H  12.94600 57.08200 38.27300
H  11.50000 61.51200 39.46400
H  10.34700 60.74100 40.65200
H  10.02500 60.61700 38.85700
H  5.82100 60.01800 39.47500
H  4.27000 59.19500 42.01700
H  6.44600 61.87000 41.03500
H  7.05500 60.61200 42.07400
H  5.32300 61.13800 42.17000
H  3.10600 58.71700 39.35600
H  3.60300 60.36300 39.38700
H  1.38900 59.32300 40.69800
H  1.73500 61.08700 40.35000
H  2.18500 60.23200 41.88200
H  1.15100 53.49700 41.81100
H  1.10400 54.44200 40.42800
H  1.40000 55.22600 41.92100
H  5.60300 50.45200 41.34200
H  6.05100 46.99800 38.49900
H  5.12600 48.16000 37.52300
H  4.37400 47.41500 38.87600

