158

Mg 2.46600 -1.59100 44.05400
C  5.73000 -0.26100 43.27600
C  1.24700 1.24700 42.49600
C  -0.48300 -2.87600 44.35900
C  4.05100 -4.54900 45.09100
N  3.42800 0.22100 42.85500
C  4.77500 0.59900 42.75100
C  4.92600 1.95700 42.11800
C  3.48300 2.47700 42.03000
C  2.64400 1.29500 42.47400
C  3.30900 3.68500 42.95500
C  5.70400 1.68100 40.75600
C  6.83600 2.63400 40.17300
H  6.53300 2.93600 38.73600
N  0.60900 -0.96100 43.47700
C  0.32900 0.24900 42.90700
C  -1.10700 0.37400 42.85600
C  -1.69800 -0.85600 43.46000
C  -0.50400 -1.60600 43.81100
C  -1.79200 1.74500 42.44300
C  -3.18100 -1.10200 43.74100
O  -3.96500 -0.33700 43.22500
C  -3.68800 -2.34700 44.48700
N  1.95500 -3.46200 44.56400
C  0.61600 -3.77600 44.64200
C  0.42500 -5.28900 44.96300
C  1.79200 -5.73900 45.37700
C  2.67000 -4.51800 44.93900
C  -0.79100 -5.56900 45.92100
C  2.27200 -7.09100 44.69500
C  2.93500 -8.14200 45.53300
N  4.45400 -2.19600 44.33000
C  4.95800 -3.41600 44.81100
C  6.38000 -3.37800 44.98700
C  6.70800 -2.07600 44.40000
C  5.51000 -1.46900 43.98800
C  7.27400 -4.37400 45.62500
C  7.79500 -1.20900 44.05300
O  8.99200 -1.35700 44.18700
C  7.20700 -0.01100 43.31500
C  7.44800 1.14700 44.14100
O  6.81400 1.38500 45.17500
O  8.48500 1.89300 43.64000
C  9.10600 2.84400 44.58400
H  0.80900 2.16700 42.10300
H  -1.50600 -3.25000 44.44500
H  4.59400 -5.37500 45.55400
H  5.52500 2.65200 42.70700
H  3.13700 2.65800 41.01200
H  2.33200 3.63400 43.43600
H  3.30100 4.53100 42.26800
H  4.14900 3.88100 43.62000
H  4.87500 1.63600 40.04900
H  6.08600 0.66100 40.71400
H  7.80300 2.15200 40.31900
H  6.95900 3.59700 40.66700
H  -2.86800 1.81600 42.59900
H  -1.61100 1.87800 41.37600
H  -1.27700 2.54500 42.97600
H  -3.11700 -2.37700 45.41600
H  -3.53100 -3.22700 43.86400
H  -4.71500 -2.01000 44.62800
H  0.14100 -5.70200 43.99500
H  1.77600 -5.83800 46.46200
H  -1.24700 -4.65200 46.29400
H  -0.42900 -6.11700 46.79100
H  -1.57100 -6.09300 45.36800
H  2.99400 -6.83700 43.91900
H  1.41600 -7.63600 44.29600
H  3.51700 -7.72000 46.35300
H  3.70000 -8.60100 44.90700
H  2.26500 -8.89400 45.94700
H  8.27500 -4.06900 45.32100
H  7.05200 -5.36100 45.21700
H  7.14700 -4.30600 46.70500
H  7.66700 0.02200 42.32800
H  8.87400 2.77100 45.64600
H  9.13800 3.89200 44.28600
H  10.08900 2.37400 44.60000
Mg 36.33200 49.75200 24.50600
C  36.49600 48.31000 27.69100
C  35.06500 52.64100 25.94800
C  35.47300 50.93400 21.37000
C  37.07900 46.61000 23.04100
N  35.69700 50.30100 26.65600
C  36.05000 49.66400 27.81600
C  35.96300 50.55500 29.04300
C  35.41600 51.86800 28.40800
C  35.34700 51.58800 26.91000
C  34.11900 52.54700 29.02300
C  37.33300 50.59100 29.91900
C  37.29400 50.61000 31.43100
H  35.89600 50.67600 32.17900
N  35.43600 51.58600 23.71900
C  35.04200 52.58100 24.53700
C  34.60200 53.69100 23.71400
C  34.56100 53.20600 22.34600
C  35.20400 51.84500 22.47200
C  34.19800 55.00000 24.23100
C  34.04200 53.83300 21.09200
O  34.10700 53.20400 20.05300
C  33.47300 55.24500 21.06400
N  36.24100 48.88800 22.50900
C  36.06500 49.64700 21.38700
C  36.29500 48.79900 20.15000
C  36.97500 47.47400 20.70700
C  36.71100 47.61600 22.13900
C  35.06400 48.50700 19.25500
C  38.46100 47.44900 20.23800
C  38.60300 46.40400 19.10800
N  36.80700 47.85500 25.14300
C  37.13700 46.68700 24.44300
C  37.40300 45.63700 25.42900
C  37.18400 46.21800 26.64000
C  36.81700 47.56100 26.50000
C  37.80700 44.11000 25.16200
C  37.13900 45.85600 28.05600
O  37.44200 44.80900 28.59100
C  36.75800 47.22400 28.77200
C  35.45700 46.95400 29.43700
O  34.39300 46.63000 28.90200
O  35.58500 47.24900 30.72600
C  34.42100 46.97700 31.46700
H  34.88700 53.56600 26.50100
H  35.36500 51.20500 20.31800
H  37.18600 45.65700 22.51800
H  35.11400 50.14600 29.59100
H  36.24800 52.56500 28.50900
H  33.78800 52.01000 29.91200
H  33.32700 52.54200 28.27500
H  34.09200 53.61700 29.22900
H  37.91500 51.47100 29.64700
H  37.85100 49.66700 29.66300
H  37.79500 51.49200 31.83100
H  37.90400 49.80500 31.84200
H  33.11500 54.97600 24.11000
H  34.57100 55.82900 23.63000
H  34.51500 55.19200 25.25600
H  32.88300 55.35500 20.15400
H  34.02000 56.18800 21.05600
H  32.67700 55.23800 21.81000
H  36.90100 49.35400 19.43400
H  36.43600 46.56800 20.43000
H  34.15100 48.49500 19.85100
H  35.29500 47.56100 18.76500
H  34.92400 49.31400 18.53600
H  39.04200 47.14300 21.10800
H  38.72900 48.47600 19.98800
H  38.68500 46.94800 18.16700
H  37.77500 45.69800 19.05400
H  39.51500 45.81600 19.21600
H  37.34500 43.32500 25.76100
H  38.89100 44.05700 25.05700
H  37.57000 43.91200 24.11700
H  37.57800 47.54700 29.41300
H  33.85100 46.11800 31.11300
H  33.69700 47.78500 31.56900
H  34.71600 46.71400 32.48300

