158

Mg -2.03200 16.98700 26.40100
C  -2.46200 14.91800 29.36700
C  -2.40300 19.74500 28.46400
C  -2.23300 18.81300 23.72300
C  -2.14400 14.13200 24.51800
N  -2.38500 17.24800 28.65400
C  -2.46700 16.25700 29.66100
C  -2.57000 16.91400 31.06500
C  -2.59600 18.47800 30.69600
C  -2.50600 18.50800 29.17500
C  -3.88400 19.20500 31.22400
C  -1.39000 16.59800 32.11700
C  -0.90200 17.55100 33.16900
H  -0.29200 17.08700 34.50500
N  -2.17800 19.02000 26.16400
C  -2.28900 19.98400 27.09200
C  -2.36100 21.20900 26.44600
C  -2.18800 21.03400 25.03400
C  -2.23100 19.53500 24.90600
C  -2.40200 22.47400 27.19300
C  -1.98000 22.05100 23.91300
O  -1.87200 21.75400 22.72600
C  -1.87600 23.47900 24.34100
N  -2.41600 16.49900 24.39300
C  -2.21500 17.41300 23.39600
C  -2.22200 16.83100 22.01100
C  -1.79000 15.34300 22.40300
C  -2.11700 15.29200 23.85400
C  -3.59600 16.99700 21.26600
C  -0.39200 14.76200 21.97200
C  -0.32200 13.61800 20.94000
N  -2.22900 14.96700 26.81300
C  -2.21300 13.93000 25.90100
C  -2.32400 12.66300 26.57600
C  -2.31300 13.05000 27.94700
C  -2.33500 14.43600 28.03600
C  -2.25200 11.35800 25.99400
C  -2.33500 12.60200 29.32300
O  -2.43400 11.45100 29.75200
C  -2.43400 13.77700 30.27500
C  -1.36300 13.70500 31.26100
O  -0.19100 14.01200 31.04500
O  -1.86100 13.39300 32.51500
C  -0.96700 13.40200 33.70400
H  -2.43500 20.59500 29.14800
H  -2.04300 19.46700 22.86900
H  -2.06700 13.25400 23.87300
H  -3.49600 16.57500 31.52900
H  -1.70300 19.00300 31.03600
H  -4.03400 18.73200 32.19500
H  -4.69400 19.05100 30.51000
H  -3.74400 20.28000 31.32800
H  -0.47500 16.25300 31.63600
H  -1.84400 15.83600 32.75000
H  -1.57300 18.38500 33.37600
H  -0.12500 18.10900 32.64700
H  -1.44600 22.97400 27.34600
H  -2.98100 22.49800 28.11700
H  -3.08700 23.12000 26.64300
H  -2.80400 24.01000 24.55200
H  -1.34100 24.08000 23.60600
H  -1.20100 23.48000 25.19800
H  -1.43600 17.22000 21.36400
H  -2.48400 14.66900 21.90100
H  -4.20800 17.74300 21.77200
H  -4.20100 16.09000 21.29400
H  -3.46700 17.14100 20.19300
H  0.11400 14.51400 22.90500
H  0.03200 15.63400 21.47400
H  0.15500 12.75300 21.40100
H  0.41000 13.90100 20.18400
H  -1.29200 13.35600 20.51700
H  -1.50500 11.28600 25.20300
H  -3.16300 11.10300 25.45100
H  -2.06300 10.52900 26.67600
H  -3.35400 13.67800 30.85100
H  -1.03800 12.39000 34.10300
H  -1.44700 14.11100 34.37900
H  0.09000 13.63100 33.57000
Mg 25.30900 1.06900 30.40300
C  27.23500 1.06700 33.25800
C  22.46000 1.49500 32.34000
C  23.36000 1.10600 27.59300
C  28.00200 0.56800 28.47600
N  24.86600 1.27500 32.57200
C  25.88500 1.38800 33.48200
C  25.27600 1.77800 34.90700
C  23.73400 1.78800 34.59800
C  23.65400 1.48200 33.14400
C  22.83200 0.99500 35.62000
C  25.93000 3.08800 35.57600
C  26.56600 2.90000 36.94400
H  26.35900 4.00800 37.98500
N  23.25400 1.18300 30.08700
C  22.27000 1.38300 30.99600
C  21.02000 1.49500 30.32000
C  21.26100 1.47100 28.99000
C  22.68900 1.32100 28.83500
C  19.70800 1.62500 31.07700
C  20.26100 1.50400 27.83800
O  20.52500 1.34200 26.65100
C  18.81800 2.00700 28.12200
N  25.61500 0.90600 28.32600
C  24.71000 0.89800 27.35700
C  25.34200 0.77300 25.95700
C  26.86500 0.84400 26.30000
C  26.85400 0.73600 27.79000
C  24.86900 -0.59800 25.25500
C  27.63700 2.08400 25.72700
C  26.99600 3.40100 26.05300
N  27.26500 0.87300 30.72500
C  28.27600 0.59200 29.85200
C  29.53700 0.47400 30.60800
C  29.13700 0.68000 31.94000
C  27.75500 0.91300 31.96000
C  30.87000 0.19300 30.11200
C  29.68700 0.79500 33.27800
O  30.84300 0.72900 33.70700
C  28.45100 1.03600 34.23400
C  28.42400 -0.10700 35.17200
O  27.91300 -1.19000 34.93100
O  28.95000 0.25900 36.42500
C  28.77400 -0.65700 37.50000
H  21.55100 1.73500 32.89500
H  22.83200 1.22700 26.64500
H  28.87800 0.46000 27.83400
H  25.40400 1.06900 35.72400
H  23.43500 2.83400 34.53300
H  21.82000 1.38800 35.72400
H  23.32600 0.95400 36.59100
H  22.57600 0.00600 35.24000
H  25.10400 3.79700 35.50700
H  26.70200 3.37600 34.86200
H  27.63400 2.97000 36.73900
H  26.34700 1.91300 37.35100
H  19.02600 0.81700 30.81000
H  19.38700 2.64000 30.84500
H  19.82900 1.48800 32.15200
H  18.36400 1.91300 27.13500
H  18.80700 2.99400 28.58300
H  18.22100 1.32000 28.72100
H  25.09300 1.66400 25.38100
H  27.35700 -0.00800 25.83100
H  23.96100 -1.00900 25.69700
H  25.62900 -1.37900 25.28100
H  24.68400 -0.52200 24.18400
H  27.76100 2.02800 24.64500
H  28.58400 2.16500 26.26000
H  26.79500 3.91500 25.11300
H  27.63500 4.09700 26.59600
H  26.05600 3.42300 26.60600
H  30.86200 -0.88200 29.93200
H  31.55700 0.66800 30.81300
H  31.04300 0.70600 29.16700
H  28.61300 1.96200 34.78700
H  27.95700 -0.38000 38.16500
H  29.66200 -0.67600 38.13200
H  28.61400 -1.67600 37.14600

