158

Mg 7.89200 3.22100 27.83200
C  9.73400 1.76000 30.54400
C  6.01500 4.64600 30.18000
C  6.22900 4.37900 25.33500
C  9.51000 0.97100 25.71200
N  7.87500 3.20000 30.11700
C  8.86000 2.71600 30.93600
C  8.64700 3.09500 32.44100
C  7.25600 3.87900 32.25900
C  6.98000 3.92200 30.74500
C  6.08600 3.12900 32.98900
C  9.79700 3.95100 33.09300
C  9.47200 4.79400 34.33800
H  10.43900 4.58300 35.47400
N  6.27100 4.30200 27.79100
C  5.62200 4.83100 28.86700
C  4.61300 5.68600 28.35300
C  4.75600 5.74700 26.92800
C  5.82100 4.79200 26.60100
C  3.48600 6.32200 29.27000
C  3.98400 6.56100 25.90300
O  3.97200 6.36500 24.67000
C  3.07200 7.64200 26.33700
N  7.64900 2.50000 25.76800
C  7.00800 3.30200 24.94200
C  7.19300 2.88300 23.48200
C  8.32500 1.80500 23.60000
C  8.48900 1.68200 25.13700
C  5.91700 2.44800 22.70800
C  9.69000 2.26400 23.06800
C  10.39600 1.09900 22.41300
N  9.37900 1.70700 27.99900
C  9.98100 0.97800 27.01500
C  10.97700 0.12300 27.65900
C  10.93900 0.43700 28.99700
C  9.97300 1.44700 29.15400
C  11.75800 -0.92100 26.90200
C  11.64800 0.17500 30.22200
O  12.66700 -0.41700 30.41200
C  10.91700 1.05700 31.31700
C  10.44000 0.17800 32.38900
O  9.64200 -0.70200 32.32000
O  11.13100 0.48300 33.59600
C  10.80400 -0.30600 34.77500
H  5.49100 5.28600 30.89400
H  5.68200 4.88700 24.53800
H  10.03700 0.44300 24.91400
H  8.57900 2.10500 32.89100
H  7.29900 4.90700 32.62000
H  6.59400 2.42600 33.64900
H  5.49300 2.58500 32.25300
H  5.51000 3.82900 33.59400
H  10.11900 4.62300 32.29700
H  10.60400 3.26000 33.33700
H  8.50100 4.46700 34.71100
H  9.27500 5.80900 33.99300
H  3.62900 5.93700 30.28000
H  2.49000 6.07900 28.89900
H  3.64100 7.39600 29.17000
H  2.91600 8.31800 25.49600
H  3.54600 8.25000 27.10700
H  2.13200 7.24200 26.71800
H  7.60100 3.80500 23.06600
H  7.99200 0.87000 23.15100
H  4.98000 2.49200 23.26400
H  5.85100 1.38900 22.46100
H  5.87800 2.89700 21.71500
H  10.24600 2.67100 23.91400
H  9.50300 3.09700 22.39100
H  10.69900 1.47000 21.43400
H  9.75000 0.23300 22.27000
H  11.25800 0.80800 23.01300
H  12.62500 -1.20300 27.49800
H  12.23300 -0.48400 26.02400
H  11.12800 -1.79800 26.75200
H  11.59700 1.82600 31.68300
H  10.39200 0.39300 35.50200
H  11.70500 -0.70100 35.24600
H  10.10900 -1.12000 34.57200
Mg -11.97400 16.21700 42.20900
C  -8.97300 14.66700 41.65600
C  -10.75200 19.08400 40.72500
C  -15.18600 17.36700 41.76000
C  -13.32500 13.19300 43.20500
N  -10.12800 16.77500 41.17300
C  -9.00400 15.98400 41.10500
C  -7.82700 16.67100 40.32500
C  -8.36800 18.13000 40.25900
C  -9.83600 17.99000 40.74700
C  -7.63100 19.22900 41.15200
C  -7.60900 15.92300 38.97200
C  -6.15400 15.73800 38.66800
H  -5.60300 16.36600 37.35200
N  -12.79900 18.03100 41.56900
C  -12.04200 19.08500 41.11100
C  -12.87100 20.22400 40.98800
C  -14.26500 19.83700 41.19400
C  -14.16700 18.35300 41.54000
C  -12.34200 21.61600 40.76000
C  -15.50400 20.68300 41.12400
O  -15.42400 21.86300 40.91100
C  -16.86200 20.08700 41.28400
N  -13.92500 15.33300 42.19900
C  -15.08300 16.00700 42.07000
C  -16.35000 15.19400 42.44200
C  -15.78600 13.96100 43.12100
C  -14.25000 14.14900 42.85400
C  -17.44900 15.92600 43.28900
C  -16.50900 12.64700 42.69200
C  -17.29500 11.79700 43.73200
N  -11.27800 14.26300 42.49000
C  -11.92500 13.12700 42.88100
C  -10.92700 12.11700 43.10400
C  -9.76400 12.65600 42.61400
C  -10.01100 13.97300 42.23400
C  -11.05600 10.75200 43.76200
C  -8.41600 12.34800 42.30400
O  -7.82800 11.28200 42.34900
C  -7.84900 13.61500 41.66600
C  -6.77800 14.15400 42.44200
O  -6.85600 14.45500 43.62700
O  -5.65100 14.33300 41.73500
C  -4.53700 14.98900 42.48600
H  -10.25900 19.96500 40.30900
H  -16.19200 17.75000 41.94400
H  -13.76900 12.37500 43.77800
H  -7.01500 16.71500 41.05100
H  -8.37900 18.36000 39.19300
H  -8.37300 19.66500 41.82100
H  -7.10700 19.89200 40.46300
H  -6.91200 18.83400 41.87000
H  -8.07000 16.44300 38.13200
H  -8.09500 14.95200 39.07500
H  -5.85800 14.68900 38.66900
H  -5.48900 16.06200 39.47000
H  -13.18000 22.27800 40.54000
H  -11.62400 21.61500 39.94000
H  -11.94900 22.11700 41.64500
H  -17.63800 20.71000 40.84000
H  -16.92200 19.93500 42.36200
H  -16.98300 19.18800 40.68000
H  -16.79400 15.00300 41.46500
H  -15.86600 14.11300 44.19700
H  -18.15800 16.36300 42.58700
H  -16.96400 16.63900 43.95700
H  -17.96700 15.20700 43.92400
H  -15.86100 11.94100 42.17400
H  -17.23400 12.91400 41.92400
H  -17.56300 12.36900 44.62100
H  -16.70600 10.97700 44.14300
H  -18.25900 11.40000 43.41400
H  -11.39100 10.00800 43.04000
H  -11.86800 10.73500 44.48900
H  -10.12800 10.41700 44.22500
H  -7.48500 13.27900 40.69500
H  -4.49300 14.68700 43.53300
H  -4.80100 16.04600 42.46500
H  -3.61700 14.68400 41.98600

