158

Mg 53.40300 24.77700 44.97400
C  50.66200 26.75000 44.13800
C  51.71800 22.14800 43.49300
C  56.31400 22.96400 44.72600
C  55.21500 27.48500 45.88400
N  51.43500 24.49100 43.76600
C  50.43100 25.41600 43.59200
C  49.30300 24.83200 42.64300
C  49.48600 23.35500 43.03400
C  50.99200 23.27400 43.46200
C  48.51100 22.92700 44.16700
C  49.69600 25.10500 41.14400
C  48.56500 25.23600 40.07900
H  47.95600 23.94800 39.54400
N  53.90400 22.75500 44.36700
C  53.03900 21.92600 43.73000
C  53.74600 20.65800 43.51700
C  55.10000 20.85400 43.94000
C  55.17000 22.22400 44.33100
C  53.21600 19.41300 42.85600
C  56.18800 19.74500 43.90100
O  55.94400 18.68400 43.39200
C  57.47800 19.89500 44.45100
N  55.45800 25.20400 45.19400
C  56.42800 24.29500 45.20800
C  57.79200 24.80300 45.69900
C  57.43000 26.29400 45.93800
C  55.93800 26.38600 45.61600
C  58.24700 23.95000 46.95500
C  58.14900 27.33900 45.09600
C  58.40700 28.70400 45.72300
N  52.99100 26.75100 45.14600
C  53.86700 27.78400 45.50200
C  53.10200 28.98800 45.58700
C  51.83700 28.61100 45.01600
C  51.84200 27.23600 44.81100
C  53.51700 30.35100 46.00700
C  50.59600 29.10700 44.59800
O  50.09700 30.24600 44.61900
C  49.75200 27.95000 44.10200
C  48.97100 28.23900 42.80800
O  49.40400 28.41200 41.69900
O  47.63600 28.30700 43.02200
C  46.77000 28.38600 41.81500
H  51.13100 21.31100 43.10700
H  57.28200 22.46900 44.62500
H  55.63800 28.43600 46.21600
H  48.27200 25.13800 42.82100
H  49.23200 22.68700 42.21000
H  48.91800 22.47700 45.07200
H  47.91500 22.11100 43.75700
H  47.70400 23.62700 44.38300
H  50.22300 24.25200 40.71600
H  50.26400 26.03500 41.13200
H  48.96900 25.92800 39.34000
H  47.67500 25.70300 40.50100
H  53.81800 19.17900 41.97900
H  52.21000 19.55600 42.46100
H  53.23900 18.62800 43.61200
H  58.04700 18.97200 44.55900
H  57.39300 20.40800 45.40900
H  58.04500 20.48100 43.72700
H  58.51300 24.61100 44.90400
H  57.43500 26.45900 47.01500
H  59.25700 23.63700 46.68600
H  57.73300 22.99900 47.09400
H  58.34400 24.63700 47.79500
H  57.61300 27.59200 44.18100
H  59.13300 26.93300 44.86200
H  59.45400 28.99300 45.81000
H  57.88500 28.74000 46.67900
H  57.91800 29.47400 45.12700
H  53.03900 31.11300 45.39100
H  54.59900 30.42300 45.89400
H  53.19900 30.52700 47.03500
H  49.04200 27.77700 44.91000
H  46.87000 27.42200 41.31600
H  47.01000 29.12600 41.05200
H  45.75900 28.45400 42.21700
Mg -9.91000 17.43800 41.65000
C  -6.52800 16.35800 41.20200
C  -8.89200 20.61900 40.64300
C  -13.11600 18.27800 41.28100
C  -10.80200 14.10800 41.94300
N  -7.83500 18.37100 40.86100
C  -6.65300 17.74000 40.91400
C  -5.51000 18.76400 40.75800
C  -6.31400 20.22300 40.65300
C  -7.80100 19.68600 40.73600
C  -5.96700 21.12600 41.85700
C  -4.70700 18.42400 39.38900
C  -5.53000 17.97900 38.12700
H  -5.10700 18.57900 36.78000
N  -10.87900 19.24000 41.05600
C  -10.25900 20.39300 40.69700
C  -11.32800 21.41100 40.51200
C  -12.58400 20.79400 40.67100
C  -12.25700 19.36500 41.02600
C  -11.10500 22.92800 40.15200
C  -14.02700 21.43600 40.51800
O  -14.15700 22.61900 40.16100
C  -15.18300 20.68200 40.91100
N  -11.74800 16.27900 41.51900
C  -12.97500 16.87500 41.48400
C  -14.17600 15.77700 41.49300
C  -13.35900 14.51400 41.70600
C  -11.88500 14.95800 41.64800
C  -15.23200 16.04700 42.58900
C  -13.58900 13.38100 40.68400
C  -13.30700 11.93100 41.11900
N  -8.94600 15.59700 41.65000
C  -9.43700 14.34700 41.80700
C  -8.37600 13.35600 41.98500
C  -7.26400 14.14100 41.72400
C  -7.58300 15.48000 41.50800
C  -8.44500 11.84900 42.29700
C  -5.75700 14.08600 41.66600
O  -5.00500 13.13700 41.85000
C  -5.24700 15.53400 41.30700
C  -4.34500 15.91800 42.40900
O  -3.11200 16.05800 42.29700
O  -5.06100 16.18200 43.60100
C  -4.24500 16.69200 44.76400
H  -8.62800 21.66000 40.44700
H  -14.19400 18.43800 41.21600
H  -10.96100 13.02700 41.94300
H  -4.89400 18.65100 41.65000
H  -6.01200 20.67800 39.70900
H  -6.84900 21.28100 42.47800
H  -5.64500 22.08600 41.45300
H  -5.20000 20.69400 42.50000
H  -4.19600 17.50400 39.67200
H  -3.90000 19.11500 39.14400
H  -6.56100 18.31600 38.23300
H  -5.54400 16.89000 38.06600
H  -11.33000 23.00000 39.08800
H  -10.02500 23.06300 40.19600
H  -11.66000 23.71200 40.66700
H  -15.05000 20.36000 41.94400
H  -15.27200 19.91500 40.14200
H  -16.09100 21.28600 40.90900
H  -14.58400 15.98500 40.50300
H  -13.47200 14.21500 42.74800
H  -15.90400 16.84100 42.26200
H  -14.82300 16.22000 43.58500
H  -15.97300 15.26900 42.76900
H  -12.96500 13.57300 39.81100
H  -14.56600 13.54900 40.23200
H  -12.73800 11.41600 40.34600
H  -14.24900 11.41900 41.31700
H  -12.85800 11.96600 42.11200
H  -8.50900 11.37200 41.31900
H  -9.28400 11.55500 42.92700
H  -7.66500 11.50400 42.97600
H  -4.74400 15.39100 40.35100
H  -3.60300 15.84300 45.00200
H  -4.77100 16.88100 45.70000
H  -3.76700 17.63200 44.48700

