158

Mg 36.92600 49.29400 25.44200
C  37.01200 47.10500 28.25700
C  34.87100 51.32000 27.40100
C  36.06900 50.91000 22.67100
C  38.15000 46.61100 23.48100
N  36.13700 49.18400 27.60400
C  36.43200 48.33000 28.62400
C  36.03300 48.74800 30.02100
C  35.07300 49.91100 29.61700
C  35.37100 50.20400 28.15200
C  33.54300 49.76400 30.04000
C  37.35300 49.16200 30.63500
C  37.63200 48.63000 32.01900
H  36.38600 48.51200 32.93200
N  35.83200 50.96100 25.14400
C  35.16600 51.67600 26.06500
C  34.77600 53.02100 25.49300
C  35.05400 52.92500 24.07100
C  35.67800 51.55000 23.90800
C  34.42400 54.23200 26.38300
C  34.84100 53.88900 23.00300
O  35.04500 53.54600 21.84700
C  34.45900 55.31600 23.27000
N  37.17100 48.80500 23.44700
C  36.68200 49.67000 22.45900
C  36.96800 49.17700 21.04600
C  37.83700 47.88600 21.36600
C  37.69100 47.71800 22.80900
C  35.75400 48.99800 20.13700
C  39.34200 48.06100 20.89900
C  40.44700 48.60600 21.84500
N  37.52300 47.30800 25.74800
C  38.09400 46.41500 24.87700
C  38.35900 45.18700 25.60000
C  38.04000 45.48800 26.96700
C  37.47200 46.67500 26.98300
C  38.68500 43.86200 25.03300
C  37.94700 44.87400 28.25500
O  38.16300 43.73200 28.55900
C  37.51700 45.99800 29.20300
C  36.41300 45.39400 30.04300
O  35.26200 45.28800 29.67800
O  36.89400 45.08100 31.30200
C  35.89100 44.78400 32.32000
H  34.24600 51.96400 28.02300
H  35.88500 51.42100 21.72300
H  38.73500 45.87000 22.93200
H  35.45600 47.99400 30.55600
H  35.39200 50.80600 30.15200
H  32.87400 49.78000 29.17900
H  33.39900 50.72200 30.54000
H  33.29200 48.94600 30.71400
H  37.49000 50.23900 30.73400
H  38.17700 48.81000 30.01400
H  38.19000 49.38200 32.57700
H  38.31000 47.77900 32.07900
H  33.82300 54.97300 25.85500
H  35.27900 54.72900 26.84100
H  33.79700 53.93000 27.22200
H  35.18300 55.74700 23.96200
H  33.44400 55.32800 23.66800
H  34.47600 55.81500 22.30100
H  37.57000 49.96200 20.58900
H  37.56100 47.00500 20.78800
H  35.83400 48.19400 19.40600
H  35.51600 49.90500 19.58100
H  34.86600 48.80100 20.73800
H  39.38100 48.61400 19.96100
H  39.70800 47.06900 20.63600
H  39.96300 48.96800 22.75200
H  41.08000 49.33900 21.34400
H  40.96600 47.66400 22.02200
H  39.07300 43.22900 25.83100
H  39.50600 43.92400 24.31900
H  37.85800 43.41200 24.48300
H  38.38900 46.38400 29.73200
H  35.54500 43.75400 32.24500
H  34.97800 45.37400 32.24300
H  36.36100 45.12500 33.24300
Mg -5.25800 25.06500 26.14100
C  -4.03300 26.54500 28.98300
C  -7.27700 23.08900 28.11600
C  -6.20700 23.61100 23.38900
C  -2.88000 27.13900 24.27400
N  -5.64600 24.85000 28.40500
C  -4.98700 25.53200 29.34100
C  -5.57100 25.19300 30.78700
C  -6.47300 23.90600 30.46500
C  -6.51000 23.99100 28.90800
C  -5.98300 22.53700 30.87200
C  -6.37400 26.41700 31.30300
C  -6.00200 26.90700 32.75500
H  -5.69400 25.94100 33.82800
N  -6.54100 23.53800 25.78200
C  -7.34200 22.91800 26.71500
C  -8.27200 22.00600 26.02700
C  -7.98000 22.10300 24.61700
C  -6.82100 23.11500 24.55200
C  -9.35600 21.19100 26.77100
C  -8.57300 21.39200 23.47700
O  -8.11200 21.50300 22.37700
C  -9.71100 20.34800 23.67000
N  -4.56500 25.29300 24.10500
C  -5.18000 24.55300 23.16700
C  -4.71400 24.95200 21.76400
C  -3.60400 26.10500 22.02100
C  -3.63100 26.20900 23.59200
C  -4.13700 23.73000 20.99400
C  -3.91700 27.41900 21.31900
C  -3.09800 27.89900 20.09500
N  -3.71700 26.54900 26.46700
C  -2.89900 27.28600 25.65700
C  -2.10600 28.26500 26.48000
C  -2.58100 27.98000 27.73400
C  -3.57300 27.00200 27.70900
C  -1.08600 29.24400 25.95300
C  -2.25700 28.23100 29.04500
O  -1.29700 28.97400 29.45000
C  -3.25900 27.40200 29.97800
C  -2.49200 26.57200 30.89500
O  -2.26100 25.39900 30.67900
O  -2.18600 27.32400 32.00300
C  -1.10900 26.71500 32.78000
H  -7.97400 22.53500 28.74800
H  -6.56000 23.28000 22.41100
H  -2.23700 27.88700 23.80500
H  -4.83000 24.98300 31.55900
H  -7.49300 24.06400 30.81700
H  -6.71500 22.13900 31.57400
H  -5.01300 22.60000 31.36400
H  -5.93200 21.92300 29.97300
H  -7.40500 26.06100 31.28600
H  -6.36000 27.30700 30.67500
H  -6.91900 27.40300 33.07400
H  -5.30800 27.73600 32.61500
H  -10.14500 21.89300 27.04000
H  -8.89600 20.80900 27.68300
H  -9.82400 20.32100 26.31100
H  -10.68900 20.71800 23.98000
H  -9.19600 19.57600 24.24100
H  -9.90500 20.11200 22.62400
H  -5.53200 25.42100 21.21700
H  -2.62800 25.73000 21.71300
H  -4.30100 23.64300 19.92000
H  -4.48900 22.81500 21.46900
H  -3.08900 23.70300 21.29400
H  -3.77600 28.22300 22.04200
H  -4.98300 27.40800 21.09100
H  -2.90600 28.97100 20.13400
H  -3.69400 27.69700 19.20500
H  -2.18800 27.31900 19.93800
H  -1.26500 30.24200 26.35400
H  -1.07200 29.32500 24.86600
H  -0.09700 28.86400 26.20900
H  -3.92800 28.15700 30.39100
H  -0.25300 26.74600 32.10500
H  -1.28500 25.64300 32.86600
H  -0.81400 27.16800 33.72600

