158

Mg 47.72700 44.89000 43.02400
C  44.37000 44.75500 42.24000
C  48.08700 41.61000 42.16800
C  51.16100 45.32500 42.92000
C  47.52000 48.41500 43.29400
N  46.43700 43.38500 42.07900
C  45.01500 43.53900 42.12400
C  44.32600 42.18200 42.16500
C  45.50100 41.14600 42.11900
C  46.76600 42.06800 42.16300
C  45.53600 40.09600 43.31400
C  43.26000 42.02700 41.01000
C  43.44100 42.76300 39.60200
H  43.39700 41.97300 38.29300
N  49.31500 43.62700 42.82900
C  49.27500 42.30600 42.39800
C  50.60300 41.76100 42.29000
C  51.48600 42.85800 42.49600
C  50.67500 44.04700 42.68900
C  50.87500 40.33800 41.79400
C  53.05600 42.80100 42.57700
O  53.58600 41.65500 42.59400
C  53.97500 43.93200 42.75800
N  49.16400 46.64600 43.12000
C  50.47800 46.53200 43.15300
C  51.22000 47.86900 43.51800
C  49.96400 48.84900 43.42300
C  48.83300 47.92500 43.26100
C  51.89900 47.81400 44.97200
C  49.99200 50.08600 42.51100
C  49.41200 51.41500 43.08700
N  46.30800 46.36300 42.76800
C  46.33200 47.72800 43.00600
C  44.98700 48.26200 42.91300
C  44.18200 47.15200 42.62400
C  44.98800 45.96200 42.56500
C  44.55900 49.71900 43.12600
C  42.82600 46.71900 42.39400
O  41.80700 47.41500 42.35900
C  42.90200 45.21800 42.22200
C  42.15600 44.46200 43.37800
O  41.31200 43.58300 43.16300
O  42.37800 45.04400 44.59700
C  41.51200 44.53400 45.73800
H  48.32200 40.54400 42.16400
H  52.22900 45.54900 42.92700
H  47.41700 49.46600 43.57300
H  43.81200 42.21700 43.12600
H  45.45700 40.51600 41.23000
H  45.65300 39.07200 42.95900
H  44.64700 40.23800 43.92800
H  46.34600 40.35400 43.99700
H  42.33300 42.36000 41.47600
H  43.13100 40.94800 40.93200
H  44.37600 43.31500 39.69400
H  42.48700 43.29100 39.61600
H  50.51900 39.79300 40.91900
H  50.53600 39.82900 42.69600
H  51.95600 40.20500 41.75300
H  53.93700 44.62200 41.91400
H  55.00300 43.59300 42.89100
H  53.79500 44.36000 43.74400
H  51.92700 47.98800 42.69700
H  49.78500 49.07400 44.47500
H  51.69800 46.86900 45.47800
H  51.53900 48.61000 45.62500
H  52.95600 48.00100 44.78400
H  49.71700 49.87500 41.47800
H  51.05200 50.27900 42.34800
H  48.60100 51.74800 42.43900
H  50.23500 52.12800 43.09200
H  49.03300 51.12900 44.06800
H  43.51700 49.80700 42.81900
H  45.21000 50.31900 42.49000
H  44.49400 50.01000 44.17400
H  42.39500 44.87400 41.32100
H  41.33900 43.46100 45.81800
H  40.54300 45.02600 45.66400
H  41.95400 44.79000 46.70100
Mg 6.26500 54.24000 41.04400
C  5.84300 50.83600 41.18300
C  9.65800 53.71100 40.07800
C  6.61900 57.50800 40.59200
C  2.78600 54.66600 41.43100
N  7.54800 52.42700 40.68600
C  7.16500 51.13900 40.80400
C  8.28000 50.14400 40.31500
C  9.46000 51.16200 40.54800
C  8.85500 52.53900 40.33800
C  10.03100 51.00600 41.93100
C  8.22600 49.65600 38.85400
C  7.36700 50.47100 37.88600
H  6.60000 49.63400 36.82200
N  7.85400 55.43400 40.53600
C  9.12800 55.08600 40.09200
C  9.90100 56.21000 39.87200
C  9.06900 57.33200 40.04800
C  7.72600 56.75900 40.34000
C  11.43500 56.09500 39.68900
C  9.56500 58.77400 39.91400
O  10.69800 59.03900 39.63000
C  8.67600 59.86200 40.16400
N  4.88400 55.85900 41.09200
C  5.29000 57.13100 40.87000
C  4.14400 58.12900 41.05300
C  2.97200 57.17900 41.43500
C  3.55300 55.81700 41.33700
C  4.40900 59.36500 41.96300
C  1.64900 57.46000 40.73300
C  0.45900 57.82200 41.62300
N  4.55900 53.04600 41.38600
C  3.23700 53.30200 41.59200
C  2.49900 52.07200 41.82300
C  3.48100 51.06000 41.79500
C  4.70400 51.71000 41.45700
C  1.09300 51.98600 41.98900
C  3.77100 49.67100 41.80200
O  2.97900 48.73100 41.98800
C  5.28000 49.47000 41.50000
C  5.19300 48.57000 40.30700
O  4.82200 48.99200 39.22300
O  5.51000 47.27000 40.54300
C  5.23800 46.34400 39.42300
H  10.73000 53.50900 40.03000
H  6.71400 58.58900 40.47200
H  1.70600 54.80200 41.51900
H  8.20400 49.24200 40.92100
H  10.21400 51.06900 39.76700
H  9.83300 50.02700 42.36700
H  9.72100 51.76500 42.64900
H  11.09000 50.99000 41.67200
H  7.64400 48.74700 39.00800
H  9.24000 49.56100 38.46700
H  8.14400 51.08500 37.43200
H  6.65800 51.17000 38.32900
H  11.93400 55.47700 40.43600
H  11.96600 57.04600 39.73900
H  11.64900 55.66000 38.71200
H  8.22200 59.69100 41.14100
H  8.05000 59.78500 39.27600
H  9.28100 60.76400 40.07500
H  3.92600 58.43900 40.03100
H  2.78900 57.27800 42.50500
H  5.41500 59.60300 42.30800
H  3.72800 59.19900 42.79800
H  3.98900 60.17800 41.37100
H  1.36800 56.54800 40.20600
H  1.66700 58.31300 40.05600
H  -0.54200 57.69800 41.20900
H  0.64500 58.77900 42.11000
H  0.46200 57.05500 42.39700
H  1.03200 51.30800 42.84000
H  0.59400 51.56300 41.11700
H  0.80900 52.99300 42.29600
H  5.80300 48.96100 42.31000
H  4.24600 45.89300 39.41400
H  5.98000 45.56100 39.58100
H  5.32600 46.82300 38.44800

