158

Mg -2.29200 17.03700 27.33700
C  -2.79900 15.21400 30.32200
C  -2.71100 20.03000 29.22800
C  -2.32700 18.99700 24.54600
C  -2.28800 14.18800 25.51200
N  -2.87900 17.53500 29.49300
C  -2.88300 16.63000 30.55700
C  -2.97900 17.41900 31.98600
C  -2.91900 18.94700 31.54000
C  -2.92400 18.85600 29.99500
C  -4.07700 19.85000 32.15500
C  -1.91300 17.02500 32.93400
C  -1.50100 18.02300 33.99500
H  -1.00000 17.44800 35.28800
N  -2.36600 19.29600 26.90100
C  -2.53700 20.25800 27.85600
C  -2.41900 21.57900 27.26200
C  -2.30400 21.33100 25.85400
C  -2.38100 19.81200 25.67800
C  -2.51100 22.88700 28.06200
C  -2.09300 22.23400 24.70300
O  -2.09700 21.85200 23.50000
C  -1.93100 23.68000 24.97500
N  -2.65600 16.72000 25.26600
C  -2.40400 17.60800 24.30600
C  -2.37200 16.92700 22.93100
C  -2.12800 15.46800 23.32100
C  -2.32800 15.45500 24.81400
C  -3.59800 17.22800 22.09000
C  -0.78700 14.82100 22.85100
C  0.45900 15.59700 23.29500
N  -2.44600 15.05400 27.77800
C  -2.42100 13.96800 26.94300
C  -2.64000 12.72200 27.63700
C  -2.75400 13.14200 28.97600
C  -2.67800 14.54400 29.02300
C  -2.83700 11.30300 27.11500
C  -2.95200 12.71900 30.33400
O  -3.08900 11.60100 30.80700
C  -2.81300 14.04400 31.31900
C  -1.69500 13.95600 32.21600
O  -0.59600 14.23100 31.83000
O  -1.90700 13.48900 33.47400
C  -0.68900 13.29800 34.28800
H  -2.80100 20.92200 29.85100
H  -2.07500 19.44600 23.58300
H  -2.18100 13.24800 24.96700
H  -3.97300 17.21200 32.38500
H  -1.95500 19.41300 31.74400
H  -3.56900 20.76600 32.45600
H  -4.66300 19.50300 33.00600
H  -4.74000 20.00900 31.30500
H  -0.98600 16.91200 32.37200
H  -2.17800 16.06200 33.36900
H  -2.27100 18.77800 34.15900
H  -0.67100 18.61900 33.61500
H  -3.18500 23.61400 27.60700
H  -1.50400 23.30300 28.03300
H  -2.75400 22.70600 29.10900
H  -1.03600 23.88600 25.56300
H  -2.80900 23.94300 25.56500
H  -1.99300 24.25100 24.04900
H  -1.53100 17.30700 22.35100
H  -2.87200 14.81800 22.86000
H  -4.40200 16.64000 22.53200
H  -3.38100 17.22700 21.02200
H  -4.06100 18.18800 22.31700
H  -0.75800 14.82100 21.76200
H  -0.72000 13.79500 23.21300
H  0.37500 16.48700 23.91900
H  1.05100 15.92000 22.43900
H  1.13900 14.93900 23.83600
H  -2.01400 10.67400 27.45400
H  -2.77900 11.35000 26.02700
H  -3.78800 10.86300 27.41300
H  -3.68600 14.13100 31.96600
H  -0.36500 12.30700 33.97100
H  -1.06000 13.38400 35.30900
H  0.16100 13.95900 34.11800
Mg 16.83700 51.45200 26.50300
C  19.14100 49.97600 28.74300
C  14.79700 52.19800 29.13500
C  14.88700 52.96300 24.34100
C  19.16600 50.91300 23.94200
N  16.99300 51.08500 28.59300
C  18.06200 50.63000 29.33000
C  17.78100 50.73000 30.82800
C  16.21200 51.00500 30.84600
C  15.94700 51.47800 29.44800
C  15.23700 49.75600 31.20700
C  18.67800 51.74400 31.56300
C  18.72300 51.64300 33.10100
H  17.60600 50.88100 33.80400
N  15.04000 52.41500 26.68100
C  14.27100 52.52200 27.82800
C  13.06600 53.15800 27.47000
C  13.07800 53.47800 26.04700
C  14.37300 52.91700 25.63300
C  12.00500 53.49700 28.46000
C  12.08300 54.20000 25.18100
O  12.20200 54.46200 24.04200
C  10.70300 54.43700 25.73100
N  16.86800 51.62300 24.36700
C  16.03500 52.49500 23.74800
C  16.25400 52.60000 22.30900
C  17.76000 52.19100 22.17300
C  17.96800 51.51200 23.54800
C  15.29900 51.70400 21.39800
C  18.68200 53.40700 21.92900
C  19.12200 53.72900 20.56400
N  18.67300 50.42100 26.26000
C  19.51000 50.34500 25.15300
C  20.72600 49.67700 25.54600
C  20.55700 49.47100 26.95000
C  19.37000 50.03100 27.33900
C  21.89500 49.44200 24.63700
C  21.30200 48.96300 28.10800
O  22.37600 48.39600 28.15600
C  20.34200 49.29000 29.35800
C  20.05700 48.10200 30.16100
O  19.49800 47.13400 29.66900
O  20.39100 48.21800 31.44400
C  20.12800 47.15000 32.39400
H  14.11500 52.46000 29.94600
H  14.18400 53.55100 23.74700
H  19.89300 50.78100 23.13800
H  18.06800 49.78500 31.28900
H  16.03200 51.80600 31.56400
H  14.56100 49.67800 30.35600
H  14.59000 49.83600 32.08000
H  15.74800 48.79800 31.30600
H  18.19400 52.71200 31.43100
H  19.65800 51.66700 31.09100
H  18.79100 52.64600 33.52400
H  19.64900 51.10200 33.29400
H  11.13000 52.85400 28.36200
H  11.65400 54.51000 28.26100
H  12.29500 53.43100 29.50900
H  10.33000 53.53700 26.22000
H  9.89500 54.60400 25.01900
H  10.62300 55.23800 26.46600
H  16.12000 53.65600 22.07500
H  17.95400 51.46400 21.38500
H  14.48700 51.25800 21.97200
H  15.92700 51.03800 20.80500
H  14.86100 52.42200 20.70500
H  19.63700 53.33600 22.44800
H  18.26800 54.30500 22.38800
H  19.15500 54.81700 20.49800
H  18.40000 53.33100 19.85100
H  20.10800 53.28300 20.44000
H  22.03000 50.31500 23.99900
H  21.78700 48.52900 24.05100
H  22.79400 49.28400 25.23100
H  20.86600 50.02800 29.96600
H  21.06200 46.82700 32.85400
H  19.47800 46.41200 31.92400
H  19.55400 47.49000 33.25600

