158

Mg 45.71300 4.96800 47.11500
C  43.64100 7.72300 46.66300
C  43.07800 2.90100 46.35200
C  47.98600 2.35000 46.95500
C  48.45800 7.16800 47.34000
N  43.75600 5.30600 46.33700
C  43.09100 6.51800 46.29900
C  41.58800 6.28600 45.80900
C  41.32900 4.79300 46.06600
C  42.81700 4.25400 46.34000
C  40.34400 4.55500 47.20300
C  41.33400 6.74900 44.34200
C  39.84200 7.21200 43.96900
H  39.53800 7.72900 42.57100
N  45.48200 2.90000 46.77500
C  44.31800 2.19700 46.59100
C  44.55500 0.78300 46.38700
C  45.98700 0.59000 46.48200
C  46.62500 1.97000 46.72100
C  43.53400 -0.27000 45.98600
C  46.70800 -0.66700 46.17900
O  46.20700 -1.75100 46.21700
C  48.15200 -0.69300 45.73300
N  47.94000 4.76400 47.24100
C  48.55900 3.56500 47.24200
C  50.07000 3.70100 47.32600
C  50.17600 5.32000 47.33400
C  48.77600 5.79600 47.35400
C  50.65000 2.94800 48.51600
C  50.87500 5.94300 46.10800
C  52.18900 6.73200 46.35200
N  46.01400 7.00700 47.11200
C  47.13200 7.74600 47.31100
C  46.84400 9.15000 47.29100
C  45.40800 9.18800 47.11600
C  45.02600 7.85900 46.97100
C  47.78200 10.32900 47.42000
C  44.24200 10.04900 46.93600
O  44.16100 11.23300 47.10100
C  43.08600 9.19300 46.55000
C  41.99600 9.29800 47.59800
O  41.94400 8.66200 48.66400
O  41.01200 10.18700 47.13700
C  39.90500 10.59900 48.04700
H  42.14400 2.37500 46.14600
H  48.66300 1.50200 46.83700
H  49.20900 7.95100 47.21400
H  41.06200 6.94800 46.49600
H  40.82000 4.25400 45.26800
H  39.62600 5.37600 47.20900
H  40.75500 4.44600 48.20600
H  39.75100 3.69500 46.89100
H  41.63500 5.90700 43.71800
H  41.95900 7.63300 44.21700
H  39.68500 8.10200 44.57800
H  39.10200 6.46100 44.24500
H  43.58600 -1.22500 46.50900
H  43.53300 -0.38400 44.90200
H  42.55500 0.17000 46.17700
H  48.34800 -1.61300 45.18200
H  48.60500 -0.59600 46.72000
H  48.50100 0.17300 45.17100
H  50.62300 3.27700 46.48700
H  50.62700 5.53700 48.30300
H  49.88800 2.51200 49.16100
H  51.41600 3.45000 49.10600
H  51.21100 2.10100 48.12000
H  50.22000 6.70500 45.68500
H  50.99600 5.20700 45.31400
H  52.31700 6.62000 47.42900
H  52.05200 7.80300 46.20200
H  53.02900 6.37700 45.75400
H  47.34100 11.26900 47.08700
H  48.66100 10.24800 46.78100
H  48.16500 10.25700 48.43800
H  42.60800 9.26000 45.57300
H  38.98000 10.11100 47.74100
H  39.72300 11.65900 47.87300
H  40.14300 10.38700 49.08900
Mg 47.85000 16.31800 29.23600
C  45.63000 15.88400 32.09900
C  49.68000 18.33900 31.12500
C  49.37100 17.17300 26.41600
C  45.56600 14.39900 27.41700
N  47.67100 16.85400 31.41700
C  46.76900 16.69700 32.37500
C  47.12800 17.29200 33.77000
C  48.22800 18.29800 33.33200
C  48.50600 17.83100 31.83800
C  47.81600 19.83100 33.39900
C  47.61200 16.29900 34.85600
C  47.69400 16.67500 36.34600
H  47.24400 18.10500 36.72200
N  49.39200 17.48100 28.88400
C  50.04400 18.19800 29.79800
C  51.23900 18.74800 29.23200
C  51.14700 18.50500 27.82000
C  49.95000 17.62300 27.64400
C  52.11100 19.69700 30.05900
C  51.99500 18.85300 26.61000
O  51.67500 18.81100 25.41800
C  53.41500 19.48400 26.88100
N  47.37300 15.93900 27.10200
C  48.27200 16.29900 26.18900
C  47.86600 15.81800 24.84100
C  46.74600 14.74800 25.16800
C  46.52800 14.98400 26.64800
C  47.32300 17.06600 24.02700
C  47.18800 13.31600 24.97600
C  46.06900 12.24900 24.90100
N  46.07800 15.31700 29.56900
C  45.34700 14.49200 28.79700
C  44.21400 13.95800 29.54800
C  44.32800 14.49800 30.80700
C  45.44600 15.32100 30.82100
C  43.16300 13.08900 28.95200
C  43.64800 14.51100 32.11900
O  42.77400 13.80700 32.59500
C  44.53900 15.45400 33.02200
C  43.77500 16.59500 33.47200
O  43.05800 17.32800 32.81500
O  43.77200 16.51000 34.86000
C  42.92000 17.47700 35.58700
H  50.26800 18.96700 31.79800
H  49.90800 17.35600 25.48200
H  44.90000 13.76100 26.83300
H  46.26100 17.82400 34.16200
H  49.15300 18.15200 33.89000
H  46.86000 19.92300 33.91500
H  47.73000 20.32600 32.43100
H  48.58400 20.33700 33.98400
H  48.60800 15.95100 34.58100
H  46.93200 15.45200 34.77800
H  48.72800 16.53000 36.65700
H  47.21100 15.83700 36.84900
H  52.53300 19.12200 30.88300
H  51.35000 20.35700 30.47600
H  52.84800 20.21700 29.44700
H  53.29200 20.50800 27.23400
H  53.83100 19.56900 25.87700
H  54.02900 18.80300 27.46900
H  48.67700 15.30700 24.32300
H  45.82900 14.87100 24.59200
H  47.38700 18.03600 24.51900
H  46.27500 16.95000 23.75300
H  47.82900 17.20000 23.07100
H  47.77400 13.06500 25.86000
H  47.88800 13.15000 24.15700
H  46.21200 11.68000 23.98200
H  45.09100 12.73100 24.90500
H  46.11800 11.50200 25.69300
H  42.81500 12.44100 29.75700
H  43.58100 12.50100 28.13400
H  42.30900 13.70700 28.67600
H  44.92300 14.81900 33.82000
H  42.13000 17.01100 36.17600
H  42.67100 18.36500 35.00500
H  43.61900 17.83700 36.34200

