158

Mg 41.46100 40.61700 26.68900
C  41.02700 43.02300 29.07100
C  42.47100 38.45400 29.08700
C  42.32100 38.48700 24.28400
C  40.63700 43.00400 24.25700
N  41.79000 40.81000 28.91000
C  41.44500 41.80200 29.68300
C  41.52000 41.39100 31.11500
C  42.02900 39.91500 31.02500
C  42.08100 39.65900 29.58500
C  43.42100 39.56800 31.71600
C  40.07600 41.46100 31.79100
C  39.86500 40.84000 33.15800
H  39.34300 41.84600 34.15400
N  42.25600 38.67300 26.71100
C  42.61500 37.95900 27.79700
C  43.07200 36.67500 27.33800
C  43.09400 36.64100 25.93400
C  42.54300 37.99400 25.60900
C  43.60200 35.72200 28.31600
C  43.49200 35.53400 24.96200
O  43.26200 35.56200 23.72600
C  44.06000 34.21800 25.45700
N  41.56300 40.78200 24.63400
C  41.91000 39.74300 23.80700
C  41.89100 40.12200 22.28500
C  41.00500 41.34300 22.33000
C  40.98200 41.76700 23.82700
C  43.25200 40.46300 21.68400
C  39.63300 41.18400 21.82300
C  38.51700 40.70200 22.84100
N  40.89400 42.67900 26.61300
C  40.58400 43.48100 25.54900
C  40.32200 44.81000 26.02500
C  40.40500 44.65400 27.46700
C  40.76800 43.34100 27.74600
C  40.16000 46.06000 25.29600
C  40.33800 45.34000 28.76000
O  40.23000 46.54500 29.05200
C  40.58700 44.27700 29.81000
C  41.72900 44.81000 30.59200
O  42.78400 45.24000 30.21100
O  41.43800 44.69000 31.98200
C  42.49200 45.03300 32.94400
H  42.50600 37.73500 29.90800
H  42.44800 37.74600 23.49100
H  40.32500 43.60800 23.40300
H  42.19700 41.99600 31.71800
H  41.25500 39.27000 31.44200
H  44.22300 39.34900 31.01100
H  43.32900 38.68400 32.34800
H  43.83100 40.39700 32.29400
H  39.36400 41.00900 31.09900
H  39.72300 42.48700 31.89800
H  40.87900 40.48400 33.33900
H  39.26800 39.93000 33.11200
H  43.16400 35.79200 29.31200
H  44.68700 35.73400 28.41200
H  43.30300 34.71600 28.02100
H  43.17300 33.69900 25.81900
H  44.59200 34.43600 26.38300
H  44.62200 33.62200 24.73700
H  41.43500 39.24600 21.82500
H  41.53300 42.18100 21.87500
H  43.83400 39.54300 21.73300
H  43.75400 41.25600 22.23900
H  43.20900 40.64000 20.61000
H  39.68100 40.45700 21.01200
H  39.33600 42.16000 21.44200
H  38.73500 40.94000 23.88200
H  38.35600 39.63800 22.66500
H  37.60400 41.28000 22.69700
H  39.42800 46.12900 24.49100
H  41.08300 46.39000 24.81900
H  39.98900 46.79200 26.08400
H  39.77200 44.14600 30.52100
H  43.47600 45.20200 32.50700
H  42.56300 44.19800 33.64100
H  42.33300 45.93700 33.53200
Mg 6.84700 55.10300 42.08700
C  6.08400 51.64600 41.49200
C  10.07900 54.33800 41.01200
C  7.45200 58.43200 41.97900
C  3.62200 55.57800 42.72300
N  7.96800 53.23300 41.34400
C  7.51900 51.92100 41.29600
C  8.60600 50.94300 40.97700
C  9.90300 51.73800 41.21500
C  9.31200 53.19600 41.20300
C  10.61900 51.40700 42.59200
C  8.56000 50.29200 39.50500
C  8.71100 51.29900 38.29100
H  8.00100 51.14700 36.96700
N  8.57100 56.26700 41.57700
C  9.73800 55.73900 41.08100
C  10.64500 56.89900 40.68700
C  9.91800 58.14200 41.08500
C  8.56900 57.64400 41.61900
C  11.93300 56.68800 39.92500
C  10.39600 59.58300 40.85800
O  11.52100 59.73100 40.42400
C  9.60100 60.77600 41.08000
N  5.79200 56.67800 42.42900
C  6.14000 58.02100 42.40500
C  5.03700 59.02700 42.74700
C  3.85400 58.02100 43.00200
C  4.45200 56.66000 42.62600
C  5.52500 59.95800 43.91700
C  2.53000 58.52200 42.26200
C  1.41400 59.04400 43.12300
N  5.13200 53.88800 42.17200
C  3.89600 54.25000 42.53300
C  3.08500 53.00700 42.68300
C  3.96900 51.94600 42.37500
C  5.14600 52.54600 42.00100
C  1.57700 52.94900 43.05800
C  4.04200 50.50200 42.28100
O  3.26800 49.58300 42.60500
C  5.43200 50.29000 41.62000
C  5.26100 49.60300 40.34100
O  4.60100 49.94900 39.34700
O  6.10800 48.54000 40.28200
C  5.97000 47.65800 39.09900
H  11.04000 54.07200 40.56500
H  7.55900 59.51700 41.90300
H  2.55800 55.75400 42.89200
H  8.41800 50.17400 41.72600
H  10.56000 51.53200 40.37000
H  10.16700 50.55300 43.09700
H  10.44000 52.23300 43.28000
H  11.68700 51.29400 42.40100
H  7.62900 49.75500 39.32200
H  9.35000 49.55000 39.39400
H  9.74500 51.15400 37.97900
H  8.74100 52.36500 38.51900
H  11.88300 55.90600 39.16800
H  12.70400 56.45100 40.65800
H  12.11100 57.62000 39.38800
H  8.81200 60.85600 40.33200
H  10.10400 61.72500 40.89500
H  9.21500 60.85200 42.09600
H  4.84100 59.62800 41.86000
H  3.82300 58.07200 44.09000
H  6.43600 59.81900 44.49900
H  4.58800 60.04300 44.46600
H  5.54800 60.97100 43.51300
H  2.21700 57.66300 41.66800
H  2.80900 59.35300 41.61500
H  1.47500 60.13200 43.11300
H  1.51200 58.66400 44.14000
H  0.38600 58.80000 42.85800
H  1.15700 53.85700 43.48900
H  1.34900 52.11900 43.72700
H  1.08300 52.66100 42.13000
H  6.01500 49.66200 42.29400
H  5.99500 48.19500 38.15100
H  5.08200 47.08100 39.35400
H  6.77100 46.91800 39.12100

