158

Mg 17.22000 -0.58600 27.72400
C  15.89800 1.39500 30.39900
C  19.31100 -2.10900 29.90500
C  18.64700 -1.94000 24.98100
C  15.17600 1.55600 25.51100
N  17.67300 -0.25600 29.80500
C  16.88300 0.44000 30.76500
C  17.33500 0.07500 32.15600
C  18.60700 -0.85400 32.04200
C  18.54800 -1.12500 30.48000
C  19.96900 -0.20400 32.37500
C  16.15200 -0.54900 33.04200
C  16.09200 -0.21200 34.58000
H  17.30200 0.58400 35.10200
N  18.74800 -1.76700 27.49600
C  19.43100 -2.38500 28.54400
C  20.33900 -3.31300 28.01900
C  20.21300 -3.28000 26.60700
C  19.15100 -2.26900 26.27200
C  21.22500 -4.07500 28.90000
C  20.96100 -4.04800 25.58000
O  20.80800 -3.93400 24.41900
C  21.91300 -5.07400 26.00300
N  16.91500 -0.19200 25.48300
C  17.62900 -1.02000 24.66800
C  17.11500 -0.75000 23.26800
C  15.95200 0.25200 23.41500
C  15.94600 0.50600 24.88000
C  18.29500 -0.27200 22.29400
C  14.56800 -0.22300 22.89100
C  14.58900 -0.41900 21.35800
N  15.86600 1.18800 27.84900
C  15.11000 1.87000 26.85700
C  14.12900 2.74900 27.54900
C  14.46700 2.62700 28.89500
C  15.54800 1.77300 29.00800
C  13.23100 3.81000 26.75700
C  14.14000 3.07800 30.24200
O  13.32200 3.94600 30.63800
C  15.01600 2.24200 31.25200
C  15.71400 3.22100 32.13000
O  16.82300 3.73900 31.89700
O  14.94500 3.46900 33.20500
C  15.50200 4.39200 34.19500
H  19.82700 -2.64100 30.70700
H  19.07100 -2.42400 24.09800
H  14.38000 1.97600 24.89300
H  17.65300 1.03300 32.56700
H  18.53300 -1.83200 32.51700
H  19.87700 0.81700 32.74700
H  20.62200 -0.18900 31.50200
H  20.37000 -0.78900 33.20300
H  16.21900 -1.63700 33.07700
H  15.20500 -0.36400 32.53600
H  16.10900 -1.16100 35.11600
H  15.21600 0.37400 34.85900
H  22.20800 -4.21700 28.45000
H  20.64500 -4.95700 29.16900
H  21.45000 -3.59300 29.85200
H  21.36100 -5.64300 26.75100
H  22.82100 -4.56700 26.33000
H  22.07400 -5.76800 25.17800
H  16.85700 -1.78500 23.04000
H  16.26600 1.09900 22.80400
H  19.20400 -0.02200 22.84100
H  17.90400 0.56300 21.71400
H  18.54200 -1.06100 21.58400
H  13.80200 0.45800 23.26500
H  14.24000 -1.11600 23.42300
H  13.98000 0.35700 20.89500
H  14.12600 -1.40200 21.27200
H  15.62300 -0.52200 21.02700
H  13.06600 3.52500 25.71800
H  13.57200 4.84300 26.82800
H  12.24200 3.83600 27.21400
H  14.28300 1.69000 31.84000
H  15.75300 5.39600 33.85500
H  16.35100 4.03000 34.77500
H  14.68900 4.59100 34.89300
Mg 35.67900 48.44200 24.75600
C  36.00800 46.76500 27.91400
C  34.40500 51.13400 26.47100
C  35.14300 49.87900 21.78100
C  36.67500 45.45400 23.14600
N  35.14100 48.81000 27.01700
C  35.38600 48.04400 28.05200
C  34.99600 48.76200 29.38700
C  34.24200 50.06400 28.85600
C  34.53400 50.00200 27.30900
C  32.64500 50.08300 29.06300
C  36.16500 49.06200 30.44300
C  35.90100 48.74200 31.87000
H  34.55500 49.04000 32.48200
N  35.07200 50.37000 24.16400
C  34.62900 51.34700 25.06000
C  34.55800 52.56800 24.25400
C  34.78600 52.20900 22.88600
C  34.89000 50.75600 22.89600
C  34.37600 53.85600 24.91600
C  34.84300 52.99800 21.68100
O  35.15900 52.56300 20.58500
C  34.33900 54.37200 21.67500
N  35.99900 47.76200 22.77700
C  35.65800 48.55900 21.70900
C  35.98200 47.81400 20.40300
C  36.59500 46.44100 20.86300
C  36.34400 46.53300 22.36800
C  34.84700 47.67800 19.47000
C  38.11800 46.30700 20.59700
C  39.01900 47.38200 21.23500
N  36.24400 46.49300 25.31000
C  36.64900 45.38500 24.57900
C  37.06800 44.30500 25.42300
C  36.81900 44.84100 26.74800
C  36.32800 46.16300 26.65500
C  37.60800 43.08300 24.89700
C  37.00100 44.51300 28.19500
O  37.40500 43.50800 28.79100
C  36.53500 45.86600 29.00400
C  35.43200 45.37200 29.89200
O  34.20700 45.43500 29.58900
O  35.88300 45.06000 31.12700
C  34.84600 44.58300 32.02200
H  34.05000 52.04500 26.95700
H  35.03700 50.35500 20.80400
H  36.98900 44.53700 22.64400
H  34.32800 48.07000 29.90000
H  34.66200 50.94800 29.33600
H  32.08500 50.12400 28.12800
H  32.58200 50.90800 29.77300
H  32.34400 49.17400 29.58300
H  36.32000 50.14000 30.48600
H  37.07200 48.69400 29.96400
H  36.60600 49.36800 32.41700
H  36.11900 47.67900 31.97200
H  35.02300 54.52900 24.35300
H  34.75900 53.73300 25.92900
H  33.36500 54.24500 24.79500
H  34.08500 54.67600 20.65900
H  35.17200 55.00100 21.99000
H  33.35300 54.55300 22.10200
H  36.72100 48.52400 20.03100
H  35.99800 45.64700 20.41400
H  33.85900 47.80000 19.91400
H  34.76700 46.69300 19.01100
H  34.90000 48.42600 18.67800
H  38.17900 46.51200 19.52800
H  38.41100 45.28800 20.85100
H  39.88900 46.88100 21.66000
H  38.67600 48.06000 22.01600
H  39.21600 48.09000 20.43000
H  36.87400 42.75000 24.16300
H  37.69700 42.38300 25.72800
H  38.60200 43.22600 24.47100
H  37.37100 46.29000 29.56100
H  35.14100 44.20800 33.00200
H  34.27200 43.76600 31.58500
H  34.15000 45.38100 32.28000

