158

Mg -1.67300 17.83700 26.21800
C  -1.89100 15.32000 28.57300
C  -2.12900 20.19200 28.70900
C  -1.83000 20.16700 23.95000
C  -2.28600 15.37300 23.73400
N  -1.77400 17.71200 28.41600
C  -1.79500 16.58400 29.19900
C  -1.95900 16.90000 30.72400
C  -2.00700 18.48700 30.69700
C  -2.00900 18.83500 29.16700
C  -2.91800 19.31500 31.60800
C  -0.75100 16.36200 31.65900
C  -0.32000 17.13900 32.91500
H  -0.13900 16.37200 34.21200
N  -1.71400 19.95900 26.35500
C  -1.93800 20.69100 27.40000
C  -2.02400 22.08200 27.01800
C  -1.87700 22.13300 25.64200
C  -1.74300 20.75700 25.20500
C  -2.28800 23.29200 27.98000
C  -1.97800 23.32300 24.77600
O  -1.87600 23.22600 23.55600
C  -2.38000 24.66200 25.36200
N  -2.09300 17.75400 24.07900
C  -2.00500 18.89400 23.35300
C  -2.22600 18.66300 21.86900
C  -2.69300 17.11300 21.83800
C  -2.24800 16.70200 23.27100
C  -3.26800 19.55700 21.25700
C  -2.01600 16.27000 20.73000
C  -3.06400 15.70500 19.69000
N  -1.75000 15.75200 26.10500
C  -2.05700 14.88000 25.05400
C  -2.11100 13.54200 25.46800
C  -2.07600 13.66300 26.84200
C  -1.90400 15.00800 27.20100
C  -2.25100 12.28900 24.65200
C  -2.13700 12.88700 28.05800
O  -2.30600 11.70000 28.25000
C  -2.02400 13.95800 29.22800
C  -0.75200 13.69100 29.95300
O  0.32700 14.01800 29.56800
O  -1.00800 12.99500 31.11200
C  0.17700 12.78500 31.97600
H  -2.12900 21.02800 29.41100
H  -1.93300 20.91100 23.15800
H  -2.59500 14.74700 22.89400
H  -2.89600 16.55600 31.16000
H  -1.03900 18.87700 31.00900
H  -3.79800 19.55900 31.01100
H  -2.43900 20.19400 32.03900
H  -3.34300 18.69900 32.40000
H  0.08400 16.16900 30.98500
H  -1.13400 15.41900 32.04900
H  -1.00500 17.96300 33.11900
H  0.67100 17.53300 32.68900
H  -3.21000 23.76400 27.64000
H  -1.53400 24.07700 27.93600
H  -2.45400 22.92800 28.99400
H  -2.42200 25.36900 24.53400
H  -1.66200 25.03300 26.09300
H  -3.36500 24.43800 25.77200
H  -1.21200 18.78100 21.48800
H  -3.78100 17.17500 21.81900
H  -3.68600 19.03100 20.39900
H  -2.71800 20.44900 20.95600
H  -4.09000 19.90600 21.88200
H  -1.44200 15.47700 21.21000
H  -1.28700 16.85600 20.16900
H  -3.98900 16.23400 19.91800
H  -3.09800 14.63200 19.50100
H  -2.87900 16.09600 18.68900
H  -1.76100 12.45900 23.69400
H  -3.27900 11.92600 24.64200
H  -1.75200 11.53700 25.26400
H  -2.86000 13.76100 29.89900
H  0.63400 11.81600 31.77600
H  -0.18300 12.67700 32.99900
H  0.86000 13.63400 31.98000
Mg 25.73300 0.61800 29.05600
C  27.73000 0.29300 31.80200
C  23.07900 1.56300 31.03500
C  23.80500 0.92600 26.26900
C  28.38100 -0.73700 27.11600
N  25.48900 0.96300 31.15300
C  26.45200 0.82500 32.10500
C  25.88700 1.23100 33.44300
C  24.43200 1.60700 33.19900
C  24.25800 1.24700 31.69500
C  23.37300 0.85600 34.06800
C  26.67900 2.36200 34.18100
C  27.26500 2.07800 35.58300
H  27.12400 3.25000 36.59900
N  23.77600 1.18400 28.72600
C  22.80100 1.45100 29.68200
C  21.54800 1.71200 29.00900
C  21.72700 1.53100 27.63900
C  23.13500 1.18500 27.50400
C  20.33200 2.24100 29.70300
C  20.64600 1.67700 26.44400
O  20.86900 1.49100 25.20800
C  19.23700 1.91000 26.80800
N  25.96300 0.08600 26.94900
C  25.09400 0.46200 25.94600
C  25.63900 0.23600 24.50900
C  27.07200 -0.32700 24.83900
C  27.21000 -0.26300 26.43000
C  24.72600 -0.76300 23.61900
C  28.22600 0.35600 24.12600
C  28.72300 1.67300 24.69400
N  27.58800 -0.18800 29.30600
C  28.59900 -0.68600 28.49400
C  29.74100 -0.97500 29.20200
C  29.51200 -0.61400 30.53300
C  28.13000 -0.18300 30.53700
C  30.98600 -1.59400 28.58000
C  30.02400 -0.55100 31.92200
O  31.11300 -0.84900 32.33300
C  28.92200 0.06100 32.70500
C  28.62600 -0.96100 33.73100
O  27.93000 -1.96700 33.58000
O  29.08400 -0.56100 34.96100
C  28.80600 -1.50300 36.05200
H  22.24100 1.86100 31.66800
H  23.15200 0.94600 25.39400
H  29.23500 -1.09200 26.53500
H  25.98100 0.48900 34.23600
H  24.26800 2.67200 33.36300
H  22.31300 1.05300 33.90800
H  23.70300 1.28600 35.01300
H  23.54500 -0.20700 34.24000
H  26.13500 3.30400 34.24800
H  27.54700 2.57200 33.55500
H  28.32000 1.82200 35.48900
H  26.95000 1.15300 36.06700
H  20.45600 2.45500 30.76400
H  19.53900 1.49500 29.74300
H  20.00200 3.15600 29.21100
H  19.17100 2.92700 27.19600
H  19.00200 1.11700 27.51800
H  18.55900 1.70600 25.98000
H  25.75700 1.11400 23.87500
H  27.04300 -1.40100 24.65700
H  23.75300 -0.83000 24.10600
H  25.19600 -1.74100 23.51800
H  24.49100 -0.36900 22.63000
H  27.96400 0.54300 23.08500
H  29.06600 -0.33800 24.15400
H  28.23800 1.94400 25.63200
H  28.59700 2.50200 23.99700
H  29.78100 1.56100 24.92800
H  30.69700 -2.23000 27.74300
H  31.39300 -2.30100 29.30200
H  31.77700 -0.98100 28.14700
H  29.33700 0.92200 33.22700
H  29.23600 -2.49200 35.89400
H  27.75500 -1.50100 36.34200
H  29.32200 -1.06100 36.90400

