158

Mg 24.08800 -4.74900 45.35000
C  26.43800 -2.52000 43.89300
C  21.73500 -3.35400 43.31300
C  22.23300 -7.51200 45.85900
C  26.86600 -6.36700 46.84000
N  24.11300 -3.04000 43.80900
C  25.13500 -2.21800 43.47400
C  24.65200 -1.12100 42.52300
C  23.08400 -1.24200 42.72100
C  22.93000 -2.64400 43.30800
C  22.51100 -0.24000 43.76700
C  25.16200 -1.35600 41.11300
C  25.52000 -0.09900 40.24300
H  25.02700 -0.15200 38.79600
N  22.15600 -5.32300 44.77700
C  21.34600 -4.55100 43.90300
C  20.18800 -5.31900 43.68400
C  20.14600 -6.45700 44.53400
C  21.55100 -6.50400 45.12400
C  19.04600 -4.95000 42.68200
C  18.98000 -7.38500 44.64400
O  17.98700 -7.25500 43.93000
C  19.02800 -8.44000 45.69500
N  24.45100 -6.62000 46.36600
C  23.51300 -7.61800 46.49400
C  24.07100 -8.91500 47.08600
C  25.57200 -8.49300 47.37800
C  25.65500 -7.03200 46.86000
C  23.35400 -9.53500 48.32900
C  26.57900 -9.42200 46.75800
C  26.24700 -10.97800 46.89300
N  26.18100 -4.41000 45.57900
C  27.11800 -5.13000 46.26100
C  28.45500 -4.62100 46.03200
C  28.28100 -3.56900 45.10400
C  26.84800 -3.50100 44.84200
C  29.75400 -5.08200 46.67600
C  28.91800 -2.57100 44.30000
O  30.09900 -2.19800 44.29500
C  27.75500 -1.87400 43.45400
C  27.83100 -0.41700 43.96400
O  27.21600 0.02900 44.91700
O  28.77400 0.24200 43.20600
C  29.17000 1.51800 43.77000
H  20.95000 -3.06800 42.61000
H  21.62500 -8.38900 46.09000
H  27.75900 -6.87000 47.21800
H  25.09700 -0.19200 42.87800
H  22.47500 -1.28700 41.81800
H  23.31600 0.30500 44.25900
H  21.92500 -0.70800 44.55800
H  21.90000 0.54400 43.31900
H  24.35200 -1.88000 40.60600
H  26.00300 -2.04200 41.21900
H  26.60700 -0.02400 40.20900
H  24.99800 0.76600 40.65200
H  18.04700 -5.02300 43.11200
H  19.18500 -5.41800 41.70700
H  18.94800 -3.86600 42.62600
H  19.66900 -8.10100 46.51000
H  19.52500 -9.27800 45.20600
H  18.08300 -8.90100 45.98500
H  24.18200 -9.58300 46.23200
H  25.89500 -8.37200 48.41100
H  22.54600 -8.98600 48.81200
H  24.04900 -9.93200 49.06900
H  22.82200 -10.43600 48.02200
H  27.47000 -9.23600 47.35700
H  26.70000 -9.12300 45.71700
H  25.69600 -11.11400 47.82400
H  27.09200 -11.66600 46.89500
H  25.55700 -11.17900 46.07300
H  30.44300 -4.23800 46.70700
H  30.20600 -5.76200 45.95400
H  29.64100 -5.62600 47.61400
H  27.97300 -1.78100 42.39000
H  29.92200 1.94700 43.10900
H  29.60300 1.33900 44.75400
H  28.34200 2.21900 43.88100
Mg 26.48600 49.50400 26.30400
C  24.63900 50.80000 28.83600
C  28.93900 48.54500 28.57800
C  28.50600 48.45800 23.71800
C  24.40100 50.96300 23.98400
N  26.66900 49.62700 28.48400
C  25.78000 50.20400 29.36000
C  26.22000 49.97600 30.86800
C  27.70000 49.38100 30.66200
C  27.76600 49.18300 29.10200
C  28.92600 50.27700 31.24200
C  25.26000 48.98500 31.65700
C  24.86200 49.51500 33.03400
H  24.85700 48.47000 34.18400
N  28.52200 48.73500 26.19700
C  29.32200 48.41900 27.20000
C  30.50900 47.79400 26.70500
C  30.42200 47.75700 25.27700
C  29.12900 48.36800 25.00100
C  31.61100 47.32300 27.56300
C  31.33000 47.15300 24.24000
O  31.11300 47.19200 23.04800
C  32.61900 46.43500 24.69100
N  26.52800 49.74800 24.17000
C  27.34000 49.02200 23.31100
C  26.96100 49.24200 21.80100
C  25.55600 49.95400 21.89200
C  25.49700 50.28700 23.44300
C  28.12300 49.89800 20.93100
C  24.36600 49.07700 21.28400
C  23.26700 49.81000 20.40900
N  24.74400 50.50000 26.29100
C  24.04600 51.04800 25.30700
C  22.89200 51.73000 25.77100
C  23.04100 51.61800 27.18600
C  24.17100 50.85900 27.47100
C  21.97400 52.59900 24.96300
C  22.49000 52.01000 28.46900
O  21.54400 52.71000 28.72600
C  23.47600 51.43900 29.62700
C  23.87100 52.57400 30.47100
O  24.52300 53.52000 30.13300
O  23.33400 52.43300 31.72100
C  23.82100 53.49000 32.65900
H  29.59600 48.12000 29.33900
H  29.07800 48.29200 22.80200
H  23.60500 51.36300 23.35300
H  26.04700 50.94200 31.34300
H  27.86200 48.40900 31.12800
H  29.59100 50.78100 30.54200
H  29.41100 49.58500 31.93100
H  28.57700 51.10600 31.85800
H  25.84400 48.06600 31.70300
H  24.37700 48.77500 31.05300
H  23.85600 49.86300 32.79700
H  25.52100 50.34500 33.28900
H  31.78100 46.24700 27.60000
H  31.48600 47.64800 28.59600
H  32.62000 47.60400 27.26100
H  33.15700 46.07800 23.81300
H  32.38200 45.57000 25.31000
H  33.26800 47.17200 25.16400
H  26.88300 48.24200 21.37600
H  25.45200 50.98900 21.56500
H  28.99400 50.18600 21.52000
H  27.79000 50.79400 20.40700
H  28.56400 49.20600 20.21300
H  23.79800 48.65400 22.11200
H  24.73100 48.28600 20.62900
H  22.49300 49.93500 21.16600
H  22.98700 49.13100 19.60400
H  23.67900 50.75100 20.04300
H  22.56000 53.08300 24.18300
H  21.57000 53.45800 25.49800
H  21.23200 51.90900 24.56200
H  23.01200 50.66400 30.23800
H  23.94200 53.05900 33.65300
H  23.08700 54.29200 32.74900
H  24.77900 53.97600 32.47600

