158

Mg 46.67400 24.37200 28.53900
C  46.95700 26.61900 31.39200
C  45.77000 21.96000 30.68400
C  46.65200 22.45500 25.71600
C  47.90900 27.12900 26.52900
N  46.46800 24.33100 30.88100
C  46.52600 25.32300 31.78100
C  46.21400 24.74700 33.19800
C  45.96900 23.14700 32.91200
C  45.95300 23.13900 31.39600
C  47.07600 22.21600 33.53200
C  45.02000 25.53500 33.79300
C  45.18300 25.96800 35.25700
H  45.37100 24.95600 36.35800
N  46.30900 22.46200 28.25800
C  45.93700 21.58700 29.27800
C  45.69800 20.24900 28.66400
C  45.85200 20.45200 27.23400
C  46.32100 21.88200 26.99500
C  45.25500 19.06600 29.50200
C  45.43100 19.47600 26.07700
O  45.50000 19.85600 24.95000
C  44.78200 18.14300 26.50500
N  47.05200 24.78900 26.43700
C  46.99200 23.82400 25.46900
C  47.29100 24.36700 24.07400
C  47.47900 25.89100 24.33800
C  47.57100 25.92900 25.86200
C  48.48200 23.73800 23.40200
C  46.35800 26.73600 23.68600
C  44.95000 26.39700 24.18600
N  47.17800 26.41000 28.82900
C  47.66600 27.44000 27.86000
C  48.03100 28.62200 28.63200
C  47.61200 28.33500 29.95700
C  47.17800 27.01100 30.03000
C  48.56500 29.83600 28.04300
C  47.66200 28.93300 31.31200
O  48.00000 30.04300 31.70300
C  47.24100 27.79700 32.22600
C  48.36400 27.56100 33.22000
O  48.94900 26.51200 33.38800
O  48.55000 28.60900 34.14700
C  49.11800 28.17900 35.43500
H  45.44500 21.08800 31.25400
H  46.67800 21.79900 24.84300
H  48.22400 27.99500 25.94300
H  47.16200 24.83300 33.72900
H  45.00900 22.76000 33.25200
H  47.45000 21.74700 32.62200
H  46.69900 21.38900 34.13400
H  47.79800 22.81700 34.08500
H  44.27700 24.74300 33.89200
H  44.59000 26.27000 33.11200
H  44.35400 26.62400 35.52000
H  46.07400 26.59100 35.33600
H  44.16900 18.99000 29.43900
H  45.53400 19.26200 30.53700
H  45.74000 18.18900 29.07400
H  45.40800 17.35200 26.91900
H  44.53500 17.71300 25.53400
H  43.88200 18.25400 27.10900
H  46.42300 24.07800 23.48100
H  48.36800 26.29700 23.85500
H  48.42600 23.64700 22.31700
H  48.58500 22.73300 23.81200
H  49.37300 24.29500 23.68800
H  46.19400 26.66000 22.61100
H  46.50600 27.79900 23.87500
H  44.55700 25.44300 23.83500
H  44.29300 27.16400 23.77700
H  44.83500 26.30400 25.26600
H  48.22800 29.87600 27.00700
H  49.65100 29.76300 28.10100
H  48.20200 30.68400 28.62300
H  46.36000 28.03700 32.82100
H  48.22400 27.79600 35.92600
H  49.58000 28.96300 36.03500
H  49.89000 27.41100 35.39600
Mg 26.80100 51.13600 26.56200
C  24.82800 52.02900 29.21400
C  29.33200 50.22400 28.83100
C  28.65200 49.97500 23.90500
C  24.33900 52.12000 24.32500
N  27.09100 51.29400 28.81100
C  26.02300 51.52700 29.68100
C  26.43600 51.17400 31.10700
C  27.94800 50.85300 30.97600
C  28.20400 50.79700 29.43600
C  28.83100 51.91100 31.64900
C  25.56400 50.05400 31.73100
C  24.84800 50.26300 33.11700
H  25.61900 50.90100 34.29500
N  28.75900 50.27300 26.38000
C  29.55900 49.91900 27.40400
C  30.73300 49.22400 26.86700
C  30.60200 49.12800 25.46100
C  29.24200 49.82900 25.14300
C  31.81500 48.50100 27.67200
C  31.50200 48.48000 24.43300
O  31.10000 48.37700 23.25600
C  32.85800 47.81400 24.63500
N  26.59300 51.22100 24.39800
C  27.44700 50.60100 23.53300
C  26.94500 50.74500 22.07600
C  25.52800 51.38500 22.24000
C  25.44600 51.59500 23.75700
C  27.87400 51.51100 21.12100
C  24.43300 50.38100 21.66000
C  23.32600 51.06500 20.90600
N  25.12300 52.11100 26.61300
C  24.13200 52.41300 25.71800
C  22.97300 52.96600 26.29600
C  23.17400 52.80100 27.66200
C  24.47000 52.23900 27.81100
C  21.81600 53.59000 25.58700
C  22.61200 52.96700 28.94400
O  21.56500 53.48700 29.21700
C  23.58100 52.43700 30.02500
C  23.90800 53.56000 30.97900
O  24.64200 54.44600 30.75100
O  23.13400 53.32700 32.07200
C  23.34100 54.24400 33.23500
H  30.12700 49.94400 29.52500
H  29.20300 49.56900 23.05400
H  23.56000 52.39500 23.61000
H  26.32300 52.07100 31.71600
H  28.11500 49.82700 31.30300
H  28.56300 52.88700 31.24300
H  29.84400 51.60300 31.38900
H  28.81700 51.88600 32.73900
H  26.02500 49.07500 31.86000
H  24.75700 49.97000 31.00200
H  24.35900 49.35600 33.47200
H  24.07200 50.96600 32.81100
H  32.70100 49.11600 27.82700
H  32.07900 47.58200 27.14800
H  31.39500 48.31200 28.66000
H  33.32500 47.66100 23.66200
H  32.73300 46.84500 25.11800
H  33.36600 48.47900 25.33400
H  26.84400 49.71000 21.75000
H  25.38700 52.39000 21.84200
H  27.44500 52.41900 20.69700
H  28.38300 50.84400 20.42600
H  28.62300 51.87800 21.82200
H  24.00800 49.76600 22.45300
H  24.85700 49.70500 20.91700
H  23.12200 50.53500 19.97600
H  23.59400 52.06200 20.55700
H  22.39400 50.96200 21.46100
H  22.14100 54.55500 25.19900
H  21.07800 53.64800 26.38800
H  21.51300 52.84900 24.84600
H  23.01000 51.66300 30.53800
H  23.67200 55.23900 32.93700
H  24.03300 53.77600 33.93500
H  22.40900 54.44800 33.76300

