158

Mg 49.14400 35.08100 26.99100
C  47.16800 33.70800 29.52900
C  49.38500 38.01500 28.87000
C  50.71200 36.44000 24.42900
C  48.37200 32.30200 25.05800
N  48.28400 35.78700 28.84300
C  47.61000 35.00200 29.75400
C  47.73100 35.65100 31.13800
C  48.11100 37.14500 30.89500
C  48.49400 37.02200 29.38500
C  46.89700 38.06000 31.07200
C  48.92300 34.94200 31.93400
C  48.77600 34.89100 33.44600
H  47.65000 35.74600 34.19800
N  49.97900 36.87400 26.74100
C  50.03300 37.92700 27.64800
C  50.86500 39.02200 27.09000
C  51.23900 38.62600 25.74300
C  50.61300 37.27800 25.59600
C  51.40800 40.13900 27.89200
C  52.11700 39.32600 24.79500
O  52.32200 38.87600 23.68800
C  52.98000 40.57000 25.20100
N  49.26600 34.53200 24.87700
C  50.13700 35.23700 24.12500
C  50.54500 34.45600 22.96300
C  50.08800 33.01900 23.27800
C  49.14200 33.25900 24.41300
C  50.20400 35.05200 21.51100
C  51.21400 32.10300 23.62800
C  51.12600 30.58400 23.16100
N  47.94700 33.29300 27.12600
C  47.69100 32.29800 26.30000
C  46.95400 31.17600 26.92400
C  46.58100 31.76800 28.15900
C  47.27800 33.02200 28.26600
C  46.75800 29.80000 26.41300
C  45.91200 31.54100 29.45800
O  45.19600 30.62900 29.82100
C  46.18000 32.82100 30.36400
C  46.62900 32.31700 31.69800
O  47.74000 31.91600 31.86800
O  45.57800 32.31700 32.54200
C  45.78800 31.89000 33.90500
H  49.54400 38.94900 29.41200
H  51.49700 36.75100 23.73600
H  48.33400 31.32400 24.57400
H  46.77200 35.60100 31.65300
H  48.86300 37.52400 31.58800
H  46.00900 37.57500 31.47800
H  46.55200 38.29500 30.06500
H  47.14200 38.96700 31.62600
H  49.90000 35.37100 31.71400
H  48.96000 33.93900 31.50900
H  49.67300 35.09200 34.03100
H  48.39500 33.88500 33.62400
H  51.08100 41.07900 27.44800
H  52.46700 40.04000 28.12800
H  51.09700 40.16900 28.93600
H  53.53300 40.60100 24.26300
H  53.61300 40.52900 26.08800
H  52.26500 41.39200 25.20200
H  51.63300 34.39600 22.94800
H  49.52800 32.43500 22.54700
H  49.50400 34.39000 21.00100
H  51.07800 35.13500 20.86500
H  49.73900 36.03400 21.60200
H  51.34800 32.18900 24.70600
H  52.20900 32.46400 23.36700
H  50.27900 30.52100 22.47900
H  50.90400 29.92700 24.00300
H  52.04300 30.22000 22.69800
H  47.29400 29.10200 27.05600
H  47.10700 29.77300 25.38100
H  45.69300 29.56700 26.39200
H  45.25400 33.37400 30.52100
H  45.65100 30.80900 33.95400
H  44.96600 32.28900 34.49900
H  46.80000 32.05300 34.27500
Mg 1.36600 42.44800 25.35100
C  2.68600 42.57300 28.78600
C  -1.48800 41.18300 26.60300
C  0.61000 41.71100 22.26900
C  4.38700 43.82300 24.40400
N  0.70000 41.84900 27.52500
C  1.33800 42.13800 28.73900
C  0.38300 41.79700 29.86200
C  -0.89400 41.24900 29.09700
C  -0.58900 41.43500 27.66000
C  -1.21000 39.74600 29.27600
C  0.04600 42.96600 30.80800
C  0.13800 42.74900 32.30700
H  -0.34400 41.30400 32.71900
N  -0.31000 41.65500 24.55500
C  -1.42700 41.18700 25.20900
C  -2.40800 40.77400 24.24500
C  -1.81900 40.89800 22.95800
C  -0.44800 41.49500 23.20100
C  -3.87500 40.44400 24.68100
C  -2.38400 40.57100 21.62000
O  -1.82100 40.84100 20.55000
C  -3.74200 39.96100 21.62100
N  2.34200 42.76400 23.59200
C  1.80300 42.22900 22.42800
C  2.92000 42.25000 21.40200
C  3.99200 43.18200 21.99400
C  3.56100 43.34500 23.44200
C  3.39100 40.84600 20.93700
C  4.40200 44.57000 21.28900
C  3.35600 45.75500 21.41000
N  3.15800 43.12000 26.28800
C  4.28000 43.64200 25.81100
C  5.20200 44.04100 26.84500
C  4.60700 43.61700 28.01400
C  3.35200 43.10500 27.65500
C  6.64800 44.61500 26.68000
C  4.81500 43.41800 29.46900
O  5.79600 43.59800 30.15400
C  3.51000 42.77600 30.02300
C  3.85000 41.48600 30.69200
O  4.31000 40.48800 30.21100
O  3.32100 41.47700 31.90300
C  3.40500 40.25000 32.67900
H  -2.44100 40.78200 26.95300
H  0.24500 41.40400 21.28700
H  5.36500 44.14500 24.04100
H  0.89700 40.95800 30.33100
H  -1.84200 41.74700 29.29900
H  -0.51900 39.28600 29.98200
H  -1.16500 39.23500 28.31500
H  -2.20500 39.69500 29.71900
H  -0.84800 43.53800 30.55700
H  0.78800 43.73800 30.60900
H  -0.33500 43.54800 32.87700
H  1.21700 42.69900 32.45100
H  -4.02100 39.36600 24.76200
H  -4.64300 40.96100 24.10600
H  -4.08400 40.85700 25.66800
H  -4.38200 40.77800 21.95500
H  -3.65700 39.04000 22.19700
H  -3.95300 39.76000 20.57000
H  2.55400 42.76900 20.51600
H  4.88800 42.56600 22.07000
H  2.72600 40.11300 21.39300
H  4.43800 40.77100 21.23100
H  3.14600 40.85800 19.87500
H  4.71000 44.37200 20.26200
H  5.28300 44.82000 21.88000
H  2.45400 45.21400 21.69500
H  3.20100 46.34800 20.50900
H  3.67700 46.46500 22.17200
H  6.99200 44.97800 27.64900
H  6.79900 45.39200 25.93000
H  7.30600 43.76200 26.51300
H  3.06300 43.44200 30.76000
H  2.70700 39.52800 32.25600
H  3.08200 40.34800 33.71500
H  4.41800 39.85600 32.76700

