158

Mg -1.40500 17.97700 27.87500
C  -2.26500 15.79600 30.49200
C  -1.99700 20.62900 29.90600
C  -1.39200 19.91800 25.13200
C  -1.51400 15.18800 25.68100
N  -2.22500 18.17900 29.95900
C  -2.23200 17.20500 30.87100
C  -2.44400 17.77200 32.30200
C  -2.52700 19.29500 31.99500
C  -2.30400 19.44100 30.49900
C  -3.95400 19.93400 32.24400
C  -1.34000 17.33900 33.28900
C  -1.80300 16.67200 34.59000
H  -1.14000 17.08600 35.90300
N  -1.39300 20.03100 27.61600
C  -1.63200 20.94800 28.56500
C  -1.42200 22.20300 28.00700
C  -1.10000 22.00200 26.64200
C  -1.28900 20.58800 26.39200
C  -1.57300 23.51100 28.77100
C  -0.72000 23.00900 25.62400
O  -0.48600 22.67300 24.48100
C  -0.65700 24.44800 25.82800
N  -1.45800 17.58900 25.78700
C  -1.51600 18.53600 24.83400
C  -1.52800 17.99800 23.41700
C  -1.10600 16.55300 23.64900
C  -1.34500 16.45500 25.15300
C  -2.82000 18.23700 22.67500
C  0.34000 16.21600 23.13800
C  1.53300 16.57000 24.07200
N  -1.73800 15.91400 28.02500
C  -1.66400 14.93800 27.06700
C  -1.82700 13.69600 27.69500
C  -2.06800 13.94800 29.04800
C  -1.92300 15.28800 29.25200
C  -2.15300 12.36100 26.98000
C  -2.46200 13.30000 30.28300
O  -2.70500 12.13300 30.62700
C  -2.51000 14.52000 31.27300
C  -1.43200 14.15900 32.17900
O  -0.30400 14.39800 32.02600
O  -1.98900 13.43100 33.14800
C  -1.11700 12.58200 33.95000
H  -2.09200 21.47800 30.58600
H  -1.37200 20.49600 24.20600
H  -1.60100 14.38100 24.95000
H  -3.39600 17.28600 32.51600
H  -1.75200 19.86000 32.51200
H  -4.63600 19.12300 32.49600
H  -4.27800 20.49800 31.36900
H  -3.73600 20.59900 33.08000
H  -0.75100 18.24300 33.43900
H  -0.60800 16.68400 32.81600
H  -1.63700 15.59500 34.55300
H  -2.88500 16.78500 34.65500
H  -2.43500 23.99500 28.31200
H  -0.68400 24.13000 28.64900
H  -1.69700 23.46800 29.85300
H  -0.07900 25.07700 25.15200
H  -0.09500 24.52100 26.75900
H  -1.66800 24.80000 26.03600
H  -0.65100 18.52800 23.04600
H  -1.71600 15.82900 23.10900
H  -3.62000 18.32700 23.41000
H  -3.12600 17.44500 21.99200
H  -2.65900 19.18700 22.16400
H  0.39900 16.66100 22.14500
H  0.28900 15.15100 22.91200
H  1.29500 16.50400 25.13400
H  1.93000 17.54300 23.78500
H  2.28500 15.78600 23.97400
H  -2.76500 12.46700 26.08400
H  -2.63800 11.67300 27.67300
H  -1.19600 11.86900 26.80600
H  -3.47200 14.60900 31.77700
H  -0.68300 11.82000 33.30200
H  -1.70700 12.09300 34.72500
H  -0.33600 13.12400 34.48300
Mg 46.93800 24.88600 28.19100
C  47.53900 27.16000 30.80900
C  46.75300 22.39500 30.42200
C  45.99700 23.03000 25.66200
C  47.49000 27.65700 25.83000
N  46.83400 24.83400 30.32200
C  47.11900 25.83100 31.23700
C  47.05200 25.34200 32.67300
C  46.75200 23.80100 32.51700
C  46.82100 23.63600 30.99800
C  47.78100 22.93900 33.32700
C  46.03700 26.19600 33.46300
C  46.59800 27.15100 34.49500
H  46.14300 27.05500 35.96100
N  46.39500 23.01900 28.04100
C  46.53000 22.08700 29.05000
C  46.20500 20.78500 28.54200
C  45.78500 20.94300 27.19600
C  45.98200 22.37000 26.94600
C  46.24800 19.49000 29.34600
C  45.11500 19.98000 26.20400
O  44.84400 20.28000 25.05600
C  44.71000 18.57500 26.61000
N  47.08500 25.20300 25.92500
C  46.57700 24.23100 25.11800
C  46.40600 24.72900 23.68100
C  46.80800 26.22600 23.71900
C  47.18300 26.45100 25.24100
C  47.26000 23.79200 22.71200
C  45.62500 27.09100 23.29400
C  45.80000 27.88900 21.96500
N  47.48700 26.93500 28.23300
C  47.72300 27.88700 27.21100
C  48.13400 29.11500 27.85100
C  48.11800 28.90900 29.21100
C  47.66900 27.53000 29.42500
C  48.36000 30.45600 27.12500
C  48.34400 29.48500 30.52100
O  48.79600 30.60200 30.80000
C  47.95600 28.38300 31.59200
C  49.05800 28.22800 32.55300
O  50.00100 27.51000 32.39300
O  48.93400 29.22400 33.52500
C  49.96500 29.26300 34.54200
H  46.89900 21.48800 31.01300
H  45.63500 22.44800 24.81100
H  47.52800 28.61300 25.30400
H  48.06700 25.48700 33.04300
H  45.77200 23.49100 32.87900
H  48.49300 22.47600 32.64400
H  47.14000 22.18900 33.79100
H  48.43500 23.48000 34.01100
H  45.36800 25.49400 33.96000
H  45.52200 26.71300 32.65300
H  46.36600 28.13300 34.08200
H  47.65900 27.03900 34.71800
H  46.20900 18.65500 28.64700
H  45.36700 19.31300 29.96300
H  47.08200 19.55200 30.04600
H  44.40200 18.56800 27.65500
H  45.60800 17.96500 26.50700
H  43.98900 18.11000 25.93700
H  45.35400 24.66100 23.40300
H  47.68300 26.49100 23.12500
H  48.20700 24.33000 22.66700
H  46.92700 23.85500 21.67600
H  47.35100 22.77000 23.07900
H  45.37000 27.88500 23.99500
H  44.71400 26.50400 23.17400
H  45.47400 27.24900 21.14500
H  46.86500 28.11900 21.92700
H  45.31400 28.86200 22.03300
H  49.04700 30.94700 27.81500
H  47.52500 31.14300 26.99200
H  48.74000 30.30800 26.11500
H  47.11100 28.80300 32.13700
H  50.95500 28.94900 34.21200
H  49.71300 28.60800 35.37700
H  49.92100 30.33400 34.73900

