158

Mg 43.85600 3.57300 47.18400
C  41.97000 6.51200 47.07400
C  41.06700 1.66100 46.94900
C  45.88700 0.93900 46.88000
C  46.83700 5.69400 46.90700
N  41.76100 4.11700 47.00800
C  41.18100 5.32900 47.22100
C  39.63500 5.19800 47.29500
C  39.46400 3.57800 47.44300
C  40.85300 3.04300 47.05600
C  38.97900 3.08100 48.80800
C  38.74400 5.72100 46.09300
C  39.17100 5.22400 44.74200
H  39.33700 6.18500 43.62800
N  43.58100 1.57100 46.84600
C  42.32100 0.96800 46.80500
C  42.48000 -0.49700 46.77600
C  43.92200 -0.70200 46.68400
C  44.52600 0.63600 46.75500
C  41.40000 -1.59200 46.86500
C  44.57200 -2.03000 46.45700
O  43.89000 -3.06700 46.49400
C  46.01300 -2.28500 46.12600
N  46.07800 3.33100 46.86900
C  46.55600 2.12800 47.12200
C  48.13400 2.26000 47.21000
C  48.45800 3.87000 46.94700
C  47.04000 4.34100 46.84400
C  48.73100 1.63800 48.52800
C  49.39900 4.21100 45.85200
C  50.76000 4.73700 46.19700
N  44.34300 5.69400 47.00600
C  45.59100 6.38300 46.99200
C  45.33000 7.83400 46.97000
C  43.94100 7.91000 46.91700
C  43.44300 6.58500 47.10000
C  46.40400 8.88300 46.89500
C  42.81000 8.80100 46.80200
O  42.75600 10.02200 46.64800
C  41.47400 7.92500 46.92600
C  40.82100 8.41400 48.21500
O  41.22600 8.25700 49.34700
O  39.62200 9.14000 47.86200
C  38.67000 9.46000 48.93100
H  40.16500 1.05400 47.05400
H  46.55900 0.07900 46.84400
H  47.66000 6.39600 47.05700
H  39.28600 5.77300 48.15300
H  38.68300 3.36500 46.71300
H  39.72900 2.91200 49.58100
H  38.56100 2.08300 48.67500
H  38.21600 3.78800 49.13300
H  38.67300 6.80900 46.06500
H  37.71400 5.46600 46.34100
H  38.41500 4.54700 44.34500
H  40.17800 4.80800 44.73600
H  41.66400 -2.32700 47.62600
H  41.21500 -1.99700 45.87100
H  40.48400 -1.21600 47.32100
H  46.69300 -2.20000 46.97400
H  46.20100 -1.66700 45.24900
H  46.03800 -3.29800 45.72400
H  48.59300 1.77600 46.34800
H  48.84700 4.41600 47.80600
H  49.42100 2.42200 48.84000
H  49.28700 0.71200 48.37700
H  47.92700 1.49100 49.24900
H  48.92200 4.89100 45.14600
H  49.58000 3.29700 45.28700
H  50.76100 5.81300 46.02000
H  51.55100 4.34600 45.55800
H  50.98900 4.43300 47.21800
H  45.72400 9.71800 46.72500
H  47.03600 8.65600 46.03600
H  46.97700 8.94700 47.82000
H  40.79000 8.02700 46.08300
H  37.74200 9.90000 48.56600
H  39.08800 10.24900 49.55600
H  38.39400 8.61600 49.56300
Mg -8.87600 18.45000 42.11700
C  -5.36700 17.91400 42.18400
C  -8.34500 21.65000 41.24900
C  -12.11200 18.65800 41.64500
C  -9.25200 14.94200 42.42600
N  -7.03100 19.63400 41.76000
C  -5.75800 19.18200 41.72100
C  -4.85400 20.38700 41.30000
C  -5.74800 21.60400 40.96800
C  -7.12200 20.95600 41.38100
C  -5.44000 22.88700 41.86800
C  -3.79300 19.96700 40.34100
C  -4.32700 19.20400 39.03200
H  -4.12900 19.76000 37.64500
N  -10.09100 20.00500 41.66000
C  -9.71400 21.28000 41.33500
C  -10.84400 22.08900 41.21600
C  -11.98200 21.28000 41.44700
C  -11.46200 19.90900 41.51800
C  -10.86300 23.60200 41.06700
C  -13.49300 21.67900 41.47300
O  -13.84900 22.81300 41.31700
C  -14.59700 20.74500 42.03400
N  -10.44300 17.00600 41.98000
C  -11.67600 17.34100 41.80800
C  -12.58800 16.17300 41.88400
C  -11.69600 14.95100 42.16100
C  -10.31400 15.65000 42.22800
C  -13.65300 16.37300 42.99800
C  -11.78600 13.73700 41.19300
C  -13.16200 13.36400 40.60600
N  -7.58000 16.74300 42.35800
C  -7.92500 15.44100 42.53300
C  -6.70500 14.64700 42.69500
C  -5.66700 15.59500 42.58900
C  -6.24300 16.83000 42.37100
C  -6.50100 13.22300 42.79100
C  -4.23800 15.78800 42.59500
O  -3.35600 14.95000 42.78600
C  -3.93000 17.33000 42.43300
C  -3.40000 17.78100 43.72100
O  -2.25200 18.14200 43.91700
O  -4.38100 17.54700 44.66400
C  -3.81200 17.51900 45.99300
H  -8.05600 22.64500 40.90400
H  -13.16700 18.76900 41.38700
H  -9.40600 13.86200 42.47200
H  -4.29600 20.67500 42.19100
H  -5.60000 21.81900 39.91000
H  -4.49300 22.78400 42.39800
H  -6.22900 23.00000 42.61100
H  -5.42700 23.79400 41.26200
H  -2.88700 19.62900 40.84300
H  -3.46500 20.92900 39.94600
H  -5.39700 19.01400 39.12100
H  -3.82800 18.23600 39.07000
H  -11.66600 23.99000 40.44000
H  -9.90900 23.81400 40.58500
H  -10.90200 24.15000 42.00800
H  -14.25300 20.20700 42.91700
H  -14.99600 20.05200 41.29300
H  -15.45400 21.34800 42.33500
H  -13.06300 16.05700 40.91000
H  -11.81300 14.61100 43.19000
H  -14.59300 16.41100 42.44700
H  -13.47100 17.32000 43.50500
H  -13.75400 15.58300 43.74200
H  -11.61900 12.85600 41.81200
H  -10.99300 13.72300 40.44500
H  -13.16700 13.59500 39.54100
H  -13.89100 13.92600 41.19100
H  -13.36800 12.33900 40.91300
H  -5.62800 13.12800 42.14500
H  -7.35700 12.70800 42.35600
H  -6.37600 12.93200 43.83400
H  -3.24200 17.65000 41.65000
H  -2.93900 16.87600 45.88300
H  -4.53100 17.12900 46.71400
H  -3.44000 18.49000 46.32000

