158

Mg 43.76700 5.28700 46.65400
C  41.87600 8.30300 46.46500
C  40.81100 3.62500 46.23100
C  45.51100 2.49900 46.31400
C  46.64800 7.16600 46.66600
N  41.55500 5.91400 46.45000
C  41.01200 7.19600 46.41100
C  39.51800 7.12800 46.21300
C  39.20800 5.56500 46.31500
C  40.62000 4.96000 46.40900
C  38.23000 5.20400 47.53300
C  39.06100 7.71600 44.83400
C  40.14400 7.64300 43.70400
H  39.70000 7.07800 42.30700
N  43.17700 3.26200 46.43600
C  41.97000 2.84000 46.16600
C  42.04600 1.47900 45.88200
C  43.39900 1.06700 45.93400
C  44.08500 2.25800 46.30100
C  40.88200 0.60900 45.64800
C  43.97400 -0.36900 45.64700
O  43.28200 -1.31900 45.36600
C  45.39000 -0.63300 45.70200
N  45.80200 4.84700 46.34000
C  46.31200 3.61800 46.38500
C  47.89000 3.58200 46.35400
C  48.19200 5.13200 46.51800
C  46.85400 5.77500 46.48400
C  48.51600 2.59900 47.42300
C  49.16800 5.63700 45.40700
C  50.53100 6.10800 45.87700
N  44.20200 7.33000 46.59200
C  45.43400 7.93900 46.62000
C  45.25000 9.41900 46.51600
C  43.83200 9.55800 46.56700
C  43.24300 8.28500 46.54800
C  46.24500 10.43100 46.49400
C  42.76400 10.57300 46.58700
O  42.85000 11.80900 46.72600
C  41.42500 9.77100 46.50300
C  40.59700 10.04500 47.74000
O  40.67400 9.41200 48.78200
O  39.53500 10.89400 47.42200
C  38.48100 10.89400 48.42900
H  39.85600 3.13900 46.01800
H  46.17700 1.63900 46.21900
H  47.61500 7.64500 46.83700
H  38.98200 7.62200 47.02400
H  38.78800 5.16100 45.39400
H  38.27000 5.98400 48.29200
H  38.65700 4.30500 47.97800
H  37.22600 4.92000 47.21700
H  38.87400 8.78600 44.91600
H  38.14000 7.18200 44.59900
H  41.05500 7.14200 44.03200
H  40.48700 8.67200 43.58800
H  41.13600 0.12600 44.70300
H  40.01000 1.15600 45.29100
H  40.58800 -0.10900 46.41300
H  45.68500 -1.67600 45.59700
H  45.69800 -0.40900 46.72400
H  45.92300 -0.10000 44.91500
H  48.12500 3.24000 45.34700
H  48.61800 5.34500 47.49800
H  48.96900 1.75100 46.90800
H  47.78400 2.19700 48.12300
H  49.29100 3.13800 47.96700
H  48.69700 6.54200 45.02300
H  49.23200 4.90600 44.60100
H  50.70100 7.18200 45.81300
H  51.38100 5.67200 45.35200
H  50.65300 5.73200 46.89400
H  47.02800 10.04500 45.84100
H  46.66000 10.53300 47.49700
H  45.75400 11.33300 46.12800
H  40.87600 10.16700 45.64800
H  38.68400 10.75400 49.49000
H  37.82500 10.05600 48.19300
H  37.80100 11.73000 48.26400
Mg 49.43700 47.06500 43.39200
C  45.96100 47.36800 42.49900
C  49.48300 44.15100 41.61300
C  52.74500 47.25600 43.50700
C  49.26800 50.48100 44.49100
N  47.92500 45.91600 42.15800
C  46.59000 46.22000 42.00700
C  45.88700 45.25500 41.07700
C  46.91900 44.08800 40.97300
C  48.16000 44.77700 41.58400
C  46.59600 42.69400 41.73400
C  45.54700 45.76900 39.65600
C  44.37900 45.05200 38.98100
H  44.55500 44.20100 37.77000
N  50.91400 45.83300 42.64200
C  50.73000 44.59800 42.06600
C  52.01900 43.90600 41.96300
C  53.03100 44.78500 42.39700
C  52.24600 46.04500 42.90500
C  52.15300 42.59900 41.35400
C  54.49300 44.60700 42.26800
O  55.00000 43.62100 41.65500
C  55.45500 45.64600 42.78400
N  50.81400 48.71900 43.70700
C  52.14100 48.46700 43.83200
C  52.90200 49.69700 44.39700
C  51.77200 50.70200 44.53100
C  50.52400 49.91700 44.25600
C  53.66900 49.43200 45.75600
C  51.84200 51.91400 43.56700
C  51.58100 53.24200 44.28600
N  47.93200 48.65500 43.54000
C  48.03700 49.94700 44.03400
C  46.71600 50.46900 44.16600
C  45.84700 49.50000 43.68600
C  46.67900 48.40600 43.22600
C  46.44000 51.84400 44.75200
C  44.45300 49.09800 43.48500
O  43.42700 49.66700 43.80100
C  44.44800 47.83800 42.49300
C  43.59400 46.82000 43.08900
O  43.61900 46.33700 44.23900
O  42.62800 46.62600 42.09800
C  41.86100 45.38900 42.34000
H  49.53700 43.13000 41.23100
H  53.82100 47.26500 43.69100
H  49.19300 51.52500 44.80400
H  44.98400 44.87900 41.55700
H  47.13000 43.80900 39.94100
H  45.67600 42.77800 42.31300
H  47.29000 42.33900 42.49600
H  46.60000 41.91600 40.97100
H  46.42800 45.77300 39.01400
H  45.35100 46.84000 39.71000
H  43.60400 45.75700 38.68100
H  43.93300 44.38000 39.71500
H  52.41200 42.62000 40.29500
H  51.31400 41.97500 41.66100
H  52.96900 42.08600 41.86500
H  55.28500 46.67600 42.47200
H  56.47400 45.43900 42.45700
H  55.55500 45.58100 43.86700
H  53.61600 49.98400 43.62500
H  51.69800 50.95500 45.58900
H  54.22400 48.49800 45.67600
H  52.94000 49.40900 46.56600
H  54.25900 50.31200 46.01200
H  51.20600 51.87000 42.68300
H  52.88900 51.96800 43.26900
H  50.90400 53.75400 43.60300
H  52.54400 53.73400 44.42400
H  51.10000 53.05900 45.24700
H  46.90100 52.54000 44.05100
H  46.86100 52.10600 45.72300
H  45.35200 51.91200 44.75100
H  44.09600 48.29500 41.56800
H  42.60600 44.61800 42.53500
H  41.39200 45.14800 41.38600
H  41.10800 45.73900 43.04700

