158

Mg 46.93600 25.10500 27.87500
C  48.01800 27.28500 30.29600
C  46.68400 22.72000 30.28700
C  46.53600 22.84500 25.36800
C  47.82400 27.42300 25.32800
N  47.31500 25.04400 30.01900
C  47.69200 26.07500 30.85200
C  47.83900 25.74700 32.32700
C  47.33300 24.23100 32.30000
C  47.17900 23.90200 30.76900
C  48.17300 23.18300 33.09000
C  46.93700 26.66800 33.15500
C  46.21900 26.02500 34.35700
H  46.11900 26.92100 35.60600
N  46.58800 23.08800 27.86800
C  46.47500 22.31700 28.96100
C  46.27000 20.93900 28.53800
C  46.01300 20.94900 27.13700
C  46.38900 22.35100 26.74700
C  46.17600 19.78600 29.46000
C  45.59700 19.79300 26.17300
O  45.48300 19.91900 24.95200
C  45.12600 18.50100 26.67100
N  47.23600 25.06500 25.56600
C  46.87500 24.06800 24.79000
C  46.74800 24.38900 23.33100
C  47.05700 25.94000 23.39800
C  47.37000 26.21300 24.90300
C  47.72400 23.66000 22.44000
C  45.82200 26.74800 22.90200
C  46.07000 27.89900 21.88200
N  47.70800 26.93600 27.76100
C  48.09800 27.77100 26.69100
C  48.51800 29.05000 27.18500
C  48.39800 28.92400 28.57100
C  48.01700 27.62800 28.90600
C  48.69200 30.29300 26.38800
C  48.56000 29.64600 29.84500
O  48.88800 30.80200 30.15200
C  48.30900 28.66400 31.01000
C  49.42800 28.77600 31.99800
O  50.45200 28.21600 31.87000
O  49.01000 29.50600 33.09500
C  49.73900 29.20700 34.30400
H  46.48400 21.91500 30.99700
H  46.34500 22.08200 24.61000
H  47.83100 28.22200 24.58300
H  48.88400 25.78100 32.63600
H  46.32000 24.18300 32.70000
H  48.77700 23.71700 33.82300
H  48.75000 22.62500 32.35200
H  47.49600 22.45500 33.53500
H  46.29300 27.31100 32.55500
H  47.72900 27.23500 33.64300
H  46.73100 25.12500 34.69900
H  45.21600 25.77200 34.01300
H  45.13300 19.50700 29.61200
H  46.50500 19.94000 30.48800
H  46.67100 18.89100 29.08400
H  44.84400 17.91500 25.79700
H  44.34200 18.55800 27.42700
H  45.99500 18.15100 27.22800
H  45.74800 24.17200 22.95600
H  47.95800 26.19000 22.83800
H  48.57200 24.17600 21.99100
H  47.14000 23.38800 21.56100
H  48.03800 22.68100 22.80200
H  45.33000 27.14100 23.79200
H  45.14100 26.05500 22.40800
H  47.12000 27.85100 21.59300
H  45.77700 28.83500 22.35900
H  45.44100 27.69900 21.01500
H  47.91700 30.20200 25.62800
H  49.75800 30.24100 26.16600
H  48.51700 31.21700 26.93900
H  47.37900 29.04700 31.43000
H  49.15600 28.54600 34.94500
H  49.87000 30.09200 34.92600
H  50.70400 28.70900 34.20600
Mg 40.86100 41.25300 26.75900
C  40.68600 43.78100 29.12000
C  42.25300 39.17300 29.14000
C  41.50600 38.95900 24.31000
C  40.01400 43.69400 24.34600
N  41.41300 41.49300 28.83900
C  41.02500 42.54100 29.64900
C  41.24100 42.19400 31.13500
C  41.99700 40.87300 31.06900
C  41.88500 40.45400 29.59200
C  43.50400 40.91100 31.67000
C  39.86200 42.14600 31.87900
C  39.97300 41.63900 33.28600
H  39.11800 42.28000 34.40600
N  41.84000 39.29400 26.67500
C  42.28100 38.64300 27.78200
C  42.65000 37.32400 27.35100
C  42.45100 37.17500 25.95100
C  41.88900 38.52600 25.56800
C  43.14800 36.28900 28.38700
C  42.66800 36.01200 25.01800
O  42.46000 36.05200 23.77600
C  43.22600 34.67900 25.50700
N  40.78500 41.30100 24.61200
C  40.94000 40.16800 23.84300
C  40.51500 40.43700 22.33800
C  39.91800 41.88600 22.48300
C  40.25800 42.34700 23.91700
C  41.74300 40.29200 21.26900
C  38.45100 41.88200 22.16500
C  37.53700 40.80400 22.77500
N  40.57300 43.36400 26.67500
C  40.12900 44.18500 25.65000
C  39.92600 45.49100 26.11800
C  40.12100 45.36300 27.53500
C  40.55300 44.10000 27.76900
C  39.49500 46.77500 25.23500
C  39.96900 46.05700 28.75600
O  39.51500 47.16800 29.02700
C  40.45500 45.09000 29.87700
C  41.74400 45.64600 30.43100
O  42.83600 45.57600 29.87400
O  41.53000 46.18700 31.64800
C  42.73300 46.36100 32.44300
H  42.66700 38.57500 29.95500
H  41.65800 38.17200 23.56800
H  39.68300 44.36200 23.54800
H  41.83700 43.02800 31.50500
H  41.39000 40.07700 31.50100
H  44.30700 40.98600 30.93600
H  43.63800 39.92900 32.12500
H  43.53100 41.64300 32.47700
H  39.15400 41.48800 31.37500
H  39.38300 43.12500 31.88300
H  40.99800 41.81000 33.61600
H  39.81200 40.56400 33.20700
H  44.21400 36.06200 28.43700
H  42.66900 35.33800 28.15200
H  42.72300 36.58400 29.34600
H  42.50900 33.88000 25.69600
H  43.94800 34.75200 26.32000
H  43.86000 34.47500 24.64400
H  39.84000 39.64600 22.01000
H  40.45300 42.62600 21.88900
H  42.67800 40.20100 21.82200
H  41.78000 41.16300 20.61500
H  41.62700 39.47100 20.56100
H  38.45600 41.82600 21.07700
H  37.95600 42.80800 22.46000
H  36.62600 41.34500 23.03200
H  37.95300 40.10100 23.49800
H  37.05600 40.22200 21.99000
H  40.21500 46.75700 24.41600
H  39.58800 47.69400 25.81400
H  38.49000 46.71800 24.81700
H  39.71900 44.87600 30.65200
H  43.56700 46.90100 31.99700
H  42.97600 45.44700 32.98600
H  42.34300 46.98000 33.25100

