158

Mg 6.57000 54.35700 41.67600
C  5.15300 51.27600 41.03100
C  9.48400 53.27900 40.23800
C  7.81500 57.53700 41.71900
C  3.42400 55.56200 42.47600
N  7.07600 52.54900 40.51100
C  6.40700 51.39300 40.47900
C  7.11700 50.36700 39.65800
C  8.66400 50.93300 39.74400
C  8.40400 52.34100 40.20300
C  9.70200 50.06600 40.52500
C  6.58600 50.30600 38.19100
C  6.41500 48.91400 37.53200
H  7.02500 48.79400 36.15900
N  8.43900 55.23100 41.17800
C  9.44900 54.63300 40.56100
C  10.49800 55.50800 40.31800
C  10.08100 56.72900 40.65300
C  8.74100 56.56400 41.27200
C  11.84700 55.09200 39.58300
C  10.94000 57.94500 40.40900
O  12.01000 57.91500 39.84100
C  10.45500 59.40000 40.74200
N  5.68400 56.29100 41.94500
C  6.46000 57.42200 42.12600
C  5.58300 58.62200 42.62600
C  4.23100 57.91600 42.95300
C  4.45300 56.54700 42.41000
C  6.28300 59.30700 43.89000
C  2.96900 58.73200 42.60600
C  1.89600 58.76600 43.70300
N  4.65300 53.58900 41.80400
C  3.48100 54.24700 42.15900
C  2.40400 53.20100 42.17300
C  2.99100 52.00400 41.84900
C  4.39300 52.34900 41.59100
C  1.01000 53.56200 42.74300
C  2.96600 50.51200 41.70900
O  2.02400 49.76200 41.94400
C  4.27000 50.08100 41.22500
C  3.91900 49.24300 40.05200
O  3.23400 49.48200 39.03800
O  4.33600 47.97600 40.38200
C  3.67600 46.83900 39.81800
H  10.45900 53.05300 39.80100
H  8.20400 58.55600 41.66600
H  2.52500 56.05900 42.84800
H  6.95300 49.40000 40.13400
H  9.04700 51.15800 38.74900
H  9.08200 49.25300 40.90300
H  10.13900 50.56500 41.39100
H  10.38200 49.56800 39.83400
H  7.22100 50.91100 37.54300
H  5.60200 50.76300 38.29000
H  5.43400 48.43800 37.50500
H  6.99200 48.17500 38.08800
H  11.68900 55.11300 38.50500
H  12.23100 54.09000 39.77300
H  12.71500 55.66500 39.91000
H  11.22900 60.13600 40.52900
H  10.14800 59.50300 41.78200
H  9.65400 59.73500 40.08300
H  5.59200 59.38900 41.85200
H  4.32200 57.72700 44.02300
H  7.33100 59.00800 43.92400
H  5.80600 59.10500 44.84900
H  6.19600 60.35400 43.60200
H  2.59700 58.23000 41.71300
H  3.15600 59.77000 42.33200
H  2.20600 58.42300 44.69000
H  1.06400 58.14600 43.36800
H  1.46300 59.76600 43.69400
H  0.35300 52.82500 42.28200
H  0.71500 54.52600 42.32900
H  0.82400 53.37300 43.80100
H  4.75600 49.36600 41.88900
H  2.83100 47.25100 39.26600
H  3.48100 46.16900 40.65600
H  4.38600 46.32500 39.17000
Mg -0.84400 34.34400 26.73100
C  -2.88900 32.77900 29.14200
C  0.33300 36.32100 29.11300
C  0.71700 36.02300 24.23200
C  -2.52300 32.45400 24.25000
N  -1.46100 34.72500 28.81800
C  -2.15900 33.85600 29.65700
C  -1.86200 34.13100 31.14700
C  -0.92800 35.34800 31.12600
C  -0.69400 35.55500 29.61900
C  -1.41100 36.62200 31.88900
C  -1.37500 32.87100 31.99100
C  -2.09800 32.64000 33.37200
H  -1.28400 32.62200 34.67200
N  0.32700 35.98600 26.67200
C  0.83400 36.59900 27.76300
C  1.86800 37.47500 27.34000
C  1.81900 37.57200 25.92900
C  0.93500 36.52600 25.54800
C  2.59800 38.13300 28.34200
C  2.60700 38.38100 24.95400
O  2.49600 38.27700 23.75400
C  3.59400 39.32900 25.53600
N  -0.79200 34.17600 24.47800
C  -0.08400 35.01400 23.66500
C  -0.36700 34.83700 22.15600
C  -1.28700 33.56000 22.24600
C  -1.64500 33.39100 23.71800
C  -1.06000 36.06400 21.50500
C  -0.79200 32.28600 21.54500
C  0.28700 31.45300 22.19600
N  -2.27000 32.85100 26.68100
C  -2.87000 32.18600 25.59500
C  -3.81400 31.23400 26.10200
C  -3.81700 31.39400 27.52900
C  -2.92500 32.41200 27.79000
C  -4.63900 30.44100 25.20000
C  -4.41700 30.96000 28.74700
O  -5.36300 30.20100 28.94200
C  -3.77200 31.86400 29.82400
C  -4.80200 32.45000 30.61400
O  -5.40500 33.44800 30.24800
O  -5.13600 31.64800 31.69200
C  -6.43000 32.02900 32.23200
H  0.89700 36.90100 29.84600
H  1.25100 36.51900 23.41900
H  -2.97500 31.78800 23.51200
H  -2.79500 34.41700 31.63300
H  0.04500 35.11700 31.56000
H  -1.35400 37.45500 31.18700
H  -0.81000 36.84400 32.77100
H  -2.45400 36.59100 32.20500
H  -0.32400 32.84200 32.28100
H  -1.53100 31.98800 31.37100
H  -2.56200 31.65900 33.27600
H  -2.87200 33.38500 33.55500
H  2.80600 37.50700 29.21000
H  2.14200 39.04200 28.73200
H  3.53300 38.49100 27.91100
H  3.07600 39.85100 26.34100
H  3.91800 40.03700 24.77300
H  4.48100 38.79600 25.87800
H  0.64700 34.76700 21.76200
H  -2.22800 33.70100 21.71400
H  -2.08000 35.94300 21.14200
H  -0.63800 36.33300 20.53700
H  -1.06900 36.91300 22.18900
H  -0.50900 32.56600 20.53000
H  -1.69500 31.70900 21.34500
H  1.25000 31.58500 21.70300
H  -0.03400 30.42300 22.04500
H  0.35800 31.54500 23.28000
H  -5.42500 30.01400 25.82200
H  -4.04800 29.65200 24.73400
H  -4.98500 31.04900 24.36400
H  -3.19000 31.21200 30.47500
H  -6.19300 32.20900 33.28000
H  -7.07400 31.15400 32.14600
H  -7.01100 32.86800 31.84900

