158

Mg 8.21400 3.33000 28.75300
C  9.94900 1.92900 31.63700
C  6.55400 5.23400 30.80100
C  6.55700 4.39100 26.07100
C  9.46400 0.52500 26.88800
N  8.13200 3.30900 31.00600
C  8.98300 2.84600 31.95800
C  8.69100 3.51600 33.30200
C  7.42300 4.36600 33.02900
C  7.36600 4.30400 31.47500
C  6.16700 3.90200 33.86800
C  9.98400 4.08600 33.94600
C  9.72800 4.96100 35.18400
H  10.59200 4.49800 36.40900
N  6.73400 4.64200 28.48000
C  6.21500 5.34200 29.49000
C  5.14700 6.15100 28.89200
C  5.09700 5.85900 27.46300
C  6.19600 4.93300 27.27500
C  4.21000 7.03300 29.69100
C  4.14200 6.30300 26.41700
O  4.22600 5.94400 25.27900
C  2.97900 7.14100 26.84600
N  8.01400 2.61400 26.79700
C  7.35100 3.28800 25.81900
C  7.55900 2.60600 24.43200
C  8.36900 1.34300 24.76200
C  8.56200 1.41900 26.28100
C  6.44600 2.26500 23.41600
C  9.72600 1.25000 24.03700
C  10.07600 -0.11200 23.39100
N  9.47000 1.64800 29.11900
C  9.96900 0.69100 28.21800
C  10.88700 -0.18400 28.88300
C  10.98100 0.39300 30.18400
C  10.05200 1.40000 30.32200
C  11.69500 -1.28700 28.33100
C  11.58800 0.15600 31.45300
O  12.42900 -0.69500 31.73400
C  11.00700 1.23900 32.52400
C  10.45600 0.37700 33.54200
O  9.74600 -0.62900 33.39800
O  10.92100 0.79300 34.73400
C  10.50500 -0.05600 35.82500
H  6.13100 5.95000 31.50800
H  6.01500 4.76200 25.19800
H  9.87000 -0.29600 26.29300
H  8.47100 2.64300 33.91800
H  7.79300 5.35300 33.30900
H  5.50400 3.47800 33.11300
H  5.73000 4.83900 34.21400
H  6.56000 3.23100 34.63200
H  10.63800 4.63000 33.26400
H  10.66100 3.30000 34.27900
H  8.70600 4.94000 35.56200
H  9.91000 5.98800 34.86600
H  3.20300 6.63600 29.56300
H  4.14100 8.02500 29.24500
H  4.44200 7.21400 30.74000
H  2.24100 6.53100 27.36700
H  2.58200 7.60300 25.94200
H  3.34900 8.01700 27.37900
H  8.20500 3.34500 23.95800
H  7.71400 0.49000 24.58500
H  5.56100 2.70000 23.88000
H  6.31700 1.24900 23.04100
H  6.61000 2.86300 22.52000
H  10.53600 1.55400 24.70000
H  9.89600 2.10400 23.38100
H  9.36700 -0.90100 23.64200
H  11.04700 -0.47000 23.73300
H  10.19200 0.06900 22.32200
H  12.70900 -1.27800 28.73300
H  11.55400 -1.41100 27.25700
H  11.32200 -2.21500 28.76300
H  11.84100 1.90400 32.74900
H  10.88700 -1.07500 35.75100
H  9.42100 -0.16300 35.85900
H  10.66900 0.41200 36.79600
Mg 9.89500 47.44700 25.61400
C  7.59800 47.46800 28.33000
C  12.41000 48.49100 27.81500
C  12.05000 47.34600 23.05400
C  7.24100 46.75300 23.43100
N  9.95800 48.00600 27.85800
C  8.91200 47.81600 28.75100
C  9.38500 48.34100 30.13100
C  10.88300 48.76900 29.86900
C  11.16600 48.41500 28.42400
C  11.36000 50.20700 30.11400
C  9.13900 47.37100 31.37800
C  10.09700 47.56800 32.53200
H  9.48900 47.10700 33.88700
N  11.93500 47.89200 25.46000
C  12.78900 48.27300 26.44700
C  14.12800 48.41600 25.90400
C  14.02500 48.06500 24.56500
C  12.64600 47.74600 24.26500
C  15.31300 48.84400 26.75000
C  15.16100 48.03900 23.50000
O  15.00000 47.79900 22.33300
C  16.63400 48.10000 23.91600
N  9.61400 47.40800 23.42800
C  10.71200 47.12000 22.69200
C  10.33600 46.39000 21.36300
C  8.76900 46.31900 21.51400
C  8.49400 46.86100 22.85800
C  10.94800 47.04400 20.03600
C  8.21200 44.88300 21.42400
C  8.46500 43.91600 22.60200
N  7.90200 47.07500 25.78700
C  6.90600 46.97400 24.79000
C  5.63800 46.85700 25.46400
C  5.82700 47.05400 26.81200
C  7.22300 47.18900 26.98600
C  4.38000 46.60900 24.72700
C  5.24800 47.06600 28.21400
O  4.07000 46.89200 28.59100
C  6.42000 47.29700 29.23000
C  6.63500 46.11500 30.05100
O  7.17000 45.15600 29.63300
O  6.08600 46.35500 31.27700
C  6.20600 45.29600 32.23900
H  13.27200 48.52800 28.48400
H  12.76100 46.92300 22.34200
H  6.51200 46.37700 22.70900
H  8.73200 49.20800 30.23000
H  11.60900 48.21900 30.46900
H  10.50800 50.84500 30.34800
H  12.03900 50.59500 29.35600
H  11.89700 50.25100 31.06200
H  9.09800 46.35900 30.97600
H  8.13600 47.66200 31.68800
H  10.36300 48.61900 32.64300
H  11.00900 46.98600 32.39400
H  16.24100 48.27300 26.78500
H  15.02800 49.14100 27.75900
H  15.65300 49.78100 26.31100
H  17.26900 47.98200 23.03800
H  16.72600 47.23200 24.56900
H  16.85200 49.08800 24.32200
H  10.82900 45.42700 21.49900
H  8.28200 46.96700 20.78700
H  11.44300 46.26900 19.45000
H  11.79800 47.67800 20.28900
H  10.10500 47.56700 19.58600
H  8.87600 44.40000 20.70800
H  7.16900 44.96100 21.11600
H  8.95000 44.48400 23.39600
H  9.08400 43.04500 22.38700
H  7.50200 43.53900 22.94900
H  4.35100 47.24500 23.84300
H  3.54200 46.75000 25.41000
H  4.33500 45.56500 24.41900
H  6.04700 48.09200 29.87600
H  7.09700 44.68600 32.09200
H  5.36500 44.62800 32.05700
H  6.15700 45.79100 33.20900

