158

Mg -1.49400 16.99200 26.04600
C  -1.79600 15.02400 28.92600
C  -1.86400 19.82500 28.10500
C  -1.67300 18.90600 23.33100
C  -1.55900 14.18800 24.11300
N  -1.78900 17.33900 28.27800
C  -1.92400 16.32500 29.23400
C  -2.32800 16.93000 30.59800
C  -2.35100 18.48800 30.29600
C  -2.00000 18.57400 28.79300
C  -3.78900 19.24000 30.47800
C  -1.41500 16.50300 31.71200
C  -1.83000 17.04800 33.04700
H  -1.63400 16.28100 34.33200
N  -1.49900 19.10000 25.81100
C  -1.68300 20.12000 26.77600
C  -1.63600 21.36400 26.05500
C  -1.34600 21.14100 24.70000
C  -1.57300 19.65100 24.55700
C  -1.71500 22.68300 26.77800
C  -0.95700 22.11000 23.65900
O  -0.97200 21.86000 22.46900
C  -0.58200 23.47600 23.98000
N  -1.76000 16.62000 24.03500
C  -1.65300 17.59300 23.09700
C  -1.81100 17.01000 21.70800
C  -1.30800 15.51100 21.97300
C  -1.59600 15.39900 23.45300
C  -3.27500 17.04800 21.10400
C  0.18500 15.25800 21.57000
C  0.44200 15.12300 20.09500
N  -1.57800 15.03500 26.40200
C  -1.68200 14.01500 25.49000
C  -1.92000 12.79200 26.17100
C  -1.88100 13.13400 27.50600
C  -1.68600 14.54400 27.62800
C  -2.22700 11.53800 25.50300
C  -2.06500 12.51000 28.78000
O  -2.14300 11.32100 29.15300
C  -2.04500 13.77300 29.75700
C  -0.90900 13.33700 30.60800
O  0.18600 13.77300 30.46200
O  -1.39400 12.59900 31.68300
C  -0.47400 12.32100 32.79600
H  -2.05700 20.72900 28.68800
H  -1.57000 19.59600 22.49100
H  -1.53400 13.35100 23.41200
H  -3.30500 16.62200 30.97000
H  -1.62400 19.08900 30.84300
H  -3.52100 20.21600 30.88100
H  -4.61200 18.79800 31.04000
H  -4.25800 19.28900 29.49600
H  -0.41100 16.67000 31.32000
H  -1.49000 15.42900 31.88300
H  -2.87100 17.33600 32.90400
H  -1.23400 17.96000 33.07300
H  -2.12500 22.55300 27.77900
H  -2.36800 23.37800 26.25100
H  -0.72300 23.11100 26.92500
H  -1.15900 24.07000 24.69000
H  -0.29000 24.04500 23.09700
H  0.35900 23.17800 24.44100
H  -1.16600 17.58300 21.04200
H  -1.90900 14.82900 21.37200
H  -3.75800 16.07300 21.04700
H  -3.14400 17.53900 20.13900
H  -3.92300 17.72600 21.66000
H  0.56700 14.44000 22.18200
H  0.74200 16.13500 21.90000
H  1.41800 15.58400 19.94500
H  -0.32100 15.59600 19.47700
H  0.40000 14.05700 19.87100
H  -1.35000 10.89200 25.45700
H  -2.52400 11.73700 24.47300
H  -2.92000 10.91400 26.06700
H  -2.95300 13.79000 30.36000
H  0.57200 12.23000 32.50500
H  -0.86900 11.46000 33.33600
H  -0.53500 13.21200 33.42200
Mg 26.01000 51.43000 26.26100
C  23.76500 52.55400 28.57100
C  28.09000 50.41300 28.97100
C  28.43100 50.86700 24.10900
C  24.04100 52.83300 23.72600
N  26.03800 51.74300 28.54600
C  24.91200 52.10500 29.26400
C  25.18900 52.01500 30.81300
C  26.63200 51.57000 30.80000
C  27.01100 51.21600 29.35100
C  27.59700 52.67700 31.34500
C  24.18400 50.97700 31.55300
C  23.47300 51.51500 32.75600
H  24.27300 51.94300 34.04300
N  27.93200 50.64100 26.48000
C  28.52700 50.23800 27.60100
C  29.90500 49.91300 27.30800
C  30.10300 50.08500 25.89800
C  28.76300 50.58200 25.41700
C  30.87600 49.31300 28.44100
C  31.24200 49.83100 24.94600
O  31.22900 50.04100 23.72500
C  32.47400 49.36200 25.56900
N  26.23100 51.94800 24.17800
C  27.30300 51.44800 23.48700
C  27.14400 51.79700 22.03200
C  25.64200 52.25100 21.85500
C  25.28000 52.36300 23.32500
C  28.28700 52.61300 21.32600
C  24.83600 51.13700 21.12400
C  23.61400 51.60600 20.41200
N  24.16200 52.38100 26.15200
C  23.46900 52.78700 25.04000
C  22.09600 53.24700 25.49100
C  22.20900 53.12400 26.88000
C  23.45900 52.58300 27.19700
C  20.95600 53.83300 24.63100
C  21.47600 53.41800 28.14600
O  20.36400 53.86300 28.40100
C  22.51600 53.07000 29.29000
C  22.73800 54.29700 30.13100
O  23.83200 54.93900 30.16400
O  21.77900 54.37200 31.13700
C  22.11800 55.27900 32.23600
H  28.68300 50.12300 29.84000
H  29.19600 50.66500 23.35700
H  23.49200 53.18700 22.85100
H  25.03900 53.01000 31.23000
H  26.77100 50.69300 31.43300
H  27.08400 53.28600 32.09000
H  27.92200 53.29500 30.50900
H  28.56600 52.27500 31.64100
H  24.86800 50.22900 31.95300
H  23.44200 50.57700 30.86200
H  22.77200 50.70200 32.94300
H  23.01800 52.43800 32.39700
H  30.29600 48.95500 29.29200
H  31.50300 50.11000 28.84100
H  31.48400 48.48400 28.07800
H  32.32100 48.33000 25.88300
H  32.70600 49.90100 26.48800
H  33.30000 49.52600 24.87800
H  27.35100 50.80600 21.62800
H  25.59300 53.24400 21.40800
H  29.05700 52.73900 22.08800
H  28.00500 53.57900 20.90900
H  28.77500 51.95500 20.60600
H  24.45900 50.44100 21.87300
H  25.44900 50.64700 20.36900
H  23.94000 51.99900 19.44800
H  23.06800 52.29900 21.05200
H  23.00900 50.73200 20.17100
H  20.85900 53.23700 23.72400
H  21.24300 54.80500 24.23000
H  20.00700 53.89800 25.16400
H  22.07400 52.24800 29.85300
H  23.12700 54.93100 32.45500
H  21.37800 55.41300 33.02500
H  22.26800 56.30600 31.90300

