158

Mg 41.30200 41.26300 26.40300
C  40.37500 43.33200 28.99400
C  42.32100 38.89100 28.81200
C  42.53400 39.39000 23.89400
C  40.77000 43.82900 24.10000
N  41.58400 41.25400 28.64600
C  40.89400 42.09800 29.45500
C  40.83400 41.62200 30.92400
C  41.68700 40.33400 30.80500
C  41.93500 40.10000 29.29000
C  43.05400 40.36600 31.57500
C  39.39800 41.54500 31.56700
C  39.06100 42.59100 32.59300
H  38.39200 42.12400 33.97000
N  42.30600 39.39700 26.32800
C  42.56400 38.57200 27.46400
C  43.07800 37.38700 26.95600
C  43.10100 37.39300 25.44900
C  42.70500 38.77700 25.14700
C  43.60500 36.21000 27.90000
C  43.42900 36.29900 24.49000
O  43.56400 36.49000 23.28600
C  43.50600 34.83500 25.06600
N  41.64600 41.55800 24.36600
C  42.13000 40.64300 23.54200
C  42.21900 41.16200 22.04600
C  41.23100 42.38800 22.06800
C  41.19500 42.62800 23.59700
C  43.63600 41.36600 21.49300
C  39.79000 42.18800 21.45100
C  39.14200 40.89100 21.83900
N  40.60600 43.18900 26.43600
C  40.44800 44.15800 25.44000
C  40.06700 45.36700 26.02900
C  39.91800 45.12200 27.44100
C  40.25500 43.73900 27.61700
C  39.98800 46.69200 25.30500
C  39.58600 45.64900 28.71400
O  39.28300 46.80000 28.98900
C  39.79900 44.50900 29.77600
C  40.75200 45.03700 30.65400
O  41.98600 45.10900 30.49100
O  40.14400 45.66600 31.70200
C  41.07100 46.21800 32.68600
H  42.38100 38.14700 29.60900
H  42.76000 38.76700 23.02600
H  40.70700 44.58400 23.31400
H  41.34900 42.36000 31.53800
H  41.18200 39.55100 31.37000
H  42.97300 39.56300 32.30700
H  43.21000 41.31800 32.08300
H  43.89700 40.13500 30.92400
H  39.29800 40.56100 32.02700
H  38.71600 41.51300 30.71700
H  38.36900 43.29300 32.12800
H  39.93500 43.17800 32.87700
H  43.36300 36.35600 28.95200
H  44.68500 36.24600 27.75100
H  43.27000 35.19200 27.70600
H  42.61300 34.66000 25.66600
H  44.37500 34.70800 25.71000
H  43.60500 34.10500 24.26200
H  41.81600 40.41300 21.36400
H  41.78400 43.24700 21.68800
H  44.38900 41.35300 22.28100
H  43.73400 42.30900 20.95600
H  43.87700 40.52000 20.85000
H  39.89200 42.29400 20.37100
H  39.24700 43.05700 21.82100
H  38.88800 40.37200 20.91400
H  38.19500 41.11300 22.33100
H  39.79500 40.26100 22.44200
H  40.08800 47.47700 26.05500
H  38.97300 46.85700 24.94500
H  40.78500 46.80800 24.57100
H  38.84400 44.21900 30.21300
H  41.64800 47.05900 32.30300
H  41.64900 45.42400 33.15900
H  40.49500 46.58700 33.53400
Mg 26.33400 50.91400 26.05900
C  24.10400 51.97900 28.63800
C  28.39100 49.89600 28.54600
C  28.39400 50.21200 23.65300
C  24.14800 52.28200 23.79200
N  26.24300 50.90800 28.38200
C  25.20500 51.39700 29.13900
C  25.45600 51.09300 30.65000
C  26.91000 50.39100 30.59000
C  27.22500 50.44800 29.10800
C  28.00100 51.06500 31.48500
C  24.39900 50.16100 31.30900
C  24.82100 49.36600 32.62200
H  23.68800 49.32000 33.70400
N  28.16900 50.21100 26.12300
C  28.90200 49.77600 27.22200
C  30.21000 49.31700 26.77900
C  30.22700 49.48500 25.38800
C  28.93800 50.00000 25.05000
C  31.14700 48.64700 27.73400
C  31.35700 49.14500 24.45100
O  31.27700 49.39300 23.27200
C  32.66100 48.56700 25.01400
N  26.26200 51.11200 24.05600
C  27.19200 50.67200 23.25700
C  26.84500 50.85200 21.81000
C  25.32300 51.36800 21.87100
C  25.19900 51.57800 23.34400
C  27.77900 51.79200 21.10200
C  24.35800 50.38300 21.18000
C  24.02800 50.76800 19.75900
N  24.58100 52.02100 26.14300
C  23.83900 52.55500 25.11100
C  22.61700 53.17500 25.63000
C  22.71800 53.05700 27.03900
C  23.90200 52.30500 27.27900
C  21.50600 53.70200 24.76200
C  22.01500 53.21500 28.31800
O  20.91100 53.67600 28.64200
C  22.96900 52.50000 29.37400
C  23.31700 53.58500 30.39400
O  24.19300 54.44800 30.29300
O  22.61700 53.38200 31.54200
C  23.01300 54.10000 32.76800
H  29.09300 49.63900 29.34200
H  29.09100 50.02700 22.83300
H  23.42700 52.62500 23.04800
H  25.51100 52.00100 31.25100
H  26.75000 49.35600 30.89300
H  28.86200 51.31300 30.86500
H  28.26800 50.38700 32.29600
H  27.63200 51.97500 31.95900
H  24.13500 49.51600 30.47100
H  23.57500 50.81400 31.59800
H  25.68100 49.82500 33.10900
H  24.98800 48.36400 32.22700
H  31.06600 47.57500 27.55500
H  30.80800 48.78300 28.76100
H  32.17300 49.01200 27.69100
H  33.23900 48.26300 24.14100
H  32.50700 47.73200 25.69900
H  33.10300 49.42100 25.52800
H  26.88400 49.86400 21.34900
H  25.22500 52.38600 21.49200
H  28.47600 52.27000 21.79000
H  27.25900 52.60600 20.59700
H  28.39800 51.24800 20.38900
H  23.39800 50.26800 21.68400
H  24.85400 49.41300 21.14800
H  24.56400 50.09000 19.09600
H  24.35600 51.75700 19.43700
H  22.94600 50.71200 19.64000
H  21.96700 54.49400 24.17100
H  20.69700 54.02300 25.41800
H  21.07000 52.94900 24.10500
H  22.52700 51.62400 29.84700
H  23.37700 55.09200 32.50300
H  23.70000 53.52400 33.38800
H  22.11800 54.19500 33.38300

