158

Mg 24.45200 2.95100 29.38500
C  26.90000 2.74900 32.02900
C  22.01900 3.18100 31.62300
C  22.40500 2.82000 26.78000
C  27.19300 2.36800 27.05700
N  24.50500 2.93200 31.59300
C  25.55300 2.97700 32.41900
C  25.09500 3.06600 33.92000
C  23.52300 3.25200 33.77700
C  23.29700 3.12300 32.20400
C  22.72600 2.30600 34.61500
C  25.78500 4.25200 34.67800
C  26.19400 3.92500 36.12000
H  25.26500 4.71000 37.08700
N  22.52300 2.85800 29.21100
C  21.65300 3.00600 30.26500
C  20.26400 3.02700 29.82400
C  20.38500 2.83400 28.41600
C  21.82700 2.81300 28.08800
C  18.97300 3.22700 30.67700
C  19.27800 2.82800 27.43400
O  19.39700 2.82700 26.21200
C  17.94900 2.53700 28.02500
N  24.75500 2.67400 27.07800
C  23.72600 2.87900 26.25000
C  24.25300 3.15900 24.83400
C  25.82500 3.05200 25.02800
C  25.94800 2.72900 26.46700
C  23.72800 2.25800 23.64900
C  26.67700 4.23800 24.67400
C  26.60000 5.52200 25.68400
N  26.55500 2.63500 29.48500
C  27.47700 2.23500 28.46700
C  28.78600 2.03700 29.07800
C  28.58300 2.20500 30.47000
C  27.29500 2.60100 30.69800
C  30.06900 1.55400 28.45600
C  29.24500 2.19900 31.72400
O  30.39900 1.99900 32.08400
C  28.10800 2.52700 32.80600
C  28.02500 1.36300 33.83000
O  27.39100 0.30500 33.83100
O  28.72800 1.80300 34.99600
C  28.89600 0.79200 36.10100
H  21.19200 3.49700 32.26300
H  21.59300 2.97400 26.06600
H  28.11800 2.44500 26.48100
H  25.29300 2.06500 34.30400
H  23.21300 4.25800 34.05700
H  22.61500 1.37900 34.05100
H  21.81400 2.78200 34.97600
H  23.16700 1.97600 35.55600
H  25.14200 5.13100 34.63500
H  26.67400 4.53800 34.11500
H  27.19900 4.26500 36.37200
H  26.01200 2.86800 36.31000
H  18.32500 4.02800 30.32100
H  19.19200 3.53900 31.69800
H  18.41200 2.29200 30.65800
H  17.93400 1.63000 28.63000
H  17.31200 2.32500 27.16600
H  17.38300 3.39200 28.39500
H  24.12100 4.17400 24.45900
H  26.18700 2.18700 24.47200
H  24.33300 1.35300 23.58900
H  23.73900 2.87400 22.75000
H  22.71300 1.92200 23.86400
H  26.47400 4.48900 23.63200
H  27.71300 3.90100 24.69000
H  26.33900 5.19700 26.69100
H  25.88000 6.15400 25.16300
H  27.56300 6.01800 25.80800
H  30.81600 1.74300 29.22700
H  30.36800 2.19200 27.62400
H  30.11500 0.49900 28.18600
H  28.39900 3.47100 33.26600
H  29.25800 -0.16400 35.72200
H  28.04400 0.47600 36.70300
H  29.53800 1.23500 36.86200
Mg -1.69000 33.89100 26.53900
C  -3.51500 32.39700 29.24000
C  -0.27400 35.95100 28.65500
C  -0.40000 35.37000 23.82300
C  -3.55500 31.74700 24.43100
N  -2.03800 34.27700 28.73100
C  -2.69800 33.51900 29.58700
C  -2.21800 33.80100 31.02000
C  -1.18800 35.02100 30.83100
C  -1.12400 35.06700 29.32000
C  -1.78000 36.36400 31.39400
C  -1.59100 32.55800 31.66000
C  -2.33100 31.86300 32.83500
H  -1.81500 32.09200 34.23500
N  -0.50600 35.44700 26.26400
C  0.01000 36.16600 27.29900
C  1.05100 37.11700 26.72500
C  0.91000 37.01500 25.27800
C  -0.01300 35.90100 25.07100
C  1.79200 37.98600 27.66600
C  1.63200 37.82600 24.24300
O  1.46400 37.68200 23.03100
C  2.89000 38.58500 24.70600
N  -2.00300 33.66600 24.44900
C  -1.29500 34.34100 23.49200
C  -1.60000 33.81600 22.01600
C  -2.48600 32.54500 22.28900
C  -2.71400 32.66200 23.81800
C  -2.34500 34.80500 21.07200
C  -1.75300 31.24100 21.98400
C  -2.69000 30.07900 21.60600
N  -3.28500 32.36200 26.77100
C  -3.91500 31.62700 25.77400
C  -4.85400 30.74900 26.35900
C  -4.74800 30.93700 27.78400
C  -3.77000 31.94100 27.93300
C  -5.71000 29.78000 25.64100
C  -5.20100 30.50600 29.06900
O  -5.88000 29.53400 29.33500
C  -4.34900 31.49200 30.12700
C  -5.42900 32.24100 30.87800
O  -5.97200 33.31200 30.57200
O  -5.75000 31.53500 32.02000
C  -6.58600 32.36900 32.96600
H  0.31100 36.52300 29.37800
H  0.15800 35.77600 22.97700
H  -4.04700 31.14400 23.66500
H  -3.08100 34.11900 31.60400
H  -0.25500 34.76800 31.33500
H  -2.83200 36.26700 31.66300
H  -1.87400 37.08200 30.57900
H  -1.18800 36.87400 32.15400
H  -0.54700 32.70900 31.93700
H  -1.33600 31.83900 30.88100
H  -2.36000 30.79400 32.62600
H  -3.32800 32.29100 32.72300
H  1.47000 37.85500 28.69900
H  1.37100 38.98300 27.53600
H  2.88100 38.00900 27.63100
H  2.83900 39.36600 25.46500
H  3.27900 39.06400 23.80700
H  3.58900 37.80500 25.00800
H  -0.64900 33.52000 21.57300
H  -3.47200 32.61400 21.83000
H  -2.31700 35.73700 21.63800
H  -3.37800 34.52500 20.86600
H  -1.67000 34.99200 20.23700
H  -1.32100 30.82700 22.89500
H  -0.99000 31.34300 21.21200
H  -2.90200 29.44500 22.46700
H  -2.08200 29.47700 20.93100
H  -3.63600 30.30000 21.11100
H  -5.23000 29.64300 24.67100
H  -6.71100 30.19800 25.54100
H  -5.74600 28.85600 26.21900
H  -3.86700 30.81400 30.83100
H  -5.91600 32.85000 33.67900
H  -7.27800 31.70000 33.47600
H  -7.18800 33.16500 32.52700

