158

Mg 34.56900 2.37600 29.45200
C  32.72900 3.41700 32.18900
C  37.30300 1.86300 31.53300
C  36.37600 1.82700 26.62600
C  31.81500 3.17200 27.33600
N  34.94700 2.69600 31.50200
C  33.97600 3.00400 32.53100
C  34.49800 2.72500 33.95200
C  36.03300 2.72500 33.63700
C  36.13100 2.33300 32.11700
C  36.90600 3.91000 33.83000
C  33.90000 1.36000 34.53900
C  33.48000 1.41700 36.00500
H  34.31700 2.22700 36.95100
N  36.48000 1.84800 29.14500
C  37.48700 1.72700 30.09400
C  38.73900 1.36900 29.43700
C  38.51500 1.34900 28.01100
C  37.03700 1.67900 27.84700
C  39.94500 1.18800 30.17100
C  39.48000 0.98300 26.89700
O  39.06100 0.84600 25.76300
C  40.89400 0.56600 27.14600
N  34.11400 2.33000 27.30800
C  35.05000 2.18100 26.38200
C  34.47600 2.31900 24.96200
C  33.03700 2.73000 25.23200
C  32.93800 2.79200 26.69700
C  35.24700 3.43500 24.12200
C  31.96300 1.74100 24.61000
C  32.20400 0.23000 24.87800
N  32.71200 3.17600 29.66100
C  31.66400 3.29100 28.73300
C  30.46500 3.67600 29.43200
C  30.76100 3.67400 30.76500
C  32.18900 3.45800 30.85800
C  29.09600 4.04300 28.82500
C  30.21400 3.83800 32.06300
O  28.98400 3.83100 32.39800
C  31.50600 3.77000 33.05100
C  31.58200 5.04300 33.80700
O  32.13800 6.10300 33.53000
O  30.88100 4.80100 34.94900
C  30.61200 6.02100 35.78900
H  38.15700 1.60900 32.16400
H  36.95700 1.82000 25.70200
H  30.94300 3.50000 26.76600
H  34.30800 3.65400 34.49100
H  36.49000 1.86800 34.13300
H  37.09100 4.34800 32.84900
H  37.83700 3.69200 34.35300
H  36.36600 4.61300 34.46300
H  34.58900 0.52000 34.44800
H  33.00400 1.22700 33.93300
H  33.47000 0.37800 36.33600
H  32.46500 1.79800 35.89000
H  40.28800 0.20300 29.85600
H  39.89400 1.49400 31.21600
H  40.66700 1.89800 29.76600
H  41.40300 1.49000 27.42100
H  41.31700 0.24900 26.19300
H  41.11300 -0.25300 27.83000
H  34.50100 1.42500 24.34000
H  32.77200 3.69900 24.80900
H  35.71200 2.92300 23.27900
H  36.13600 3.82800 24.61600
H  34.66200 4.28700 23.77700
H  31.90700 1.95600 23.54200
H  30.93800 1.92000 24.93500
H  33.04000 0.12800 25.57000
H  32.49900 -0.22500 23.93200
H  31.28400 -0.21800 25.25400
H  29.27900 4.18600 27.76000
H  28.70500 4.92400 29.33400
H  28.55100 3.10000 28.85400
H  31.33000 2.97500 33.77600
H  30.51400 6.90000 35.15300
H  31.51400 6.13600 36.39000
H  29.66200 5.85900 36.29900
Mg 53.69000 24.32500 43.75700
C  50.91200 26.64400 43.17000
C  51.54100 21.81900 42.91100
C  56.37700 22.48200 43.28900
C  55.66500 27.07800 44.26400
N  51.58200 24.31300 42.88300
C  50.59900 25.27300 42.90100
C  49.19900 24.75700 42.69000
C  49.37000 23.26700 42.91300
C  50.94100 23.13200 43.05200
C  48.64000 22.82700 44.23100
C  48.62000 25.06900 41.27800
C  49.61200 24.83300 40.07000
H  48.95500 24.33000 38.77000
N  53.95900 22.40100 43.24800
C  52.94900 21.55300 42.90000
C  53.52800 20.23300 42.72500
C  54.97800 20.40100 42.81500
C  55.21200 21.80100 43.10400
C  52.63400 19.04100 42.46200
C  55.96100 19.38900 42.46400
O  55.60000 18.23200 42.19800
C  57.44700 19.63000 42.47700
N  55.70400 24.82400 43.54400
C  56.68100 23.85500 43.59400
C  58.14700 24.34900 43.86000
C  57.91900 25.82600 44.24100
C  56.32500 25.95700 43.94000
C  58.97900 23.48200 44.85300
C  58.70600 26.88300 43.41400
C  60.04600 27.19800 43.95500
N  53.42200 26.46800 43.85300
C  54.29900 27.39100 44.18700
C  53.63700 28.65500 44.44200
C  52.29200 28.40400 44.07600
C  52.22700 27.09200 43.66100
C  54.24600 29.94700 45.07100
C  50.91200 28.95800 44.00300
O  50.48600 30.07200 44.43900
C  50.04300 27.86600 43.33800
C  49.51200 28.40400 42.04900
O  50.13300 28.76600 41.07800
O  48.13100 28.38500 42.14600
C  47.44200 28.60200 40.88300
H  50.84100 20.98600 42.81400
H  57.29800 21.89900 43.34600
H  56.23500 27.90100 44.69900
H  48.66900 25.27000 43.49200
H  48.91500 22.67200 42.12100
H  49.29700 23.10100 45.05600
H  48.57000 21.75500 44.04700
H  47.69800 23.34300 44.42000
H  48.32500 26.11200 41.39300
H  47.62100 24.69900 41.04900
H  50.29200 24.01700 40.31500
H  50.15300 25.77200 39.95000
H  51.87300 19.26100 41.71400
H  52.15900 18.69100 43.37900
H  53.19200 18.19400 42.06400
H  57.88800 18.66400 42.23000
H  57.76000 19.80700 43.50600
H  57.70800 20.38200 41.73300
H  58.69600 24.33700 42.91800
H  58.01800 26.04200 45.30500
H  58.29400 22.83000 45.39500
H  59.65600 24.05100 45.48900
H  59.57000 22.80600 44.23500
H  58.18400 27.83200 43.29500
H  58.68100 26.44400 42.41600
H  60.28400 26.48900 44.74800
H  60.16000 28.25600 44.18900
H  60.74300 26.91400 43.16700
H  53.97900 29.94900 46.12800
H  53.74500 30.75200 44.53200
H  55.31100 30.15500 44.96900
H  49.14900 27.66000 43.92600
H  47.68500 29.61400 40.56000
H  46.36200 28.45500 40.90500
H  47.74600 27.93700 40.07400

