158

Mg 6.31100 54.43200 39.58600
C  6.00000 50.91100 39.51500
C  9.66700 53.99800 38.55900
C  6.46800 57.77400 39.17700
C  2.99400 54.77700 40.49600
N  7.64700 52.68200 38.87400
C  7.28600 51.33300 38.98400
C  8.44700 50.39800 38.80400
C  9.68500 51.40600 38.77900
C  8.96600 52.85100 38.76900
C  10.64700 51.29200 39.94600
C  8.34700 49.58200 37.53700
C  7.75000 50.31700 36.28500
H  6.26100 50.02000 35.85400
N  7.83600 55.69500 38.86200
C  9.18600 55.34100 38.48700
C  9.93400 56.55100 38.25100
C  9.02100 57.62900 38.43200
C  7.68800 57.08400 38.82700
C  11.47500 56.55900 37.90300
C  9.41600 59.15300 38.24700
O  10.56800 59.45400 38.02000
C  8.38700 60.23500 38.26500
N  4.76300 55.98100 39.43700
C  5.21200 57.31100 39.45400
C  4.07600 58.31700 39.79800
C  2.89900 57.32800 40.06100
C  3.57900 55.98300 40.01400
C  4.35800 59.34600 40.89100
C  1.64800 57.38000 39.03800
C  0.30000 57.83600 39.66600
N  4.78100 53.18800 39.86200
C  3.54000 53.45100 40.44600
C  2.87600 52.19800 40.80000
C  3.86800 51.22000 40.50600
C  4.91500 51.87600 39.88200
C  1.55400 51.85700 41.48800
C  4.11400 49.74400 40.62500
O  3.41200 48.76700 40.91400
C  5.50700 49.54500 40.05400
C  5.30400 48.44800 39.07400
O  4.70600 48.60600 38.02900
O  5.66100 47.25600 39.65600
C  5.05200 46.11200 38.92800
H  10.75600 54.03600 38.62400
H  6.62500 58.84200 39.33800
H  1.97300 54.92600 40.85500
H  8.35000 49.81400 39.71800
H  10.34200 51.23100 37.92700
H  10.73800 50.24500 40.23500
H  10.40000 51.94900 40.78000
H  11.61600 51.67400 39.62600
H  7.65100 48.80500 37.85500
H  9.31800 49.11600 37.36800
H  8.45900 49.98900 35.52500
H  7.92200 51.39000 36.36900
H  11.87500 55.54800 37.97900
H  12.02700 57.09600 38.67500
H  11.57000 56.87300 36.86400
H  7.59500 59.83100 37.63500
H  8.78700 61.16600 37.86300
H  8.08100 60.52200 39.27100
H  3.81600 58.90500 38.91800
H  2.52000 57.50400 41.06800
H  5.40300 59.19400 41.16100
H  3.60300 59.29500 41.67600
H  4.40500 60.34700 40.46300
H  1.45900 56.49300 38.43400
H  1.83900 58.20800 38.35500
H  -0.42700 57.02800 39.58400
H  -0.07800 58.76600 39.24200
H  0.39000 58.10400 40.71800
H  1.64500 51.62700 42.55000
H  1.02200 51.04600 40.99000
H  0.88400 52.71000 41.38500
H  6.16500 49.07200 40.78400
H  5.28900 46.31800 37.88400
H  3.97000 46.05100 39.04500
H  5.48300 45.16800 39.25900
Mg -5.27700 25.79700 26.41700
C  -3.94000 27.48200 29.26000
C  -7.30200 23.93100 28.46700
C  -5.95400 24.10300 23.70000
C  -2.96700 27.68000 24.34900
N  -5.59800 25.67300 28.62600
C  -4.96300 26.49600 29.61700
C  -5.54700 26.14900 31.05000
C  -6.54800 24.97700 30.74100
C  -6.47700 24.86900 29.22700
C  -6.31700 23.62300 31.50100
C  -6.12900 27.42800 31.66700
C  -5.72400 27.77000 33.08000
H  -5.55800 26.59700 33.94900
N  -6.46800 24.28400 26.11900
C  -7.22200 23.64800 27.08300
C  -7.95100 22.59300 26.46100
C  -7.51200 22.54200 25.11100
C  -6.57400 23.65600 24.90200
C  -8.80600 21.63500 27.26400
C  -7.73900 21.56000 23.99100
O  -7.18800 21.58300 22.92600
C  -8.64800 20.41300 24.18900
N  -4.76100 26.17000 24.24500
C  -5.20200 25.20700 23.33100
C  -4.59900 25.47300 21.89100
C  -3.74300 26.73300 22.17500
C  -3.85200 26.90700 23.67000
C  -3.64000 24.30300 21.38200
C  -4.31200 28.12800 21.60100
C  -3.51500 28.57300 20.43300
N  -3.80900 27.27700 26.69900
C  -3.01500 27.90800 25.76000
C  -2.16100 28.82900 26.46200
C  -2.47300 28.77300 27.89200
C  -3.46500 27.72900 27.96200
C  -1.17300 29.69500 25.83900
C  -2.18400 29.18800 29.18100
O  -1.39500 30.07400 29.53100
C  -3.06800 28.39200 30.12200
C  -2.14100 27.61500 30.98700
O  -1.33700 26.76000 30.63700
O  -2.39300 27.84200 32.32900
C  -1.56000 27.32300 33.38900
H  -7.91900 23.32800 29.13500
H  -6.25200 23.52000 22.82600
H  -2.14300 28.16700 23.82300
H  -4.71000 25.65600 31.54500
H  -7.55200 25.34600 30.94800
H  -6.15400 22.90400 30.69800
H  -7.17200 23.33100 32.11100
H  -5.55700 23.61800 32.28300
H  -7.21800 27.42000 31.69100
H  -5.87900 28.26200 31.01200
H  -6.51500 28.45800 33.38000
H  -4.88600 28.46500 33.13500
H  -8.32800 21.11100 28.09200
H  -9.30700 20.88900 26.64700
H  -9.54400 22.26500 27.75900
H  -8.53200 19.91300 23.22700
H  -9.66500 20.78400 24.31700
H  -8.32500 19.69200 24.94000
H  -5.38400 25.68300 21.16500
H  -2.71000 26.57800 21.86500
H  -2.71400 24.57800 20.87600
H  -4.31300 23.78300 20.70100
H  -3.40500 23.65200 22.22400
H  -4.17000 28.86100 22.39500
H  -5.35300 28.09000 21.28100
H  -4.01400 28.35300 19.49000
H  -2.54400 28.07800 20.41800
H  -3.50600 29.64900 20.60200
H  -0.51700 29.11700 25.18900
H  -0.62300 30.23400 26.61000
H  -1.74000 30.40800 25.24100
H  -3.58500 29.11000 30.75900
H  -0.54500 27.38900 32.99500
H  -1.84600 26.27700 33.49700
H  -1.59100 27.91900 34.30200

