158

Mg 50.11400 46.43600 42.44400
C  46.59700 46.69300 41.31700
C  50.17900 43.28500 41.00000
C  53.39400 46.48800 42.49000
C  49.81500 49.76600 43.37900
N  48.57300 45.11300 41.45600
C  47.27700 45.46500 41.07300
C  46.68300 44.27300 40.27300
C  47.67800 43.11900 40.45100
C  48.92200 43.89500 41.02500
C  47.13900 41.92500 41.30100
C  46.40300 44.79400 38.88000
C  44.93900 44.49800 38.32200
H  44.85600 43.65400 37.14400
N  51.59900 45.07100 41.79500
C  51.38100 43.86400 41.24700
C  52.63200 43.13900 41.21000
C  53.63100 44.06600 41.49500
C  52.89800 45.27400 41.95100
C  52.77400 41.62000 40.84800
C  55.08700 43.77200 41.50400
O  55.40700 42.58400 41.50600
C  56.13700 44.77200 41.64900
N  51.46200 47.98500 42.80500
C  52.78800 47.70300 42.85700
C  53.49400 48.96400 43.32100
C  52.33500 49.93100 43.84000
C  51.07800 49.20300 43.26100
C  54.49000 48.76200 44.48600
C  52.57300 51.41800 43.41400
C  52.01400 52.54200 44.30400
N  48.48500 47.94900 42.60400
C  48.53300 49.26800 43.05900
C  47.22200 49.92900 42.87400
C  46.47200 48.90700 42.20700
C  47.23900 47.73900 42.11300
C  46.80600 51.33900 43.16300
C  45.10900 48.60400 41.58500
O  44.16000 49.36500 41.34500
C  45.21500 47.16300 41.01100
C  44.24600 46.28100 41.80600
O  44.50000 45.66100 42.80600
O  42.99800 46.34000 41.26400
C  42.03600 45.35100 41.78500
H  50.06300 42.28100 40.58500
H  54.47200 46.55200 42.65400
H  49.88600 50.82500 43.63900
H  45.74100 43.89800 40.67500
H  47.81100 42.75400 39.43200
H  47.04500 41.00100 40.73000
H  46.10000 42.06600 41.59900
H  47.75200 41.86500 42.20000
H  47.11000 44.44300 38.12800
H  46.55400 45.87300 38.83600
H  44.45400 45.47300 38.26400
H  44.31700 44.09900 39.12400
H  53.39300 41.75400 39.96100
H  51.91700 41.05200 40.48600
H  53.34800 41.04300 41.57300
H  55.66000 45.67900 41.27900
H  56.88200 44.45100 40.92000
H  56.53900 44.79900 42.66200
H  54.03200 49.44500 42.50400
H  52.14800 49.89800 44.91400
H  54.59400 49.67700 45.06900
H  55.43000 48.31700 44.16100
H  54.00600 47.94100 45.01600
H  52.04500 51.55200 42.47000
H  53.63000 51.64000 43.26400
H  51.38400 53.20800 43.71400
H  52.76500 53.16600 44.78700
H  51.38400 52.15800 45.10700
H  46.03100 51.67300 42.47300
H  47.66700 52.00800 43.19100
H  46.38600 51.41600 44.16500
H  44.87100 47.26900 39.98200
H  41.75700 44.70400 40.95300
H  41.05700 45.71500 42.09800
H  42.51500 44.59800 42.41100
Mg 9.98300 47.44800 25.33400
C  7.73100 47.82900 27.94600
C  12.25800 49.07800 27.17400
C  11.89200 47.36400 22.72600
C  7.11700 46.69400 23.26100
N  10.01300 48.18400 27.32900
C  9.00800 48.14700 28.30700
C  9.48500 48.56900 29.64400
C  10.78700 49.36900 29.30000
C  11.02100 48.82500 27.87600
C  10.78200 50.89600 29.53100
C  9.76900 47.31500 30.62300
C  9.89500 47.70200 32.09000
H  9.71300 46.58000 33.06800
N  11.90000 48.03400 24.95000
C  12.64200 48.73000 25.81900
C  14.01500 48.93600 25.22400
C  13.97900 48.39000 23.91900
C  12.56800 47.90500 23.82400
C  15.17200 49.50800 25.98300
C  15.01500 48.35000 22.83800
O  14.80700 47.90500 21.66800
C  16.37000 48.74900 23.23300
N  9.50000 47.16000 23.31800
C  10.56000 46.96900 22.42600
C  10.09600 46.27600 21.07600
C  8.57700 45.95000 21.37700
C  8.36500 46.61500 22.73100
C  10.27700 47.14700 19.77300
C  8.31500 44.42800 21.40900
C  8.83500 43.53800 22.52300
N  7.89700 47.23100 25.52300
C  6.84900 46.90900 24.66800
C  5.56700 46.97800 25.25900
C  5.90300 47.30300 26.56300
C  7.27500 47.43900 26.69200
C  4.12800 46.85400 24.61900
C  5.25900 47.48600 27.82300
O  4.08100 47.16800 28.09900
C  6.44300 47.77300 28.82000
C  6.34800 46.73200 29.92500
O  6.50600 45.49500 29.74400
O  6.16400 47.41000 31.13700
C  6.05300 46.58200 32.28800
H  12.98000 49.59200 27.81200
H  12.45100 47.26600 21.79300
H  6.36000 46.32600 22.56500
H  8.75900 49.18100 30.18000
H  11.59400 49.01800 29.94300
H  11.58800 51.18800 30.20300
H  9.80700 51.25000 29.86700
H  11.02200 51.47300 28.63800
H  10.71000 46.91300 30.24700
H  9.10500 46.46900 30.44800
H  9.15700 48.48300 32.27400
H  10.86900 48.12000 32.34500
H  14.91000 49.48100 27.04000
H  15.47200 50.51500 25.69200
H  16.09600 48.93000 25.99800
H  16.97400 48.69200 22.32700
H  16.82600 48.04200 23.92500
H  16.20600 49.77200 23.57200
H  10.66300 45.37500 20.84000
H  7.98400 46.31200 20.53700
H  11.09600 46.73500 19.18300
H  10.53900 48.15000 20.10900
H  9.43200 47.20500 19.08700
H  8.71700 44.00900 20.48700
H  7.24200 44.27600 21.29200
H  9.53500 42.81600 22.10100
H  8.02600 42.86300 22.80100
H  9.20900 44.20400 23.30000
H  3.90500 45.97700 24.01200
H  4.14500 47.70200 23.93500
H  3.40700 47.09300 25.40100
H  6.21800 48.71300 29.32400
H  5.29800 45.83100 32.05600
H  5.86800 47.11300 33.22200
H  7.06600 46.18500 32.35000

