158

Mg 1.70500 -2.13800 43.76100
C  5.26800 -1.44800 43.92600
C  1.37800 0.77900 42.06100
C  -1.28900 -3.17600 43.08800
C  2.47800 -5.14600 45.42800
N  3.25500 -0.51400 43.05500
C  4.59000 -0.46800 43.19500
C  5.13500 0.73800 42.34700
C  3.83100 1.65000 42.18500
C  2.76500 0.54000 42.28300
C  3.62200 2.79900 43.27800
C  5.92400 0.37700 41.07900
C  5.24000 -0.48200 39.98700
H  4.92800 0.19900 38.70700
N  0.17400 -1.24100 42.88700
C  0.20700 -0.06200 42.23100
C  -1.05800 0.24300 41.76000
C  -1.92600 -0.86000 41.99600
C  -1.00600 -1.82400 42.64400
C  -1.41600 1.64200 41.18100
C  -3.40500 -1.05100 41.75600
O  -4.08600 -0.16800 41.26900
C  -4.22300 -2.20600 42.13800
N  0.77800 -3.90300 44.19100
C  -0.50100 -4.12700 43.79300
C  -1.02200 -5.49000 44.18600
C  0.13700 -6.08600 45.04200
C  1.22400 -5.00400 44.80600
C  -2.36800 -5.49300 44.88300
C  0.50500 -7.55400 44.55200
C  -0.00300 -8.68900 45.48200
N  3.47200 -3.16300 44.44900
C  3.61400 -4.35800 45.21800
C  5.01600 -4.65300 45.51800
C  5.64500 -3.48500 44.99800
C  4.68300 -2.61400 44.43000
C  5.56700 -5.83000 46.30600
C  6.91100 -2.82500 44.92000
O  8.00400 -3.25100 45.36000
C  6.79000 -1.50700 44.25600
C  7.22600 -0.35900 45.12100
O  6.58300 0.33300 45.91400
O  8.43800 0.01100 44.65800
C  8.96800 1.39500 44.79900
H  1.17100 1.75600 41.62100
H  -2.27200 -3.53800 42.78000
H  2.60600 -6.05300 46.02200
H  5.95200 1.17400 42.92200
H  3.90200 2.10600 41.19700
H  3.25000 3.74600 42.88700
H  4.42700 3.00400 43.98400
H  2.85300 2.35900 43.91300
H  6.83500 -0.16100 41.34300
H  6.21700 1.35400 40.69500
H  4.24100 -0.63700 40.39400
H  5.84800 -1.38300 39.90200
H  -0.78200 1.84900 40.31900
H  -1.41900 2.32000 42.03400
H  -2.42400 1.59500 40.77000
H  -5.29500 -2.06900 41.99500
H  -4.13300 -2.46600 43.19200
H  -3.77700 -2.93000 41.45600
H  -1.16600 -6.15600 43.33600
H  -0.02700 -5.98100 46.11400
H  -2.65600 -4.44600 44.97400
H  -2.23500 -6.02200 45.82800
H  -3.15700 -5.89900 44.25000
H  1.57900 -7.71600 44.46300
H  0.17000 -7.95800 43.59700
H  -0.73600 -8.31500 46.19700
H  0.90300 -9.05200 45.96800
H  -0.45000 -9.48700 44.88900
H  5.73500 -6.70100 45.67400
H  4.98400 -6.07500 47.19400
H  6.53100 -5.55400 46.73600
H  7.38300 -1.51600 43.34100
H  8.35800 1.88700 45.55600
H  8.80600 1.87900 43.83600
H  10.03300 1.48200 45.01500
Mg 42.66400 42.00700 26.13800
C  42.02800 44.29200 28.83100
C  44.25500 40.07400 28.38100
C  43.54900 40.16100 23.51400
C  41.44000 44.54000 23.95000
N  43.14700 42.28900 28.33700
C  42.72100 43.13600 29.22800
C  43.01800 42.74100 30.67800
C  43.85200 41.41500 30.51400
C  43.78400 41.25700 29.00700
C  45.40700 41.42700 31.07400
C  41.66900 42.54800 31.52400
C  41.55300 43.47000 32.76200
H  40.98800 42.79400 34.00000
N  43.64500 40.23600 26.00900
C  44.11700 39.53500 27.05700
C  44.61900 38.23300 26.55700
C  44.36000 38.25100 25.17900
C  43.76700 39.54800 24.80900
C  45.18900 37.14800 27.46300
C  44.58700 37.12000 24.18100
O  44.16900 37.18800 23.03400
C  45.27500 35.83100 24.65200
N  42.64200 42.35800 24.03400
C  42.94800 41.39300 23.17500
C  42.71200 41.71900 21.69600
C  41.84500 43.02500 21.86000
C  41.96100 43.31900 23.37700
C  44.02600 41.83000 20.86700
C  40.32600 42.77500 21.54400
C  39.64800 41.61300 22.27100
N  41.84900 43.98300 26.30400
C  41.42900 44.88000 25.30000
C  41.03000 46.15400 25.91800
C  41.14900 45.91300 27.31300
C  41.69000 44.62900 27.48900
C  40.68000 47.49500 25.22700
C  40.97100 46.50800 28.61600
O  40.58400 47.61500 28.95400
C  41.55000 45.49000 29.69200
C  42.59300 46.15600 30.45200
O  43.75200 46.14300 30.18300
O  42.08000 46.74200 31.55700
C  42.95800 47.27100 32.53800
H  44.85900 39.39200 28.98300
H  43.98800 39.51800 22.74800
H  40.98200 45.23700 23.24400
H  43.63700 43.50400 31.15000
H  43.44500 40.51000 30.96400
H  46.12600 41.19700 30.28800
H  45.56700 40.71200 31.88100
H  45.62400 42.40100 31.51300
H  41.63100 41.55200 31.96600
H  40.81000 42.72000 30.87500
H  40.89100 44.30100 32.52100
H  42.54500 43.90800 32.86500
H  46.27200 37.04100 27.52000
H  44.80500 36.14100 27.30100
H  44.66900 37.37700 28.39300
H  45.76600 35.46900 23.74900
H  44.59600 35.16700 25.18800
H  46.12900 35.88800 25.32600
H  42.15500 40.92400 21.20100
H  42.28000 43.79300 21.22100
H  44.18100 42.84600 20.50300
H  43.93000 41.16200 20.01100
H  44.91400 41.47200 21.38700
H  40.35200 42.38500 20.52700
H  39.81900 43.73500 21.64100
H  40.31600 41.21300 23.03400
H  39.33600 40.86400 21.54400
H  38.74700 42.04100 22.71000
H  40.04200 47.46600 24.34300
H  41.54400 48.12800 25.02200
H  40.14200 48.12800 25.93300
H  40.69900 45.07900 30.23700
H  43.32400 46.54900 33.26800
H  42.43600 48.07200 33.06100
H  43.74200 47.89400 32.10800

