158

Mg 35.42300 49.99400 25.73800
C  35.71500 47.97800 28.50400
C  33.77200 52.38800 27.67000
C  34.97300 51.82400 22.90000
C  36.70100 47.39800 23.80300
N  34.73000 50.08500 27.79500
C  35.06000 49.22500 28.74900
C  34.69900 49.78600 30.14700
C  33.94000 51.09600 29.87000
C  34.11700 51.22900 28.32900
C  32.44200 51.10200 30.28100
C  35.88800 50.02500 31.14000
C  35.51800 49.73300 32.62900
H  34.07400 49.71100 33.06400
N  34.50300 51.91600 25.33600
C  33.90300 52.71800 26.28400
C  33.59900 53.98100 25.60200
C  33.81000 53.79200 24.18400
C  34.44200 52.47800 24.07600
C  33.04900 55.16400 26.38300
C  33.60800 54.76800 23.07900
O  34.00400 54.60300 21.91700
C  32.73400 55.95500 23.25800
N  35.68900 49.59900 23.64600
C  35.51000 50.58700 22.70700
C  36.11900 50.10100 21.40500
C  36.76500 48.76200 21.61100
C  36.34500 48.55900 23.04200
C  35.20600 50.03100 20.14000
C  38.32700 48.77900 21.42600
C  39.12600 49.49900 22.40500
N  35.87400 48.04700 26.00400
C  36.33600 47.06600 25.09000
C  36.51300 45.85800 25.74200
C  36.30200 46.13900 27.11900
C  35.93000 47.48700 27.20800
C  37.22900 44.71600 25.14800
C  36.43600 45.62200 28.45800
O  36.76800 44.52500 28.85900
C  36.05600 46.78000 29.43200
C  34.96800 46.38100 30.26400
O  33.77800 46.54500 30.02600
O  35.47700 45.87900 31.45200
C  34.52900 45.50000 32.48900
H  33.32500 53.19200 28.25700
H  35.05100 52.41600 21.98500
H  37.21100 46.69800 23.13800
H  33.96200 49.05000 30.47000
H  34.44600 51.96900 30.28000
H  31.76600 50.97900 29.43400
H  32.27700 52.11800 30.63900
H  32.24300 50.43100 31.11600
H  36.35300 51.00600 31.04000
H  36.60500 49.32000 30.72000
H  36.07100 50.40800 33.28200
H  35.87400 48.72400 32.83800
H  33.57700 55.19500 27.33600
H  31.96400 55.14000 26.49300
H  33.42400 56.00700 25.80200
H  32.08200 55.86500 24.12600
H  32.04300 56.07200 22.42300
H  33.44000 56.77600 23.38400
H  36.78300 50.95000 21.24400
H  36.43100 47.93200 20.98900
H  34.69200 49.07000 20.11800
H  35.84100 50.11400 19.25700
H  34.47300 50.83700 20.11000
H  38.53600 49.14000 20.41900
H  38.69200 47.75700 21.32500
H  39.35500 48.74900 23.16200
H  38.73400 50.39600 22.88300
H  40.14000 49.66100 22.03800
H  38.06300 45.13200 24.58200
H  36.69500 44.05900 24.46200
H  37.66500 44.09300 25.92900
H  36.85300 46.95100 30.15600
H  34.85700 44.62400 33.04800
H  33.53300 45.23400 32.13600
H  34.46200 46.25400 33.27300
Mg -6.69500 24.81800 26.67200
C  -4.40200 26.12500 28.92200
C  -7.57300 22.51600 29.11800
C  -8.41900 23.18500 24.31300
C  -5.11800 26.77800 24.14800
N  -6.01300 24.34000 28.61700
C  -5.23700 25.17300 29.43000
C  -5.56400 25.00200 30.89100
C  -6.21800 23.57400 30.87100
C  -6.57200 23.44000 29.41600
C  -5.21300 22.42600 31.23000
C  -6.34100 26.18200 31.56700
C  -5.87900 26.73400 32.92800
H  -5.90000 25.77900 34.10500
N  -7.91000 23.22000 26.72600
C  -8.23200 22.47800 27.85400
C  -9.29400 21.57400 27.58100
C  -9.60200 21.79600 26.18500
C  -8.60300 22.74500 25.66900
C  -9.92900 20.54400 28.46600
C  -10.75800 21.25100 25.29500
O  -10.99000 21.55200 24.13900
C  -11.70900 20.18800 25.91600
N  -6.82500 24.98500 24.59500
C  -7.59800 24.22700 23.79300
C  -7.53900 24.63500 22.25100
C  -6.65600 25.93800 22.33700
C  -6.21000 25.92900 23.78800
C  -7.05300 23.49600 21.25900
C  -7.37900 27.19300 22.01800
C  -7.69600 27.40800 20.44100
N  -5.06100 26.15600 26.52600
C  -4.55100 26.87000 25.43100
C  -3.49000 27.75700 25.93700
C  -3.43600 27.49900 27.28600
C  -4.42300 26.54100 27.56600
C  -2.64500 28.78400 25.24700
C  -2.81200 27.95700 28.44500
O  -1.90900 28.71000 28.63300
C  -3.33800 27.05200 29.56400
C  -2.18400 26.34200 30.15200
O  -1.68600 25.38000 29.60500
O  -2.02300 26.73300 31.48600
C  -1.09300 25.87400 32.23800
H  -7.98000 21.88000 29.90800
H  -9.00400 22.81000 23.47000
H  -4.67100 27.48900 23.45000
H  -4.61400 24.96600 31.42400
H  -7.06500 23.50200 31.55300
H  -4.25200 22.74400 31.63600
H  -5.03500 21.77600 30.37300
H  -5.80000 21.82600 31.92400
H  -7.37900 25.86200 31.64900
H  -6.20600 27.11100 31.01300
H  -6.41700 27.62900 33.23800
H  -4.88300 27.16200 32.81300
H  -10.97300 20.78500 28.66600
H  -9.59700 20.58300 29.50400
H  -9.72000 19.55000 28.07100
H  -11.16300 19.32000 26.28700
H  -12.46400 19.73300 25.27500
H  -12.22300 20.65100 26.75800
H  -8.51000 25.03900 21.96600
H  -5.79100 25.80000 21.68900
H  -7.10800 22.53700 21.77400
H  -5.98300 23.66300 21.13900
H  -7.73000 23.41000 20.40900
H  -6.89500 28.03900 22.50600
H  -8.32100 27.20800 22.56600
H  -7.46200 26.55700 19.80200
H  -7.10700 28.22200 20.01800
H  -8.73100 27.70600 20.27300
H  -3.23200 29.28500 24.47700
H  -1.74100 28.34300 24.82600
H  -2.31400 29.56900 25.92700
H  -3.76500 27.62900 30.38400
H  -0.20600 25.66100 31.64100
H  -1.61800 25.00300 32.63000
H  -0.71100 26.34300 33.14400

