158

Mg 0.68200 -0.57500 44.02100
C  4.12100 -0.44500 43.24300
C  0.23600 2.45800 42.31800
C  -2.50400 -1.25200 43.75800
C  1.33400 -3.84800 45.15500
N  1.96700 0.80000 43.02700
C  3.31900 0.70400 42.86000
C  3.87600 1.91100 42.02800
C  2.70000 2.94400 42.32000
C  1.55900 2.04500 42.62400
C  2.95300 4.10600 43.38600
C  4.10900 1.53400 40.50700
C  5.51900 1.85200 40.02500
H  5.59500 1.95200 38.46200
N  -0.92500 0.53600 43.31600
C  -0.93000 1.70900 42.58000
C  -2.27600 2.08400 42.29100
C  -3.12800 0.95500 42.59700
C  -2.11700 -0.00100 43.24100
C  -2.69700 3.33400 41.68600
C  -4.58900 0.86200 42.22100
O  -5.04200 1.68900 41.49300
C  -5.46800 -0.28600 42.55900
N  -0.48300 -2.43700 44.26000
C  -1.80500 -2.35700 44.21800
C  -2.37500 -3.67600 44.63200
C  -1.15300 -4.41500 45.39900
C  0.01900 -3.57200 44.84100
C  -3.66600 -3.57100 45.45000
C  -1.08300 -6.00100 44.93600
C  -0.75200 -6.92800 46.10300
N  2.37000 -1.89100 44.25800
C  2.47900 -3.11400 44.81300
C  3.83300 -3.54600 44.79200
C  4.54800 -2.51800 44.20600
C  3.61100 -1.54900 43.90200
C  4.42900 -4.95200 45.14000
C  5.86100 -2.10000 43.78900
O  7.00700 -2.55000 43.98500
C  5.60000 -0.64500 43.16100
C  6.36400 0.41500 43.80300
O  6.05200 1.03600 44.80400
O  7.53900 0.56700 43.21100
C  8.44400 1.64100 43.66900
H  0.09300 3.50800 42.05200
H  -3.56400 -1.47900 43.89100
H  1.52900 -4.81600 45.62200
H  4.73500 2.43900 42.44200
H  2.48200 3.47900 41.39600
H  3.22100 5.08000 42.97600
H  3.90100 3.85500 43.86100
H  2.18900 4.22900 44.15400
H  3.49600 2.10400 39.80900
H  3.91900 0.48300 40.28700
H  6.32000 1.21100 40.39400
H  5.83000 2.85800 40.30700
H  -2.87300 3.29900 40.61100
H  -1.97300 4.11700 41.91000
H  -3.57600 3.72700 42.19700
H  -6.47900 -0.05600 42.22300
H  -5.54800 -0.35400 43.64400
H  -5.13700 -1.23100 42.13000
H  -2.57600 -4.11500 43.65500
H  -1.17600 -4.28300 46.48100
H  -3.68300 -2.71000 46.11900
H  -3.81400 -4.44600 46.08400
H  -4.54500 -3.53000 44.80700
H  -0.18300 -6.14600 44.33900
H  -1.99800 -6.35100 44.45700
H  -1.64700 -7.40900 46.49700
H  -0.43800 -6.42400 47.01700
H  -0.05000 -7.71900 45.84000
H  3.52900 -5.56500 45.08700
H  4.77600 -5.03000 46.17000
H  5.33500 -5.17800 44.57800
H  5.84200 -0.67500 42.09900
H  7.87400 2.48400 44.06000
H  9.14400 1.89400 42.87300
H  9.02900 1.34800 44.54100
Mg 40.43800 8.24800 29.01000
C  42.19000 9.71800 31.73600
C  38.05300 7.16500 31.06100
C  39.09700 6.64200 26.43400
C  43.18400 9.14300 26.90200
N  40.17900 8.41300 31.21500
C  40.91500 9.11700 32.10600
C  40.25000 9.08900 33.52000
C  39.06500 8.10100 33.22900
C  39.07100 7.84200 31.75000
C  39.10400 6.79200 34.07900
C  39.84800 10.51700 34.09200
C  39.61600 10.45100 35.62700
H  40.83200 10.53700 36.56500
N  38.73500 7.26200 28.75000
C  37.82000 6.92000 29.69300
C  36.72100 6.19800 29.11000
C  36.93200 6.18700 27.71200
C  38.31100 6.60000 27.63100
C  35.55700 5.57300 29.94800
C  36.02800 5.61300 26.63600
O  36.32700 5.51700 25.47500
C  34.70100 5.11100 27.08300
N  41.16000 7.76100 26.97700
C  40.34500 7.11500 26.08300
C  40.84100 7.16300 24.64400
C  42.02200 8.22400 24.86300
C  42.15100 8.42100 26.37600
C  41.36700 5.85600 24.01200
C  41.88500 9.56900 24.09000
C  40.87700 10.71300 24.42000
N  42.36000 9.05500 29.20600
C  43.31600 9.35800 28.22400
C  44.43300 9.96400 28.87800
C  44.05900 10.19900 30.17500
C  42.75000 9.61100 30.39500
C  45.70500 10.38600 28.18700
C  44.50800 10.79400 31.46400
O  45.50400 11.42400 31.78500
C  43.24600 10.45000 32.50300
C  43.78900 9.70300 33.74900
O  43.69300 8.51800 33.97900
O  44.43500 10.55500 34.59200
C  45.28600 10.06700 35.67800
H  37.23700 6.83200 31.70500
H  38.60300 6.20800 25.56200
H  44.14400 9.33600 26.41900
H  40.89100 8.62700 34.27200
H  38.13300 8.50000 33.62900
H  38.29500 6.50000 34.74900
H  39.99300 6.86500 34.70500
H  39.20600 5.96400 33.37700
H  38.85100 10.76000 33.72300
H  40.47600 11.38100 33.87300
H  39.11400 9.51900 35.88700
H  38.91100 11.27400 35.74200
H  35.70300 5.73700 31.01600
H  35.58800 4.50300 29.74000
H  34.61900 6.06900 29.70100
H  34.80100 4.19000 27.65700
H  34.11100 4.77700 26.22900
H  34.23100 5.97800 27.54600
H  40.01200 7.58300 24.07400
H  42.98900 7.89600 24.48100
H  42.24400 6.08200 23.40600
H  40.58400 5.29600 23.50000
H  41.67900 5.30600 24.90000
H  41.86600 9.23900 23.05100
H  42.90200 9.94700 23.99400
H  40.49000 10.53300 25.42300
H  40.08000 10.91600 23.70600
H  41.39300 11.67300 24.40400
H  46.32600 11.02000 28.82000
H  45.39200 10.98500 27.33100
H  46.39700 9.62600 27.82400
H  42.67000 11.37100 32.58800
H  45.98300 10.81600 36.05300
H  45.83400 9.24700 35.21400
H  44.59700 9.70200 36.43900

