158

Mg 24.56000 -4.64900 45.73800
C  26.81900 -2.56600 44.32200
C  22.10100 -3.66900 43.62700
C  22.74800 -7.45700 46.55300
C  27.24900 -6.08900 47.74700
N  24.56600 -3.44000 43.96800
C  25.55000 -2.54300 43.70100
C  25.08600 -1.57500 42.61400
C  23.51800 -1.79300 42.52200
C  23.37900 -3.05900 43.43300
C  22.59900 -0.57400 42.81600
C  25.77300 -1.73400 41.18900
C  25.67600 -0.43700 40.33700
H  25.08700 -0.55300 38.89100
N  22.64000 -5.40300 45.24200
C  21.76200 -4.83800 44.39400
C  20.55700 -5.65000 44.29200
C  20.74300 -6.71100 45.20400
C  22.06000 -6.56300 45.70100
C  19.32100 -5.28300 43.41300
C  19.75200 -7.83500 45.55900
O  18.64900 -7.74200 45.01400
C  19.92500 -9.03900 46.44100
N  24.95700 -6.51600 46.89400
C  24.05500 -7.50700 46.99300
C  24.71800 -8.79300 47.41100
C  26.04700 -8.28900 48.11200
C  26.08800 -6.87600 47.58600
C  23.86000 -9.64900 48.34400
C  27.29200 -9.20100 47.96200
C  28.18600 -9.41100 49.19400
N  26.63700 -4.31000 46.15500
C  27.56300 -4.93800 46.96800
C  28.88100 -4.15100 46.90500
C  28.59700 -3.15800 45.85300
C  27.25000 -3.39800 45.36000
C  30.08100 -4.44600 47.80700
C  29.04100 -1.99800 45.08900
O  30.03600 -1.34000 45.18700
C  27.98900 -1.63900 44.06000
C  27.62500 -0.18800 44.25900
O  27.28000 0.26100 45.31700
O  27.64400 0.44200 43.08000
C  27.45500 1.88600 43.16500
H  21.27700 -3.09100 43.20400
H  22.27800 -8.43500 46.67200
H  28.04300 -6.50800 48.36800
H  25.16700 -0.59400 43.08100
H  23.16500 -2.00500 41.51300
H  21.74700 -0.73900 42.15700
H  23.13000 0.26400 42.36200
H  22.39800 -0.46100 43.88100
H  25.17100 -2.51500 40.72400
H  26.79300 -2.12000 41.21200
H  26.69000 -0.11800 40.09800
H  25.26300 0.38500 40.92300
H  18.34200 -5.31000 43.89300
H  19.15800 -5.92400 42.54600
H  19.30400 -4.24200 43.09200
H  19.96900 -8.76900 47.49600
H  20.73200 -9.66800 46.06300
H  19.01100 -9.63000 46.49900
H  24.94500 -9.47600 46.59200
H  25.81700 -8.16400 49.17000
H  24.35200 -9.86600 49.29300
H  23.58400 -10.55300 47.80200
H  22.99900 -9.04400 48.63000
H  27.84300 -8.81600 47.10400
H  26.96100 -10.19700 47.66600
H  29.17400 -9.35400 48.73700
H  27.98200 -10.37500 49.65900
H  28.12600 -8.65200 49.97500
H  30.74100 -5.06700 47.20100
H  29.90400 -4.94400 48.76000
H  30.65600 -3.52400 47.89700
H  28.41200 -1.73300 43.06000
H  27.87900 2.21900 44.11200
H  26.37700 1.99600 43.04700
H  27.80900 2.42400 42.28600
Mg 28.16000 56.41500 40.28300
C  25.97300 53.84300 39.60200
C  30.91300 54.43300 39.46600
C  30.16400 59.09100 40.42100
C  25.29500 58.49400 40.50800
N  28.33200 54.45000 39.55300
C  27.30400 53.57200 39.32700
C  27.80700 52.26300 38.67200
C  29.37400 52.34700 38.93300
C  29.58300 53.88100 39.39700
C  29.93000 51.32000 39.90600
C  27.46700 52.12500 37.14800
C  26.89800 53.36600 36.39000
H  26.76600 53.21700 34.82900
N  30.26200 56.73000 40.09200
C  31.21200 55.81200 39.77200
C  32.51700 56.45400 39.83200
C  32.38600 57.79000 40.21800
C  30.89500 57.96800 40.31700
C  33.74500 55.64300 39.60500
C  33.54100 58.74200 40.41000
O  34.74000 58.50000 40.28900
C  33.21100 60.04500 40.94800
N  27.75800 58.51600 40.34200
C  28.76600 59.40300 40.52000
C  28.21400 60.83000 40.87600
C  26.70300 60.66300 40.64200
C  26.54600 59.14700 40.56000
C  28.69200 61.30500 42.29500
C  26.10900 61.53100 39.55600
C  26.14400 63.05300 39.83900
N  26.06500 56.23200 40.16400
C  25.04000 57.17000 40.29500
C  23.72300 56.52200 40.13800
C  23.99900 55.19100 39.86100
C  25.45800 55.07800 39.89800
C  22.36900 57.17500 40.06800
C  23.47300 53.85100 39.66300
O  22.31400 53.41700 39.57900
C  24.78100 52.92400 39.50200
C  24.74900 51.83800 40.57300
O  24.13300 50.81300 40.45300
O  25.45400 52.18800 41.68200
C  25.37300 51.32300 42.87500
H  31.78700 53.81000 39.26800
H  30.71500 60.02600 40.53500
H  24.45000 59.16600 40.67100
H  27.38900 51.39200 39.17500
H  29.80700 52.19900 37.94400
H  29.09100 50.83600 40.40700
H  30.46600 51.78400 40.73400
H  30.45500 50.52400 39.37700
H  26.66200 51.39000 37.16800
H  28.36200 51.67100 36.72300
H  27.45000 54.25300 36.70000
H  25.88600 53.51500 36.76600
H  33.57100 55.06900 38.69500
H  33.68600 54.96300 40.45500
H  34.67000 56.21100 39.50600
H  32.62000 60.03900 41.86400
H  32.64000 60.52800 40.15500
H  34.06400 60.71100 41.07400
H  28.62200 61.47000 40.09400
H  26.11700 60.95400 41.51300
H  29.76900 61.42800 42.41300
H  28.41200 60.59200 43.07100
H  28.18200 62.23600 42.54000
H  25.16800 61.11800 39.19400
H  26.72400 61.28700 38.69000
H  26.60400 63.32500 40.78800
H  25.11900 63.42600 39.84000
H  26.74000 63.61500 39.12000
H  21.61400 56.66900 39.46500
H  22.54100 58.13800 39.58700
H  21.93900 57.23200 41.06800
H  24.95800 52.44000 38.54100
H  25.99000 50.47000 42.59200
H  24.41100 50.86100 43.09700
H  25.64200 51.82300 43.80500

