158

Mg 40.97600 7.93400 29.61500
C  42.93000 9.32800 32.19500
C  38.74300 6.70200 31.91200
C  39.26200 6.57800 27.09900
C  43.48700 8.88900 27.43600
N  40.86800 8.12500 31.71300
C  41.73400 8.78200 32.51900
C  41.19700 8.68600 34.04700
C  39.80800 7.98100 33.92700
C  39.79900 7.51900 32.48400
C  39.63500 6.88300 34.94400
C  41.06700 10.12500 34.72800
C  40.33100 10.15700 36.09200
H  41.18100 10.36600 37.40000
N  39.22100 6.85400 29.53700
C  38.48600 6.41300 30.56700
C  37.34200 5.64400 30.09300
C  37.39800 5.67900 28.67300
C  38.68000 6.39600 28.33400
C  36.40100 4.86200 30.94900
C  36.42700 5.30200 27.60400
O  36.68600 5.32600 26.44200
C  34.98500 5.08200 28.07000
N  41.41300 7.66800 27.54100
C  40.40200 7.25500 26.72400
C  40.91500 7.34600 25.26000
C  42.11700 8.32000 25.34900
C  42.30900 8.37300 26.84900
C  41.36100 5.96500 24.65800
C  41.84600 9.82500 24.89600
C  40.55000 10.52400 25.28500
N  42.85500 8.72600 29.78000
C  43.77000 9.06100 28.82500
C  44.93300 9.66000 29.31700
C  44.62800 9.84900 30.64200
C  43.39700 9.22900 30.86600
C  46.05900 10.37400 28.55300
C  45.21100 10.32900 31.90100
O  46.27600 10.88100 32.09000
C  44.14400 9.92200 32.93600
C  44.74900 9.07600 33.99600
O  45.06300 7.87900 33.98000
O  44.92200 9.96900 35.03600
C  45.31400 9.36800 36.34800
H  37.98500 6.27900 32.57500
H  38.70800 6.23500 26.22300
H  44.22800 9.33300 26.76800
H  41.94000 8.03000 34.50000
H  39.04200 8.74800 34.04100
H  40.04200 7.20600 35.90200
H  40.22600 6.02300 34.63200
H  38.60500 6.57600 35.12900
H  40.56600 10.71800 33.96200
H  42.07100 10.51200 34.90200
H  39.78500 9.21700 36.17200
H  39.53200 10.88200 35.93800
H  37.04000 4.52200 31.76400
H  36.10300 3.90900 30.51200
H  35.60600 5.44600 31.41000
H  34.90200 4.12500 28.58600
H  34.36800 4.97200 27.17800
H  34.64800 5.91300 28.68900
H  40.15200 7.73200 24.58400
H  43.00300 8.06600 24.76800
H  41.04100 5.17800 25.34200
H  42.43400 6.02600 24.48200
H  40.83600 5.71100 23.73700
H  41.93300 9.81400 23.81000
H  42.78000 10.27300 25.23400
H  40.17300 11.01000 24.38500
H  40.74900 11.13800 26.16300
H  39.74500 9.84500 25.56400
H  45.71700 11.30800 28.10700
H  46.50300 9.76800 27.76300
H  46.87800 10.46700 29.26600
H  43.73700 10.83100 33.37800
H  46.38500 9.55700 36.41700
H  45.13200 8.29400 36.32900
H  44.75200 9.85600 37.14500
Mg 47.57100 15.37200 28.44000
C  45.22800 15.03800 31.22300
C  49.37000 17.49900 30.45600
C  49.34700 16.18100 25.67200
C  45.03800 13.88400 26.49500
N  47.15400 16.28700 30.53100
C  46.33700 15.86800 31.48800
C  46.84800 16.30100 32.81500
C  47.85100 17.44300 32.54300
C  48.15300 17.06400 31.12100
C  47.29400 18.89500 32.40900
C  47.50100 15.20000 33.66800
C  47.43400 15.36100 35.18700
H  48.73400 15.47600 35.96300
N  49.27000 16.43100 28.19900
C  49.86700 17.27300 29.12300
C  51.00900 17.88400 28.60200
C  51.03300 17.57500 27.24800
C  49.84000 16.70100 26.95200
C  51.93600 18.87900 29.36800
C  52.03300 18.05300 26.17900
O  51.92300 17.65000 25.03100
C  53.18900 18.98600 26.40900
N  47.23100 15.03600 26.38300
C  48.20200 15.44900 25.45000
C  47.85400 14.82000 24.12700
C  46.50000 14.08700 24.40500
C  46.25500 14.24400 25.87600
C  47.89900 15.82900 23.00500
C  46.26100 12.67100 23.85600
C  47.14600 11.54300 24.33600
N  45.61700 14.57300 28.75100
C  44.73400 13.95500 27.86400
C  43.54400 13.37300 28.55600
C  43.80200 13.70700 29.89300
C  44.99100 14.49500 29.96400
C  42.46500 12.56400 27.88600
C  43.27800 13.51000 31.18400
O  42.24400 12.98200 31.53700
C  44.26200 14.41100 32.19300
C  43.36300 15.38900 32.78700
O  42.46100 15.96600 32.20500
O  43.65200 15.43000 34.12900
C  42.69300 16.24100 34.95400
H  49.90900 18.04000 31.23700
H  49.91400 16.43100 24.77300
H  44.31600 13.33600 25.88700
H  46.06100 16.76500 33.40900
H  48.83400 17.43600 33.01500
H  47.48300 19.38400 31.45300
H  47.80000 19.46200 33.19100
H  46.22000 18.90600 32.59200
H  48.55000 15.18400 33.37500
H  47.06200 14.21800 33.48700
H  46.79300 14.53400 35.49400
H  46.91200 16.30600 35.33700
H  51.83700 19.86400 28.91300
H  52.91100 18.44000 29.15800
H  51.73700 18.93800 30.43800
H  53.84000 18.95800 25.53500
H  53.70900 18.56600 27.27100
H  52.86600 20.00300 26.62900
H  48.66600 14.10800 23.97700
H  45.65700 14.60600 23.94800
H  47.00900 15.69900 22.39000
H  48.73400 15.60800 22.34000
H  47.96000 16.83200 23.42700
H  46.50100 12.73000 22.79500
H  45.24800 12.30000 24.01500
H  46.46200 10.82000 24.78000
H  47.87700 11.89500 25.06500
H  47.61900 11.08000 23.47000
H  42.66300 12.03300 26.95500
H  41.69400 13.29600 27.64600
H  42.31800 11.83900 28.68600
H  44.71200 13.81400 32.98700
H  42.20700 17.07600 34.44900
H  43.40500 16.61300 35.69100
H  41.92000 15.62900 35.41800

