158

Mg 36.53700 49.31900 24.96000
C  37.08200 47.60500 27.99100
C  35.42400 52.10900 26.75800
C  36.36500 50.93700 22.04900
C  37.84400 46.49100 23.31200
N  36.25900 49.73000 27.11800
C  36.52400 48.88800 28.19800
C  36.11700 49.60300 29.50200
C  35.49300 50.91400 29.00200
C  35.74400 50.94800 27.51500
C  33.97900 51.04200 29.33000
C  37.35700 49.87400 30.46200
C  37.17900 49.92600 31.94900
H  35.85200 49.76600 32.54800
N  35.97300 51.18800 24.52200
C  35.51400 52.18700 25.36700
C  35.15400 53.38000 24.54200
C  35.42500 53.07900 23.20400
C  35.97100 51.67600 23.19400
C  34.84500 54.78300 25.14800
C  35.20300 53.85900 21.91900
O  35.33900 53.40600 20.81900
C  34.76400 55.30000 21.98300
N  37.03300 48.73600 22.93800
C  36.86300 49.63400 21.93300
C  37.40900 49.02600 20.51400
C  38.00900 47.59800 21.01500
C  37.63600 47.58400 22.48800
C  36.37000 48.81900 19.42600
C  39.52900 47.47000 20.77200
C  40.41900 48.63500 21.41800
N  37.37700 47.36700 25.50400
C  37.81800 46.38000 24.69400
C  38.19500 45.23600 25.52400
C  37.96300 45.72700 26.81600
C  37.42000 47.01900 26.75600
C  38.80300 43.87200 25.07800
C  38.02200 45.30300 28.18000
O  38.34000 44.32200 28.77900
C  37.50400 46.52000 29.07000
C  36.33500 46.15000 29.86000
O  35.28000 45.83700 29.41700
O  36.68600 46.14800 31.18400
C  35.82600 45.41300 32.14500
H  35.20100 52.96300 27.40100
H  36.50700 51.31700 21.03500
H  38.28600 45.65600 22.76500
H  35.48000 48.91100 30.05300
H  35.98600 51.75300 29.49200
H  33.75800 50.13100 29.88600
H  33.35000 51.06300 28.44100
H  33.80900 52.01500 29.79100
H  38.02100 50.64800 30.07700
H  37.84400 48.90000 30.40100
H  37.70000 50.81300 32.31000
H  37.65900 49.06300 32.41000
H  34.95200 55.60900 24.44500
H  35.62300 55.01400 25.87600
H  33.84500 54.69700 25.57300
H  33.82600 55.38300 22.53100
H  34.61200 55.64500 20.96000
H  35.42900 55.98700 22.50600
H  38.20000 49.62300 20.06100
H  37.46500 46.73300 20.63400
H  35.51500 49.27400 19.92500
H  36.19800 47.80000 19.07900
H  36.77100 49.46800 18.64800
H  39.85800 47.32400 19.74300
H  39.75500 46.49400 21.20200
H  41.31300 48.73900 20.80400
H  40.70700 48.29700 22.41400
H  39.88400 49.58400 21.37800
H  39.56100 43.64000 25.82600
H  39.29900 44.00300 24.11600
H  37.95600 43.18800 25.12000
H  38.34100 46.79900 29.71000
H  35.14700 44.71200 31.65900
H  35.17000 46.02000 32.77000
H  36.46000 44.79300 32.77800
Mg -11.57700 16.18000 42.44200
C  -8.17700 17.16600 42.30700
C  -12.40500 19.50600 42.22700
C  -14.85100 15.24400 42.07900
C  -10.59900 12.84900 42.29200
N  -10.38300 18.12500 42.37300
C  -9.05700 18.27400 42.28600
C  -8.65600 19.71100 41.98400
C  -10.06600 20.46500 42.34800
C  -11.05600 19.33000 42.30100
C  -9.94400 21.21900 43.73300
C  -8.19100 19.84300 40.42000
C  -7.04500 20.79300 40.10600
H  -6.02400 20.18900 39.09100
N  -13.39400 17.18600 42.33800
C  -13.48700 18.62700 42.22500
C  -14.87700 18.93200 42.12900
C  -15.61500 17.71000 42.15900
C  -14.64800 16.63000 42.21300
C  -15.32900 20.25700 41.99500
C  -17.17700 17.63900 42.22600
O  -17.83200 18.66200 42.29800
C  -17.97000 16.28600 42.36100
N  -12.56900 14.34300 42.31900
C  -13.91200 14.21100 42.18400
C  -14.29400 12.75800 42.28000
C  -12.99000 11.97400 42.00600
C  -11.96300 13.09600 42.27300
C  -14.78900 12.52200 43.62600
C  -12.86000 11.47900 40.52100
C  -13.60200 10.20400 40.35100
N  -9.75900 15.20300 42.15600
C  -9.49100 13.79900 42.22200
C  -8.07100 13.52600 42.24800
C  -7.52900 14.84400 42.24500
C  -8.61200 15.81200 42.24600
C  -7.40500 12.18700 42.45000
C  -6.28900 15.62500 42.36300
O  -5.11800 15.28800 42.41400
C  -6.68000 17.12600 42.42300
C  -6.22800 17.59400 43.81900
O  -6.01100 16.88300 44.82200
O  -5.91700 18.96000 43.87300
C  -5.36300 19.56000 45.11400
H  -12.62400 20.56700 42.09300
H  -15.88600 14.92000 41.95400
H  -10.17900 11.84600 42.18800
H  -7.82800 19.96600 42.64400
H  -10.26400 21.23400 41.60200
H  -10.63300 20.79800 44.46500
H  -10.23500 22.25800 43.57700
H  -8.93100 21.08000 44.11100
H  -9.03400 20.13100 39.79100
H  -7.85600 18.86100 40.08800
H  -6.49200 21.01500 41.01800
H  -7.48900 21.76100 39.87200
H  -14.56900 21.03800 42.02000
H  -15.95500 20.52500 42.84600
H  -15.83800 20.35400 41.03600
H  -18.95200 16.51100 42.77700
H  -17.42000 15.71900 43.11200
H  -18.08400 15.80400 41.39000
H  -15.05500 12.36700 41.60500
H  -12.87500 11.18800 42.75300
H  -15.22000 13.41100 44.08500
H  -14.12600 12.12800 44.39700
H  -15.56200 11.75600 43.57200
H  -11.83800 11.26200 40.20800
H  -13.26000 12.31400 39.94500
H  -14.47800 10.43100 39.74300
H  -13.84100 9.80300 41.33600
H  -12.99700 9.40100 39.92900
H  -7.31700 11.94200 43.50800
H  -6.46200 12.07500 41.91500
H  -7.99500 11.33500 42.11100
H  -6.13200 17.52200 41.56800
H  -5.56700 20.63000 45.11100
H  -4.27600 19.63800 45.13400
H  -5.72300 19.16200 46.06400

