158

Mg 8.39700 3.56200 28.22200
C  9.93100 1.93600 30.88800
C  6.40900 5.28900 30.34000
C  6.67100 4.54400 25.59800
C  9.97200 1.05200 26.15600
N  8.18900 3.57800 30.30400
C  9.01400 2.95800 31.21000
C  8.81900 3.47100 32.64200
C  7.40400 4.18400 32.48900
C  7.34300 4.44900 30.99800
C  6.20600 3.24500 32.90300
C  10.00900 4.37900 33.20700
C  10.65300 3.91300 34.50800
H  10.89300 4.86100 35.71300
N  6.84700 4.88800 27.96500
C  6.16200 5.49000 28.96100
C  5.16100 6.32800 28.37300
C  5.24500 6.20100 26.98700
C  6.24100 5.14800 26.79900
C  4.04900 7.11600 29.11100
C  4.41100 6.81800 25.85400
O  4.53700 6.57400 24.68900
C  3.35900 7.77400 26.15800
N  8.38900 2.94700 26.18100
C  7.62100 3.57500 25.29600
C  7.68700 2.86900 23.88600
C  8.93100 1.93900 24.03600
C  9.22300 2.04300 25.55500
C  6.25500 2.25500 23.43900
C  10.30900 2.43700 23.41300
C  11.21300 1.32000 22.71800
N  9.64700 1.78900 28.43400
C  10.21100 0.91600 27.53800
C  11.05800 -0.03000 28.21800
C  11.04000 0.33800 29.54100
C  10.11000 1.37300 29.60500
C  11.91400 -1.15400 27.52700
C  11.62500 0.10500 30.86700
O  12.50300 -0.64500 31.25800
C  10.83300 1.17800 31.77700
C  10.12000 0.33300 32.72900
O  9.06100 -0.32400 32.56700
O  10.86600 0.33900 33.91400
C  10.38200 -0.40400 35.12300
H  5.81700 5.93800 30.98900
H  6.01100 4.83700 24.77900
H  10.40600 0.28200 25.51500
H  8.78200 2.59700 33.29300
H  7.41800 5.10200 33.07700
H  6.49900 2.21000 33.08000
H  5.50100 3.22000 32.07300
H  5.73100 3.72300 33.76000
H  9.64800 5.39800 33.34500
H  10.74400 4.47500 32.40800
H  11.67000 3.61800 34.25000
H  10.15700 3.06100 34.97300
H  3.09800 6.78300 28.69500
H  4.26700 8.16200 28.89500
H  3.91900 7.02100 30.18900
H  2.61400 7.30800 26.80200
H  2.97300 8.12400 25.20100
H  3.67500 8.51100 26.89700
H  7.93900 3.61400 23.13100
H  8.82800 0.92700 23.64500
H  5.51100 2.47500 24.20400
H  6.53900 1.21000 23.31400
H  5.93600 2.73500 22.51300
H  10.89200 3.07400 24.07800
H  10.04400 3.09400 22.58400
H  10.97900 1.32200 21.65300
H  11.04000 0.37000 23.22300
H  12.23500 1.55400 23.01700
H  12.89200 -1.14100 28.00800
H  12.05300 -1.01500 26.45500
H  11.54200 -2.16200 27.71500
H  11.46100 1.84400 32.36800
H  10.34400 0.37700 35.88200
H  11.16600 -1.11600 35.37800
H  9.46900 -0.96300 34.91700
Mg 48.16200 34.84500 26.71700
C  46.52100 33.28500 29.37400
C  48.71000 37.52100 28.84800
C  49.71400 36.20300 24.17200
C  47.54100 31.94700 24.70900
N  47.87700 35.21300 28.93900
C  47.21700 34.44600 29.80400
C  47.38300 35.07800 31.16400
C  47.62200 36.58500 30.88500
C  48.12200 36.42000 29.49100
C  46.44100 37.52500 31.10400
C  48.62800 34.40600 31.86000
C  48.69000 34.47800 33.42000
H  47.65300 35.30200 34.18000
N  48.90600 36.64900 26.47200
C  49.04500 37.62600 27.45800
C  49.80200 38.75700 26.94700
C  50.25100 38.35800 25.59000
C  49.54300 37.07100 25.31300
C  50.25400 40.02200 27.85000
C  51.25100 39.07300 24.60400
O  51.62000 38.53800 23.56500
C  51.76200 40.39300 25.01000
N  48.47100 34.26500 24.57000
C  49.35100 34.93800 23.86900
C  49.81300 34.10900 22.65900
C  49.09800 32.72400 22.86100
C  48.30200 32.97800 24.09600
C  49.32100 34.78300 21.37000
C  50.09600 31.51000 23.09300
C  50.44900 30.70500 21.77000
N  47.12700 33.08500 26.92500
C  47.04200 31.98700 26.00900
C  46.28700 30.90300 26.74600
C  46.05100 31.47000 27.97800
C  46.64100 32.74200 28.08200
C  45.84500 29.64800 26.16200
C  45.34000 31.17600 29.23400
O  44.66100 30.19200 29.52500
C  45.50400 32.43400 30.11300
C  45.63400 32.13200 31.56800
O  46.64800 31.84300 32.16500
O  44.42800 32.35500 32.11900
C  44.38500 32.31800 33.63200
H  48.83200 38.36900 29.52500
H  50.33800 36.63100 23.38500
H  47.34000 31.04500 24.12600
H  46.52400 34.84900 31.79500
H  48.40300 36.93700 31.55900
H  46.60500 38.22600 31.92200
H  45.54100 36.93900 31.29200
H  46.26400 38.17800 30.24900
H  49.48800 34.94400 31.46200
H  48.71400 33.37100 31.52800
H  49.62500 34.94200 33.73600
H  48.67200 33.51400 33.92800
H  49.86100 40.98700 27.52800
H  51.34200 39.99900 27.91700
H  49.92800 39.92100 28.88500
H  52.36800 40.82400 24.21300
H  52.46000 40.39300 25.84700
H  50.91500 41.07500 25.08500
H  50.90200 34.09100 22.61900
H  48.42200 32.61000 22.01400
H  48.67900 35.66300 21.41500
H  48.92300 34.06200 20.65600
H  50.24800 35.04400 20.86100
H  49.74400 30.76500 23.80600
H  51.05000 31.87400 23.47400
H  49.83700 31.01300 20.92200
H  50.22900 29.65700 21.97200
H  51.51100 30.78300 21.53600
H  45.39400 29.85300 25.19100
H  45.13600 29.26800 26.89700
H  46.70300 28.99200 26.01700
H  44.51400 32.82800 29.88100
H  43.71600 33.10600 33.97900
H  45.35500 32.48600 34.10000
H  44.06700 31.32800 33.96000

