158

Mg 40.16500 8.85200 30.11300
C  42.07100 10.17200 32.70600
C  37.75400 8.02900 32.37800
C  38.56200 7.25800 27.69300
C  42.72700 9.58800 27.91100
N  39.98900 9.10400 32.25500
C  40.87200 9.69100 33.11700
C  40.30500 9.80800 34.54800
C  39.00500 9.01100 34.42000
C  38.90300 8.64400 32.92300
C  38.95100 7.75300 35.34700
C  39.96000 11.34800 34.87400
C  39.59800 11.62800 36.33700
H  40.34500 12.60100 37.28400
N  38.41300 7.70600 30.02600
C  37.56800 7.47400 31.08200
C  36.43300 6.79500 30.59500
C  36.52200 6.73800 29.22000
C  37.88600 7.20600 28.90100
C  35.31700 6.30800 31.55300
C  35.54100 6.17800 28.24200
O  35.84000 6.05100 27.02100
C  34.17300 5.87200 28.68900
N  40.53300 8.48700 28.07700
C  39.80100 7.73800 27.31400
C  40.25000 7.68200 25.83800
C  41.52200 8.49900 25.85500
C  41.61600 8.89100 27.42200
C  40.46400 6.19300 25.41000
C  41.61700 9.70800 24.94800
C  40.81900 11.02900 25.32300
N  42.03300 9.71400 30.19600
C  42.95300 10.03400 29.18800
C  44.07800 10.71200 29.74600
C  43.75000 10.78500 31.13300
C  42.52000 10.16900 31.36100
C  45.29900 11.20400 28.99300
C  44.23600 11.17200 32.39000
O  45.30000 11.68900 32.67100
C  43.24000 10.73200 33.48700
C  43.94800 9.80300 34.44300
O  44.07200 8.56700 34.34900
O  44.36500 10.55400 35.47100
C  45.14000 9.83000 36.50000
H  36.95100 7.91500 33.11000
H  38.13800 6.83000 26.78200
H  43.58200 9.85000 27.28500
H  41.13200 9.44400 35.15900
H  38.14700 9.59900 34.74400
H  39.53200 7.93200 36.25100
H  39.32900 6.92900 34.74100
H  37.89200 7.58000 35.54100
H  39.09100 11.50100 34.23400
H  40.77200 11.97900 34.51200
H  39.42800 10.70300 36.88700
H  38.57200 11.99400 36.38600
H  35.56900 6.72400 32.52900
H  35.19400 5.22600 31.49400
H  34.33500 6.67700 31.25800
H  33.72000 5.40700 27.81400
H  33.62800 6.79400 28.89500
H  34.27200 5.20700 29.54700
H  39.54600 8.19800 25.18500
H  42.45200 7.93900 25.75100
H  40.09300 5.61800 26.25900
H  41.49100 5.84900 25.28400
H  39.78800 6.06500 24.56600
H  41.23100 9.32000 24.00500
H  42.67500 9.94800 24.84700
H  41.41200 11.93500 25.19500
H  40.39800 10.97000 26.32700
H  39.98800 11.14200 24.62700
H  45.27600 10.83100 27.96900
H  46.23300 10.81800 29.40100
H  45.32600 12.28600 29.12300
H  42.97400 11.62900 34.04600
H  44.91600 10.40100 37.40100
H  46.20100 9.89000 36.26100
H  44.85000 8.78700 36.62100
Mg 54.56100 24.44500 44.37900
C  51.49300 26.16800 44.09900
C  52.67000 21.45600 44.14900
C  57.23900 22.87700 43.17300
C  56.18000 27.53100 43.84900
N  52.32700 23.89200 44.05700
C  51.29900 24.76600 44.01700
C  50.03000 24.00100 44.30500
C  50.43300 22.55400 44.59200
C  51.89700 22.60000 44.16800
C  50.26600 22.06200 46.06400
C  48.96100 24.10400 43.07400
C  49.38900 23.46400 41.74800
H  49.82300 24.36700 40.55600
N  54.96000 22.42700 43.84300
C  54.04700 21.38700 43.90500
C  54.82200 20.21700 43.55400
C  56.12000 20.63500 43.02100
C  56.15100 22.01400 43.32700
C  54.23200 18.81000 43.52600
C  57.16300 19.77800 42.37700
O  57.02000 18.56900 42.47000
C  58.35000 20.24700 41.55600
N  56.35900 25.05400 43.44300
C  57.36000 24.23500 43.33800
C  58.65200 24.98600 42.84700
C  58.33400 26.48600 43.08000
C  56.84600 26.38000 43.49800
C  59.88200 24.42300 43.54900
C  58.47100 27.27400 41.77300
C  59.61200 28.31900 41.76700
N  54.01400 26.48600 44.21600
C  54.79700 27.58200 44.13200
C  53.95500 28.71900 44.43400
C  52.68600 28.18900 44.46800
C  52.75600 26.84000 44.22100
C  54.47100 30.15200 44.67300
C  51.31000 28.48900 44.66900
O  50.76300 29.53600 45.01200
C  50.52600 27.33400 44.23200
C  49.83800 27.76100 42.94800
O  50.39800 27.94400 41.88700
O  48.46100 27.75200 43.02700
C  47.54300 28.00500 41.88000
H  52.10000 20.53000 44.25200
H  58.18100 22.41200 42.87400
H  56.66600 28.50900 43.87100
H  49.58600 24.45700 45.19000
H  49.87900 21.84300 43.98100
H  49.75100 21.10300 46.00800
H  49.74600 22.88000 46.56300
H  51.17600 21.94300 46.65300
H  48.93100 25.16900 42.84300
H  47.91500 23.90900 43.31400
H  48.57200 22.82700 41.41000
H  50.22500 22.80700 41.98800
H  54.50500 18.21600 42.65400
H  53.14400 18.79800 43.46200
H  54.55100 18.20000 44.37100
H  57.91400 21.12400 41.07700
H  58.74800 19.39100 41.01000
H  59.01600 20.60800 42.34000
H  58.75000 24.79100 41.77900
H  58.83600 26.97200 43.91600
H  60.68100 24.45800 42.80900
H  59.70700 23.46000 44.02800
H  60.18000 25.10800 44.34300
H  57.60000 27.88700 41.53900
H  58.71100 26.65700 40.90700
H  59.12900 29.27400 41.56200
H  60.40000 28.14300 41.03600
H  60.03700 28.38500 42.76900
H  55.23800 30.18300 45.44600
H  53.68100 30.75700 45.11700
H  54.91900 30.66500 43.82200
H  49.84300 27.01800 45.02100
H  46.67300 28.45600 42.35800
H  47.25900 27.01200 41.53100
H  47.91400 28.58500 41.03500

