158

Mg 34.82000 2.97800 30.50600
C  32.31200 3.93900 32.78000
C  37.19900 3.36300 33.09900
C  37.17500 2.01200 28.44500
C  32.35800 2.69300 28.08200
N  34.71400 3.46600 32.63700
C  33.57100 3.74700 33.35700
C  33.90400 3.99900 34.81300
C  35.49400 3.99500 34.86100
C  35.86300 3.55000 33.49100
C  35.95600 5.38500 35.38100
C  33.19400 2.87800 35.69100
C  33.85400 2.48300 37.02900
H  34.42800 3.62000 37.81800
N  36.96000 2.69500 30.72100
C  37.67400 2.88200 31.85200
C  39.06600 2.43100 31.56800
C  39.12500 1.94600 30.23300
C  37.72300 2.15600 29.76700
C  40.16000 2.52400 32.58300
C  40.24500 1.34100 29.42500
O  40.08600 0.93700 28.27100
C  41.64700 1.23800 30.03100
N  34.81200 2.34200 28.55600
C  35.91000 2.14200 27.81100
C  35.59400 2.08000 26.32600
C  34.08300 1.87200 26.34900
C  33.68700 2.38400 27.71400
C  36.09000 3.31100 25.50600
C  33.70700 0.38700 26.31700
C  32.52900 0.03400 25.38100
N  32.74800 3.22300 30.38700
C  31.86200 3.11900 29.36000
C  30.53300 3.41000 29.80300
C  30.68600 3.73500 31.20000
C  32.00900 3.62400 31.48300
C  29.16800 3.20700 29.08100
C  29.95700 4.13900 32.34700
O  28.76300 4.41700 32.54500
C  31.00400 4.31600 33.40600
C  30.93300 5.63700 34.15700
O  30.99400 6.72100 33.64100
O  30.74500 5.40400 35.58400
C  31.16000 6.57100 36.36200
H  37.92500 3.58100 33.88500
H  37.97500 1.75200 27.75000
H  31.61100 2.56500 27.29600
H  33.51600 5.00100 34.99400
H  35.98400 3.30300 35.54700
H  36.19400 6.03000 34.53400
H  36.89300 5.26200 35.92400
H  35.27600 5.94300 36.02400
H  33.17200 1.97900 35.07500
H  32.14300 3.10100 35.87800
H  34.58700 1.70100 36.82900
H  33.04600 2.06600 37.63100
H  39.84400 2.86600 33.56800
H  40.99000 3.10700 32.18300
H  40.45800 1.47900 32.66200
H  41.66400 0.46900 30.80400
H  41.97300 2.14200 30.54500
H  42.32600 1.15700 29.18200
H  36.07600 1.16200 25.99200
H  33.60900 2.38700 25.51400
H  37.13400 3.30900 25.19100
H  36.06700 4.13800 26.21600
H  35.40000 3.65100 24.73300
H  33.56000 0.03900 27.34000
H  34.47100 -0.36600 26.12400
H  31.72000 -0.36000 25.99600
H  32.80600 -0.72100 24.64400
H  32.12400 0.87900 24.82500
H  29.33000 2.45100 28.31300
H  28.84500 4.12000 28.58000
H  28.42900 2.83100 29.78900
H  30.81000 3.54300 34.15000
H  31.38400 6.20800 37.36500
H  30.28200 7.20600 36.48200
H  31.99800 7.08600 35.89300
Mg 39.83600 9.14300 29.16100
C  41.92200 10.14500 31.73300
C  37.66700 7.67000 31.55000
C  38.00600 7.82300 26.70100
C  42.26500 10.22600 26.88000
N  39.83600 8.90500 31.38900
C  40.72100 9.53100 32.25300
C  40.26300 9.55400 33.70900
C  39.02600 8.62800 33.61400
C  38.78500 8.33600 32.10100
C  39.16200 7.37100 34.53800
C  39.75300 11.07200 34.10000
C  39.25200 11.17400 35.57200
H  40.01700 12.23400 36.41800
N  38.02100 8.05200 29.15400
C  37.39000 7.47900 30.21800
C  36.22700 6.75000 29.71700
C  36.10900 6.96900 28.34600
C  37.43100 7.63100 27.99500
C  35.21100 6.13500 30.67900
C  35.08600 6.53300 27.42400
O  35.28200 6.64400 26.20400
C  33.74400 5.92900 27.88700
N  40.20900 8.93700 27.03500
C  39.22600 8.35700 26.28200
C  39.56000 8.50900 24.82600
C  40.86700 9.43400 24.85400
C  41.16200 9.51800 26.31100
C  39.65400 7.19100 24.05500
C  40.64700 10.77900 24.15800
C  39.83900 11.86000 24.89600
N  41.75800 10.02500 29.22600
C  42.62200 10.46700 28.22800
C  43.69800 11.24600 28.75300
C  43.50400 11.09300 30.13500
C  42.32300 10.33400 30.40100
C  44.70800 11.84000 27.91700
C  43.97500 11.39500 31.44700
O  44.97200 12.01900 31.79900
C  43.06900 10.75800 32.53000
C  43.94100 9.79700 33.39600
O  44.45200 8.75900 33.02900
O  44.06600 10.32100 34.65800
C  44.94700 9.52100 35.57300
H  37.01400 7.35300 32.36600
H  37.41000 7.39000 25.89600
H  42.90500 10.72700 26.15000
H  41.03500 9.15400 34.36600
H  38.06700 9.09600 33.83500
H  38.66200 7.60600 35.47800
H  40.20900 7.19000 34.78200
H  38.65800 6.47100 34.18500
H  38.82300 11.37400 33.61800
H  40.50500 11.85200 33.98700
H  39.31400 10.19600 36.04800
H  38.17700 11.34300 35.62800
H  34.21900 6.58800 30.65700
H  35.43600 5.93200 31.72600
H  34.93800 5.14200 30.32400
H  33.25900 6.52600 28.66000
H  33.97900 4.94000 28.28100
H  33.06000 5.82300 27.04500
H  38.67700 8.99100 24.40500
H  41.69400 8.91300 24.37200
H  40.54200 7.04500 23.43900
H  38.75500 7.10100 23.44500
H  39.62200 6.31800 24.70700
H  40.03600 10.49200 23.30100
H  41.54800 11.28700 23.81600
H  40.47600 12.73500 24.77100
H  39.81500 11.62500 25.96000
H  38.83700 11.95400 24.47700
H  45.40600 11.08300 27.56000
H  45.21100 12.59500 28.52000
H  44.28300 12.43500 27.10900
H  42.71300 11.59600 33.12900
H  44.63800 9.48300 36.61800
H  45.93500 9.98100 35.59900
H  45.12600 8.49900 35.23800

