158

Mg 2.22300 -1.78900 43.01000
C  5.69900 -1.42100 42.51500
C  1.70900 1.08700 41.16600
C  -1.15300 -2.49500 42.77600
C  2.75000 -4.98800 44.07500
N  3.56700 -0.29000 41.93800
C  4.98900 -0.34500 41.92500
C  5.50100 0.86200 41.17200
C  4.17700 1.64900 40.80800
C  3.04900 0.79000 41.35800
C  4.19300 3.12400 41.28700
C  6.40800 0.54900 39.99700
C  5.90900 -0.62700 39.06900
H  5.65200 -0.43500 37.63400
N  0.46000 -0.74900 42.26300
C  0.51900 0.41500 41.55500
C  -0.77900 0.93100 41.35200
C  -1.68600 -0.08100 41.76300
C  -0.83800 -1.14500 42.29300
C  -1.13700 2.30100 40.80400
C  -3.17200 0.04200 41.66500
O  -3.78600 1.07700 41.29000
C  -3.95600 -1.15600 42.07600
N  0.99300 -3.52800 43.25800
C  -0.37500 -3.56200 43.14200
C  -0.87100 -5.01700 43.40500
C  0.28900 -5.71700 44.09500
C  1.44100 -4.67700 43.80600
C  -2.30900 -5.32800 43.94700
C  0.51700 -7.19800 43.67400
C  0.55800 -8.31600 44.80400
N  3.86900 -3.05300 43.26000
C  3.96000 -4.26900 43.87700
C  5.38900 -4.62000 44.01800
C  6.07700 -3.54400 43.50800
C  5.10100 -2.61400 43.01800
C  5.90100 -5.82400 44.68200
C  7.38500 -2.91800 43.30300
O  8.46300 -3.43200 43.66700
C  7.20300 -1.61400 42.44800
C  8.00800 -0.52400 43.09400
O  8.94900 0.08000 42.57900
O  7.51100 -0.24700 44.38100
C  8.36600 0.59100 45.26700
H  1.47700 1.96500 40.56000
H  -2.16900 -2.85800 42.94600
H  2.89200 -5.90900 44.64400
H  6.12100 1.43600 41.86000
H  4.18400 1.65400 39.71800
H  4.31300 3.85000 40.48300
H  4.97000 3.22400 42.04400
H  3.22700 3.40700 41.70500
H  7.44900 0.30300 40.20900
H  6.62700 1.49000 39.49300
H  4.91200 -0.94900 39.36800
H  6.65900 -1.41700 39.12200
H  -1.25500 2.97900 41.65000
H  -2.12000 2.26200 40.33500
H  -0.37800 2.58600 40.07600
H  -5.02400 -1.01600 41.90600
H  -3.63900 -1.21600 43.11700
H  -3.60200 -1.98300 41.46000
H  -0.81600 -5.43900 42.40100
H  0.13000 -5.74000 45.17300
H  -2.92900 -4.49800 44.28600
H  -2.33400 -5.90400 44.87200
H  -2.97500 -5.78100 43.21400
H  1.45900 -7.29400 43.13500
H  -0.24900 -7.54700 42.98100
H  0.35200 -9.29900 44.38100
H  -0.07600 -8.04400 45.64900
H  1.59100 -8.36300 45.14800
H  6.81700 -5.58000 45.22100
H  6.18200 -6.62600 43.99900
H  5.13200 -6.32500 45.27000
H  7.59800 -1.90000 41.47300
H  7.79500 1.49600 45.47800
H  9.39800 0.74000 44.94900
H  8.43800 0.04200 46.20600
Mg 24.23600 -5.83700 46.16600
C  26.21900 -3.18600 44.86500
C  21.75200 -4.93700 44.12600
C  22.77600 -8.80000 47.00200
C  27.13600 -6.72600 48.05400
N  24.11200 -4.21700 44.68900
C  24.97200 -3.23500 44.39800
C  24.23800 -2.18700 43.47100
C  22.71700 -2.62000 43.53200
C  22.87800 -4.03800 44.11300
C  21.71900 -1.72200 44.30600
C  24.79900 -2.18200 41.96500
C  25.28800 -0.80700 41.41200
H  25.10900 -0.61700 39.94600
N  22.49300 -6.76000 45.52900
C  21.61100 -6.20100 44.75700
C  20.40500 -7.12700 44.60900
C  20.72600 -8.23900 45.44600
C  22.06500 -7.97700 46.07100
C  19.19200 -6.92600 43.76600
C  19.91100 -9.45600 45.83500
O  18.80000 -9.47800 45.30700
C  20.31100 -10.53900 46.86600
N  24.82200 -7.52500 47.36500
C  24.09000 -8.64700 47.52700
C  24.74600 -9.65200 48.49400
C  26.19400 -9.06000 48.75800
C  26.04600 -7.62800 48.08400
C  23.91500 -10.19600 49.67300
C  27.35900 -9.90200 48.10600
C  28.68300 -9.69100 48.89800
N  26.27200 -5.13600 46.42600
C  27.30800 -5.55400 47.24200
C  28.44400 -4.65700 47.12600
C  28.03900 -3.70500 46.21800
C  26.73500 -4.04400 45.82200
C  29.74700 -4.76100 48.04500
C  28.46700 -2.46900 45.59400
O  29.46700 -1.79400 45.70800
C  27.31300 -2.14300 44.67800
C  26.75400 -0.75400 44.91700
O  26.03300 -0.44100 45.83300
O  27.33300 0.09200 44.04400
C  27.18200 1.53400 44.29600
H  20.83900 -4.72700 43.56500
H  22.49200 -9.78300 47.38400
H  27.97200 -7.08900 48.65600
H  24.20900 -1.22800 43.98800
H  22.28700 -2.69400 42.53300
H  20.92000 -1.35200 43.66400
H  22.14600 -0.85100 44.80400
H  21.27300 -2.33600 45.08900
H  24.08700 -2.57900 41.24100
H  25.67700 -2.82600 41.93600
H  26.36000 -0.73900 41.60100
H  24.67200 -0.02400 41.85400
H  18.37300 -6.45800 44.31100
H  18.75800 -7.83300 43.34600
H  19.44600 -6.14000 43.05500
H  19.44800 -11.14500 47.14300
H  20.43300 -9.92700 47.76000
H  21.22700 -11.03500 46.54200
H  24.83400 -10.48600 47.79700
H  26.39500 -8.87400 49.81300
H  22.87700 -9.86300 49.68600
H  24.38600 -9.86500 50.59800
H  23.91200 -11.28400 49.61300
H  27.46000 -9.48500 47.10300
H  27.03900 -10.94000 48.02400
H  29.10900 -10.69300 48.95600
H  28.48000 -9.31800 49.90200
H  29.36300 -9.14500 48.24400
H  30.12700 -3.76800 48.28500
H  30.57900 -5.31900 47.61400
H  29.44800 -5.22100 48.98700
H  27.72500 -2.04400 43.67300
H  26.14000 1.80900 44.13300
H  27.90700 2.01400 43.63900
H  27.41800 1.74200 45.33900

