158

Mg 48.40200 14.95800 28.06800
C  46.02300 14.81100 30.75900
C  50.54100 16.74400 30.14200
C  50.39800 15.11900 25.53500
C  45.92400 13.27600 26.13200
N  48.28900 15.72500 30.10000
C  47.26800 15.49400 30.96600
C  47.57900 15.99500 32.36700
C  48.85200 16.83800 32.11500
C  49.29400 16.42900 30.67600
C  48.67100 18.34300 32.34700
C  47.82300 14.71200 33.26600
C  47.26000 14.86600 34.67600
H  47.08900 16.28500 35.30400
N  50.28400 15.82200 27.82000
C  51.03600 16.49800 28.79800
C  52.37600 16.76600 28.22500
C  52.28400 16.46300 26.85200
C  50.98000 15.75000 26.69600
C  53.43600 17.57800 29.00400
C  53.20900 16.67100 25.67100
O  52.98000 16.30900 24.52500
C  54.53200 17.45200 25.88300
N  48.19100 14.25400 26.17300
C  49.14300 14.50000 25.26500
C  48.81400 13.94700 23.79800
C  47.47600 13.08900 24.14200
C  47.18300 13.55000 25.58300
C  48.64400 15.02900 22.72100
C  47.67900 11.56200 24.00200
C  48.13600 10.71600 25.22000
N  46.34800 14.32100 28.27000
C  45.54300 13.61700 27.43300
C  44.27200 13.31600 28.08300
C  44.43500 13.74800 29.42200
C  45.73400 14.27800 29.45900
C  43.09500 12.51800 27.55200
C  43.80100 13.71500 30.68900
O  42.66300 13.34100 31.04500
C  44.80600 14.37700 31.63900
C  44.11400 15.54400 32.26300
O  44.09100 16.67100 31.78200
O  43.57500 15.15800 33.47000
C  42.97500 16.22100 34.18400
H  51.19400 17.13000 30.92700
H  51.01900 15.07700 24.63800
H  45.19200 12.89600 25.41700
H  46.77200 16.65500 32.68600
H  49.68500 16.49600 32.73000
H  47.88500 18.65100 33.03700
H  48.65800 18.86200 31.38900
H  49.56600 18.73100 32.83400
H  48.88500 14.54100 33.44400
H  47.40500 13.79200 32.85800
H  47.84500 14.33400 35.42700
H  46.27200 14.41200 34.74400
H  53.46500 18.56200 28.53600
H  54.40500 17.09600 29.13500
H  53.03900 17.71700 30.01000
H  54.98700 17.18600 26.83700
H  54.27900 18.51000 25.96600
H  55.23600 17.30600 25.06500
H  49.53700 13.21700 23.43500
H  46.63200 13.36100 23.50900
H  49.45100 14.96100 21.99100
H  48.57900 16.03700 23.13000
H  47.69800 14.90000 22.19500
H  48.47200 11.40000 23.27200
H  46.75500 11.12100 23.62700
H  48.79200 9.90200 24.91400
H  47.30700 10.16500 25.66500
H  48.48100 11.44500 25.95400
H  43.35400 11.47300 27.37900
H  42.89500 13.02100 26.60600
H  42.23500 12.62500 28.21300
H  45.14300 13.60700 32.33300
H  43.49900 17.17500 34.11800
H  42.79000 15.99600 35.23400
H  42.00800 16.30700 33.68900
Mg 6.42200 53.97400 41.36100
C  5.70000 50.58600 41.22000
C  9.63400 53.18900 40.46700
C  6.71500 57.23300 40.48200
C  3.06500 54.56900 41.82900
N  7.51700 52.04900 40.72500
C  7.04300 50.76000 40.82200
C  8.14900 49.75500 40.65100
C  9.42400 50.66300 40.68500
C  8.81600 52.08500 40.58700
C  10.18500 50.55000 41.96600
C  8.01600 49.02800 39.28000
C  7.76200 49.89100 38.00100
H  6.72100 49.27100 37.01300
N  7.98700 55.06900 40.54800
C  9.28000 54.58800 40.32300
C  10.11600 55.67400 39.97100
C  9.27200 56.81000 39.89700
C  7.89700 56.40200 40.34600
C  11.63300 55.64200 39.82500
C  9.70200 58.14300 39.54300
O  10.81300 58.25100 38.99200
C  8.96900 59.44800 39.81400
N  5.03300 55.61400 40.94900
C  5.41500 56.91200 40.74700
C  4.30000 57.91600 40.97100
C  3.06800 57.06700 41.40700
C  3.69400 55.62000 41.31000
C  4.48900 59.14800 41.78700
C  1.78800 57.25900 40.55200
C  0.63800 58.10000 41.11900
N  4.78800 52.85800 41.54600
C  3.52600 53.22300 41.85800
C  2.71400 52.10200 42.23400
C  3.54000 51.03200 41.91600
C  4.75700 51.54600 41.54700
C  1.24400 51.99300 42.61800
C  3.56600 49.64600 41.92000
O  2.81200 48.74500 42.23400
C  4.97200 49.26400 41.35700
C  4.69300 48.65800 40.05100
O  4.25800 49.24300 39.01200
O  5.00100 47.33700 40.11200
C  4.54100 46.52600 38.93300
H  10.68400 52.97200 40.26000
H  6.70600 58.30600 40.28000
H  2.01500 54.61400 42.12700
H  8.25400 49.01900 41.44900
H  10.09500 50.56600 39.83200
H  10.22600 51.58100 42.31900
H  11.23500 50.29400 41.82700
H  9.67200 49.96100 42.72600
H  7.28400 48.22100 39.25000
H  9.00800 48.59900 39.13900
H  8.64500 49.76200 37.37500
H  7.74000 50.97100 38.14300
H  12.02700 56.52700 40.32500
H  12.01000 55.55900 38.80600
H  12.01700 54.78500 40.38000
H  8.22600 59.59300 39.03000
H  9.69500 60.24300 39.64100
H  8.67600 59.56900 40.85600
H  4.13800 58.28600 39.95900
H  2.74000 57.18600 42.44000
H  4.48300 60.06100 41.19100
H  5.42500 59.08200 42.34200
H  3.69300 59.19800 42.53100
H  1.44500 56.24700 40.33600
H  2.08500 57.68700 39.59500
H  0.61500 59.11800 40.73000
H  0.63400 58.18700 42.20500
H  -0.31800 57.61900 40.91000
H  0.60200 51.41600 41.95400
H  0.84500 53.00500 42.54400
H  1.18500 51.46600 43.57000
H  5.43000 48.51200 42.00000
H  4.47000 47.08100 37.99800
H  3.53300 46.16700 39.14200
H  5.24400 45.71900 38.73100

