158

Mg 1.09400 8.26800 27.52500
C  1.51100 10.29900 30.18700
C  1.01700 5.52900 29.73300
C  0.68900 6.25400 24.98300
C  1.67700 10.88600 25.32600
N  1.44600 8.02200 29.75800
C  1.21700 9.01200 30.57000
C  0.96700 8.51300 32.03000
C  1.11500 6.98400 31.74700
C  1.26800 6.81500 30.28800
C  2.33900 6.27100 32.58700
C  -0.39300 9.03000 32.77600
C  -0.38800 9.12000 34.28500
H  0.75300 8.37600 35.08300
N  0.85900 6.15000 27.41900
C  0.68400 5.22500 28.40200
C  0.34900 3.97200 27.91500
C  0.29100 4.12300 26.46600
C  0.61200 5.54100 26.18300
C  0.23200 2.83300 28.78300
C  0.21100 3.02900 25.39800
O  0.36500 3.28400 24.20800
C  0.17900 1.53800 25.72400
N  1.19900 8.45900 25.43100
C  1.03100 7.48500 24.56400
C  1.00700 7.91000 23.06800
C  0.91900 9.48800 23.20900
C  1.26800 9.62500 24.78400
C  2.37700 7.43000 22.41400
C  -0.44900 10.14400 22.87100
C  -0.41900 11.53900 22.21900
N  1.46400 10.17800 27.70700
C  1.80000 11.14500 26.78000
C  2.02900 12.41800 27.37300
C  1.88200 12.15600 28.72400
C  1.59300 10.75400 28.85900
C  2.16800 13.79000 26.65600
C  1.85500 12.74000 30.04500
O  2.02000 13.92900 30.36000
C  1.57500 11.55800 30.99300
C  2.55200 11.40400 32.17000
O  3.77600 11.43300 32.07700
O  1.84700 11.51900 33.32700
C  2.70800 11.92000 34.50200
H  1.10100 4.71400 30.45500
H  0.44700 5.61800 24.12900
H  1.73500 11.65000 24.54800
H  1.81900 8.80000 32.64700
H  0.21300 6.49300 32.11100
H  2.02200 6.19600 33.62700
H  3.23700 6.88800 32.54600
H  2.60000 5.32300 32.11700
H  -1.21500 8.41000 32.41900
H  -0.61500 9.99900 32.32800
H  -1.35900 8.82300 34.68200
H  -0.24200 10.16100 34.57100
H  1.17100 2.36200 29.07600
H  -0.39500 2.03400 28.38700
H  -0.41900 3.13700 29.60200
H  1.01300 1.29200 26.38100
H  0.14600 0.88400 24.85300
H  -0.71500 1.27200 26.28700
H  0.16200 7.49300 22.52000
H  1.64800 10.06200 22.63700
H  2.62800 8.26100 21.75400
H  2.22600 6.50400 21.85900
H  3.09100 7.06500 23.15200
H  -1.18800 10.16700 23.67100
H  -0.77800 9.45100 22.09600
H  0.53000 12.07500 22.23700
H  -1.07500 12.30600 22.63000
H  -0.75200 11.40400 21.19000
H  2.49700 13.58300 25.63800
H  2.97800 14.31300 27.16400
H  1.32500 14.48100 26.67600
H  0.53200 11.70400 31.27500
H  3.30500 12.80900 34.29500
H  3.39600 11.11600 34.76300
H  2.01100 12.04100 35.33100
Mg -1.14000 34.52400 26.36900
C  -3.23300 33.33900 28.74100
C  -0.12200 37.03600 28.68400
C  0.58500 35.93200 23.94700
C  -2.91100 32.62700 23.86000
N  -1.76000 35.12800 28.36300
C  -2.46200 34.38200 29.24500
C  -2.22300 34.66900 30.69600
C  -1.51700 36.11700 30.64300
C  -1.08100 36.10900 29.16600
C  -2.30700 37.37900 31.05400
C  -1.28800 33.55200 31.41600
C  -1.95500 32.84500 32.55600
H  -1.30400 32.94100 33.87100
N  0.20400 36.18200 26.32500
C  0.47600 37.12000 27.36200
C  1.41700 38.03400 26.83800
C  1.71600 37.62300 25.47900
C  0.82600 36.50300 25.16500
C  1.94000 39.07100 27.71300
C  2.76800 38.12600 24.50200
O  3.03500 37.56100 23.41900
C  3.52800 39.36800 24.87500
N  -1.05400 34.19800 24.16900
C  -0.11400 34.83200 23.44100
C  -0.05800 34.28900 22.00000
C  -1.04400 33.12300 22.06300
C  -1.70900 33.29800 23.39800
C  -0.46200 35.34900 20.89000
C  -0.43600 31.76900 21.74000
C  0.25900 31.07200 22.85500
N  -2.70800 33.18500 26.23000
C  -3.31500 32.41200 25.24900
C  -4.27900 31.50800 25.77700
C  -4.32700 31.83500 27.18200
C  -3.36900 32.92100 27.35600
C  -5.05100 30.53800 25.02200
C  -4.82800 31.41000 28.44800
O  -5.59600 30.56000 28.71600
C  -4.13200 32.34200 29.51700
C  -5.25000 33.01900 30.31400
O  -5.64400 34.15400 30.25900
O  -5.69800 32.05400 31.19000
C  -6.62600 32.37400 32.24300
H  0.27900 37.68500 29.46500
H  1.16300 36.17900 23.05400
H  -3.42100 32.05000 23.08600
H  -3.16300 34.79000 31.23300
H  -0.60700 36.11400 31.24300
H  -3.05100 36.97900 31.74300
H  -2.63100 38.00700 30.22400
H  -1.59300 38.06900 31.50400
H  -0.26900 33.78800 31.72000
H  -1.25900 32.81000 30.61800
H  -2.06900 31.80500 32.24900
H  -2.96600 33.23400 32.67500
H  1.32800 39.24500 28.59800
H  1.99300 40.01100 27.16400
H  2.93000 38.90800 28.13900
H  3.86200 39.46700 25.90700
H  2.86300 40.21700 24.71700
H  4.30200 39.60300 24.14400
H  0.92300 33.88900 21.74600
H  -1.94100 33.13100 21.44400
H  -1.34400 35.09700 20.30000
H  0.36100 35.47100 20.18500
H  -0.52300 36.33600 21.34800
H  0.33800 31.99300 21.00600
H  -1.22200 31.19300 21.25200
H  0.03100 31.63600 23.75900
H  1.32700 31.18400 22.66600
H  -0.03500 30.02800 22.96300
H  -4.86800 30.64800 23.95400
H  -6.09100 30.76400 25.25900
H  -4.99400 29.50800 25.37600
H  -3.50400 31.68800 30.12200
H  -7.50900 32.82700 31.79300
H  -6.24800 33.08900 32.97400
H  -6.95700 31.45300 32.72300

