158

Mg 44.02700 4.31100 47.10500
C  42.17100 7.23000 46.93800
C  41.05000 2.45700 46.87500
C  45.84900 1.42400 47.18400
C  46.93600 6.15200 46.97400
N  41.90300 4.82200 46.79100
C  41.31800 6.11200 46.89800
C  39.79000 6.07000 46.78500
C  39.54400 4.53300 46.88200
C  40.92400 3.88200 46.93900
C  38.62100 4.02600 48.00600
C  38.95900 6.57200 45.58500
C  39.67800 6.33800 44.25900
H  39.88600 7.57900 43.42200
N  43.55300 2.20600 47.09000
C  42.23700 1.69000 47.02600
C  42.31200 0.24100 47.05000
C  43.68700 -0.09900 47.17600
C  44.47600 1.17000 47.13800
C  41.10600 -0.65900 46.99700
C  44.23100 -1.50300 47.45600
O  43.46400 -2.48400 47.55300
C  45.67600 -1.77800 47.47700
N  46.17400 3.82500 46.71200
C  46.65700 2.58700 47.04000
C  48.15100 2.63800 47.17000
C  48.52000 4.18400 47.16200
C  47.20000 4.79600 46.84600
C  48.69800 1.93200 48.39500
C  49.71500 4.63100 46.22700
C  51.02300 5.06100 46.95300
N  44.51300 6.20000 47.05600
C  45.70300 6.84300 47.05400
C  45.48300 8.25800 47.13100
C  44.12500 8.42100 47.19000
C  43.60100 7.19200 47.07500
C  46.56700 9.33800 47.09900
C  43.00500 9.46600 47.18100
O  43.01200 10.67800 47.33800
C  41.70600 8.63000 47.14700
C  41.06600 8.87800 48.46100
O  41.57400 8.67000 49.57500
O  39.80100 9.48200 48.33700
C  38.92200 9.56400 49.53200
H  40.18600 1.86900 46.56100
H  46.45100 0.62100 47.61400
H  47.86200 6.73000 46.99600
H  39.37400 6.52000 47.68700
H  39.06900 4.18000 45.96600
H  38.67800 4.80500 48.76700
H  39.00400 3.12000 48.47400
H  37.58000 3.91500 47.70100
H  38.97200 7.64200 45.79100
H  37.93100 6.20900 45.58300
H  39.03300 5.67300 43.68300
H  40.68000 5.91200 44.30700
H  41.01200 -1.07200 45.99300
H  40.18100 -0.13900 47.24800
H  41.21900 -1.42100 47.76800
H  46.15800 -1.37800 48.36900
H  46.09200 -1.41400 46.53700
H  46.01700 -2.81300 47.48200
H  48.52900 2.20900 46.24200
H  48.79700 4.38600 48.19700
H  49.03200 0.90900 48.22300
H  47.97500 1.92100 49.21100
H  49.58900 2.45800 48.73700
H  49.37100 5.42200 45.56000
H  50.09300 3.84700 45.57100
H  51.21300 6.10100 46.68700
H  51.91300 4.56300 46.56900
H  50.88900 4.91700 48.02500
H  47.19600 9.22100 46.21700
H  47.11900 9.21500 48.03100
H  46.04100 10.28000 46.94300
H  41.04400 9.03100 46.37900
H  39.20400 9.00000 50.42200
H  37.93900 9.24700 49.18200
H  38.79300 10.61900 49.77100
Mg 1.39400 41.24600 26.54400
C  3.95900 41.97300 28.77500
C  -0.39900 39.95000 29.23900
C  -0.95300 40.25600 24.37200
C  3.54600 42.18300 23.92900
N  1.68500 41.04500 28.75700
C  2.79700 41.52900 29.45700
C  2.56700 41.55200 31.03600
C  1.28000 40.63500 31.07300
C  0.81300 40.50500 29.56700
C  1.54200 39.40800 31.92300
C  2.29900 42.96000 31.59800
C  2.52300 43.18700 33.09700
H  2.59300 41.95800 34.09500
N  -0.47800 40.36400 26.76300
C  -0.97300 39.83100 27.94200
C  -2.16800 39.20000 27.61600
C  -2.48500 39.41300 26.20000
C  -1.29100 39.99900 25.69300
C  -2.99200 38.57000 28.66900
C  -3.79400 39.11800 25.34200
O  -3.90700 39.38500 24.12800
C  -4.82800 38.10800 25.80500
N  1.38900 41.10400 24.51700
C  0.21400 40.84800 23.81400
C  0.41100 41.04700 22.28800
C  1.70100 41.84500 22.31200
C  2.33400 41.59100 23.64300
C  0.40500 39.83600 21.38600
C  1.49900 43.35400 21.86100
C  2.48400 43.74000 20.69300
N  3.38000 41.97000 26.30200
C  4.15300 42.29000 25.20500
C  5.51400 42.66400 25.56300
C  5.39500 42.56600 26.94600
C  4.11300 42.18200 27.33900
C  6.64200 43.03800 24.73700
C  6.21300 42.78800 28.12500
O  7.37400 43.09100 28.26400
C  5.30500 42.38000 29.35200
C  5.94900 41.26800 30.09300
O  5.95300 40.13600 29.65900
O  6.32900 41.66900 31.32700
C  6.57000 40.51700 32.22900
H  -0.85600 39.54100 30.14200
H  -1.69400 40.07300 23.59200
H  4.16400 42.41800 23.06000
H  3.47300 41.20900 31.53600
H  0.58000 41.22500 31.66500
H  1.01000 39.55100 32.86400
H  2.60500 39.17100 31.96600
H  1.03600 38.51300 31.56300
H  1.33400 43.30800 31.23100
H  3.10200 43.54400 31.14900
H  1.70800 43.81400 33.45800
H  3.44600 43.76300 33.16800
H  -3.99400 38.54400 28.24000
H  -3.00100 39.09600 29.62300
H  -2.72200 37.51700 28.74700
H  -5.38400 38.53500 26.63900
H  -4.29200 37.22300 26.14700
H  -5.51200 37.79100 25.01900
H  -0.40600 41.70400 21.99000
H  2.45600 41.36300 21.69200
H  1.37300 39.58200 20.95300
H  -0.29900 40.00700 20.57100
H  0.10000 38.94500 21.93400
H  1.67700 44.01700 22.70800
H  0.44200 43.52600 21.65800
H  2.00500 44.42400 19.99300
H  2.79100 42.81000 20.21400
H  3.36000 44.25200 21.09200
H  7.33900 43.51200 25.42800
H  6.39800 43.91700 24.14100
H  6.98300 42.17500 24.16400
H  5.17000 43.23200 30.01800
H  7.49400 39.99500 31.98200
H  5.77100 39.77500 32.25100
H  6.61600 41.03600 33.18700

