158

Mg 23.73300 -5.28400 45.86200
C  25.77100 -2.98000 44.36000
C  21.08900 -4.10900 43.99400
C  21.93500 -8.12000 46.61800
C  26.47700 -6.72100 47.54200
N  23.54300 -3.68300 44.25400
C  24.44100 -2.78400 43.92600
C  23.83200 -1.70900 42.92200
C  22.31100 -1.95900 43.27600
C  22.26400 -3.31900 43.88700
C  21.53200 -1.04000 44.30300
C  24.40400 -2.25300 41.49800
C  25.02300 -1.24400 40.46300
H  24.36000 -1.16800 39.13700
N  21.73900 -5.99600 45.39000
C  20.85600 -5.33500 44.52300
C  19.72700 -6.13500 44.36100
C  19.85500 -7.27500 45.29500
C  21.24200 -7.17200 45.77900
C  18.49000 -5.77100 43.49200
C  18.76600 -8.31200 45.62400
O  17.62300 -8.12300 45.18200
C  19.00500 -9.49100 46.53400
N  24.12600 -7.21900 46.97200
C  23.21000 -8.15100 47.07800
C  23.82400 -9.42500 47.76500
C  25.16800 -8.87400 48.40100
C  25.28300 -7.54400 47.55900
C  22.96200 -10.13000 48.80700
C  26.37300 -9.80700 48.23300
C  27.40400 -9.92400 49.36900
N  25.72800 -4.91800 46.05100
C  26.72300 -5.53800 46.77000
C  27.95500 -4.79100 46.62600
C  27.64600 -3.74000 45.69600
C  26.28500 -3.90900 45.33200
C  29.22400 -5.13700 47.21300
C  28.09600 -2.58100 44.95500
O  29.21500 -2.12300 45.00100
C  27.02500 -2.10100 44.04800
C  26.83400 -0.62100 44.27600
O  26.04400 -0.06900 45.07000
O  27.71800 0.11600 43.47500
C  27.56000 1.52500 43.62800
H  20.26800 -3.72700 43.38300
H  21.31900 -9.01400 46.73900
H  27.31700 -7.07000 48.14600
H  24.24300 -0.72900 43.16400
H  21.74900 -1.99300 42.34300
H  20.73500 -0.61200 43.69500
H  22.20500 -0.28300 44.70500
H  21.12300 -1.53400 45.18400
H  23.61100 -2.87600 41.08400
H  25.24500 -2.94400 41.55700
H  26.03800 -1.61500 40.32000
H  24.90600 -0.29000 40.97800
H  18.18400 -6.57900 42.82800
H  18.66700 -4.99500 42.74700
H  17.70800 -5.30200 44.08800
H  18.15100 -10.16900 46.55100
H  19.37200 -9.08800 47.47800
H  19.79600 -10.02200 46.00300
H  24.24400 -10.14200 47.05900
H  25.15600 -8.54800 49.44100
H  23.01900 -9.66500 49.79100
H  23.12300 -11.20100 48.92500
H  21.89600 -10.13600 48.57600
H  26.92400 -9.36700 47.40200
H  26.04700 -10.84600 48.19100
H  27.29000 -10.80400 50.00200
H  27.21200 -9.11100 50.06900
H  28.41700 -9.80600 48.98400
H  29.94700 -5.44900 46.45900
H  29.18200 -5.95200 47.93500
H  29.65300 -4.31700 47.78900
H  27.38200 -2.22100 43.02500
H  27.74800 1.78400 44.67000
H  26.63300 1.92600 43.21900
H  28.38200 1.98800 43.08100
Mg 9.74200 47.29400 24.80600
C  7.78400 47.38500 27.68300
C  12.32900 48.87100 26.63200
C  11.52400 47.28300 22.06600
C  6.95200 46.15000 22.98900
N  10.07700 47.91500 27.00100
C  9.11900 47.81800 27.98100
C  9.69800 48.44100 29.25700
C  10.95600 49.31300 28.80700
C  11.17400 48.66300 27.40000
C  10.86500 50.86400 28.74000
C  10.02300 47.30700 30.24700
C  9.89200 47.58300 31.78400
H  9.67200 46.37900 32.71700
N  11.70400 47.93200 24.45400
C  12.55600 48.53600 25.31300
C  13.79300 48.73000 24.52200
C  13.62400 48.23100 23.22900
C  12.24500 47.74800 23.17200
C  15.05900 49.20600 25.17900
C  14.66000 48.24900 22.09000
O  14.49000 47.74900 20.93100
C  15.90700 49.04400 22.22600
N  9.26700 46.75600 22.78200
C  10.25000 46.83500 21.83100
C  9.77900 46.27700 20.50000
C  8.21000 46.02300 20.72900
C  8.08000 46.37500 22.23200
C  10.22300 47.13100 19.19900
C  7.81500 44.63000 20.46300
C  8.35500 43.59000 21.50600
N  7.78400 46.83500 25.18300
C  6.78500 46.43600 24.36800
C  5.52900 46.28800 25.14500
C  5.85000 46.66300 26.45600
C  7.23400 46.99000 26.41500
C  4.20200 46.06200 24.69500
C  5.36000 46.83900 27.79300
O  4.24900 46.60600 28.28900
C  6.66000 47.16400 28.65000
C  6.87800 46.01700 29.60300
O  7.34200 44.97000 29.33500
O  6.49900 46.22900 30.84000
C  6.41000 45.10500 31.78400
H  13.19800 49.29400 27.14100
H  12.22900 47.04900 21.26500
H  6.15900 45.66500 22.41500
H  8.94600 49.06000 29.74600
H  11.77400 49.04800 29.47800
H  11.22300 51.16200 27.75500
H  11.43400 51.38500 29.50900
H  9.78200 50.97300 28.79800
H  11.03800 46.99300 30.00000
H  9.36900 46.44700 30.10600
H  9.15500 48.36400 31.97100
H  10.86900 47.88900 32.16000
H  15.88500 48.66300 24.71900
H  15.01500 49.25600 26.26700
H  15.16200 50.28300 25.04500
H  16.26100 49.37800 21.25100
H  16.64800 48.39900 22.69800
H  15.73300 49.88800 22.89400
H  10.23100 45.28600 20.45100
H  7.57200 46.66500 20.12200
H  9.53900 47.97000 19.06700
H  10.15600 46.49500 18.31700
H  11.21200 47.56500 19.34600
H  8.18600 44.30100 19.49200
H  6.72900 44.59500 20.38200
H  8.70400 42.70600 20.97100
H  7.54300 43.35800 22.19600
H  9.19700 43.90000 22.12400
H  4.06800 46.90900 24.02300
H  3.49900 46.05800 25.52800
H  4.11500 45.09300 24.20200
H  6.56700 48.08600 29.22400
H  7.25400 44.43200 31.63500
H  5.45400 44.61200 31.60300
H  6.48300 45.42600 32.82300

