158

Mg 35.07400 2.44700 29.16600
C  32.69000 3.44600 31.58200
C  37.56600 2.71900 31.61300
C  37.35800 1.91400 26.77000
C  32.47600 2.36300 26.70100
N  35.08400 2.99500 31.25300
C  34.04200 3.26800 32.01200
C  34.42700 3.29500 33.53100
C  35.99500 3.49800 33.49200
C  36.26300 3.09200 32.01500
C  36.47700 4.92800 33.81600
C  33.96400 2.02600 34.34200
C  34.20600 1.85100 35.84400
H  34.70500 3.03300 36.72100
N  37.20900 2.24500 29.21300
C  37.98000 2.38000 30.32700
C  39.35300 2.21000 29.89200
C  39.31500 1.90800 28.50800
C  37.93400 1.97800 28.10500
C  40.59800 2.48300 30.72800
C  40.45300 1.46500 27.48500
O  40.31800 1.38000 26.25900
C  41.81900 1.24900 27.94400
N  34.95900 2.39800 27.01100
C  36.08800 2.17100 26.23500
C  35.76100 2.02700 24.73500
C  34.18500 2.11900 24.70100
C  33.83100 2.27700 26.25800
C  36.56500 3.00700 23.74700
C  33.63900 0.76300 24.06500
C  33.21400 -0.34000 25.08300
N  32.95800 2.83700 29.03800
C  32.06200 2.78100 27.99300
C  30.78800 3.18900 28.49100
C  30.96000 3.42400 29.88000
C  32.29000 3.21400 30.20600
C  29.66600 3.40300 27.61200
C  30.27700 3.83900 31.09300
O  29.14300 4.22400 31.28200
C  31.36600 3.71600 32.24200
C  31.43100 4.97000 33.02900
O  31.74600 6.07300 32.54500
O  31.20900 4.78600 34.36600
C  31.52100 5.94700 35.22000
H  38.37500 2.84000 32.33600
H  38.04700 1.75500 25.93900
H  31.75800 2.23000 25.88900
H  33.92300 4.13900 34.00300
H  36.63200 2.86400 34.10800
H  37.38300 5.22600 33.28900
H  36.81200 4.85200 34.85000
H  35.63100 5.61600 33.82200
H  34.39900 1.15500 33.85200
H  32.89800 1.82100 34.24800
H  34.87800 0.99500 35.90700
H  33.34200 1.52300 36.42300
H  40.41800 3.36600 31.34000
H  41.38200 2.71400 30.00700
H  40.80500 1.62500 31.36700
H  42.17400 2.27100 27.81100
H  42.34500 0.50500 27.34700
H  41.87400 0.89700 28.97400
H  36.12200 1.00700 24.60500
H  33.82900 2.98000 24.13600
H  37.24300 2.32500 23.23500
H  37.15900 3.72500 24.31100
H  35.93900 3.58000 23.06200
H  34.26500 0.24900 23.33600
H  32.79900 1.13100 23.47600
H  33.86500 -0.39700 25.95600
H  33.45900 -1.33300 24.70500
H  32.16600 -0.45700 25.35700
H  28.82800 2.70700 27.56200
H  29.97000 3.73800 26.62000
H  29.29300 4.33200 28.04400
H  31.15100 2.89900 32.93000
H  30.67900 5.96300 35.91300
H  31.58700 6.96000 34.82300
H  32.38400 5.70100 35.83800
Mg -5.60600 24.88700 26.95000
C  -4.59000 26.76900 29.75100
C  -7.37500 23.05300 29.16600
C  -6.87500 23.24300 24.33300
C  -3.79500 26.96400 24.96800
N  -5.86800 24.93800 29.21800
C  -5.45600 25.81900 30.12900
C  -6.07400 25.55700 31.52000
C  -6.76100 24.16300 31.31600
C  -6.67800 24.00600 29.79800
C  -6.13700 22.87900 32.06300
C  -7.00800 26.70900 31.98000
C  -7.06100 27.19600 33.53900
H  -6.52000 26.23100 34.61200
N  -6.98800 23.38000 26.72100
C  -7.69100 22.79700 27.79000
C  -8.63400 21.82100 27.21300
C  -8.48000 21.80700 25.76600
C  -7.44500 22.89200 25.56500
C  -9.56100 20.95900 28.09500
C  -9.10300 20.95000 24.73200
O  -9.06600 21.27100 23.53000
C  -10.07500 19.90200 25.14200
N  -5.26800 25.00500 24.95300
C  -5.92300 24.19100 24.07200
C  -5.36800 24.44400 22.61600
C  -4.45300 25.68900 22.84700
C  -4.50000 25.87700 24.37000
C  -4.56200 23.25600 22.02600
C  -4.92600 27.01600 22.00500
C  -4.10000 27.22100 20.70900
N  -4.35100 26.46600 27.23600
C  -3.69100 27.25300 26.27400
C  -2.96200 28.25000 26.92900
C  -3.23500 28.08200 28.31700
C  -4.16400 27.07800 28.45300
C  -2.02600 29.20300 26.28900
C  -3.00200 28.63600 29.61500
O  -2.34000 29.57200 30.03400
C  -3.94300 27.87600 30.62600
C  -3.16700 27.38600 31.80300
O  -2.44100 26.41500 31.84900
O  -3.21200 28.28800 32.88300
C  -2.25800 28.20900 34.02700
H  -7.79100 22.32400 29.86400
H  -7.12000 22.55100 23.52500
H  -3.25400 27.60500 24.26900
H  -5.32700 25.35500 32.28800
H  -7.79800 24.08900 31.64300
H  -5.35400 23.31400 32.68500
H  -5.77000 22.14300 31.34800
H  -6.91800 22.50700 32.72600
H  -8.01900 26.51000 31.62400
H  -6.57300 27.56000 31.45400
H  -8.05600 27.52200 33.84200
H  -6.54300 28.14500 33.68000
H  -9.44400 19.93300 27.74900
H  -10.57800 21.33900 28.00500
H  -9.36900 21.00700 29.16700
H  -9.81300 19.22200 25.95200
H  -10.45900 19.26700 24.34300
H  -10.98100 20.37200 25.52500
H  -6.24300 24.62400 21.99300
H  -3.40000 25.47000 22.67500
H  -4.32100 22.44800 22.71700
H  -3.61100 23.58600 21.60800
H  -5.22900 22.87600 21.25200
H  -4.93700 27.93000 22.59900
H  -5.93300 26.89600 21.60500
H  -3.35900 26.46100 20.46000
H  -3.52100 28.14300 20.75700
H  -4.72700 27.30800 19.82200
H  -1.43500 29.64200 27.09400
H  -2.38100 29.93400 25.56300
H  -1.26900 28.62500 25.76000
H  -4.72300 28.56400 30.95400
H  -1.29400 27.78200 33.75000
H  -2.61000 27.75300 34.95200
H  -1.99300 29.21300 34.35900

