158

Mg 23.60300 -5.23300 45.80900
C  25.75100 -2.85900 44.36400
C  21.20000 -4.21600 43.48800
C  21.79700 -8.18400 46.21800
C  26.33300 -6.60000 47.30700
N  23.50100 -3.63700 44.23100
C  24.46400 -2.84700 43.75900
C  24.08200 -1.94000 42.56900
C  22.58900 -2.32600 42.51000
C  22.37500 -3.41700 43.49400
C  21.65600 -1.07200 42.79800
C  24.75800 -2.35700 41.26200
C  24.95200 -1.23000 40.20900
H  25.47600 -1.60100 38.72400
N  21.66800 -5.99000 45.15700
C  20.82500 -5.38700 44.25500
C  19.60900 -6.08800 44.18100
C  19.77100 -7.25700 44.95300
C  21.11400 -7.19800 45.51100
C  18.50600 -5.53300 43.29400
C  18.67800 -8.31000 45.13800
O  17.59600 -8.28700 44.52600
C  18.84500 -9.57600 45.89200
N  23.96800 -7.11300 46.52800
C  23.15300 -8.16200 46.66100
C  23.78700 -9.24800 47.47200
C  25.24400 -8.85700 47.61500
C  25.19600 -7.38900 47.16400
C  23.06600 -9.69500 48.74400
C  26.17300 -9.67400 46.66800
C  26.79100 -10.91100 47.28300
N  25.60400 -4.70300 46.12100
C  26.56300 -5.30400 46.80700
C  27.80700 -4.63700 46.71900
C  27.55500 -3.55800 45.78000
C  26.15500 -3.70800 45.45700
C  29.06100 -5.07900 47.34300
C  28.14300 -2.48200 45.02800
O  29.20900 -1.92200 45.05300
C  26.96500 -2.02100 44.05500
C  26.83700 -0.54700 44.29600
O  26.15400 -0.01700 45.18900
O  27.78000 0.18900 43.50700
C  27.85300 1.65300 43.62300
H  20.47200 -3.91400 42.73100
H  21.29300 -9.09200 46.55300
H  27.15300 -7.15600 47.76600
H  24.15600 -0.87800 42.80600
H  22.32100 -2.69500 41.52100
H  20.73500 -1.39600 43.28300
H  21.38400 -0.63900 41.83500
H  22.05800 -0.27700 43.42700
H  24.26100 -3.20500 40.79100
H  25.78600 -2.65100 41.47100
H  25.70600 -0.58500 40.66200
H  24.00900 -0.68700 40.13600
H  18.82800 -5.02300 42.38600
H  17.74000 -4.95500 43.80900
H  17.86300 -6.30600 42.87400
H  17.96900 -10.22400 45.93800
H  19.01100 -9.32500 46.93900
H  19.60100 -10.17700 45.38600
H  23.68300 -10.17000 46.90000
H  25.50100 -8.93800 48.67100
H  23.61400 -9.38900 49.63600
H  22.93000 -10.77500 48.79800
H  22.12400 -9.14700 48.73100
H  26.92800 -9.02800 46.22000
H  25.56400 -9.96300 45.81200
H  27.85300 -11.04100 47.07700
H  26.26900 -11.79600 46.91800
H  26.65200 -11.05100 48.35500
H  29.12000 -4.96900 48.42600
H  29.85600 -4.55300 46.81500
H  29.20600 -6.13600 47.11900
H  27.30800 -2.09500 43.02300
H  27.07900 2.13500 43.02600
H  28.82400 1.99800 43.26800
H  27.65700 2.02200 44.62900
Mg 30.84400 58.91100 40.50100
C  28.01000 57.06300 39.49400
C  32.77700 56.19200 39.60000
C  33.53400 60.80000 40.96800
C  28.78400 61.66500 40.88300
N  30.42500 56.92200 39.29400
C  29.23700 56.39000 39.19700
C  29.39200 55.05900 38.47900
C  30.85100 54.69500 38.92500
C  31.40200 56.03800 39.31100
C  30.86900 53.68500 40.05500
C  29.20400 55.27100 36.98100
C  27.90900 54.64200 36.41400
H  27.15000 55.33700 35.31800
N  32.89000 58.54100 40.33100
C  33.48700 57.38100 39.96500
C  34.92600 57.55600 39.94900
C  35.16200 58.86900 40.28600
C  33.79900 59.49100 40.54900
C  35.91700 56.51600 39.52600
C  36.45900 59.53600 40.31700
O  37.52800 58.96700 40.11900
C  36.72600 61.01900 40.39500
N  31.12400 60.94200 41.01400
C  32.35200 61.52500 41.13300
C  32.24500 63.02500 41.35200
C  30.71000 63.31200 41.09100
C  30.12800 61.91700 41.02300
C  32.76100 63.44900 42.73000
C  30.47500 64.17300 39.78400
C  29.57200 65.38000 39.96100
N  28.71600 59.33100 40.36100
C  28.10000 60.51300 40.58600
C  26.66500 60.31300 40.42700
C  26.55100 58.95700 40.12100
C  27.85900 58.43200 39.98600
C  25.64400 61.30900 40.52300
C  25.67700 57.83500 39.87900
O  24.45500 57.82100 39.77000
C  26.54300 56.62200 39.36800
C  26.22000 55.44300 40.15300
O  26.76000 54.98900 41.14900
O  25.12100 54.92200 39.54500
C  24.61900 53.60600 40.04200
H  33.41100 55.30200 39.59100
H  34.30800 61.56600 41.05500
H  28.07300 62.49400 40.88200
H  28.71900 54.28400 38.84500
H  31.52400 54.48300 38.09400
H  31.45600 54.17000 40.83500
H  31.46700 52.82800 39.74400
H  29.88900 53.33700 40.38000
H  30.03100 54.78600 36.46200
H  29.17100 56.33200 36.73400
H  27.22100 54.38300 37.21900
H  28.23700 53.67800 36.02400
H  36.47500 55.92200 40.25000
H  36.63100 56.97800 38.84500
H  35.42400 55.69900 39.00000
H  36.52100 61.42600 41.38500
H  36.04200 61.49400 39.69200
H  37.73100 61.30700 40.08500
H  32.87500 63.31200 40.51100
H  30.26400 63.75800 41.98000
H  33.82200 63.22600 42.83500
H  32.16600 62.99200 43.52100
H  32.65500 64.53100 42.64400
H  29.88700 63.63100 39.04300
H  31.41200 64.54000 39.36500
H  28.88100 65.34400 39.11800
H  30.21600 66.25500 39.87100
H  28.90800 65.34100 40.82400
H  25.83700 61.89800 41.41900
H  24.62400 60.93100 40.45200
H  25.75400 61.90900 39.61900
H  26.40000 56.49900 38.29400
H  25.11200 53.30400 40.96600
H  24.75800 52.82500 39.29400
H  23.56900 53.71800 40.31300

