158

Mg 35.64300 1.87300 29.89500
C  33.46500 3.17500 32.34500
C  38.21700 2.11600 32.19600
C  37.85800 1.60600 27.36500
C  33.17100 2.54500 27.41900
N  35.83700 2.75000 31.91400
C  34.81500 2.90100 32.77600
C  35.16400 2.84200 34.22200
C  36.76400 2.85400 34.16000
C  36.98900 2.62000 32.60700
C  37.45900 4.15700 34.63000
C  34.54000 1.71900 35.10400
C  34.43900 2.08300 36.60100
H  35.15200 3.25800 37.19400
N  37.69900 1.55600 29.80500
C  38.49600 1.60700 30.87300
C  39.78400 1.09900 30.43600
C  39.78700 1.14400 28.98600
C  38.42000 1.44100 28.66000
C  40.94300 0.86500 31.36100
C  40.90000 0.86100 27.99500
O  40.78900 0.90600 26.79400
C  42.31000 0.46500 28.45200
N  35.51300 1.94600 27.70500
C  36.54900 1.78900 26.95300
C  36.17500 1.74000 25.45000
C  34.61400 1.74800 25.48600
C  34.37000 1.99300 26.98400
C  36.80400 2.97200 24.58000
C  33.93500 0.44900 24.97000
C  33.36600 0.59200 23.51900
N  33.65400 2.61800 29.91900
C  32.80600 2.87900 28.78000
C  31.56500 3.34500 29.29600
C  31.74100 3.41800 30.72500
C  33.05500 3.03700 31.02500
C  30.42300 3.73400 28.40800
C  31.09200 3.82800 31.94700
O  30.01300 4.32700 32.18900
C  32.17400 3.62200 33.09200
C  32.30500 4.88800 33.87700
O  33.29300 5.65000 33.86400
O  31.25100 4.97500 34.72300
C  31.08400 6.13600 35.59700
H  38.98900 2.17000 32.96600
H  38.46300 1.40800 26.47800
H  32.53400 2.73700 26.55200
H  34.80400 3.80400 34.58600
H  37.27200 2.06600 34.71700
H  38.08000 3.94300 35.50000
H  36.78100 4.89200 35.06300
H  37.97200 4.68100 33.82400
H  35.22600 0.88600 34.95300
H  33.52600 1.58800 34.72500
H  34.85500 1.17100 37.03000
H  33.37400 2.30400 36.67600
H  41.29700 -0.16400 31.29500
H  40.58700 0.90200 32.39100
H  41.73100 1.58700 31.14300
H  42.36500 -0.26400 29.26000
H  42.61700 1.39300 28.93400
H  42.88800 0.14400 27.58500
H  36.69400 0.87400 25.04000
H  34.28700 2.63500 24.94300
H  36.99100 2.64000 23.55900
H  37.81300 3.14100 24.95400
H  36.16800 3.85800 24.56300
H  33.18600 0.18200 25.71500
H  34.64400 -0.36700 24.82800
H  32.31100 0.57400 23.79400
H  33.57000 -0.25100 22.85800
H  33.55600 1.54200 23.02000
H  30.11100 2.96700 27.69900
H  30.76400 4.67900 27.98500
H  29.52900 3.82300 29.02600
H  31.87200 2.80700 33.74900
H  30.24900 5.74500 36.17800
H  30.78200 7.09000 35.16400
H  31.86600 6.32000 36.33200
Mg 36.03000 48.80100 24.71900
C  36.39400 47.06500 27.67000
C  34.91200 51.53200 26.56000
C  35.50400 50.60600 21.85100
C  37.20300 46.07100 22.93400
N  35.82000 49.26200 26.93800
C  35.83500 48.30400 27.92900
C  35.49900 48.91100 29.27400
C  34.78500 50.28200 28.89800
C  35.13300 50.36600 27.34400
C  33.31000 50.36200 29.25700
C  36.82800 49.15800 30.03200
C  36.75300 48.78200 31.50200
H  35.37500 48.81900 32.18400
N  35.29500 50.74500 24.28400
C  34.97800 51.72600 25.20300
C  34.55300 52.89000 24.45900
C  34.74400 52.69200 23.05500
C  35.21300 51.27400 22.98400
C  33.97700 54.14600 25.15400
C  34.38600 53.56100 21.83100
O  34.42000 53.16800 20.65400
C  33.93700 54.97200 22.06800
N  36.11300 48.36300 22.73000
C  35.86700 49.18600 21.69500
C  36.26300 48.55400 20.33900
C  37.01000 47.28200 20.78800
C  36.79100 47.26700 22.28600
C  34.99200 48.35000 19.45700
C  38.46300 47.14800 20.33200
C  39.46900 47.94000 21.20500
N  36.62200 46.90000 25.12600
C  37.10400 45.90200 24.32600
C  37.49500 44.82200 25.18900
C  37.31700 45.18000 26.52600
C  36.76900 46.51600 26.44900
C  38.13100 43.53200 24.78000
C  37.43400 44.78700 27.89400
O  37.77600 43.74300 28.45300
C  36.88500 46.03900 28.66100
C  35.84300 45.52800 29.50800
O  34.72200 45.16700 29.03000
O  36.25700 45.30500 30.77100
C  35.27300 44.59700 31.55700
H  34.55200 52.37800 27.15000
H  35.42500 51.03700 20.85000
H  37.60400 45.20800 22.39900
H  34.77000 48.24700 29.73900
H  35.37200 51.09800 29.32000
H  33.08700 51.28800 29.78700
H  32.86600 49.60100 29.89800
H  32.72800 50.30700 28.33700
H  37.27400 50.14100 29.88700
H  37.54900 48.49200 29.55700
H  37.18000 49.64500 32.01300
H  37.20100 47.83300 31.79600
H  33.38000 53.84300 26.01400
H  33.34000 54.69600 24.46200
H  34.75800 54.79900 25.54200
H  32.93300 55.02300 22.48900
H  33.87000 55.51900 21.12800
H  34.63600 55.48800 22.72600
H  36.95800 49.25500 19.87700
H  36.39400 46.53400 20.28800
H  34.39900 47.49700 19.78700
H  35.16200 48.20500 18.39000
H  34.40200 49.26100 19.55800
H  38.62600 47.57300 19.34200
H  38.61900 46.07000 20.32900
H  40.44000 47.46000 21.32800
H  39.05000 48.07600 22.20200
H  39.61000 48.88700 20.68400
H  37.22300 42.93700 24.68100
H  38.84000 43.12700 25.50200
H  38.67000 43.69700 23.84600
H  37.76900 46.34800 29.21800
H  35.72400 43.98100 32.33600
H  34.71600 43.89400 30.93900
H  34.61400 45.35200 31.98700

