158

Mg 36.09100 2.10700 31.05000
C  33.58800 3.32400 33.22800
C  38.39500 2.38900 33.48600
C  38.53100 1.55600 28.79600
C  33.82900 2.76100 28.41600
N  35.98100 2.91000 33.04700
C  34.84900 3.11800 33.84800
C  35.19900 3.14700 35.38600
C  36.83600 3.13800 35.39300
C  37.12100 2.80900 33.88300
C  37.51500 4.47000 35.93500
C  34.44400 1.90600 36.06300
C  33.99700 2.20500 37.53500
H  34.78700 3.29100 38.39800
N  38.16900 1.72800 31.22200
C  38.87800 1.85200 32.33400
C  40.24700 1.41800 32.03100
C  40.24200 1.09700 30.64900
C  38.97000 1.43900 30.14300
C  41.34300 1.33700 33.09300
C  41.34600 0.68200 29.74300
O  41.24600 0.58600 28.53600
C  42.80800 0.47700 30.32600
N  36.17200 2.19900 28.94200
C  37.24400 1.75300 28.24900
C  36.97100 1.71900 26.75000
C  35.48600 1.93300 26.60900
C  35.11500 2.34800 28.03800
C  37.94200 2.72200 25.96500
C  34.69900 0.63000 26.28100
C  33.48100 0.91300 25.41900
N  34.08700 2.78900 30.77100
C  33.30100 2.99100 29.67400
C  31.99800 3.34800 30.12500
C  32.05800 3.45900 31.50400
C  33.34700 3.20000 31.84500
C  30.82800 3.57700 29.25200
C  31.30900 3.79100 32.68200
O  30.16700 4.18800 32.76700
C  32.27400 3.79400 33.85300
C  32.37400 5.20800 34.36600
O  32.71300 6.19000 33.79000
O  32.04300 5.20000 35.70000
C  31.86400 6.53500 36.30700
H  39.02500 2.45100 34.37500
H  39.27900 1.39600 28.01600
H  33.10400 2.90600 27.61300
H  34.80800 4.08100 35.79000
H  37.21200 2.25900 35.91700
H  36.76200 5.25000 36.04300
H  38.21500 4.83900 35.18600
H  38.14300 4.28800 36.80700
H  35.14100 1.07200 35.97500
H  33.54100 1.66700 35.50200
H  34.11500 1.22500 37.99800
H  32.94200 2.43600 37.39000
H  42.15000 0.63000 32.89700
H  40.85000 1.06400 34.02600
H  41.84500 2.29400 33.23500
H  43.55600 0.36800 29.54100
H  42.72100 -0.26100 31.12300
H  42.98600 1.38500 30.90200
H  37.18900 0.71400 26.38700
H  35.32200 2.79300 25.95900
H  38.59500 3.28200 26.63500
H  37.27400 3.40600 25.44200
H  38.50500 2.14500 25.23200
H  34.28900 0.11600 27.15000
H  35.37400 -0.12900 25.88500
H  33.52800 1.88600 24.93000
H  32.56900 0.69800 25.97700
H  33.60700 0.25000 24.56300
H  29.99500 2.94000 29.55100
H  31.04800 3.31500 28.21700
H  30.66000 4.65400 29.25300
H  32.05900 3.05100 34.62100
H  31.69800 6.44700 37.38000
H  30.99800 6.90500 35.75700
H  32.74200 7.13700 36.07100
Mg 41.77200 40.49400 26.90800
C  41.02200 42.77300 29.56400
C  42.96700 38.39200 29.34600
C  42.68700 38.47100 24.39600
C  41.32400 43.06800 24.60700
N  42.05400 40.64400 29.16300
C  41.53900 41.57200 30.07500
C  41.56000 41.15400 31.56100
C  42.19300 39.73400 31.30400
C  42.54000 39.60500 29.86800
C  43.33200 39.38000 32.28000
C  40.22400 41.22000 32.33000
C  40.27000 41.71600 33.81200
H  39.65000 40.84200 34.95600
N  42.73000 38.69400 26.84600
C  43.08100 37.92200 27.98300
C  43.64500 36.69000 27.48900
C  43.63000 36.69200 26.13500
C  43.01500 37.99400 25.71000
C  44.15200 35.56000 28.44200
C  43.97900 35.58100 25.09300
O  43.79800 35.64400 23.90600
C  44.51700 34.26000 25.57500
N  42.19000 40.83600 24.84100
C  42.31800 39.79500 24.02900
C  42.12000 40.06200 22.54800
C  41.73000 41.57500 22.57300
C  41.78700 41.86300 24.11500
C  43.31400 39.66400 21.53900
C  40.37200 41.90400 21.82300
C  39.00600 41.66200 22.44900
N  41.19200 42.51200 26.95900
C  41.01300 43.39800 25.94500
C  40.44100 44.61900 26.55900
C  40.44400 44.41700 27.91100
C  40.96200 43.11300 28.17500
C  40.13100 45.89800 25.83800
C  40.12400 45.04200 29.13600
O  39.73800 46.19600 29.35000
C  40.42200 43.99100 30.22700
C  41.28500 44.66000 31.16100
O  42.35000 45.25400 30.90600
O  40.87100 44.49300 32.44300
C  41.68200 45.11900 33.52300
H  43.23300 37.61200 30.06300
H  42.69900 37.81200 23.52500
H  41.06300 43.84700 23.88800
H  42.30000 41.83400 31.98300
H  41.47200 38.97200 31.60200
H  43.33700 40.00700 33.17100
H  44.31000 39.40300 31.79800
H  43.23100 38.36400 32.66100
H  39.92400 40.18000 32.45200
H  39.41700 41.63500 31.72700
H  39.68600 42.63100 33.70900
H  41.24400 42.13200 34.07100
H  45.21000 35.49500 28.19100
H  43.61300 34.63800 28.22400
H  44.14700 35.83000 29.49800
H  45.36500 34.22600 26.26000
H  44.68400 33.78300 24.60900
H  43.64900 33.75200 25.99500
H  41.21000 39.57500 22.19700
H  42.56200 42.15300 22.17000
H  43.71200 40.47900 20.93400
H  42.88000 38.87900 20.91900
H  44.04200 39.37200 22.29600
H  40.29200 41.18700 21.00600
H  40.46000 42.92300 21.44900
H  38.68700 42.63800 22.81700
H  39.15000 40.89800 23.21200
H  38.27300 41.21900 21.77500
H  39.44700 45.54000 25.06900
H  41.02500 46.27700 25.34400
H  39.72200 46.67100 26.49000
H  39.51100 43.62200 30.69700
H  41.01800 45.62400 34.22400
H  42.36900 45.91600 33.23800
H  42.13300 44.26200 34.02400

