158

Mg 43.91000 4.69800 46.66700
C  42.09800 7.63500 46.24300
C  41.09300 2.87400 45.85200
C  45.93500 2.20000 46.01300
C  46.79000 6.80400 47.20600
N  41.83800 5.23600 46.10500
C  41.36000 6.50000 46.13200
C  39.81600 6.51700 46.02600
C  39.44400 4.97400 45.90600
C  40.81700 4.29100 46.02100
C  38.44200 4.55700 46.97200
C  39.20500 7.35800 44.77900
C  40.06200 7.72900 43.59900
H  39.61600 7.23100 42.27800
N  43.57400 2.80500 46.26800
C  42.34700 2.21300 46.02100
C  42.68100 0.82400 45.73200
C  44.01300 0.55800 45.84200
C  44.58600 1.89200 46.03000
C  41.50000 -0.05600 45.37200
C  44.68600 -0.76200 45.81900
O  43.99300 -1.80500 45.67900
C  46.15600 -0.98700 46.23200
N  46.17600 4.57400 46.41300
C  46.67200 3.35200 46.28100
C  48.18400 3.35000 46.49800
C  48.55200 4.85600 46.89900
C  47.14100 5.44200 46.83800
C  48.69500 2.25400 47.58500
C  49.63500 5.58300 46.02000
C  50.88600 6.12600 46.74800
N  44.40800 6.82300 46.70200
C  45.53800 7.50400 46.91800
C  45.30000 8.98300 46.90400
C  43.92200 9.03100 46.68300
C  43.43600 7.72300 46.59400
C  46.25700 10.10100 47.00400
C  42.79900 9.94000 46.56800
O  42.67800 11.16400 46.55200
C  41.57100 9.04400 46.36400
C  40.76900 9.31600 47.56500
O  40.83800 8.64100 48.51100
O  39.98000 10.41300 47.33300
C  39.19000 10.86600 48.51400
H  40.17100 2.37000 45.55700
H  46.68000 1.42400 45.82600
H  47.53900 7.50200 47.58600
H  39.46200 6.98100 46.94700
H  39.08300 4.76600 44.89900
H  37.58800 4.11500 46.45900
H  38.03900 5.42600 47.49300
H  38.98500 4.04100 47.76400
H  38.99100 8.31200 45.25900
H  38.28000 6.86700 44.47900
H  41.04600 7.26800 43.67400
H  40.22700 8.80500 43.65800
H  41.52100 -1.08200 45.73900
H  41.33300 -0.05200 44.29500
H  40.64600 0.34800 45.91500
H  46.30400 -2.06700 46.23700
H  46.34500 -0.62500 47.24300
H  46.75800 -0.58400 45.41700
H  48.65200 3.12600 45.54000
H  48.81900 5.04800 47.93800
H  48.98400 2.72800 48.52300
H  49.53400 1.64100 47.25700
H  47.91300 1.54800 47.86600
H  49.23500 6.45700 45.50600
H  49.96400 4.88600 45.24900
H  50.85200 5.89800 47.81400
H  50.99600 7.19900 46.59500
H  51.81100 5.67600 46.38600
H  45.82500 11.09600 46.90200
H  46.95000 10.05600 46.16300
H  46.72000 10.12200 47.99000
H  41.03500 9.48600 45.52400
H  39.56100 11.80600 48.92300
H  38.97200 10.12700 49.28500
H  38.18200 11.04900 48.14100
Mg 1.15300 42.69100 25.84500
C  2.47200 42.86900 29.12200
C  -1.99300 42.02100 27.21900
C  -0.11200 42.32800 22.72300
C  4.23700 43.36100 24.56300
N  0.39400 42.47000 27.96200
C  1.02200 42.66800 29.11000
C  0.11800 42.50800 30.33300
C  -1.22600 42.12100 29.71500
C  -0.94100 42.18400 28.17700
C  -1.80000 40.79000 30.28400
C  0.11900 43.94600 31.10000
C  0.35100 43.91000 32.66000
H  0.28300 42.63000 33.40800
N  -0.85200 42.24300 25.08700
C  -2.00600 42.15200 25.77600
C  -3.11600 42.18500 24.84500
C  -2.60300 42.11000 23.51800
C  -1.16200 42.21700 23.73100
C  -4.51500 42.17400 25.28700
C  -3.32500 41.89000 22.19800
O  -2.73400 41.85800 21.13200
C  -4.85300 41.62200 22.12700
N  1.89800 42.84400 24.00300
C  1.21900 42.59500 22.80900
C  1.98200 43.00700 21.55100
C  3.29300 43.59700 22.12900
C  3.16000 43.29000 23.66300
C  2.19400 41.91700 20.48900
C  3.43400 45.07300 21.78000
C  4.14400 45.33100 20.52200
N  3.01600 42.81400 26.61800
C  4.21100 43.12400 25.95900
C  5.28500 43.27400 26.92200
C  4.62600 43.18100 28.15400
C  3.24100 42.85500 27.95500
C  6.76700 43.65900 26.62200
C  4.85700 43.32300 29.54100
O  5.91600 43.40500 30.16500
C  3.45500 43.11300 30.24300
C  3.62400 41.96200 31.14200
O  3.56000 40.77900 30.70700
O  4.13400 42.36500 32.37200
C  4.87100 41.23200 33.00700
H  -2.97800 41.80700 27.63900
H  -0.61900 42.29900 21.75700
H  5.12100 43.86000 24.16100
H  0.56300 41.76200 30.99100
H  -1.97600 42.88200 29.93000
H  -2.58500 40.41800 29.62500
H  -2.09000 41.01900 31.30900
H  -1.02300 40.02600 30.24900
H  -0.81800 44.47900 30.93600
H  0.88800 44.63000 30.74000
H  -0.21500 44.71000 33.13800
H  1.36800 44.24900 32.85700
H  -4.96600 41.18400 25.22300
H  -5.08200 42.83400 24.63100
H  -4.64200 42.67600 26.24700
H  -5.13200 40.86400 22.85900
H  -4.98900 41.14700 21.15600
H  -5.55000 42.46000 22.09700
H  1.49100 43.82700 21.02600
H  4.11500 43.02800 21.69400
H  1.63600 42.30500 19.63600
H  1.77200 40.96200 20.80400
H  3.24300 41.77900 20.22800
H  3.86100 45.55500 22.66000
H  2.47400 45.57700 21.66800
H  4.90600 46.09300 20.69000
H  3.44100 45.83600 19.86000
H  4.59000 44.42200 20.11800
H  7.36900 44.19900 27.35300
H  6.80200 44.43000 25.85200
H  7.20800 42.74600 26.22300
H  3.06700 43.95900 30.81000
H  5.68600 41.00000 32.32200
H  4.14300 40.43200 33.14300
H  5.24700 41.63800 33.94600

