158

Mg 9.06400 4.03000 27.70900
C  10.19400 2.52500 30.66800
C  6.80800 5.80800 29.55600
C  7.81400 5.27700 24.80400
C  10.81800 1.55900 25.89000
N  8.45800 3.99200 29.82900
C  9.10500 3.31500 30.87100
C  8.62800 3.83600 32.26200
C  7.29100 4.60300 31.82700
C  7.44400 4.79800 30.29700
C  5.94000 3.96200 32.24900
C  9.73800 4.70400 32.98900
C  9.91600 4.51400 34.52100
H  11.23300 4.82300 35.22300
N  7.60100 5.46300 27.27600
C  6.81100 6.16400 28.16700
C  6.06100 7.17200 27.46300
C  6.36600 7.03800 26.06500
C  7.31200 5.90900 26.02900
C  5.06800 8.04000 28.14000
C  5.74200 7.79100 24.79700
O  6.04700 7.48200 23.65100
C  4.83900 8.97500 25.09800
N  9.12500 3.46000 25.68600
C  8.60000 4.18100 24.66900
C  9.14600 3.73100 23.26000
C  9.90600 2.38300 23.61200
C  10.03100 2.52900 25.18700
C  7.96400 3.41400 22.31000
C  11.21900 2.22400 22.87700
C  11.42500 0.94600 22.04000
N  10.32800 2.44000 28.13000
C  10.96900 1.52000 27.31400
C  11.76800 0.55100 28.18200
C  11.56200 1.01100 29.44500
C  10.68600 2.14500 29.44100
C  12.58700 -0.60200 27.68900
C  11.91800 0.69400 30.75700
O  12.68700 -0.10800 31.22200
C  11.05600 1.69500 31.67400
C  10.42900 1.00400 32.79500
O  9.40700 0.34400 32.71400
O  11.25700 1.09600 33.88600
C  10.79400 0.39900 35.06400
H  6.09500 6.38300 30.15000
H  7.57200 5.63500 23.80100
H  11.36200 0.85000 25.26300
H  8.42500 2.92000 32.81700
H  7.25700 5.61800 32.22100
H  5.49500 4.61700 32.99700
H  6.15300 3.03500 32.78200
H  5.25600 3.86200 31.40600
H  9.47000 5.72800 32.73000
H  10.69600 4.49200 32.51500
H  9.52000 3.55300 34.84900
H  9.18900 5.27200 34.81200
H  4.07000 7.78000 27.78900
H  5.08900 9.10300 27.89600
H  5.07300 7.99500 29.22900
H  4.53300 9.53000 24.21100
H  5.40600 9.66600 25.72300
H  4.02900 8.65600 25.75300
H  9.77800 4.56900 22.96500
H  9.18300 1.56800 23.60800
H  6.98600 3.64600 22.73100
H  7.86100 2.43800 21.83500
H  8.06000 4.02100 21.41000
H  12.06800 2.20500 23.56000
H  11.24100 3.06200 22.18100
H  11.86200 1.23100 21.08300
H  10.42900 0.51200 21.95500
H  12.17900 0.30500 22.49700
H  13.59300 -0.20700 27.54600
H  12.18600 -0.86500 26.71000
H  12.71100 -1.36000 28.46200
H  11.86300 2.24800 32.15400
H  11.58500 -0.25900 35.42600
H  9.92800 -0.26100 35.01600
H  10.55200 1.10100 35.86100
Mg 36.01000 49.06100 26.43200
C  36.28700 46.73800 29.04300
C  35.04600 51.45600 28.75500
C  35.11100 51.10900 23.96100
C  36.76500 46.53200 24.15900
N  35.46800 49.02700 28.62500
C  35.81800 47.99700 29.49500
C  35.81800 48.48900 30.89000
C  35.06200 49.84200 30.78600
C  35.24900 50.17200 29.33600
C  33.60100 49.74000 31.06700
C  37.35100 48.68200 31.45800
C  37.63800 47.96300 32.82400
H  37.22800 48.80800 34.06700
N  35.27100 50.99600 26.36200
C  35.02800 51.84400 27.46800
C  34.54700 53.20600 27.02000
C  34.68800 53.16200 25.59000
C  35.04200 51.74900 25.24500
C  34.22700 54.33800 28.06200
C  34.59800 54.25000 24.50700
O  35.00400 54.11900 23.32900
C  34.14300 55.61200 24.92200
N  35.96800 48.86400 24.31100
C  35.56100 49.87400 23.53600
C  35.67500 49.50200 22.05100
C  36.32200 47.99700 22.12500
C  36.50400 47.78800 23.59300
C  34.33800 49.59100 21.32800
C  37.54900 47.72900 21.24400
C  38.96400 47.55600 21.90100
N  36.28500 46.98000 26.52300
C  36.71000 46.12700 25.50400
C  36.88900 44.78100 26.05400
C  36.82100 45.01400 27.46400
C  36.39400 46.35200 27.65000
C  37.36400 43.53400 25.39100
C  36.93800 44.38000 28.70100
O  37.16700 43.25100 29.01300
C  36.72500 45.52300 29.78600
C  35.71800 45.12900 30.83600
O  34.51400 45.11600 30.65300
O  36.29200 44.68400 31.97900
C  35.31600 44.64400 33.09000
H  34.89000 52.31800 29.40700
H  34.85200 51.69500 23.07700
H  36.92400 45.66400 23.51500
H  35.35500 47.72700 31.51600
H  35.54000 50.54800 31.46400
H  33.12300 50.66800 31.38000
H  33.35700 48.95000 31.77700
H  33.05700 49.34000 30.21100
H  37.56200 49.74700 31.55500
H  38.01100 48.27200 30.69400
H  38.69500 47.69800 32.84600
H  37.05600 47.04100 32.84800
H  35.17800 54.39800 28.59100
H  33.48600 53.98200 28.77800
H  34.04100 55.36100 27.73400
H  34.91500 55.90500 25.63300
H  33.17800 55.50000 25.41700
H  34.11300 56.26800 24.05100
H  36.44200 50.14400 21.61900
H  35.56100 47.28600 21.80100
H  33.86900 48.61700 21.18900
H  34.40500 50.05100 20.34200
H  33.62700 50.23100 21.85100
H  37.68000 48.54300 20.53100
H  37.38000 46.78700 20.72200
H  39.65300 48.23900 21.40400
H  39.22400 46.51000 21.74400
H  39.07200 47.85100 22.94500
H  36.98700 42.67200 25.94100
H  38.42900 43.67400 25.20600
H  36.83000 43.45200 24.44500
H  37.64500 45.62900 30.35900
H  35.67500 43.95900 33.85700
H  34.33100 44.27900 32.79800
H  35.08100 45.59900 33.56000

