158

Mg 47.33900 15.83000 27.57800
C  45.59100 15.74100 30.49400
C  49.98400 17.34400 29.19000
C  48.77400 16.55800 24.64200
C  44.39800 14.76900 25.75100
N  47.64900 16.57600 29.56600
C  46.79600 16.37800 30.65000
C  47.49300 16.69200 32.02800
C  48.82000 17.36700 31.55500
C  48.88700 17.01200 29.99500
C  48.97800 18.87800 31.81200
C  47.68100 15.46200 32.86600
C  47.27800 15.64000 34.36600
H  47.20800 17.08400 35.01000
N  49.10800 16.76300 27.03700
C  50.15000 17.18100 27.81000
C  51.37700 17.43100 27.07500
C  50.91200 17.25100 25.74700
C  49.53600 16.70900 25.73200
C  52.68900 17.67500 27.70900
C  51.81100 17.44600 24.38400
O  51.31900 17.10000 23.26900
C  53.09800 17.99700 24.35400
N  46.59400 15.73700 25.55200
C  47.42400 16.19800 24.55800
C  46.62700 16.17400 23.27500
C  45.42400 15.31800 23.55700
C  45.48500 15.23300 25.05400
C  46.30300 17.70900 22.94700
C  45.40300 13.87500 23.01800
C  44.08600 13.44900 22.33100
N  45.36400 15.28600 27.97700
C  44.29800 14.82000 27.15800
C  43.21200 14.43500 28.01500
C  43.64500 14.74900 29.36800
C  44.98300 15.26900 29.22600
C  41.93700 13.62900 27.62700
C  43.30500 14.70100 30.76900
O  42.32900 14.28700 31.35200
C  44.54100 15.28700 31.52100
C  44.02100 16.42000 32.34900
O  43.76300 17.50000 31.94700
O  43.67800 15.95000 33.63100
C  42.68300 16.77000 34.31600
H  50.80300 17.79100 29.75800
H  49.14200 16.72300 23.62700
H  43.49600 14.45200 25.22300
H  46.87800 17.46600 32.48700
H  49.64100 16.77500 31.96000
H  49.10800 19.46100 30.90000
H  49.88500 19.04800 32.39200
H  48.16000 19.19500 32.45800
H  48.74400 15.22000 32.86600
H  47.12300 14.65600 32.38800
H  47.92200 14.98700 34.95600
H  46.27200 15.22200 34.39300
H  53.37500 16.90600 27.35400
H  52.51800 17.45200 28.76300
H  52.92600 18.72100 27.51900
H  53.04100 18.77300 23.59100
H  53.76500 17.19200 24.04700
H  53.40500 18.44300 25.30100
H  47.25400 15.70100 22.51900
H  44.53400 15.90700 23.33300
H  47.21000 18.20100 22.59700
H  45.97800 18.26800 23.82500
H  45.50900 17.69100 22.20100
H  45.71700 13.09200 23.70900
H  46.12800 13.61500 22.24700
H  43.35100 14.25300 22.36600
H  43.75000 12.47900 22.69700
H  44.27600 13.24000 21.27800
H  41.04700 14.24900 27.52200
H  41.64600 12.76000 28.21700
H  42.29400 13.20900 26.68700
H  44.96500 14.43600 32.05400
H  41.78800 16.99100 33.73400
H  43.15300 17.63700 34.78100
H  42.26100 16.16400 35.11800
Mg 16.95600 53.06000 26.61700
C  18.85600 51.47500 29.03500
C  14.50200 53.61600 28.90600
C  14.96800 54.19400 24.11300
C  19.32600 52.01600 24.14000
N  16.60400 52.48900 28.64200
C  17.60000 51.96100 29.45700
C  17.27300 52.27200 30.89800
C  15.78900 52.63000 30.82800
C  15.53600 52.81700 29.35400
C  14.86500 51.61600 31.45900
C  18.17600 53.39700 31.50300
C  18.63200 53.18400 32.91500
H  17.67100 52.38000 33.82400
N  15.06700 53.95600 26.52200
C  14.23900 54.16000 27.63200
C  13.04800 54.87700 27.23600
C  13.09300 54.96800 25.81900
C  14.41200 54.38800 25.37300
C  11.98100 55.22500 28.26900
C  12.09200 55.62100 24.85100
O  12.39600 55.64900 23.64600
C  10.89300 56.44000 25.37100
N  17.11400 52.97700 24.42200
C  16.11700 53.55900 23.66800
C  16.44900 53.29600 22.14400
C  17.99800 52.95100 22.18800
C  18.18000 52.63200 23.66400
C  15.48400 52.28100 21.47800
C  19.01700 53.94800 21.59500
C  19.51900 55.20900 22.35500
N  18.75900 51.84200 26.53900
C  19.65300 51.60600 25.47300
C  20.76800 50.79000 26.05100
C  20.47000 50.84500 27.45200
C  19.25200 51.41800 27.69000
C  21.90900 50.22000 25.26600
C  21.06100 50.40500 28.73100
O  22.11900 49.84100 28.95900
C  20.00900 50.90300 29.81500
C  19.65600 49.80000 30.60800
O  19.07500 48.77900 30.25000
O  19.99400 50.00700 31.89600
C  19.54800 48.95400 32.76500
H  13.75200 53.79900 29.67800
H  14.35200 54.51100 23.26800
H  20.01300 51.76000 23.33000
H  17.48800 51.39200 31.50500
H  15.69100 53.62500 31.26200
H  14.14100 52.12500 32.09600
H  15.33100 50.76700 31.95900
H  14.35400 51.22100 30.58000
H  17.73300 54.37500 31.31400
H  19.07200 53.51000 30.89200
H  18.66500 54.10700 33.49400
H  19.56700 52.63400 33.02200
H  11.15500 54.52300 28.38000
H  11.50500 56.15400 27.95700
H  12.46300 55.49600 29.20900
H  10.26000 55.91800 26.08800
H  10.27200 56.66700 24.50400
H  11.27500 57.34100 25.85000
H  16.37300 54.28400 21.68900
H  18.24000 51.98800 21.74000
H  16.13200 51.48800 21.10500
H  14.85100 52.57900 20.64300
H  14.87500 51.74700 22.20900
H  18.50500 54.33600 20.71400
H  19.84700 53.27000 21.39500
H  18.81800 55.49300 23.14000
H  19.43700 56.06800 21.68900
H  20.56500 55.09200 22.63800
H  22.49700 51.12500 25.10900
H  21.79100 49.69800 24.31600
H  22.52700 49.66300 25.97000
H  20.51700 51.69800 30.36000
H  20.38800 48.26200 32.82900
H  18.56600 48.52100 32.57300
H  19.43800 49.49400 33.70600

