158

Mg 40.49200 9.01300 28.83900
C  42.61300 10.37500 31.26000
C  38.90300 7.18600 31.28500
C  38.71600 7.43000 26.38600
C  42.91300 9.91000 26.42900
N  40.79400 8.65000 31.09800
C  41.54300 9.57000 31.80400
C  41.04500 9.55000 33.29200
C  40.02500 8.31800 33.32800
C  39.89700 7.96800 31.84300
C  40.33500 7.06400 34.21200
C  40.49600 10.92400 33.68400
C  40.02300 11.10100 35.12800
H  40.81500 11.91500 36.18900
N  39.02300 7.61700 28.75400
C  38.51200 6.93500 29.88300
C  37.34800 6.13600 29.46700
C  37.19000 6.34300 28.06900
C  38.35900 7.14600 27.68100
C  36.40000 5.39700 30.36100
C  36.04500 5.95400 27.14700
O  36.07700 6.29500 25.94900
C  34.86400 5.02500 27.53100
N  40.83500 8.68200 26.67700
C  39.92200 7.97100 25.92200
C  40.27100 8.11000 24.40900
C  41.65600 8.93000 24.46000
C  41.83600 9.19600 25.96200
C  40.37100 6.73100 23.60900
C  41.74400 10.16700 23.53200
C  41.04200 11.53100 23.91800
N  42.32700 10.00600 28.77100
C  43.14600 10.36100 27.73500
C  44.20900 11.08200 28.16100
C  44.04000 11.23500 29.54000
C  42.88900 10.47400 29.88500
C  45.37600 11.47400 27.32200
C  44.54700 11.76400 30.79500
O  45.46900 12.51200 31.07600
C  43.61400 11.34000 31.91200
C  44.31200 10.78300 33.12400
O  44.46500 9.61100 33.32500
O  44.59900 11.74100 34.03300
C  45.08100 11.29100 35.32800
H  38.33700 6.65200 32.05100
H  38.10800 7.07200 25.55200
H  43.72200 10.16700 25.74200
H  41.93300 9.28000 33.86400
H  39.04600 8.75900 33.51900
H  41.28900 7.11800 34.73700
H  40.17600 6.19300 33.57600
H  39.53600 7.00400 34.95100
H  39.62600 11.00800 33.03200
H  41.20300 11.71700 33.43900
H  40.07600 10.10000 35.55600
H  39.01900 11.52300 35.17000
H  36.81000 5.44600 31.36900
H  36.14000 4.36700 30.11800
H  35.55800 6.08800 30.31800
H  35.31400 4.12800 27.95500
H  34.32300 4.59700 26.68800
H  34.24000 5.45100 28.31700
H  39.49700 8.69700 23.91500
H  42.44500 8.28500 24.07400
H  39.84400 6.83000 22.66000
H  39.88600 5.89700 24.11700
H  41.42300 6.58900 23.36000
H  41.38600 9.84000 22.55600
H  42.79000 10.41600 23.35200
H  40.41100 11.48000 24.80500
H  40.36100 11.84800 23.12800
H  41.82800 12.26800 24.08000
H  45.13400 12.02700 26.41500
H  45.97000 10.61100 27.02100
H  46.01000 12.08500 27.96500
H  43.04100 12.19900 32.26200
H  44.19400 10.95600 35.86600
H  45.62900 12.02000 35.92500
H  45.80000 10.48400 35.19200
Mg 29.26400 57.91100 40.66400
C  26.53100 56.09100 39.71800
C  31.36200 55.30000 39.47700
C  32.15900 60.02800 40.83500
C  27.38800 60.62100 41.26600
N  28.96100 55.91800 39.73900
C  27.74400 55.33900 39.52900
C  27.79500 53.92100 39.08800
C  29.39000 53.58700 39.24300
C  29.94600 55.05400 39.51500
C  29.93000 52.57000 40.22100
C  27.32200 53.67200 37.58600
C  27.92100 54.40100 36.40300
H  27.08300 55.46000 35.69500
N  31.41500 57.69100 40.28500
C  32.06700 56.56800 39.75600
C  33.47200 56.82000 39.54900
C  33.77400 58.12700 40.06400
C  32.38400 58.68500 40.45600
C  34.41500 55.76500 38.99100
C  35.23400 58.70100 40.25100
O  36.21900 58.05100 39.98100
C  35.50300 60.06500 40.81400
N  29.70900 60.04400 41.01100
C  30.94400 60.66600 41.06100
C  30.85900 62.17200 41.46800
C  29.32900 62.29800 41.75700
C  28.75400 60.90300 41.37900
C  31.80100 62.73700 42.53400
C  28.64300 63.51900 41.04500
C  27.89600 64.42200 42.03600
N  27.38900 58.32500 40.52800
C  26.70700 59.48500 40.80600
C  25.27200 59.33200 40.65600
C  25.16700 57.95300 40.30100
C  26.47000 57.38600 40.20900
C  24.27600 60.33000 40.81100
C  24.19500 56.98500 39.83000
O  23.00400 57.03800 39.66700
C  25.03700 55.64100 39.52500
C  24.47300 54.54600 40.34100
O  24.39500 54.55200 41.55100
O  23.99600 53.53200 39.44500
C  23.18400 52.54400 40.15400
H  31.86100 54.39300 39.12900
H  32.98600 60.73100 40.71400
H  26.75700 61.48700 41.47300
H  27.21000 53.41500 39.85500
H  29.63100 53.21100 38.24900
H  29.08000 52.32600 40.85600
H  30.74100 52.91700 40.86100
H  30.21800 51.65800 39.69800
H  26.24200 53.68400 37.43800
H  27.49600 52.60300 37.46100
H  28.29900 53.65400 35.70600
H  28.76900 54.99800 36.74000
H  33.88200 55.01100 38.41100
H  34.95200 55.25500 39.79100
H  35.12000 56.17800 38.26800
H  35.32400 60.93100 40.17700
H  36.57100 60.04500 41.03200
H  34.83700 60.01400 41.67500
H  31.10400 62.75000 40.57700
H  29.27800 62.44500 42.83500
H  32.31500 61.83200 42.85500
H  31.21000 63.06300 43.39000
H  32.44200 63.55000 42.19400
H  28.08700 63.31000 40.13100
H  29.53000 64.09800 40.78700
H  28.59500 65.25200 42.13500
H  27.66100 63.89400 42.96000
H  26.96500 64.86600 41.68100
H  23.47700 60.11800 40.10000
H  24.63500 61.32900 40.56400
H  23.88900 60.26600 41.82800
H  25.02300 55.38900 38.46500
H  23.64600 51.57700 39.95700
H  22.21800 52.57000 39.65100
H  22.95800 52.64800 41.21600

