158

Mg 2.45500 -2.45500 45.06200
C  5.76600 -1.81300 44.44000
C  1.62000 0.15300 42.84000
C  -0.85500 -3.42100 45.07200
C  3.29100 -5.51700 46.55900
N  3.54300 -0.95500 43.94500
C  4.92500 -0.89700 43.81900
C  5.45200 0.16200 42.81200
C  4.06200 0.80900 42.38500
C  3.00600 -0.08000 43.08200
C  3.93400 2.22000 42.93400
C  6.30900 -0.35500 41.60100
C  7.72200 0.27500 41.47000
H  8.01800 1.01600 40.21200
N  0.62200 -1.54400 44.33300
C  0.51800 -0.53600 43.38200
C  -0.85300 -0.31300 43.18900
C  -1.63200 -1.21700 43.96900
C  -0.64400 -2.12200 44.55400
C  -1.28900 0.88000 42.25800
C  -3.14100 -1.17200 44.14000
O  -3.85700 -0.37000 43.48800
C  -3.73000 -2.01900 45.11800
N  1.40000 -4.34000 45.58200
C  0.04300 -4.37100 45.58800
C  -0.48100 -5.66800 46.26500
C  0.85700 -6.39300 46.67300
C  1.93700 -5.46600 46.14000
C  -1.62300 -5.45200 47.34300
C  0.91300 -7.83000 46.10700
C  0.53200 -9.03200 47.07000
N  4.16300 -3.44700 45.52800
C  4.33500 -4.70600 46.06700
C  5.79100 -4.97900 46.18400
C  6.43400 -3.84100 45.55000
C  5.39700 -3.01300 45.17800
C  6.50600 -6.20500 46.75200
C  7.72000 -3.20600 45.19800
O  8.88800 -3.50100 45.43300
C  7.30800 -1.89700 44.45900
C  7.76200 -0.75200 45.25800
O  7.61700 -0.64400 46.46600
O  8.45400 0.19000 44.46300
C  8.69400 1.46700 45.05900
H  1.49000 0.84900 42.00900
H  -1.91100 -3.60300 45.28400
H  3.60400 -6.47200 46.98700
H  5.98700 0.90000 43.41000
H  3.81600 0.82700 41.32300
H  3.74200 2.89100 42.09700
H  4.74100 2.50300 43.60800
H  3.04600 2.37800 43.54600
H  5.80500 -0.12600 40.66100
H  6.28200 -1.43700 41.73000
H  8.39300 -0.56000 41.67200
H  7.98800 1.00200 42.23700
H  -2.18200 0.49700 41.76400
H  -0.59600 1.09200 41.44400
H  -1.41700 1.82600 42.78400
H  -3.16300 -2.04300 46.04800
H  -3.77400 -3.01100 44.66800
H  -4.77200 -1.75700 45.29900
H  -1.00600 -6.21500 45.48200
H  0.94800 -6.55300 47.74800
H  -2.07600 -4.46200 47.30200
H  -1.27800 -5.39700 48.37500
H  -2.42800 -6.18100 47.25100
H  1.95100 -7.98300 45.81200
H  0.36000 -8.03400 45.19000
H  -0.42000 -9.38800 46.67800
H  0.27900 -8.65500 48.06100
H  1.36900 -9.72700 47.13600
H  6.09000 -6.54500 47.70100
H  7.56500 -5.98500 46.88400
H  6.42300 -6.92500 45.93900
H  7.79900 -1.97600 43.48900
H  7.80500 1.80800 45.59000
H  8.85100 2.21300 44.28000
H  9.53500 1.39300 45.74800
Mg 17.35300 52.21800 26.52000
C  19.23800 50.70200 29.01900
C  14.94900 53.13100 28.97600
C  15.47400 53.70800 24.06400
C  19.69800 51.12600 24.12900
N  17.02600 51.75900 28.78000
C  18.02700 51.20700 29.58200
C  17.65400 51.47900 31.06200
C  16.11400 51.84900 30.95200
C  16.04300 52.33400 29.48800
C  15.19900 50.61000 31.05600
C  18.47300 52.67600 31.55300
C  18.69800 52.85500 33.07300
H  17.89800 51.91700 34.04500
N  15.56600 53.34500 26.50900
C  14.70700 53.52700 27.61800
C  13.62200 54.35500 27.19900
C  13.80800 54.66800 25.87900
C  14.95200 53.86800 25.41900
C  12.42200 54.56200 28.11500
C  12.88400 55.48300 24.96700
O  13.10200 55.48000 23.79800
C  11.76600 56.33900 25.44000
N  17.57800 52.27900 24.33100
C  16.59000 52.91000 23.58500
C  16.96500 52.72800 22.06200
C  18.52600 52.28900 22.16100
C  18.59200 51.80500 23.58000
C  15.95000 51.77400 21.44100
C  19.56100 53.46500 22.01200
C  20.64900 53.26900 21.04500
N  19.00600 51.01500 26.44000
C  19.91200 50.68300 25.44100
C  21.09100 50.02300 25.95600
C  20.79700 49.93800 27.38000
C  19.56500 50.62100 27.59900
C  22.34300 49.45400 25.24600
C  21.26700 49.52600 28.68500
O  22.25100 48.81900 28.94600
C  20.38300 50.18400 29.76200
C  20.05400 49.16200 30.83900
O  19.41700 48.09600 30.76600
O  20.83300 49.55900 31.91500
C  20.85600 48.56900 33.04600
H  14.31600 53.53000 29.77100
H  14.94700 54.24000 23.26900
H  20.51000 50.72200 23.52000
H  17.79400 50.57700 31.65700
H  15.77200 52.55700 31.70600
H  14.40800 50.64200 30.30700
H  14.69700 50.51700 32.02000
H  15.77800 49.69500 30.93600
H  18.04700 53.57300 31.10300
H  19.51400 52.54000 31.26000
H  18.65300 53.92500 33.27600
H  19.77900 52.77700 33.18900
H  12.38700 53.78700 28.87900
H  11.44500 54.43600 27.64800
H  12.38500 55.55000 28.57400
H  10.89200 55.78800 25.78800
H  11.47600 57.12400 24.74200
H  12.25500 56.80100 26.29800
H  16.86000 53.70600 21.59200
H  18.84500 51.54000 21.43500
H  15.07900 51.59700 22.07300
H  16.41300 50.80900 21.23900
H  15.57900 52.26300 20.54100
H  20.01600 53.63500 22.98800
H  19.01100 54.40600 22.02000
H  20.56100 52.34700 20.47200
H  21.68400 53.35100 21.37900
H  20.46400 54.08300 20.34500
H  23.22100 49.92200 25.69200
H  22.27700 49.76600 24.20300
H  22.41400 48.36900 25.32100
H  21.04900 50.92200 30.20900
H  21.71000 48.95700 33.60200
H  21.05500 47.53700 32.75700
H  20.01300 48.62600 33.73400

