158

Mg -1.87400 17.52700 25.72100
C  -2.44500 15.35000 28.59400
C  -2.78400 20.13800 27.84600
C  -1.94500 19.40500 23.07100
C  -1.78900 14.62200 23.76000
N  -2.33500 17.67200 28.01700
C  -2.46400 16.71100 29.00600
C  -2.86400 17.34200 30.32400
C  -3.09500 18.84200 30.02700
C  -2.73300 18.92600 28.54700
C  -4.58200 19.19600 30.34800
C  -1.70000 17.16500 31.35900
C  -1.97200 16.31100 32.58100
H  -2.34800 17.10500 33.80900
N  -2.28000 19.51500 25.44300
C  -2.41400 20.41700 26.49300
C  -2.35600 21.74500 25.85100
C  -2.08500 21.59800 24.44400
C  -2.08100 20.17900 24.30500
C  -2.51100 23.00100 26.61200
C  -1.72800 22.62700 23.45500
O  -1.53200 22.35800 22.28400
C  -1.65900 24.05500 23.80600
N  -2.09700 16.99500 23.71200
C  -1.85400 18.01300 22.83100
C  -1.57700 17.50100 21.40900
C  -1.42700 15.96400 21.66100
C  -1.71200 15.85600 23.17900
C  -2.64000 17.78200 20.35000
C  -0.09800 15.24700 21.28100
C  1.02100 15.52300 22.28000
N  -1.99000 15.36700 26.08900
C  -1.87900 14.35500 25.13800
C  -1.98300 13.04400 25.82800
C  -2.23300 13.38800 27.19000
C  -2.23600 14.80300 27.30000
C  -1.98200 11.71400 25.22700
C  -2.55000 12.88600 28.52700
O  -2.61800 11.75100 28.84200
C  -2.73600 14.07700 29.51300
C  -1.73900 13.84500 30.67600
O  -0.57100 14.20200 30.67100
O  -2.31400 13.11100 31.66000
C  -1.57700 12.89200 32.90900
H  -3.03000 21.01000 28.45700
H  -1.91900 20.03000 22.17500
H  -1.70300 13.71400 23.16000
H  -3.78900 16.81400 30.55700
H  -2.49100 19.60000 30.52600
H  -4.84100 18.83800 31.34400
H  -5.35400 18.66600 29.79000
H  -4.72700 20.27500 30.28800
H  -1.26000 18.14400 31.55100
H  -0.89500 16.64000 30.84500
H  -1.04100 15.77600 32.76600
H  -2.76000 15.56400 32.48600
H  -2.34300 22.92300 27.68600
H  -3.40700 23.60800 26.48400
H  -1.81200 23.76800 26.27600
H  -0.87600 24.50900 24.41300
H  -2.60100 24.35800 24.26300
H  -1.79600 24.63600 22.89300
H  -0.63700 17.93400 21.06600
H  -2.20900 15.41400 21.13700
H  -2.85300 18.84100 20.20500
H  -3.59900 17.37000 20.66200
H  -2.42900 17.28400 19.40300
H  0.22500 15.63200 20.31400
H  -0.35400 14.18800 21.24400
H  0.79500 16.32800 22.98000
H  1.94000 15.70800 21.72300
H  1.25000 14.65900 22.90400
H  -1.49800 11.87700 24.26500
H  -2.97300 11.26300 25.18700
H  -1.36900 10.94900 25.70400
H  -3.72700 14.00900 29.96200
H  -2.18500 12.93500 33.81300
H  -0.75700 13.60000 33.03500
H  -1.25900 11.85000 32.89800
Mg -1.38200 34.68100 26.40500
C  -2.69500 33.06100 29.22000
C  0.25400 36.84600 28.47900
C  -0.34500 36.17900 23.68800
C  -3.33000 32.38900 24.39300
N  -1.03000 34.77300 28.66700
C  -1.70700 34.01200 29.61800
C  -1.21300 34.36100 31.00600
C  -0.21900 35.61000 30.73500
C  -0.30000 35.75100 29.20400
C  -0.52000 36.89400 31.47400
C  -0.52900 33.23100 31.80300
C  -1.16300 32.87700 33.14900
H  -0.31100 32.27800 34.37400
N  -0.21800 36.37800 26.10000
C  0.38900 37.00300 27.04300
C  1.16200 38.10800 26.41100
C  1.05100 37.95800 25.01400
C  0.08300 36.83800 24.85000
C  2.10700 38.94700 27.20800
C  1.84100 38.75700 23.90600
O  1.80200 38.49600 22.73000
C  2.76500 39.72300 24.33200
N  -1.91000 34.42700 24.36900
C  -1.20000 35.13800 23.46500
C  -1.60500 34.80100 22.02900
C  -2.32000 33.41800 22.20300
C  -2.51400 33.34500 23.76600
C  -2.27500 35.85600 21.30000
C  -1.41900 32.26200 21.59300
C  0.03500 32.08200 22.17800
N  -2.77300 33.15600 26.70500
C  -3.40700 32.31100 25.83100
C  -4.14500 31.34700 26.51200
C  -3.95700 31.66600 27.90600
C  -3.10100 32.76000 27.96000
C  -4.94500 30.30700 25.93200
C  -4.38600 31.27900 29.26700
O  -5.22800 30.52800 29.70000
C  -3.48000 32.19600 30.20500
C  -4.47400 32.94700 31.00000
O  -5.35200 33.63500 30.56000
O  -4.38300 32.55500 32.34900
C  -5.43100 33.01200 33.20900
H  0.75400 37.51000 29.18800
H  0.15900 36.68100 22.86000
H  -3.77200 31.68000 23.69100
H  -2.07700 34.73600 31.55500
H  0.82500 35.42500 30.98700
H  0.36200 37.43000 31.82700
H  -1.10500 36.76400 32.38500
H  -1.21800 37.52200 30.92000
H  0.48900 33.48900 32.09300
H  -0.45000 32.31100 31.22300
H  -1.88900 32.11300 32.87000
H  -1.65000 33.80100 33.46200
H  3.11100 38.62200 26.93400
H  1.97500 38.82700 28.28300
H  1.95800 40.00000 26.97000
H  3.14700 40.15000 23.40500
H  3.57100 39.27800 24.91500
H  2.21100 40.52400 24.82100
H  -0.66400 34.63000 21.50700
H  -3.30700 33.41400 21.74000
H  -2.32400 36.76500 21.89900
H  -3.26800 35.52500 20.99500
H  -1.77000 36.06500 20.35600
H  -1.29600 32.48600 20.53400
H  -2.00000 31.36800 21.81800
H  0.16000 31.01300 22.35000
H  0.12700 32.57200 23.14700
H  0.76000 32.62300 21.56900
H  -5.85200 30.83200 25.63000
H  -5.20100 29.62600 26.74300
H  -4.50800 29.76300 25.09400
H  -2.78100 31.55100 30.73800
H  -5.06200 33.21100 34.21600
H  -6.31800 32.38000 33.24300
H  -5.88600 33.91600 32.80500

