158

Mg -2.12500 18.09600 26.79900
C  -2.36400 15.86100 29.57100
C  -2.38800 20.73200 28.73900
C  -2.62200 19.89800 24.04100
C  -2.24400 15.04300 24.73800
N  -2.45600 18.17800 28.88300
C  -2.40900 17.23300 29.88100
C  -2.65600 17.93100 31.28300
C  -2.69300 19.43100 30.98600
C  -2.51300 19.47000 29.42100
C  -4.02700 20.05500 31.46700
C  -1.77900 17.50300 32.43800
C  -1.42100 18.52000 33.63600
H  -1.44700 17.85900 35.06700
N  -2.44400 20.10600 26.45900
C  -2.45100 21.03800 27.38000
C  -2.61600 22.37100 26.76300
C  -2.64500 22.20700 25.33300
C  -2.60400 20.66900 25.19400
C  -2.65000 23.63800 27.52900
C  -2.65400 23.12100 24.16500
O  -2.72800 22.75100 22.99500
C  -2.64500 24.67000 24.39700
N  -2.49800 17.51200 24.76300
C  -2.46200 18.55700 23.79500
C  -2.39100 18.05800 22.35000
C  -2.12700 16.49400 22.59200
C  -2.32700 16.30000 24.09400
C  -3.74300 18.37300 21.54700
C  -0.85200 15.90000 21.92300
C  0.57900 16.31200 22.45400
N  -2.13900 15.93300 27.02100
C  -2.21800 14.87100 26.14700
C  -2.23200 13.60500 26.82800
C  -2.35100 14.00500 28.17100
C  -2.26500 15.38900 28.21600
C  -2.33600 12.26600 26.19000
C  -2.47700 13.44900 29.50100
O  -2.54700 12.25600 29.89000
C  -2.41800 14.65900 30.51100
C  -1.18000 14.41500 31.38000
O  -0.05000 14.61100 31.00000
O  -1.50700 14.10400 32.69600
C  -0.34700 13.99400 33.67800
H  -2.43600 21.54800 29.46300
H  -2.75800 20.48200 23.12900
H  -2.17900 14.17400 24.07900
H  -3.63000 17.56300 31.60500
H  -1.96800 20.11800 31.42300
H  -4.47500 20.63500 30.66100
H  -3.77900 20.86500 32.15400
H  -4.73500 19.42500 32.00500
H  -0.87000 17.00000 32.10600
H  -2.19900 16.63700 32.95000
H  -2.23500 19.24500 33.66600
H  -0.54100 19.11600 33.39600
H  -3.50400 24.29600 27.37100
H  -1.76100 24.23200 27.31700
H  -2.43900 23.50900 28.59100
H  -2.91000 24.93800 25.42000
H  -3.20600 25.17600 23.61100
H  -1.60100 24.97400 24.31300
H  -1.52400 18.45400 21.82200
H  -2.92600 15.89700 22.15200
H  -3.49100 18.99100 20.68500
H  -4.47900 18.85500 22.19100
H  -4.14800 17.42100 21.20300
H  -0.94600 15.99800 20.84100
H  -0.96200 14.84100 22.15600
H  0.81200 15.65200 23.29000
H  0.48100 17.33600 22.81700
H  1.35600 16.30800 21.69000
H  -1.82300 12.40800 25.23900
H  -3.38400 12.03600 25.99900
H  -1.82800 11.55800 26.84500
H  -3.31300 14.78300 31.12200
H  -0.22900 13.06800 34.24000
H  -0.19900 14.83300 34.35800
H  0.60500 14.02900 33.14800
Mg 25.98300 0.86800 29.61100
C  27.98500 0.70200 32.42500
C  23.24500 1.15900 31.65400
C  24.17600 0.93500 26.76800
C  28.79700 0.09000 27.62200
N  25.67500 1.01900 31.84500
C  26.64500 1.03100 32.78200
C  26.15700 1.54300 34.10700
C  24.62000 1.27500 33.97700
C  24.44400 1.26100 32.40300
C  24.01800 0.02000 34.70800
C  26.54400 3.01900 34.50300
C  27.29500 3.11000 35.88000
H  26.59500 3.80100 37.02900
N  23.99900 0.90400 29.27800
C  23.00800 1.03300 30.26900
C  21.76000 1.13200 29.64100
C  22.02900 1.19400 28.23600
C  23.46600 0.98300 28.01300
C  20.40600 1.21000 30.43300
C  20.96300 1.21300 27.10300
O  21.25600 1.04700 25.90500
C  19.54400 1.67400 27.52900
N  26.49900 0.84300 27.39100
C  25.55300 0.74100 26.50200
C  26.15000 0.49300 25.09600
C  27.66000 0.32800 25.38000
C  27.68900 0.46700 26.86900
C  25.42400 -0.65400 24.39400
C  28.73500 1.27100 24.66200
C  29.52700 0.62800 23.49100
N  27.96400 0.42600 29.89900
C  28.96100 0.11300 29.03600
C  30.21600 -0.23500 29.80800
C  29.89300 0.16900 31.08800
C  28.50900 0.39100 31.16000
C  31.60900 -0.59500 29.28700
C  30.42600 0.33400 32.48100
O  31.53800 0.29600 32.93000
C  29.16800 0.71500 33.39500
C  29.01800 -0.21400 34.54000
O  28.68300 -1.38400 34.45500
O  29.36100 0.46300 35.67000
C  29.19700 -0.36700 36.84700
H  22.37700 1.15100 32.31700
H  23.57400 0.87800 25.85900
H  29.63700 -0.03600 26.93600
H  26.54000 0.88600 34.88700
H  23.92400 2.09200 34.16800
H  24.02100 -0.83600 34.03300
H  22.98300 0.07800 35.04700
H  24.66100 -0.04000 35.58600
H  25.69400 3.70000 34.54700
H  27.20800 3.39000 33.72300
H  28.22900 3.65000 35.72400
H  27.62000 2.10300 36.14500
H  19.97000 0.41500 29.82800
H  19.89900 2.17100 30.35800
H  20.48100 0.86200 31.46300
H  19.11200 0.79400 28.00600
H  18.99000 1.87400 26.61200
H  19.72800 2.57000 28.12200
H  26.00900 1.46700 24.62700
H  27.94300 -0.68400 25.09000
H  24.89700 -1.25200 25.13800
H  26.13500 -1.29600 23.87500
H  24.67600 -0.22300 23.72800
H  29.49100 1.51800 25.40700
H  28.24800 2.19100 24.33800
H  29.61400 1.33000 22.66200
H  29.01400 -0.28400 23.18500
H  30.55200 0.38500 23.77000
H  32.27600 -0.07700 29.97600
H  31.80600 -0.37500 28.23800
H  31.72400 -1.67400 29.38900
H  29.28000 1.70100 33.84700
H  28.15100 -0.28200 37.14100
H  29.83500 -0.04300 37.67000
H  29.48600 -1.41600 36.78000

