158

Mg 36.86500 50.17200 25.27400
C  37.00100 47.89700 27.89000
C  35.67600 52.60800 27.55000
C  35.96800 52.04000 22.77200
C  37.59700 47.57600 23.07700
N  36.31300 50.16500 27.42200
C  36.55600 49.20900 28.26300
C  36.37200 49.72200 29.67300
C  35.65600 51.09800 29.50500
C  35.80300 51.29700 28.08400
C  34.18100 51.24600 30.10600
C  37.75700 49.70400 30.54100
C  37.61500 48.91800 31.84100
H  36.29900 49.03000 32.58800
N  36.03500 52.12500 25.17700
C  35.57900 52.95100 26.18100
C  35.18100 54.18300 25.56900
C  35.24500 54.02500 24.13800
C  35.78800 52.75200 23.99000
C  34.77900 55.37300 26.37600
C  34.79700 55.03600 23.05600
O  34.69600 54.71400 21.88900
C  34.47200 56.49800 23.46500
N  36.71700 49.77500 23.15500
C  36.40500 50.76800 22.41000
C  36.76400 50.48000 20.91700
C  37.47900 49.03100 21.04100
C  37.22500 48.75300 22.52900
C  35.49000 50.55800 20.02900
C  38.94800 48.90900 20.53700
C  39.12900 47.65300 19.61000
N  37.24100 48.10600 25.38100
C  37.54000 47.22100 24.47000
C  37.65100 45.94600 25.06300
C  37.47500 46.18100 26.41600
C  37.18200 47.49600 26.57600
C  38.14900 44.73100 24.36300
C  37.46300 45.55500 27.66400
O  37.65600 44.42100 28.06000
C  37.23100 46.69200 28.76800
C  35.99900 46.45600 29.59000
O  34.85300 46.89200 29.34300
O  36.38700 45.61400 30.62200
C  35.35600 45.04300 31.39500
H  35.39400 53.33000 28.32000
H  36.01900 52.64000 21.86100
H  37.92800 46.83900 22.34300
H  35.67600 49.03700 30.15700
H  36.15100 51.86000 30.10700
H  34.05800 52.29200 30.38500
H  33.97100 50.80800 31.08100
H  33.38700 50.96900 29.41300
H  38.18100 50.67100 30.81000
H  38.53600 49.11800 30.05500
H  38.33000 49.36900 32.52900
H  37.79000 47.85700 31.66100
H  35.21300 56.30000 26.00300
H  34.98800 55.20900 27.43300
H  33.69000 55.38800 26.32400
H  33.68600 56.56800 24.21700
H  34.16600 56.90800 22.50200
H  35.31100 57.09800 23.81600
H  37.54800 51.14600 20.55800
H  36.71900 48.37200 20.62100
H  35.28200 51.62100 19.90800
H  34.72300 50.06500 20.62700
H  35.83100 50.12600 19.08900
H  39.71300 49.00200 21.30700
H  39.15600 49.73000 19.85200
H  40.05300 47.10900 19.80100
H  39.06800 48.01600 18.58400
H  38.36100 46.90100 19.79200
H  37.45000 44.32100 23.63400
H  38.44300 44.00400 25.12000
H  39.03100 44.97400 23.77000
H  38.10300 46.71600 29.42100
H  34.51700 45.71000 31.59400
H  35.67900 44.74800 32.39300
H  34.83700 44.18400 30.97000
Mg -5.41700 24.57900 25.75400
C  -3.68900 26.20200 28.39200
C  -7.12100 22.70800 28.01200
C  -6.67600 22.98000 23.04600
C  -3.34500 26.41700 23.49700
N  -5.43900 24.44000 27.89000
C  -4.74200 25.34600 28.78300
C  -5.27700 25.18000 30.17800
C  -6.02900 23.76200 30.13400
C  -6.25100 23.62200 28.59400
C  -5.18200 22.55400 30.76200
C  -6.08400 26.44200 30.66500
C  -6.02300 26.82800 32.18400
H  -5.22000 25.84000 33.06100
N  -6.73600 23.04300 25.53900
C  -7.41600 22.42600 26.58100
C  -8.37100 21.51800 25.96900
C  -8.35700 21.66700 24.53200
C  -7.26700 22.64900 24.31000
C  -9.29300 20.86800 26.87900
C  -9.12000 20.80300 23.42200
O  -9.04700 21.04300 22.23400
C  -9.94500 19.75600 23.84500
N  -4.88100 24.51000 23.58000
C  -5.61800 23.81500 22.69400
C  -5.23500 24.09100 21.25300
C  -4.19300 25.29800 21.37900
C  -4.07100 25.40000 22.92500
C  -4.68300 22.74000 20.64700
C  -4.67000 26.58000 20.53300
C  -3.76600 27.27900 19.44800
N  -3.93100 26.03400 25.85400
C  -3.20400 26.72600 24.86400
C  -2.31100 27.67700 25.45500
C  -2.46100 27.49600 26.85100
C  -3.39700 26.44700 27.03800
C  -1.32000 28.67200 24.82800
C  -1.92700 27.91500 28.14500
O  -1.08300 28.78300 28.42400
C  -2.75900 27.03900 29.21700
C  -1.89400 26.27900 30.04200
O  -1.26700 25.28100 29.75500
O  -1.67500 26.89100 31.25900
C  -0.65500 26.34500 32.24600
H  -7.53200 22.06700 28.79400
H  -7.18400 22.47600 22.22100
H  -2.79000 26.94900 22.72200
H  -4.45800 24.96100 30.86300
H  -7.01600 23.73300 30.59500
H  -4.75700 21.87900 30.02000
H  -5.75500 21.83100 31.34300
H  -4.42900 22.91300 31.46400
H  -7.12700 26.36700 30.35700
H  -5.76000 27.33200 30.12600
H  -7.00800 26.99800 32.61900
H  -5.38400 27.70800 32.26100
H  -9.05400 19.80900 26.78600
H  -10.28300 21.00700 26.44400
H  -9.27300 21.10900 27.94200
H  -10.35700 19.04200 23.13200
H  -10.84100 20.12900 24.34300
H  -9.36300 19.30400 24.64800
H  -6.11700 24.45900 20.73000
H  -3.21100 25.06500 20.96800
H  -3.59400 22.75500 20.69200
H  -4.91200 22.73100 19.58100
H  -5.09600 21.93700 21.25700
H  -4.75400 27.43100 21.21000
H  -5.62300 26.37700 20.04500
H  -3.43700 28.23400 19.85800
H  -4.33900 27.40900 18.53000
H  -2.90200 26.63900 19.27300
H  -1.75400 29.27400 24.03000
H  -0.40100 28.26300 24.40900
H  -0.96600 29.36600 25.59000
H  -3.27800 27.72300 29.88900
H  -0.99000 25.43200 32.73800
H  -0.60900 27.13500 32.99500
H  0.26300 26.05300 31.73500

