158

Mg 24.27500 -7.35600 46.70300
C  27.00900 -5.47100 45.85900
C  22.32600 -5.45100 44.62300
C  21.99900 -9.69800 46.93500
C  26.47900 -9.46200 48.61700
N  24.72400 -5.83300 45.14900
C  25.94700 -5.14000 45.05700
C  25.75900 -3.98500 44.05400
C  24.26800 -4.00300 43.75200
C  23.69300 -5.11800 44.58400
C  23.63300 -2.63000 43.99600
C  26.66200 -4.23200 42.88000
C  26.86700 -2.89200 42.02900
H  25.95500 -2.76700 40.73400
N  22.41000 -7.58200 45.91900
C  21.69700 -6.64700 45.17700
C  20.40100 -7.21800 44.75700
C  20.38500 -8.50700 45.28300
C  21.59500 -8.66000 46.08300
C  19.40400 -6.48100 43.91000
C  19.16900 -9.42600 45.13000
O  18.15600 -9.12000 44.56000
C  19.21000 -10.78500 45.75400
N  24.28000 -9.26100 47.71100
C  23.16700 -10.01900 47.68800
C  23.34500 -11.36800 48.35400
C  24.76600 -11.29400 48.96000
C  25.19900 -9.87600 48.41400
C  22.22400 -11.80900 49.33700
C  25.86100 -12.42300 48.36300
C  26.27700 -13.42700 49.43400
N  26.33600 -7.44400 47.31600
C  27.06600 -8.27900 48.10900
C  28.38800 -7.74500 48.36400
C  28.42100 -6.63600 47.45900
C  27.15200 -6.53400 46.79800
C  29.50600 -8.23900 49.27800
C  29.32400 -5.53100 46.88200
O  30.52800 -5.26700 47.10200
C  28.38300 -4.71900 45.86500
C  28.26500 -3.35700 46.44100
O  27.83200 -2.96000 47.51900
O  28.62900 -2.48900 45.41600
C  28.41400 -1.10200 45.69000
H  21.66200 -4.77500 44.08000
H  21.31200 -10.53300 47.09000
H  27.21100 -9.94400 49.26900
H  26.10300 -3.07700 44.54900
H  24.13800 -4.24700 42.69800
H  23.00000 -2.61500 44.88300
H  22.87000 -2.46300 43.23600
H  24.29800 -1.76900 43.92600
H  26.19400 -4.91900 42.17500
H  27.65500 -4.61600 43.11300
H  27.90400 -2.79400 41.71000
H  26.83700 -2.03800 42.70500
H  19.89600 -6.18800 42.98200
H  19.19000 -5.53800 44.41300
H  18.43500 -6.93800 43.71200
H  20.11400 -11.28600 45.40800
H  18.34700 -11.34900 45.40100
H  19.12500 -10.66900 46.83500
H  23.41800 -12.05800 47.51300
H  24.63900 -11.32600 50.04200
H  21.45700 -12.32800 48.76100
H  21.90400 -10.88500 49.81800
H  22.64300 -12.41500 50.14000
H  26.78100 -11.95500 48.01100
H  25.45700 -12.93800 47.49200
H  26.29000 -14.39900 48.94000
H  25.58600 -13.50100 50.27500
H  27.30900 -13.31900 49.76700
H  29.93400 -9.12700 48.81400
H  28.84500 -8.54300 50.09000
H  30.22600 -7.59400 49.78300
H  28.85500 -4.77500 44.88300
H  27.49200 -0.83700 46.20900
H  28.27600 -0.59800 44.73400
H  29.24800 -0.61900 46.19900
Mg 46.45400 15.63100 27.46300
C  44.53100 15.47600 30.43900
C  48.64300 17.66800 29.05800
C  48.22200 16.03800 24.52900
C  43.93700 14.00300 25.73600
N  46.56200 16.46600 29.50300
C  45.69100 16.31500 30.59600
C  46.24000 16.95600 31.83300
C  47.48400 17.82300 31.30600
C  47.58000 17.28800 29.89300
C  47.29200 19.31700 31.25400
C  46.56200 15.91900 32.97200
C  46.04200 16.27400 34.37000
H  46.97900 15.96900 35.53300
N  48.32200 16.48900 26.94700
C  49.01000 17.40600 27.73800
C  50.17200 17.80900 27.04300
C  50.11500 17.31500 25.76100
C  48.88600 16.49800 25.71000
C  51.29500 18.68500 27.67000
C  51.04000 17.42400 24.47200
O  50.90000 16.72600 23.51200
C  52.26800 18.26400 24.50200
N  46.14100 15.09600 25.37100
C  46.98900 15.32000 24.32400
C  46.45900 14.71900 23.01500
C  45.24200 13.84900 23.51800
C  45.12900 14.24000 24.96700
C  46.18000 15.70900 21.95300
C  45.40100 12.31300 23.29500
C  46.56100 11.68700 24.11300
N  44.60600 14.97300 27.92600
C  43.70300 14.28000 27.11100
C  42.53400 13.86300 27.92100
C  42.88500 14.37400 29.20700
C  44.11900 15.01000 29.15900
C  41.27600 13.28500 27.45900
C  42.29600 14.58100 30.49600
O  41.17000 14.33900 30.85100
C  43.36000 15.22900 31.40700
C  42.85700 16.51700 32.03500
O  42.89500 17.62400 31.46900
O  42.35000 16.37200 33.32700
C  42.36200 17.57700 34.11600
H  49.27900 18.46200 29.45500
H  48.69500 16.49600 23.65800
H  43.17500 13.32700 25.34300
H  45.51200 17.60800 32.31600
H  48.35200 17.64600 31.94100
H  46.39100 19.57300 31.81200
H  47.20200 19.68900 30.23300
H  48.22600 19.70900 31.65600
H  47.64100 15.77100 33.00500
H  46.05300 14.98400 32.73700
H  45.13100 15.75700 34.66900
H  45.77100 17.32100 34.50900
H  51.03400 19.68400 28.01800
H  52.16700 18.65900 27.01700
H  51.60400 18.12600 28.55400
H  52.82800 18.25700 23.56700
H  52.81900 17.72200 25.27000
H  52.00900 19.27600 24.81400
H  47.27400 14.06200 22.70900
H  44.37400 14.16100 22.93800
H  45.98800 16.67700 22.41500
H  45.31100 15.45000 21.35000
H  46.99700 15.76300 21.23300
H  45.53400 12.20900 22.21800
H  44.50800 11.75200 23.57000
H  47.35100 11.38500 23.42600
H  46.14800 10.95700 24.80900
H  46.99000 12.48700 24.71600
H  41.27100 13.53800 26.39900
H  40.55300 13.87400 28.02500
H  41.11700 12.23000 27.68000
H  43.59800 14.60300 32.26700
H  41.71400 18.34800 33.69800
H  43.36900 17.98700 34.18600
H  41.94600 17.28700 35.08100

