158

Mg 47.87000 25.22600 28.24300
C  48.40600 27.52100 30.70100
C  47.31200 22.91200 30.66200
C  47.50700 22.97000 25.77800
C  49.00400 27.50400 25.88100
N  47.84500 25.23300 30.46500
C  47.87500 26.38000 31.21700
C  47.63600 26.00300 32.72500
C  47.42900 24.42700 32.75100
C  47.48800 24.16300 31.23600
C  48.52200 23.61700 33.52900
C  46.32500 26.80300 33.24200
C  46.63900 28.14700 33.93400
H  45.93100 28.61600 35.19000
N  47.45300 23.19500 28.23000
C  47.26600 22.46000 29.33800
C  46.85100 21.13700 28.90600
C  46.90900 21.09800 27.47700
C  47.34000 22.45700 27.09900
C  46.36200 20.10600 29.83800
C  46.64700 19.95700 26.51000
O  46.81200 20.07200 25.26700
C  45.97100 18.71600 27.01000
N  48.27900 25.25400 26.12600
C  48.02800 24.14900 25.32000
C  47.93200 24.61200 23.81200
C  48.22700 26.08700 23.83800
C  48.55900 26.29600 25.32300
C  48.99000 23.82600 22.88600
C  47.07200 27.00500 23.36000
C  47.36400 27.88200 22.12600
N  48.65400 27.06500 28.29300
C  49.03100 27.86300 27.27200
C  49.54100 29.09900 27.82300
C  49.29800 29.02600 29.18600
C  48.67200 27.81300 29.40700
C  50.12000 30.23000 27.04800
C  49.45400 29.69900 30.42800
O  49.98100 30.77200 30.59100
C  48.99200 28.68100 31.51900
C  50.09300 28.37000 32.44200
O  51.00200 27.60100 32.25700
O  49.97100 29.14200 33.57800
C  51.04000 28.86400 34.54500
H  47.18400 22.16700 31.44900
H  47.19900 22.23900 25.02800
H  49.14800 28.33200 25.18400
H  48.39300 26.26600 33.46400
H  46.51000 24.26100 33.31300
H  48.96300 24.32600 34.23000
H  49.25700 23.23700 32.81900
H  48.09500 22.78800 34.09400
H  45.58200 26.20400 33.76900
H  45.77300 27.04300 32.33200
H  46.35700 28.81100 33.11700
H  47.71600 28.09600 34.10000
H  45.41000 19.68100 29.52200
H  46.04600 20.60000 30.75700
H  47.08100 19.28900 29.88900
H  45.14800 19.22400 27.51400
H  46.68600 18.29800 27.71900
H  45.61900 18.08700 26.19300
H  46.93900 24.38800 23.42200
H  49.16800 26.20300 23.30100
H  48.64600 22.79300 22.83400
H  49.98200 23.93800 23.32400
H  48.93100 24.27400 21.89400
H  46.67900 27.66100 24.13700
H  46.18000 26.45000 23.06800
H  47.23300 28.89700 22.50000
H  46.66300 27.63400 21.32800
H  48.41400 27.77000 21.85800
H  50.29200 30.06000 25.98500
H  51.09200 30.43900 27.49500
H  49.46500 31.10200 27.05100
H  48.21400 29.12100 32.14300
H  50.50300 28.08200 35.08200
H  51.20600 29.79200 35.09100
H  51.93600 28.28400 34.32500
Mg 10.07900 47.90600 26.74500
C  8.35300 47.78400 29.90300
C  12.76600 48.85100 28.41200
C  11.63200 47.62700 23.73700
C  7.01500 46.92500 25.31100
N  10.45100 48.34300 28.91500
C  9.69400 48.18500 30.00800
C  10.38900 48.49200 31.32500
C  11.63500 49.31700 30.72900
C  11.66100 48.87400 29.28400
C  11.68000 50.81600 30.77500
C  10.84700 47.17700 32.17500
C  10.50000 47.24200 33.71200
H  10.41400 45.95600 34.56600
N  11.88900 48.33000 26.13000
C  12.92700 48.64500 26.98600
C  14.17900 48.64100 26.22100
C  13.74800 48.39300 24.84600
C  12.32200 48.12200 24.82000
C  15.52700 48.95600 26.86800
C  14.62700 48.31300 23.65200
O  14.21600 48.16400 22.46700
C  16.14500 48.33900 23.66500
N  9.40100 47.39800 24.87700
C  10.21000 47.25200 23.75400
C  9.44300 47.05700 22.52000
C  8.01500 46.58500 23.08900
C  8.15700 46.96100 24.51100
C  9.37800 48.36300 21.63300
C  7.88900 45.00900 22.96900
C  9.06100 44.10300 23.43700
N  8.03800 47.68700 27.34300
C  6.91700 47.25600 26.65200
C  5.71200 47.31800 27.48900
C  6.33200 47.41700 28.78700
C  7.69400 47.62300 28.65400
C  4.24900 46.83400 27.13900
C  5.95600 47.23400 30.11900
O  4.96100 46.79600 30.57900
C  7.31800 47.57300 30.98300
C  7.47300 46.33100 31.83300
O  7.98800 45.29600 31.42200
O  6.80800 46.50200 32.94900
C  6.60000 45.28300 33.78600
H  13.61500 49.23700 28.98100
H  12.09100 47.49800 22.75500
H  6.07300 46.73700 24.79200
H  9.82900 49.16100 31.97900
H  12.56600 48.87900 31.09000
H  12.57400 51.16800 31.29000
H  10.88300 51.41500 31.21600
H  11.73000 51.21900 29.76300
H  11.89700 46.89300 32.10200
H  10.39200 46.24800 31.83200
H  9.53900 47.73600 33.85000
H  11.26100 47.84600 34.20500
H  15.51200 48.87300 27.95500
H  15.81600 49.97900 26.63000
H  16.30400 48.36700 26.38000
H  16.61000 49.24700 24.04900
H  16.43400 48.10400 22.64100
H  16.39600 47.50200 24.31600
H  9.89100 46.26400 21.92100
H  7.20900 47.09300 22.56000
H  10.08400 49.11700 21.98200
H  8.39000 48.82200 21.66600
H  9.62700 48.08200 20.61000
H  7.75200 44.58300 21.97500
H  7.01200 44.72300 23.55000
H  9.44600 43.54400 22.58500
H  8.54900 43.40100 24.09600
H  9.85600 44.53400 24.04500
H  4.05200 46.89900 26.06900
H  3.54400 47.39900 27.74800
H  4.08300 45.79600 27.42600
H  7.08000 48.40900 31.64100
H  6.75700 45.57200 34.82500
H  7.08000 44.35600 33.47100
H  5.52400 45.11400 33.74200

