158

Mg -2.16900 17.06000 26.83300
C  -2.90500 14.87100 29.57700
C  -2.68200 19.66000 29.03000
C  -1.76800 19.09600 24.33200
C  -2.35700 14.26300 24.74000
N  -2.79300 17.21000 29.06200
C  -2.86000 16.21100 30.03500
C  -2.83200 16.81800 31.41500
C  -3.01200 18.37500 31.21800
C  -2.80500 18.42300 29.64300
C  -4.38100 19.06000 31.64800
C  -1.61800 16.28300 32.20500
C  -1.13800 17.08100 33.33200
H  -0.57600 16.30700 34.51000
N  -2.17500 19.04400 26.74300
C  -2.37700 19.96200 27.69500
C  -2.13600 21.35900 27.18800
C  -1.81800 21.19100 25.82500
C  -1.90700 19.77500 25.58500
C  -2.44000 22.55800 27.98100
C  -1.56500 22.20700 24.75300
O  -1.55400 22.02400 23.51200
C  -1.32400 23.59700 25.26500
N  -2.43700 16.74000 24.75100
C  -2.01300 17.77000 23.92100
C  -1.71700 17.26700 22.47800
C  -1.87800 15.74200 22.64300
C  -2.20500 15.55200 24.16900
C  -2.76300 17.87400 21.45700
C  -0.73500 14.85700 22.13400
C  -0.71200 14.87400 20.57500
N  -2.53900 15.00000 27.01600
C  -2.50500 13.95700 26.09200
C  -2.73400 12.68100 26.74500
C  -2.92700 13.03500 28.06000
C  -2.80700 14.44600 28.23400
C  -2.77400 11.39600 25.99100
C  -3.13000 12.41300 29.34200
O  -3.25600 11.27200 29.69300
C  -3.16400 13.59800 30.42300
C  -2.04100 13.29400 31.35300
O  -0.86900 13.59800 31.14700
O  -2.43200 12.60400 32.49900
C  -1.28900 12.25200 33.38100
H  -2.73500 20.47900 29.75000
H  -1.54400 19.71200 23.45800
H  -2.33500 13.41900 24.04800
H  -3.69800 16.34500 31.87800
H  -2.20400 18.86200 31.76500
H  -5.05500 18.20600 31.58100
H  -4.80400 19.79700 30.96500
H  -4.37400 19.54400 32.62500
H  -0.79000 16.12300 31.51400
H  -1.89700 15.34500 32.68600
H  -1.79200 17.84200 33.75700
H  -0.24500 17.60500 32.99000
H  -3.38800 22.46900 28.51100
H  -2.53400 23.54500 27.52900
H  -1.60300 22.57400 28.67900
H  -0.67000 23.88400 24.44200
H  -0.83100 23.65100 26.23600
H  -2.24200 24.17900 25.18400
H  -0.71300 17.54900 22.16200
H  -2.69500 15.28800 22.08200
H  -3.29300 18.76900 21.78500
H  -3.46200 17.06600 21.24500
H  -2.27100 18.12200 20.51700
H  -0.86600 13.85900 22.55100
H  0.24400 15.13000 22.53100
H  -0.95100 13.88300 20.19000
H  0.30100 14.99000 20.19100
H  -1.28700 15.59500 19.99400
H  -1.79900 11.35200 25.50600
H  -3.57300 11.28300 25.25900
H  -2.63400 10.69900 26.81800
H  -4.09200 13.77500 30.96500
H  -0.61900 13.11100 33.43900
H  -0.72500 11.44200 32.91900
H  -1.68300 12.01300 34.36900
Mg 8.86900 3.24900 28.04000
C  10.15500 1.83800 30.95300
C  6.75300 5.17300 30.04900
C  7.51400 4.60100 25.28700
C  10.40400 0.75100 26.20100
N  8.41300 3.39700 30.34700
C  9.18700 2.81000 31.32400
C  8.73100 3.25800 32.72300
C  7.66000 4.32300 32.47400
C  7.55700 4.28900 30.86700
C  6.34500 4.07600 33.23600
C  10.00700 3.90400 33.60200
C  10.11300 3.43700 35.07200
H  10.26000 4.45600 36.19600
N  7.37600 4.65300 27.74400
C  6.69600 5.40300 28.66700
C  5.95600 6.44100 28.04700
C  6.27000 6.40500 26.66900
C  7.08400 5.14600 26.48200
C  5.19600 7.66400 28.77900
C  5.84500 7.39700 25.51700
O  6.26000 7.20800 24.40800
C  4.84300 8.46800 25.79500
N  8.96600 2.78200 26.10000
C  8.39700 3.52000 25.14100
C  8.71500 2.97300 23.74400
C  9.78900 1.88400 24.03600
C  9.72800 1.78100 25.54600
C  7.52600 2.56500 22.88400
C  11.23300 2.20000 23.49500
C  11.54500 1.71400 22.06600
N  10.08700 1.69900 28.46800
C  10.52600 0.64700 27.58500
C  11.34700 -0.26600 28.28200
C  11.25100 0.16600 29.61600
C  10.40100 1.33200 29.65700
C  12.18000 -1.37100 27.64700
C  11.76300 -0.11000 30.93500
O  12.62300 -0.91600 31.33400
C  11.02500 0.96400 31.85900
C  10.27500 0.07700 32.77100
O  9.48400 -0.80300 32.36600
O  10.52400 0.36600 34.11300
C  9.71900 -0.45200 35.07700
H  6.13100 5.85500 30.63300
H  7.13100 5.09800 24.39400
H  10.72600 0.01600 25.45900
H  8.40500 2.44300 33.37000
H  8.10300 5.27200 32.77500
H  5.63800 3.89500 32.42500
H  6.06700 4.81900 33.98300
H  6.35500 3.14800 33.80700
H  10.00200 4.99200 33.66500
H  10.94700 3.70700 33.08600
H  10.89900 2.71400 35.29100
H  9.18600 2.93100 35.33800
H  5.42000 7.60300 29.84400
H  4.14600 7.41000 28.63400
H  5.44800 8.65600 28.40300
H  5.27700 9.33800 26.28700
H  4.05100 8.12600 26.46100
H  4.37200 8.65400 24.82900
H  9.28000 3.82300 23.36000
H  9.32300 0.97600 23.65400
H  6.58300 2.63600 23.42600
H  7.57600 1.51700 22.58800
H  7.46900 3.17000 21.97900
H  11.98200 1.87000 24.21500
H  11.32300 3.27900 23.37300
H  12.40600 1.04900 22.00900
H  11.45400 2.58400 21.41500
H  10.57900 1.24700 21.87200
H  11.59800 -1.91500 26.90300
H  12.46000 -2.04800 28.45400
H  13.00200 -0.79500 27.22000
H  11.67400 1.61800 32.44000
H  10.19800 -0.17200 36.01500
H  9.89500 -1.51300 34.89900
H  8.67200 -0.20800 34.89900

