158

Mg 45.10500 4.06000 47.00800
C  43.26500 7.12600 46.51300
C  42.37000 2.49600 45.91500
C  46.93500 1.29000 47.01700
C  48.06400 6.06800 46.96100
N  43.02100 4.74000 46.44400
C  42.50400 6.01300 46.39100
C  41.00300 5.99600 46.13000
C  40.75600 4.48700 45.93000
C  42.12100 3.87900 45.99400
C  39.91100 3.77600 47.11600
C  40.53200 6.85100 44.86000
C  41.45500 6.94600 43.57200
H  40.69000 6.80700 42.22900
N  44.66200 2.11300 46.75000
C  43.46000 1.65100 46.28900
C  43.56100 0.18300 46.15900
C  44.87800 -0.23200 46.33500
C  45.62800 1.05800 46.67200
C  42.44700 -0.69200 45.65300
C  45.48500 -1.66100 46.39400
O  44.78700 -2.61000 46.07600
C  46.94700 -2.01800 46.75800
N  47.17100 3.73100 46.86100
C  47.62400 2.46500 47.03800
C  49.16700 2.39600 47.04900
C  49.58400 3.93000 47.09900
C  48.20600 4.67500 46.88600
C  49.93900 1.58700 48.17800
C  50.68100 4.41200 46.12700
C  51.76100 5.29100 46.66800
N  45.59400 6.13300 46.88900
C  46.83000 6.75000 46.88600
C  46.61900 8.18400 46.98600
C  45.26100 8.38400 46.90500
C  44.64600 7.16300 46.75300
C  47.70100 9.22800 47.09700
C  44.19700 9.36500 46.87700
O  44.36700 10.59200 46.83700
C  42.81300 8.60000 46.67000
C  42.02100 8.70500 47.88600
O  41.99700 7.96700 48.82200
O  41.20900 9.82100 47.79000
C  40.19200 9.96100 48.83600
H  41.44400 2.05100 45.54300
H  47.69100 0.50200 46.98800
H  48.94200 6.71600 47.01400
H  40.57500 6.39500 47.05000
H  40.32000 4.21700 44.96800
H  39.38900 4.57000 47.65000
H  40.58800 3.15700 47.70400
H  39.18700 3.21800 46.52400
H  40.40000 7.87900 45.19600
H  39.58100 6.42700 44.53700
H  42.18000 6.13300 43.61300
H  41.96800 7.90400 43.48200
H  41.50500 -0.14600 45.70800
H  42.39200 -1.55600 46.31500
H  42.72200 -1.01600 44.64900
H  46.83700 -3.09600 46.87600
H  47.13300 -1.60200 47.74900
H  47.71500 -1.89700 45.99400
H  49.54200 1.99100 46.10900
H  49.91300 4.09300 48.12500
H  50.33400 0.68200 47.71600
H  49.14500 1.27800 48.85800
H  50.76000 2.04900 48.72700
H  50.08300 4.97100 45.40600
H  51.11800 3.53700 45.64600
H  51.73400 6.21300 46.08600
H  52.73700 4.81600 46.57300
H  51.59200 5.66200 47.67900
H  47.43600 9.61400 48.08100
H  47.65400 10.06700 46.40300
H  48.70100 8.80100 47.03000
H  42.25600 8.98700 45.81700
H  40.21200 9.33000 49.72400
H  39.29000 9.70200 48.28100
H  40.21800 10.99300 49.18800
Mg 34.75000 2.79300 29.02700
C  32.75500 3.31400 31.85700
C  37.43400 2.21300 31.15700
C  36.61400 2.44400 26.34000
C  31.88600 3.64500 27.01300
N  35.04600 2.87100 31.22900
C  34.08000 2.90200 32.19400
C  34.60000 2.74000 33.64200
C  36.18800 2.60700 33.34200
C  36.31200 2.63400 31.82400
C  37.04900 3.78400 33.98500
C  33.93300 1.59200 34.39800
C  33.58600 1.78000 35.90400
H  34.43400 2.65600 36.81900
N  36.73700 2.44900 28.72800
C  37.65900 2.19400 29.72000
C  39.00100 2.02700 29.05300
C  38.83100 2.14100 27.66700
C  37.32700 2.27100 27.48300
C  40.30000 2.01700 29.81800
C  39.88900 2.08200 26.64300
O  39.52100 2.17300 25.44300
C  41.32100 1.68800 26.89700
N  34.30900 3.25300 26.93000
C  35.26100 2.85500 26.03100
C  34.76900 3.15100 24.59500
C  33.22900 3.37100 24.83600
C  33.12300 3.46600 26.39700
C  35.55700 4.21400 23.92100
C  32.24500 2.33000 24.20800
C  32.28700 0.92200 24.74600
N  32.76100 3.23700 29.32300
C  31.69700 3.56400 28.45600
C  30.48100 3.72300 29.16600
C  30.83500 3.66800 30.49400
C  32.16300 3.35900 30.59700
C  29.11000 4.04700 28.70300
C  30.34400 3.80200 31.88000
O  29.20600 3.96000 32.32200
C  31.59100 3.55800 32.77500
C  31.74100 4.78500 33.67400
O  32.04700 5.90600 33.29400
O  31.48100 4.56200 34.97800
C  31.62000 5.74200 35.83500
H  38.24500 1.97500 31.84800
H  37.15800 2.38100 25.39500
H  31.11600 3.76300 26.24700
H  34.46100 3.72600 34.08600
H  36.53200 1.70000 33.83900
H  36.39400 4.49400 34.49000
H  37.69000 4.30500 33.27400
H  37.65500 3.23700 34.70600
H  34.71600 0.83700 34.32600
H  33.07200 1.27600 33.81000
H  33.41000 0.79400 36.33200
H  32.61700 2.27800 35.88000
H  40.88900 1.14200 29.54500
H  40.13500 1.94900 30.89300
H  40.81400 2.97600 29.74400
H  41.29400 0.72300 27.40300
H  41.74400 2.26700 27.71800
H  41.78800 1.69600 25.91200
H  34.84600 2.24900 23.98800
H  33.02900 4.37200 24.45500
H  36.00500 4.75400 24.75500
H  34.92000 4.91700 23.38400
H  36.30100 3.84300 23.21700
H  32.44000 2.22800 23.14000
H  31.26400 2.80500 24.20900
H  32.38500 0.25100 23.89300
H  31.37300 0.80900 25.33000
H  33.11600 0.73900 25.42900
H  29.07300 5.02100 28.21300
H  28.45900 4.16000 29.57000
H  28.90200 3.27600 27.96100
H  31.39800 2.67000 33.37800
H  31.07500 5.52800 36.75500
H  31.25500 6.69000 35.43900
H  32.69400 5.83900 35.99300

