158

Mg 51.09600 47.04100 42.06700
C  47.86400 48.23400 41.16700
C  50.17000 44.07500 40.73900
C  54.22600 46.13700 42.67600
C  51.84500 50.17600 43.40400
N  49.19800 46.29500 41.08800
C  48.05300 46.94600 40.77100
C  47.09500 46.10100 39.94600
C  47.80500 44.70600 39.97800
C  49.14400 45.05900 40.64800
C  47.05100 43.64600 40.86100
C  46.85500 46.75700 38.52900
C  45.33900 46.85600 38.41000
H  44.69500 46.15100 37.09500
N  52.08500 45.33800 41.72100
C  51.48400 44.19700 41.15200
C  52.51000 43.14500 41.08500
C  53.72400 43.72200 41.61500
C  53.38800 45.09700 42.08800
C  52.30200 41.75400 40.53600
C  55.05500 42.98900 41.72900
O  55.12300 41.84800 41.25100
C  56.20500 43.61700 42.44800
N  52.84900 48.09900 42.84300
C  54.02500 47.49000 42.96100
C  55.05100 48.37800 43.58400
C  54.29300 49.71500 43.77700
C  52.91600 49.33300 43.28500
C  55.76000 47.75000 44.84400
C  54.90400 50.88100 42.93800
C  54.41300 52.35200 43.36600
N  50.12500 48.88100 42.28600
C  50.52100 50.05300 42.88700
C  49.48800 51.06300 42.90000
C  48.41200 50.32100 42.22800
C  48.87000 49.05700 41.85600
C  49.42700 52.45600 43.42200
C  47.05000 50.49500 41.66100
O  46.27700 51.42800 41.69400
C  46.63400 49.12600 40.97900
C  45.47200 48.70900 41.76000
O  45.41900 48.18500 42.85800
O  44.37500 48.92700 40.99600
C  43.10500 48.39400 41.53000
H  49.71800 43.14100 40.39700
H  55.26900 45.90900 42.90600
H  52.02600 51.21600 43.68600
H  46.25500 45.98200 40.63000
H  47.95000 44.35400 38.95600
H  46.71100 42.84400 40.20600
H  46.14900 43.98700 41.37100
H  47.77800 43.28000 41.58600
H  47.31900 46.10400 37.78900
H  47.40900 47.68700 38.39800
H  45.06900 47.90400 38.27700
H  44.78900 46.50500 39.28300
H  53.13200 41.34400 39.96100
H  51.38800 41.82500 39.94600
H  52.15300 41.02400 41.33200
H  57.06200 42.96400 42.60900
H  55.87600 43.77900 43.47400
H  56.53200 44.51700 41.92700
H  55.72600 48.62700 42.76500
H  54.34000 50.01800 44.82300
H  55.47600 46.72400 45.08000
H  55.60400 48.42400 45.68600
H  56.83200 47.72000 44.64600
H  54.53800 50.65600 41.93600
H  55.96900 50.78100 42.72900
H  55.24800 52.98400 43.66600
H  53.78800 52.40600 44.25800
H  53.72500 52.69500 42.59400
H  49.47300 53.09000 42.53600
H  50.34800 52.51700 44.00000
H  48.51700 52.70000 43.97000
H  46.53200 49.25500 39.90100
H  43.06000 48.37900 42.61900
H  42.92200 47.36500 41.22000
H  42.29700 49.01700 41.14600
Mg -12.88100 16.28700 40.99200
C  -9.85800 14.60000 40.35400
C  -11.35800 19.18600 39.73000
C  -15.93600 17.83000 40.61100
C  -14.49600 13.16100 40.95600
N  -10.81100 16.76700 40.15200
C  -9.74900 15.94600 40.05100
C  -8.66200 16.60500 39.28500
C  -9.08300 18.12400 39.31000
C  -10.48900 18.03900 39.80900
C  -8.08500 19.08300 40.06200
C  -8.35500 16.04500 37.85800
C  -6.87100 16.25500 37.47900
H  -6.26500 15.30700 36.48400
N  -13.51800 18.30100 40.51400
C  -12.72900 19.27300 39.95700
C  -13.57200 20.43800 39.79700
C  -14.90200 20.07400 40.16600
C  -14.83300 18.65700 40.44200
C  -13.07800 21.74300 39.24800
C  -16.04000 20.95200 40.16900
O  -15.89600 22.19200 39.87200
C  -17.35200 20.56100 40.80900
N  -14.99300 15.62800 40.90500
C  -16.05300 16.48500 40.81200
C  -17.38400 15.69500 40.99800
C  -16.91300 14.21800 40.95700
C  -15.35800 14.31200 40.95500
C  -18.19600 16.09100 42.18700
C  -17.37100 13.37600 39.79000
C  -18.16300 12.10500 40.08500
N  -12.36000 14.30500 41.01500
C  -13.10400 13.16300 41.06700
C  -12.19300 11.98800 41.07900
C  -10.87800 12.51700 40.94900
C  -11.06500 13.94200 40.85200
C  -12.48500 10.53900 40.96100
C  -9.44800 12.16600 40.68700
O  -8.88400 11.10300 40.46100
C  -8.75000 13.55400 40.38200
C  -7.80100 13.88900 41.44600
O  -8.02200 14.23800 42.59400
O  -6.56700 13.85300 40.86700
C  -5.44800 14.39000 41.74300
H  -10.80000 20.00400 39.26900
H  -16.93900 18.16800 40.34200
H  -14.93200 12.19600 41.22100
H  -7.72800 16.52700 39.84200
H  -9.02600 18.54600 38.30600
H  -7.69300 19.85000 39.39400
H  -7.19900 18.54200 40.39700
H  -8.47600 19.72600 40.84900
H  -8.95900 16.60000 37.14000
H  -8.67900 15.00900 37.75600
H  -6.25300 16.29800 38.37500
H  -6.76000 17.22800 37.00000
H  -13.78200 22.14900 38.52200
H  -12.16300 21.68800 38.65700
H  -12.79800 22.50600 39.97400
H  -18.06500 20.18700 40.07500
H  -17.87200 21.42800 41.21600
H  -17.11500 19.91900 41.65800
H  -18.03900 15.89900 40.15000
H  -17.29400 13.70600 41.84100
H  -19.15300 16.35900 41.73900
H  -17.58600 16.92200 42.54200
H  -18.24700 15.26100 42.89200
H  -16.54200 12.93400 39.23600
H  -17.97400 13.91100 39.05700
H  -17.89900 11.49100 39.22400
H  -19.24600 12.22300 40.12400
H  -17.81000 11.48600 40.91000
H  -13.27300 10.36900 40.22700
H  -12.59900 10.04900 41.92800
H  -11.63800 10.10800 40.42700
H  -8.17600 13.41100 39.46600
H  -4.55300 14.45500 41.12500
H  -5.27800 13.68000 42.55200
H  -5.53100 15.37900 42.19300

