158

Mg 8.27700 3.72800 27.95000
C  9.97900 2.33600 30.58000
C  6.71700 5.87300 30.07300
C  6.57000 4.87900 25.27000
C  9.97900 1.50700 25.88400
N  8.10800 3.94800 30.08100
C  9.00800 3.25900 30.96500
C  9.01300 3.86300 32.35900
C  7.86000 4.92200 32.22100
C  7.50100 4.92600 30.72000
C  6.57500 4.73300 33.16900
C  10.36200 4.50800 32.83200
C  11.14000 3.81300 33.97600
H  11.22100 4.57900 35.30100
N  6.83100 5.18300 27.69700
C  6.30000 5.99700 28.67300
C  5.27300 6.79700 28.03400
C  5.23100 6.58000 26.65200
C  6.25100 5.44600 26.47100
C  4.46500 7.81600 28.89700
C  4.36000 7.21400 25.51800
O  4.53400 6.89000 24.34200
C  3.41400 8.34400 25.81200
N  8.28500 3.23900 25.88900
C  7.50200 3.89200 24.97000
C  7.86200 3.57600 23.50900
C  9.04800 2.56700 23.76600
C  9.05200 2.37500 25.29400
C  6.66200 3.00400 22.70400
C  10.44400 2.98400 23.09500
C  11.14600 1.96200 22.08100
N  9.58900 2.13300 28.16500
C  10.15000 1.29900 27.21500
C  11.09300 0.41000 27.85400
C  11.06100 0.80900 29.20600
C  10.12500 1.85700 29.33600
C  11.91700 -0.67800 27.23400
C  11.55800 0.45800 30.48400
O  12.37800 -0.38900 30.73800
C  10.88400 1.40400 31.50100
C  10.08900 0.61800 32.54300
O  8.92500 0.21200 32.49800
O  10.97600 0.37000 33.54600
C  10.34100 -0.20500 34.69400
H  6.17200 6.51200 30.76900
H  6.07900 5.22900 24.36000
H  10.46600 0.89900 25.11800
H  8.69400 3.16600 33.13400
H  8.29000 5.90000 32.43900
H  5.69500 4.63400 32.53400
H  6.57700 5.53800 33.90300
H  6.54300 3.86900 33.83300
H  10.13400 5.52800 33.14200
H  11.02300 4.50000 31.96500
H  12.15100 3.48400 33.73600
H  10.63600 2.87800 34.21900
H  4.74300 7.68600 29.94300
H  3.44600 7.50600 28.66900
H  4.73400 8.81700 28.55900
H  2.66400 8.19300 26.58900
H  2.97300 8.80400 24.92900
H  4.07800 9.14600 26.13400
H  8.14700 4.58500 23.21200
H  8.90400 1.53600 23.44400
H  5.79700 2.96700 23.36700
H  6.80600 1.95800 22.43500
H  6.55200 3.61100 21.80500
H  11.05600 3.21500 23.96700
H  10.26900 3.94900 22.62000
H  11.08600 2.37000 21.07200
H  10.65100 0.99300 22.02400
H  12.21200 1.90800 22.30000
H  12.30400 -0.18800 26.34000
H  11.46900 -1.64000 26.98800
H  12.71000 -0.88100 27.95400
H  11.71600 1.98600 31.89700
H  9.65600 -0.99400 34.38400
H  9.79800 0.57000 35.23600
H  11.11000 -0.55500 35.38200
Mg 43.07400 42.10700 26.57100
C  42.42300 44.42200 29.17700
C  44.28200 39.82100 28.96300
C  43.87900 40.00000 24.10400
C  42.02200 44.52600 24.36200
N  43.34600 42.17100 28.75900
C  42.90100 43.18200 29.58700
C  42.78700 42.64000 31.01800
C  43.68500 41.31800 31.08200
C  43.84000 41.09900 29.51300
C  45.05400 41.44900 31.73300
C  41.35600 42.46000 31.42000
C  41.10500 42.99000 32.85600
H  41.91300 42.63200 34.11500
N  43.96600 40.16000 26.52300
C  44.41400 39.40900 27.62100
C  44.92300 38.13400 27.08800
C  44.67400 38.11000 25.66800
C  44.15600 39.44300 25.38500
C  45.61200 37.13900 28.01600
C  44.85000 36.96000 24.65500
O  44.52100 37.10500 23.52300
C  45.38800 35.72100 25.18600
N  43.12800 42.36000 24.54400
C  43.47300 41.32600 23.73500
C  43.33700 41.58600 22.26000
C  42.53300 42.94800 22.33800
C  42.58800 43.35000 23.78400
C  44.61200 41.69900 21.37200
C  41.09500 42.91300 21.70500
C  40.23400 41.84200 22.36100
N  42.43900 44.06600 26.67900
C  41.93700 44.88300 25.69100
C  41.42600 46.10800 26.28400
C  41.48900 45.95500 27.71900
C  42.17800 44.71600 27.86600
C  40.79100 47.25600 25.44400
C  41.21600 46.66600 28.91600
O  40.83500 47.81300 29.11800
C  41.84200 45.64500 29.95500
C  42.78900 46.34800 30.90900
O  44.00900 46.38400 30.89900
O  41.99900 46.99800 31.81000
C  42.81700 47.43800 32.98600
H  44.38900 39.00200 29.67800
H  44.29900 39.50100 23.22800
H  41.55500 45.20400 23.64500
H  43.28300 43.36400 31.66500
H  43.09400 40.46800 31.42400
H  45.81200 40.91000 31.16400
H  44.95100 40.94900 32.69600
H  45.28600 42.50300 31.88300
H  40.99800 41.43100 31.37300
H  40.71100 43.04700 30.76500
H  40.11500 42.60800 33.10400
H  41.08500 44.08000 32.82800
H  45.80100 37.69300 28.93500
H  46.55500 36.80800 27.58000
H  44.92500 36.29700 28.11200
H  44.70500 35.37700 25.96200
H  46.41300 35.58800 25.53300
H  45.30700 34.92600 24.44400
H  42.71600 40.76300 21.90500
H  43.10900 43.73900 21.85900
H  45.43400 41.10500 21.77100
H  44.90600 42.74100 21.23900
H  44.35700 41.35300 20.37000
H  40.98300 42.85400 20.62300
H  40.62000 43.86800 21.93000
H  39.83700 41.13500 21.63200
H  39.37700 42.34100 22.81400
H  40.74600 41.35900 23.19400
H  40.04600 46.86000 24.75400
H  41.52800 47.68400 24.76500
H  40.20700 47.92900 26.07200
H  41.08300 45.33900 30.67400
H  43.60900 48.13300 32.70500
H  43.39200 46.65200 33.47700
H  42.14000 47.98000 33.64500

