158

Mg 48.49200 34.40800 26.07500
C  46.73100 33.16500 28.74300
C  48.79800 37.37300 27.72400
C  49.69800 35.71200 23.30700
C  47.67100 31.47600 24.20800
N  47.97300 35.03800 28.10200
C  47.30400 34.36500 29.05500
C  47.36500 35.09900 30.39000
C  47.78800 36.57500 29.98400
C  48.24900 36.33900 28.53100
C  46.61000 37.60600 29.95000
C  48.52500 34.50600 31.35300
C  48.45000 34.76800 32.83300
H  47.31300 35.58800 33.30900
N  49.21800 36.29800 25.59100
C  49.22100 37.37800 26.39900
C  49.90800 38.43700 25.71800
C  50.23400 38.01700 24.45900
C  49.67500 36.65700 24.35700
C  50.13400 39.79300 26.24900
C  50.86100 38.67600 23.31600
O  51.05300 38.13000 22.21500
C  51.37400 40.16500 23.48900
N  48.31200 33.85300 23.98700
C  48.99300 34.57900 23.10500
C  49.06200 33.87900 21.76100
C  49.03600 32.40000 22.17500
C  48.23200 32.54000 23.53600
C  47.86200 34.31000 20.81600
C  50.46800 31.71900 22.47300
C  50.90200 30.55800 21.56500
N  47.41700 32.69800 26.38000
C  47.12800 31.59900 25.51900
C  46.45700 30.54100 26.22100
C  46.17300 31.13700 27.45100
C  46.80600 32.44500 27.49100
C  46.08800 29.32700 25.70500
C  45.52500 30.98700 28.67200
O  44.74000 30.14400 28.97700
C  45.83500 32.21200 29.56400
C  46.46500 31.69400 30.76100
O  47.60500 31.25600 30.81600
O  45.59800 31.70100 31.87800
C  46.18300 31.55400 33.25000
H  48.66300 38.35400 28.18400
H  50.22100 36.05200 22.41100
H  47.67700 30.51800 23.68500
H  46.33400 35.11100 30.74600
H  48.54600 37.08500 30.57700
H  45.68300 37.13600 30.27800
H  46.38200 38.07200 28.99100
H  46.91500 38.39100 30.64200
H  49.45800 34.96900 31.03200
H  48.69100 33.44100 31.19500
H  49.44000 35.13800 33.09900
H  48.42600 33.90100 33.49400
H  51.20500 39.99200 26.25200
H  49.78000 39.77900 27.28000
H  49.54800 40.50300 25.66600
H  52.20100 40.26000 24.19300
H  50.59900 40.90500 23.68700
H  51.87200 40.50600 22.58200
H  50.00300 34.10400 21.25800
H  48.41900 31.78500 21.52000
H  47.41800 33.49400 20.24700
H  48.26700 35.05800 20.13500
H  47.07800 34.66400 21.48600
H  50.49200 31.40100 23.51500
H  51.16100 32.55800 22.39600
H  51.91600 30.76500 21.22100
H  50.42000 30.63300 20.59000
H  50.83600 29.57800 22.03600
H  45.34100 28.91100 26.38200
H  46.99200 28.71900 25.73800
H  45.71200 29.33600 24.68200
H  44.88600 32.66100 29.85700
H  47.23500 31.84000 33.24200
H  46.06800 30.64600 33.84200
H  45.66900 32.22000 33.94300
Mg -13.04900 16.00000 42.37300
C  -9.99200 14.47500 41.69500
C  -11.75400 18.82500 40.45200
C  -16.13200 17.30200 41.92500
C  -14.40300 12.90100 43.18200
N  -11.15200 16.53700 41.16700
C  -10.00700 15.73500 41.12000
C  -8.82300 16.49600 40.38100
C  -9.40900 17.94300 40.21100
C  -10.89600 17.73600 40.59200
C  -8.73600 19.06500 41.06400
C  -8.30700 15.93400 39.01100
C  -6.78400 16.26300 38.91400
H  -6.39300 16.88400 37.66300
N  -13.82800 17.85900 41.61000
C  -13.08300 18.84200 40.88000
C  -14.08800 19.88500 40.42800
C  -15.39200 19.30400 40.46100
C  -15.17100 18.09700 41.34800
C  -13.77900 21.21000 39.86700
C  -16.65000 19.95700 40.01200
O  -16.60900 20.99200 39.39200
C  -17.94900 19.33500 40.28700
N  -14.96600 15.15800 42.37800
C  -16.04800 15.97400 42.39200
C  -17.30000 15.16000 42.77300
C  -16.82600 13.64600 42.81000
C  -15.31600 13.87700 42.80200
C  -17.83900 15.65900 44.13200
C  -17.41800 12.75800 41.67100
C  -18.03700 11.41300 42.19500
N  -12.33600 14.06700 42.75700
C  -12.94800 12.98000 43.12400
C  -11.96000 11.98200 43.27500
C  -10.77300 12.48200 42.74500
C  -11.05900 13.76100 42.38700
C  -12.19700 10.56000 43.66600
C  -9.38200 12.27100 42.47200
O  -8.69500 11.26400 42.61900
C  -8.83200 13.58300 41.76500
C  -7.72500 14.05700 42.60900
O  -7.79200 14.19700 43.82200
O  -6.63400 14.23600 41.75100
C  -5.29300 14.66900 42.31300
H  -11.51100 19.76200 39.94600
H  -17.08900 17.82600 41.96500
H  -14.81900 11.95500 43.53500
H  -8.03600 16.56400 41.13200
H  -9.42000 18.20900 39.15400
H  -7.93700 18.69400 41.70500
H  -9.40400 19.51200 41.80000
H  -8.38000 19.75200 40.29600
H  -8.84700 16.37600 38.17300
H  -8.45800 14.85900 39.11300
H  -6.17600 15.38100 39.11400
H  -6.55500 17.01400 39.67000
H  -14.18400 22.04900 40.43300
H  -14.13400 21.16600 38.83700
H  -12.72400 21.45000 39.73300
H  -18.02200 18.26800 40.07600
H  -18.63700 19.87800 39.63900
H  -18.26800 19.52200 41.31300
H  -17.91000 15.45200 41.91800
H  -17.02600 13.26700 43.81100
H  -17.01600 16.16400 44.63800
H  -17.92200 14.80800 44.80700
H  -18.75200 16.23700 43.99000
H  -16.54000 12.37400 41.15200
H  -18.05800 13.24800 40.93600
H  -19.12600 11.43800 42.16200
H  -17.86600 11.23900 43.25700
H  -17.69200 10.49000 41.73000
H  -12.89600 10.19300 42.91400
H  -12.70700 10.53500 44.62800
H  -11.30800 9.93000 43.69100
H  -8.64200 13.26300 40.74000
H  -4.61200 14.78400 41.46900
H  -4.88200 13.93400 43.00500
H  -5.40300 15.63400 42.80800

