158

Mg 23.25300 -5.32400 45.50000
C  25.34300 -2.99800 44.01400
C  20.71000 -4.28300 43.69300
C  21.65700 -8.25700 46.14300
C  26.31100 -6.79600 47.06200
N  23.15300 -3.97000 43.97400
C  24.06100 -3.04900 43.60700
C  23.47900 -2.06200 42.62900
C  21.96500 -2.12300 42.96500
C  21.90600 -3.59800 43.53600
C  21.47200 -1.02600 43.97900
C  23.80100 -2.32000 41.09600
C  24.80300 -1.26900 40.48800
H  25.88700 -1.79100 39.49200
N  21.41200 -6.07500 45.05700
C  20.45000 -5.45700 44.32000
C  19.28700 -6.32900 44.16600
C  19.51900 -7.50300 44.95000
C  20.92600 -7.32500 45.42200
C  17.99300 -5.79500 43.36700
C  18.51900 -8.67600 45.27900
O  17.36200 -8.57600 44.78100
C  18.79100 -9.89600 46.12300
N  23.91800 -7.19100 46.52200
C  22.96200 -8.16600 46.69900
C  23.57800 -9.35600 47.53200
C  24.97800 -8.71700 48.00900
C  25.09000 -7.55200 47.21100
C  22.62000 -9.87300 48.62500
C  26.17400 -9.72700 47.87500
C  27.21200 -9.66300 48.96200
N  25.43800 -4.95800 45.63400
C  26.48900 -5.58900 46.23800
C  27.71500 -4.78300 46.10900
C  27.31000 -3.77800 45.18200
C  25.94900 -3.93500 44.97400
C  29.09400 -5.08200 46.69300
C  27.77400 -2.64600 44.33300
O  28.93100 -2.26900 44.11900
C  26.53400 -2.22800 43.56800
C  26.37200 -0.79600 43.92300
O  26.67000 0.13900 43.15200
O  25.77300 -0.66400 45.19200
C  25.70900 0.73700 45.58900
H  19.86300 -3.70100 43.32300
H  21.10700 -9.12000 46.52500
H  27.24800 -7.19800 47.45500
H  23.92200 -1.12500 42.96800
H  21.47200 -1.99700 42.00100
H  22.15900 -0.23800 44.28700
H  21.39100 -1.63500 44.87900
H  20.53700 -0.57000 43.65400
H  22.93100 -2.25400 40.44300
H  24.30200 -3.27300 40.92800
H  25.25200 -0.75700 41.34000
H  24.32000 -0.46600 39.93200
H  17.99200 -5.93900 42.28700
H  17.89300 -4.71900 43.51500
H  17.10200 -6.22400 43.82500
H  19.70600 -10.39400 45.80100
H  17.96500 -10.55100 45.84800
H  18.83100 -9.75200 47.20300
H  23.85600 -10.12100 46.80700
H  24.99200 -8.28000 49.00700
H  21.64500 -9.38600 48.66400
H  23.17700 -9.85000 49.56200
H  22.36400 -10.90400 48.38100
H  26.76800 -9.42600 47.01200
H  25.82700 -10.75900 47.81600
H  26.87500 -9.10600 49.83500
H  28.21700 -9.39200 48.64100
H  27.34400 -10.69400 49.29100
H  29.19700 -6.14300 46.91900
H  29.35200 -4.51300 47.58600
H  29.79100 -4.87100 45.88200
H  26.85600 -2.36100 42.53600
H  24.94600 0.89700 46.35100
H  25.41400 1.37600 44.75700
H  26.72200 0.87800 45.96500
Mg -1.92000 35.04300 26.80500
C  -3.73800 33.24900 29.44900
C  -0.22100 36.80000 29.18800
C  -0.81200 37.12900 24.43800
C  -3.93000 33.41100 24.55600
N  -2.04100 35.08100 29.03900
C  -2.74900 34.27800 29.90600
C  -2.34300 34.59500 31.32000
C  -1.42700 35.81500 31.22300
C  -1.21000 35.94500 29.72500
C  -1.91100 37.07500 31.96800
C  -1.60900 33.33700 31.99600
C  -2.36700 32.71900 33.19300
H  -1.53100 32.28000 34.44400
N  -0.58600 36.63100 26.77900
C  0.02000 37.19100 27.85900
C  0.95500 38.21600 27.43200
C  0.82700 38.29500 26.07800
C  -0.26800 37.41700 25.71800
C  1.80300 38.98600 28.43100
C  1.50500 39.18700 25.16000
O  1.33400 39.34300 23.96800
C  2.59400 40.04800 25.78700
N  -2.31500 35.27100 24.78200
C  -1.74200 36.22400 23.98500
C  -2.21300 36.15100 22.55500
C  -3.10700 34.88700 22.51100
C  -3.18700 34.49600 24.05500
C  -2.94400 37.42300 22.07200
C  -2.61400 33.71300 21.66900
C  -1.18200 33.32200 21.96500
N  -3.50100 33.60000 26.88800
C  -4.13100 32.98700 25.90800
C  -4.97200 31.91700 26.45000
C  -4.87100 32.00400 27.85000
C  -3.98800 33.01000 28.08700
C  -5.67700 30.95900 25.55500
C  -5.34300 31.46300 29.16900
O  -6.16100 30.59900 29.42300
C  -4.65000 32.36400 30.29000
C  -5.72200 33.08300 30.95600
O  -6.25900 34.07200 30.58600
O  -6.12200 32.40900 32.07200
C  -7.13600 33.12400 32.84800
H  0.33400 37.30500 29.98200
H  -0.37700 37.65700 23.58600
H  -4.43200 32.71400 23.88300
H  -3.21200 34.87100 31.91700
H  -0.40200 35.56400 31.49500
H  -2.62800 36.78100 32.73400
H  -2.53600 37.63000 31.26800
H  -1.17600 37.77100 32.37300
H  -0.55100 33.39900 32.25100
H  -1.53200 32.63000 31.17000
H  -2.81900 31.79700 32.82800
H  -3.21100 33.32900 33.51300
H  2.86800 38.97200 28.19900
H  1.89800 38.41800 29.35700
H  1.51200 40.02600 28.57600
H  2.20800 40.63700 26.61800
H  3.06100 40.69700 25.04700
H  3.46300 39.52100 26.18300
H  -1.31400 36.08100 21.94300
H  -4.15800 35.04000 22.26500
H  -2.87200 38.12800 22.90000
H  -4.00500 37.25800 21.88100
H  -2.41300 37.79700 21.19700
H  -2.68300 33.97600 20.61400
H  -3.28500 32.88000 21.88000
H  -1.00300 32.29800 22.29200
H  -0.87300 34.00300 22.75800
H  -0.62600 33.55600 21.05700
H  -5.94100 30.02500 26.05200
H  -4.99000 30.81500 24.72100
H  -6.56000 31.48000 25.18500
H  -4.05000 31.70300 30.91600
H  -6.77300 33.89400 33.52900
H  -7.64500 32.35900 33.43600
H  -7.93200 33.49600 32.20500

