158

Mg 35.68500 0.98500 29.75800
C  33.31300 2.17800 32.11100
C  37.93800 1.14000 32.30400
C  38.04600 0.04800 27.51700
C  33.40500 1.35800 27.17700
N  35.68200 1.76000 31.91900
C  34.51800 1.94800 32.67600
C  34.74100 2.04600 34.18000
C  36.30500 1.64800 34.22900
C  36.66600 1.57100 32.72300
C  37.22600 2.65100 35.09200
C  33.93400 1.04000 35.02200
C  33.35900 1.46400 36.39700
H  34.00800 2.62900 37.14700
N  37.67900 0.62900 29.89600
C  38.47500 0.75800 31.03300
C  39.80600 0.16600 30.79000
C  39.86700 -0.09300 29.35500
C  38.47500 0.19500 28.89500
C  40.85200 -0.15300 31.84200
C  41.10500 -0.54200 28.51500
O  40.98400 -0.83900 27.36700
C  42.48300 -0.45700 29.16500
N  35.71400 0.69300 27.64500
C  36.77600 0.32100 27.00800
C  36.54400 0.22100 25.42400
C  34.97500 0.43900 25.34800
C  34.65900 0.83900 26.80600
C  37.29000 1.37900 24.63500
C  34.19300 -0.74100 24.80700
C  33.56200 -0.54800 23.44500
N  33.78600 1.75800 29.60900
C  32.98400 1.75700 28.50300
C  31.70400 2.24900 28.86800
C  31.71000 2.41000 30.28700
C  33.05900 2.12500 30.71000
C  30.62700 2.46600 27.89300
C  30.98200 2.67400 31.45300
O  29.82500 2.92800 31.56400
C  31.96800 2.55900 32.72700
C  32.03900 4.01500 33.27600
O  32.94900 4.85000 33.09500
O  31.11900 4.10200 34.26500
C  31.24700 5.12500 35.29600
H  38.53600 0.97800 33.20300
H  38.85500 -0.34300 26.89800
H  32.57100 1.28700 26.47500
H  34.53100 3.04900 34.55100
H  36.54300 0.62800 34.53000
H  37.95000 2.06400 35.65800
H  36.67200 3.23000 35.83000
H  37.84400 3.33500 34.51200
H  34.57100 0.18700 35.25500
H  33.13400 0.50500 34.51100
H  33.50500 0.61400 37.06400
H  32.27500 1.56900 36.37200
H  41.21900 -1.17800 31.89500
H  40.29500 -0.01200 32.76700
H  41.63400 0.60600 31.83900
H  42.59900 0.53700 29.59800
H  43.19000 -0.54600 28.34100
H  42.73600 -1.15200 29.96500
H  36.93500 -0.75500 25.13800
H  34.69900 1.38300 24.87800
H  38.12600 1.69600 25.25900
H  36.61100 2.17600 24.33300
H  37.68500 0.95100 23.71300
H  33.37500 -1.00900 25.47600
H  34.82900 -1.60800 24.62600
H  33.74800 -1.35900 22.74000
H  33.88300 0.38800 22.98800
H  32.47800 -0.50400 23.54700
H  31.11300 2.88200 27.01000
H  29.96500 3.24700 28.26800
H  30.04900 1.57300 27.65500
H  31.57200 1.94100 33.53300
H  31.08000 4.69700 36.28400
H  30.60000 5.96000 35.02700
H  32.27400 5.49100 35.31000
Mg 35.80700 49.00800 24.65300
C  35.60400 47.23900 27.85100
C  34.31900 51.68700 26.17100
C  35.22000 50.19100 21.58700
C  36.64400 45.84700 23.21600
N  35.19600 49.45800 26.77600
C  35.16400 48.58700 27.91400
C  34.83300 49.31200 29.19500
C  34.22500 50.68100 28.56200
C  34.60700 50.64400 27.06800
C  32.71200 50.95600 28.70000
C  35.97100 49.47600 30.17900
C  35.92700 48.80600 31.56300
H  34.88800 49.48000 32.50400
N  34.94200 50.79800 23.99000
C  34.43900 51.78000 24.75100
C  34.04200 52.93500 23.87200
C  34.28900 52.49700 22.52900
C  34.92400 51.13000 22.62200
C  33.55900 54.22900 24.39600
C  33.97200 53.26900 21.19100
O  34.27400 52.88300 20.07000
C  33.32100 54.62900 21.23800
N  35.77700 47.98500 22.67300
C  35.58400 48.78700 21.57100
C  35.82700 48.01600 20.28700
C  36.50700 46.70200 20.82500
C  36.25700 46.80100 22.34600
C  34.57200 47.72100 19.33000
C  37.93800 46.35300 20.39600
C  39.15300 46.85000 21.29200
N  36.11700 47.01100 25.33300
C  36.51400 45.81700 24.63200
C  36.85300 44.77500 25.55400
C  36.42000 45.25800 26.77800
C  36.01400 46.61500 26.64500
C  37.45500 43.47600 25.25600
C  36.30500 44.88900 28.19100
O  36.47100 43.81300 28.72100
C  35.82400 46.19700 28.90800
C  34.63400 45.82400 29.70100
O  33.45900 46.09900 29.46500
O  35.05500 45.15800 30.78400
C  34.09900 44.77300 31.67100
H  33.94900 52.56800 26.69800
H  35.12800 50.66200 20.60600
H  36.93600 44.87000 22.82700
H  34.10200 48.66200 29.67700
H  34.72000 51.54000 29.01500
H  32.26800 50.13400 29.26100
H  32.35600 51.13000 27.68500
H  32.53900 51.94700 29.12000
H  36.10100 50.55300 30.29100
H  36.89400 49.19900 29.67100
H  36.93600 48.82300 31.97500
H  35.60300 47.77800 31.39600
H  34.18500 55.09800 24.19400
H  33.49200 54.19100 25.48300
H  32.63300 54.60600 23.96100
H  32.29300 54.45300 21.55500
H  33.35400 55.08000 20.24600
H  33.77600 55.45100 21.79100
H  36.48800 48.54700 19.60200
H  35.89500 45.87300 20.47200
H  34.58000 46.70800 18.92800
H  34.46400 48.48400 18.55900
H  33.63200 47.87300 19.86000
H  38.18000 46.67300 19.38300
H  38.02000 45.26700 20.35900
H  38.93400 47.03000 22.34500
H  39.44500 47.83400 20.92600
H  39.93100 46.08600 21.29600
H  38.26300 43.66700 24.55000
H  36.74500 42.93900 24.62700
H  37.78800 42.98600 26.17100
H  36.62700 46.48800 29.58500
H  33.35000 44.18600 31.14100
H  33.65100 45.68600 32.06300
H  34.57200 44.25300 32.50400

