158

Mg 36.04500 50.32100 25.44600
C  35.95000 48.43800 28.53000
C  34.74700 52.95300 27.26800
C  35.99200 52.03400 22.58800
C  37.06700 47.47000 23.76000
N  35.46400 50.73800 27.69800
C  35.60500 49.82100 28.72000
C  35.19200 50.48300 30.06100
C  34.75900 51.89900 29.61300
C  34.97800 51.94200 28.10600
C  33.33300 52.32000 30.05900
C  36.28100 50.42700 31.15900
C  35.88600 49.71600 32.47000
H  34.47000 49.83600 33.04200
N  35.64500 52.27200 25.02400
C  34.99900 53.20600 25.84500
C  34.60200 54.40100 25.09400
C  35.01300 54.21700 23.76500
C  35.62000 52.82900 23.74800
C  33.89800 55.54100 25.74500
C  34.83000 55.07500 22.54400
O  35.29900 54.90800 21.42200
C  34.17600 56.41100 22.80800
N  36.26300 49.77900 23.47200
C  36.25200 50.66000 22.42200
C  36.67000 49.99300 21.09200
C  37.29200 48.66700 21.50200
C  36.80300 48.63500 23.01400
C  35.46500 49.98300 20.07500
C  38.84000 48.57100 21.37300
C  39.72300 49.29100 22.41500
N  36.34500 48.40100 25.94000
C  36.84100 47.32700 25.15900
C  37.01300 46.11500 25.97500
C  36.63000 46.50700 27.23700
C  36.23200 47.91700 27.20600
C  37.50900 44.81500 25.43700
C  36.50600 46.04800 28.61800
O  36.77000 44.95100 29.10400
C  36.17400 47.29000 29.48500
C  35.01500 46.82900 30.29800
O  33.81000 47.05700 29.96800
O  35.33100 46.12000 31.41900
C  34.24000 45.50600 32.23400
H  34.19700 53.80900 27.66400
H  35.95900 52.61400 21.66400
H  37.44900 46.58900 23.24100
H  34.31200 49.95900 30.43400
H  35.44700 52.65600 29.99300
H  32.79800 52.73400 29.20400
H  33.36700 53.15200 30.76200
H  32.67900 51.49900 30.35300
H  36.72200 51.40600 31.34900
H  37.07900 49.85000 30.69200
H  36.54200 50.05500 33.27100
H  36.15000 48.68400 32.23400
H  33.79600 55.61100 26.82800
H  32.94100 55.65200 25.23400
H  34.29900 56.53800 25.56500
H  33.12300 56.32500 23.07800
H  34.30200 57.05200 21.93600
H  34.75400 56.93400 23.56900
H  37.37000 50.63900 20.56200
H  36.78500 47.82300 21.03500
H  34.57900 50.11000 20.69700
H  35.41900 49.00300 19.60000
H  35.47700 50.87700 19.45200
H  39.09100 49.03600 20.41900
H  39.07200 47.51200 21.25900
H  39.10800 49.86700 23.10700
H  40.48000 49.85600 21.87100
H  40.27500 48.55700 23.00100
H  38.17300 45.13800 24.63500
H  36.60200 44.32700 25.07900
H  37.97500 44.13600 26.15100
H  37.00100 47.55500 30.14300
H  33.62200 44.90200 31.57000
H  33.71000 46.38400 32.60200
H  34.58700 44.82200 33.00800
Mg -8.68700 18.06500 43.64700
C  -5.19400 17.90000 43.99000
C  -8.58800 21.31000 43.24200
C  -12.02000 18.06000 42.77900
C  -8.72200 14.53800 43.77700
N  -6.96400 19.41100 43.44400
C  -5.65000 19.23100 43.85500
C  -4.82600 20.51100 43.79400
C  -6.07200 21.58000 43.91100
C  -7.31200 20.74200 43.52100
C  -6.11200 22.24400 45.38600
C  -4.05700 20.82100 42.43200
C  -4.08900 19.75600 41.31900
H  -4.44700 20.10300 39.84200
N  -10.07500 19.50400 43.06700
C  -9.80900 20.78700 42.97500
C  -10.92100 21.46700 42.41200
C  -11.99300 20.51100 42.21200
C  -11.40700 19.30100 42.57000
C  -10.98000 22.97200 42.34800
C  -13.42900 20.85500 41.73400
O  -13.82100 22.04800 41.60000
C  -14.37600 19.75400 41.46500
N  -10.09000 16.48500 43.21700
C  -11.44500 16.78400 43.12900
C  -12.30000 15.56700 43.38700
C  -11.19300 14.47900 43.53800
C  -9.88600 15.21500 43.61200
C  -13.31200 15.60100 44.58600
C  -11.17600 13.61400 42.25800
C  -12.21500 12.42700 42.28700
N  -7.27400 16.51000 43.89800
C  -7.41000 15.18500 43.87100
C  -6.07200 14.59500 43.90400
C  -5.15100 15.59500 43.94800
C  -5.96400 16.76200 43.96700
C  -5.94400 13.12500 43.73300
C  -3.78400 15.93200 43.94500
O  -2.77600 15.23200 43.99900
C  -3.73500 17.44300 44.19300
C  -3.33900 17.51100 45.62400
O  -2.25200 17.82700 46.12500
O  -4.42200 17.12400 46.45200
C  -4.30300 17.26600 47.92500
H  -8.46700 22.39400 43.27000
H  -13.11000 18.00700 42.76700
H  -8.76100 13.44700 43.80000
H  -4.15000 20.58900 44.64500
H  -5.83400 22.35400 43.18200
H  -7.14800 22.12000 45.70200
H  -5.87300 23.30100 45.26400
H  -5.52500 21.67800 46.10900
H  -3.05000 20.89500 42.84300
H  -4.36500 21.72300 41.90300
H  -4.95900 19.13100 41.52400
H  -3.19200 19.14200 41.39700
H  -10.83500 23.39800 41.35600
H  -10.15800 23.28300 42.99300
H  -11.91100 23.39700 42.72300
H  -14.72800 19.28300 42.38200
H  -14.01500 19.03600 40.72800
H  -15.22100 20.26500 41.00500
H  -12.89400 15.39600 42.49000
H  -11.27400 13.83000 44.41000
H  -14.33600 15.75500 44.24500
H  -12.91900 16.43800 45.16300
H  -13.33900 14.73600 45.24900
H  -10.13900 13.30800 42.11800
H  -11.51600 14.22400 41.42100
H  -12.98700 12.68200 43.01300
H  -11.64300 11.50100 42.34300
H  -12.59500 12.40200 41.26600
H  -6.55600 12.60400 44.47000
H  -4.90700 12.85300 43.93000
H  -6.19800 12.79100 42.72700
H  -3.04600 18.02900 43.58400
H  -3.36000 16.81600 48.23500
H  -5.20300 16.78100 48.30300
H  -4.31800 18.34100 48.10800

