158

Mg 1.87300 -1.02000 43.88800
C  5.22100 -0.39000 43.59800
C  1.19800 2.06500 42.39000
C  -1.34500 -1.91600 43.30600
C  2.59300 -4.36600 44.88000
N  3.09300 0.57300 42.89200
C  4.49700 0.69600 42.99600
C  4.95400 1.88900 42.30900
C  3.66400 2.69700 42.13500
C  2.51400 1.73300 42.48300
C  3.57600 4.04600 42.89300
C  5.58800 1.40800 40.90700
C  6.92600 1.93600 40.49000
H  7.17900 2.17100 39.03500
N  0.10600 -0.00500 43.09800
C  0.04800 1.22700 42.61600
C  -1.34000 1.52000 42.24400
C  -2.09300 0.36000 42.44400
C  -1.10100 -0.59700 42.96800
C  -1.79200 2.87200 41.69900
C  -3.49100 0.14600 41.91900
O  -4.13100 1.08600 41.45700
C  -4.23100 -1.12100 42.20800
N  0.82600 -2.96800 44.02900
C  -0.54400 -2.95400 43.85900
C  -1.12700 -4.38200 44.13700
C  0.11200 -5.17300 44.60000
C  1.28100 -4.13300 44.48400
C  -2.24100 -4.41200 45.20300
C  0.55000 -6.44400 43.84500
C  0.48000 -7.73900 44.59800
N  3.57600 -2.18400 44.20500
C  3.66400 -3.46700 44.67600
C  5.09300 -3.72300 44.90600
C  5.69900 -2.53800 44.49600
C  4.77200 -1.65000 44.06300
C  5.72400 -5.02600 45.45000
C  7.09000 -1.89900 44.34900
O  8.18500 -2.27500 44.68100
C  6.78900 -0.47500 43.76600
C  7.39700 0.55800 44.56800
O  7.37500 0.57500 45.74900
O  8.05100 1.47900 43.79700
C  8.63900 2.58700 44.60400
H  1.02200 3.09700 42.07800
H  -2.29900 -2.42500 43.14800
H  2.80800 -5.38200 45.21600
H  5.72800 2.41900 42.86400
H  3.52800 2.92900 41.07900
H  3.63400 4.80800 42.11700
H  4.49900 4.07900 43.47200
H  2.62400 4.15900 43.41100
H  4.95300 1.59500 40.04100
H  5.78400 0.33700 40.87900
H  7.64300 1.20300 40.85900
H  7.15000 2.79500 41.12300
H  -2.25800 2.78800 40.71700
H  -1.04900 3.66700 41.75800
H  -2.66700 3.12200 42.30000
H  -5.30100 -1.01300 42.03300
H  -4.06500 -1.34100 43.26200
H  -3.73700 -1.89300 41.61700
H  -1.48100 -4.76900 43.18100
H  0.02700 -5.37700 45.66700
H  -2.93900 -3.59800 45.00500
H  -1.77900 -4.44500 46.18900
H  -2.72100 -5.38000 45.05800
H  1.56400 -6.36500 43.45200
H  -0.14300 -6.49800 43.00500
H  1.47000 -8.13500 44.37200
H  -0.15800 -8.52100 44.18700
H  0.43900 -7.54800 45.67100
H  6.08400 -5.56700 44.57500
H  5.05700 -5.56200 46.12500
H  6.53900 -4.77700 46.12900
H  7.29600 -0.27800 42.82100
H  9.34500 3.15400 43.99800
H  8.99700 2.39600 45.61600
H  7.82200 3.26300 44.86000
Mg 17.28000 -0.87400 28.16900
C  16.28100 1.30100 30.95800
C  19.04200 -2.69700 30.52400
C  18.48100 -2.50800 25.62500
C  15.61000 1.30000 26.12000
N  17.70700 -0.61500 30.45100
C  17.16100 0.24000 31.36100
C  17.36300 -0.28700 32.82000
C  18.39300 -1.40800 32.65400
C  18.39000 -1.55800 31.09400
C  19.78400 -1.15700 33.22600
C  16.00400 -0.74400 33.51000
C  15.64300 -0.06200 34.82900
H  16.74500 0.62500 35.69100
N  18.53200 -2.49600 28.00600
C  19.11600 -3.15400 29.11200
C  19.71700 -4.26500 28.52500
C  19.68300 -4.23100 27.14300
C  18.86500 -3.07400 26.86300
C  20.56500 -5.23700 29.36800
C  20.35000 -5.18200 26.04600
O  20.07300 -4.97100 24.85200
C  21.33000 -6.16800 26.47000
N  16.95000 -0.78600 26.11500
C  17.72200 -1.43300 25.27700
C  17.58600 -0.84200 23.84800
C  16.47000 0.17100 24.00400
C  16.30100 0.24200 25.50200
C  18.84700 -0.28200 23.14600
C  15.20100 -0.19200 23.18500
C  14.03700 -0.92600 23.89400
N  15.99800 0.83300 28.42400
C  15.41400 1.61400 27.44400
C  14.62500 2.66600 28.09300
C  14.97600 2.57600 29.47300
C  15.87200 1.49100 29.62800
C  13.63700 3.49500 27.55000
C  14.73800 3.16500 30.80800
O  14.07400 4.13300 31.20100
C  15.53200 2.26400 31.80400
C  16.46800 3.21100 32.56100
O  17.61500 3.55700 32.21700
O  15.88100 3.64200 33.71100
C  16.59000 4.61500 34.52200
H  19.53400 -3.37600 31.22300
H  18.93300 -3.02900 24.77900
H  15.16900 2.05000 25.46000
H  17.87100 0.45300 33.43900
H  18.05900 -2.35100 33.08600
H  19.92700 -0.26100 33.83100
H  20.53800 -1.13200 32.43900
H  19.94900 -2.02000 33.87100
H  16.12900 -1.82700 33.53400
H  15.14000 -0.60800 32.85900
H  15.23500 -0.84600 35.46800
H  14.87200 0.69600 34.68800
H  20.20600 -6.22000 29.06200
H  20.51100 -5.22000 30.45600
H  21.62400 -5.10900 29.14300
H  22.03300 -5.61300 27.09000
H  21.93000 -6.55800 25.64800
H  20.82300 -6.97700 26.99700
H  17.27300 -1.66700 23.20800
H  16.75900 1.19000 23.74600
H  18.59100 0.70100 22.75000
H  19.00000 -1.00500 22.34500
H  19.73600 -0.29800 23.77700
H  15.45200 -0.85900 22.36100
H  14.71200 0.59700 22.61400
H  13.22900 -0.24500 23.62600
H  14.02500 -0.96300 24.98300
H  13.69600 -1.89900 23.54000
H  12.65200 3.22000 27.92700
H  13.55700 3.32700 26.47600
H  13.76800 4.54500 27.80900
H  14.70500 1.92200 32.42700
H  17.34400 5.17600 33.97100
H  17.04600 4.14000 35.39100
H  15.78600 5.29900 34.79200

