158

Mg 8.72300 3.55600 27.07300
C  10.34100 2.16400 29.78500
C  6.90700 5.50400 29.33600
C  7.56600 5.14400 24.51400
C  10.39000 1.25100 25.03700
N  8.44900 3.60400 29.37800
C  9.32100 2.99900 30.21700
C  9.02700 3.51400 31.60600
C  7.84300 4.51800 31.46100
C  7.71800 4.56900 30.00400
C  6.46500 4.19800 32.08500
C  10.28500 4.18100 32.32400
C  9.86000 4.47300 33.83400
H  10.86600 4.17100 35.00200
N  7.33100 5.16600 26.93200
C  6.73800 5.85200 27.98300
C  5.86700 6.78100 27.37400
C  6.12400 6.83600 25.98000
C  7.07300 5.71400 25.74400
C  4.76400 7.47600 28.18800
C  5.50900 7.80400 24.92000
O  5.77600 7.73500 23.72700
C  4.61300 8.93100 25.46900
N  8.91500 3.25200 25.04700
C  8.38300 4.04200 24.16900
C  8.59700 3.63100 22.65700
C  9.59900 2.37900 22.87300
C  9.62700 2.28600 24.40100
C  7.31800 3.16900 21.85900
C  11.06900 2.61100 22.34900
C  11.75400 1.37700 21.71200
N  9.90000 1.84400 27.28300
C  10.54400 1.06400 26.42400
C  11.44400 0.10600 27.08500
C  11.40400 0.54600 28.36300
C  10.37400 1.60100 28.48400
C  12.21200 -1.01600 26.52400
C  11.95700 0.37600 29.68400
O  12.76300 -0.47500 30.02000
C  11.27800 1.38700 30.66600
C  10.66000 0.54800 31.66500
O  9.64500 -0.15600 31.44200
O  11.20400 0.83300 32.86900
C  10.47200 0.38000 34.06200
H  6.30300 6.10800 30.01700
H  7.11600 5.65100 23.65800
H  10.72800 0.40800 24.43000
H  8.65200 2.75900 32.29700
H  8.02500 5.51500 31.86200
H  5.79100 3.79600 31.32900
H  5.84100 5.00800 32.46200
H  6.58500 3.63100 33.00900
H  10.40500 5.12900 31.79900
H  11.19400 3.58700 32.22900
H  8.94200 3.96900 34.13800
H  9.64900 5.54100 33.88200
H  5.29500 8.40000 28.41800
H  4.58200 7.01900 29.16100
H  3.80700 7.65000 27.69600
H  3.54700 8.82100 25.66800
H  4.61800 9.69600 24.69200
H  5.21500 9.43300 26.22600
H  9.08200 4.53100 22.28000
H  9.14400 1.50800 22.40200
H  6.51700 3.28900 22.58900
H  7.30600 2.11300 21.59100
H  7.13000 3.78200 20.97700
H  11.70200 2.99400 23.14900
H  11.05700 3.43500 21.63500
H  12.72200 1.25800 22.20000
H  11.92700 1.55000 20.65000
H  11.15300 0.47000 21.78100
H  11.90800 -1.92100 27.05000
H  13.26700 -0.84000 26.73400
H  12.23400 -1.05400 25.43400
H  12.16300 1.89000 31.05600
H  11.04000 -0.24700 34.74900
H  9.64500 -0.26300 33.75900
H  10.08800 1.22000 34.64200
Mg 30.37000 58.03100 40.32100
C  27.96000 56.04300 39.25100
C  32.70500 55.84900 39.08300
C  32.82900 60.40500 40.54500
C  27.96000 60.67400 40.76000
N  30.32000 56.25800 39.09000
C  29.15200 55.56400 38.88900
C  29.45700 54.19700 38.31900
C  30.95700 53.98900 38.69500
C  31.36200 55.45500 38.92600
C  31.04400 53.06900 39.90500
C  29.25300 54.19000 36.81500
C  28.25000 53.12500 36.31900
H  27.53700 53.44700 35.00700
N  32.49800 58.17600 39.89600
C  33.22800 57.10200 39.47000
C  34.67000 57.43900 39.51200
C  34.78600 58.74600 39.97000
C  33.30100 59.19600 40.14100
C  35.86100 56.42000 39.34300
C  36.08800 59.51700 40.26600
O  37.19200 59.01800 40.03100
C  36.02800 60.89400 40.80900
N  30.37500 60.27200 40.55700
C  31.53000 60.90200 40.82200
C  31.30200 62.39200 41.37400
C  29.70700 62.52200 41.37200
C  29.25000 61.05100 40.80700
C  32.08000 62.80000 42.61300
C  29.15700 63.66500 40.46200
C  28.22200 64.66000 41.27100
N  28.40300 58.28900 40.13600
C  27.54600 59.39900 40.48800
C  26.12900 58.90700 40.27700
C  26.25600 57.61300 39.78700
C  27.65200 57.33900 39.72400
C  24.94000 59.73700 40.55400
C  25.48700 56.54000 39.15100
O  24.31500 56.53200 38.80200
C  26.56100 55.37100 38.91300
C  26.19900 54.24200 39.88600
O  26.92100 53.70600 40.75200
O  25.05900 53.60000 39.44500
C  24.76200 52.21500 39.80700
H  33.37000 55.01900 38.83600
H  33.55900 61.13900 40.89200
H  27.21000 61.37900 41.12400
H  28.86400 53.41200 38.78800
H  31.54200 53.46200 37.94100
H  30.10700 53.02300 40.45900
H  31.73600 53.64300 40.52200
H  31.42800 52.07300 39.68200
H  30.23400 54.19900 36.34000
H  28.92700 55.20000 36.56300
H  27.49900 52.94600 37.08800
H  28.89400 52.29700 36.02100
H  35.84600 56.15000 38.28700
H  35.82200 55.49100 39.91100
H  36.87300 56.76600 39.55200
H  35.54000 60.96500 41.78100
H  35.48200 61.35400 39.98600
H  37.04300 61.28900 40.84600
H  31.71800 62.92400 40.51800
H  29.37000 62.66500 42.39900
H  32.26500 61.85600 43.12600
H  31.54700 63.47200 43.28500
H  33.08000 63.15100 42.35800
H  28.64300 63.27600 39.58300
H  30.00600 64.21300 40.05300
H  27.50600 64.14200 41.90900
H  27.63700 65.29300 40.60500
H  28.80700 65.31900 41.91300
H  25.02300 60.57200 39.85900
H  24.95500 60.12800 41.57200
H  23.99100 59.25900 40.31500
H  26.51400 54.98700 37.89400
H  23.69100 52.10500 39.97800
H  25.27900 51.82700 40.68500
H  25.08300 51.52900 39.02400

