158

Mg 25.69500 1.88900 28.70300
C  27.58700 1.45500 31.81700
C  22.92700 2.31400 30.60600
C  23.93800 1.88000 25.98300
C  28.66300 0.90700 26.97400
N  25.28000 1.85300 31.00200
C  26.20600 1.76700 32.10900
C  25.50900 2.01600 33.46400
C  23.97800 2.06300 33.01600
C  24.06300 2.09800 31.47800
C  22.83200 1.11000 33.61200
C  26.02100 3.30600 34.23700
C  26.84500 3.11100 35.53000
H  26.51300 3.84900 36.81800
N  23.66900 2.18000 28.30600
C  22.68300 2.37900 29.19900
C  21.45700 2.58200 28.47800
C  21.70300 2.52500 27.12000
C  23.16900 2.29800 27.04700
C  20.21400 2.87300 29.22200
C  20.81900 2.75000 25.97400
O  21.24300 2.88700 24.84700
C  19.32000 2.93400 26.18800
N  26.19100 1.36200 26.80100
C  25.22700 1.34100 25.82400
C  25.90800 1.16700 24.39400
C  27.35300 0.75400 24.77500
C  27.46800 0.99600 26.21900
C  25.16000 0.17300 23.39700
C  28.42100 1.27100 23.81500
C  29.07300 2.63600 24.08300
N  27.72200 1.43000 29.12300
C  28.81400 1.05000 28.34500
C  29.90200 0.72100 29.15900
C  29.52500 0.92800 30.51500
C  28.15600 1.30400 30.47200
C  31.05600 -0.04400 28.74100
C  29.96200 0.81400 31.86800
O  31.04000 0.35400 32.25600
C  28.74100 1.26700 32.79400
C  28.55500 0.16400 33.80900
O  28.27000 -0.94700 33.44000
O  28.81700 0.64100 35.12100
C  28.50400 -0.35400 36.14700
H  22.09400 2.57600 31.26200
H  23.30500 1.94300 25.09500
H  29.61600 0.64000 26.51300
H  25.61600 1.10100 34.04700
H  23.59700 3.04400 33.30000
H  23.16800 0.60900 34.51900
H  22.79800 0.34800 32.83400
H  21.85300 1.55700 33.78400
H  25.24400 4.03100 34.47900
H  26.76000 3.84100 33.64200
H  27.87000 3.43400 35.35000
H  26.86500 2.05300 35.79400
H  19.80000 1.96300 29.65700
H  19.38900 3.33900 28.68200
H  20.46500 3.67700 29.91500
H  18.88900 2.16900 26.83500
H  18.82300 2.99100 25.22000
H  19.25600 3.93700 26.61100
H  25.97800 2.15400 23.93700
H  27.48000 -0.32800 24.81000
H  24.22900 -0.25300 23.77100
H  25.69300 -0.73100 23.10400
H  24.99900 0.61500 22.41400
H  28.12500 1.23800 22.76600
H  29.28900 0.63200 23.97800
H  30.15100 2.66100 24.24200
H  28.58400 3.08900 24.94600
H  28.87000 3.30600 23.24800
H  31.54100 -0.39100 29.65300
H  31.77500 0.53600 28.16400
H  30.72300 -0.81000 28.04000
H  28.99600 2.21000 33.27800
H  27.45200 -0.55300 36.34800
H  28.99800 -0.07900 37.07800
H  28.84000 -1.34000 35.82600
Mg 35.48800 3.08600 29.54100
C  33.02000 4.21600 31.72900
C  37.70600 3.39700 32.23100
C  37.90900 2.01300 27.43700
C  33.21300 3.17100 26.90900
N  35.29500 3.74800 31.67600
C  34.17900 3.97500 32.37500
C  34.42200 4.03800 33.88600
C  36.03900 4.00900 33.98400
C  36.37300 3.71500 32.55400
C  36.66300 5.24800 34.54000
C  33.78100 2.98900 34.78800
C  33.72500 3.23000 36.28500
H  34.72500 4.19000 37.01100
N  37.62200 2.78400 29.80300
C  38.24200 2.81900 31.02100
C  39.55900 2.20600 30.89500
C  39.59300 1.74500 29.50000
C  38.35600 2.17900 28.85300
C  40.48400 1.94400 32.10000
C  40.74600 1.00100 28.81100
O  40.61400 0.59700 27.62200
C  42.00600 0.54300 29.63300
N  35.56300 2.77600 27.48200
C  36.68400 2.42500 26.84000
C  36.41500 2.21000 25.33800
C  34.86500 2.28400 25.24300
C  34.47400 2.68400 26.60400
C  37.23700 3.17800 24.44700
C  34.22200 0.87000 24.90600
C  33.88000 0.70700 23.39200
N  33.51100 3.67500 29.30400
C  32.76400 3.71000 28.12200
C  31.39000 4.21600 28.53000
C  31.48000 4.43700 29.91500
C  32.80200 4.10000 30.35800
C  30.20100 4.35500 27.64900
C  30.71900 4.83200 31.04500
O  29.57800 5.25200 31.03400
C  31.63000 4.53700 32.27700
C  31.54000 5.73100 33.28800
O  31.89200 6.84900 33.12900
O  30.87300 5.20500 34.33600
C  30.80800 5.95900 35.56200
H  38.36700 3.38500 33.10100
H  38.69900 1.55900 26.83500
H  32.65700 3.41000 25.99900
H  33.95200 4.93900 34.27900
H  36.30500 3.25900 34.73000
H  35.90200 6.01100 34.69700
H  37.41700 5.69800 33.89400
H  37.08400 4.96100 35.50400
H  34.29100 2.03300 34.66200
H  32.79900 2.76200 34.37200
H  33.71700 2.22800 36.71400
H  32.70800 3.57700 36.47000
H  40.51300 2.79500 32.78100
H  41.50600 1.61300 31.91700
H  39.93800 1.30300 32.79200
H  42.64800 0.05400 28.90000
H  41.72100 -0.10000 30.46500
H  42.52800 1.36200 30.12700
H  36.80000 1.20000 25.19800
H  34.62100 2.98700 24.44600
H  36.75900 3.88900 23.77300
H  37.99300 2.69300 23.82900
H  37.68900 3.83200 25.19300
H  33.23700 0.82900 25.37100
H  34.80200 0.01300 25.24800
H  34.27300 1.45200 22.70100
H  32.80600 0.88400 23.33300
H  34.09300 -0.29400 23.01500
H  29.77600 5.33000 27.88800
H  29.73500 3.44200 28.01900
H  30.33000 4.19200 26.57900
H  31.13000 3.69500 32.75600
H  29.91300 5.74000 36.14300
H  30.87400 7.04400 35.47300
H  31.70700 5.65800 36.10000

