158

Mg 24.59900 -4.83400 46.64700
C  26.29400 -2.06300 45.32000
C  21.84500 -3.98200 44.65500
C  23.29800 -7.90700 47.15600
C  27.61300 -5.99700 48.01800
N  24.22400 -3.22000 45.16400
C  25.02500 -2.16900 44.80400
C  24.32600 -1.26100 43.81000
C  22.79900 -1.58400 44.05500
C  22.94400 -3.05000 44.61700
C  21.95300 -0.67500 45.03000
C  24.81700 -1.58700 42.37300
C  25.36500 -0.52100 41.45300
H  24.85500 -0.60700 39.99400
N  22.76600 -5.74900 46.06700
C  21.75700 -5.18300 45.35300
C  20.71100 -6.10800 45.37200
C  21.11600 -7.28200 46.09800
C  22.44800 -7.04600 46.44600
C  19.39100 -5.82400 44.69800
C  20.18900 -8.51700 46.29400
O  19.08700 -8.61400 45.70000
C  20.55800 -9.78300 47.08800
N  25.30100 -6.75200 47.37400
C  24.59000 -7.86600 47.56600
C  25.25700 -8.81400 48.60100
C  26.73600 -8.33400 48.62000
C  26.59600 -6.95300 47.90500
C  24.62000 -8.95600 50.03300
C  27.72700 -9.26000 47.94800
C  28.70600 -10.00800 48.78900
N  26.60100 -4.15800 46.70800
C  27.67400 -4.70700 47.37600
C  28.79500 -3.69200 47.38200
C  28.34600 -2.65600 46.53500
C  27.01400 -2.98200 46.12800
C  30.08300 -3.77100 48.16300
C  28.68700 -1.33800 45.94600
O  29.72000 -0.67500 46.06100
C  27.37600 -0.90100 45.06400
C  26.86000 0.49900 45.42200
O  27.15300 1.55400 44.87200
O  25.94600 0.32200 46.45400
C  25.30200 1.53600 46.90600
H  21.02200 -3.51300 44.11200
H  22.84400 -8.79400 47.60300
H  28.48800 -6.21500 48.63500
H  24.55400 -0.23900 44.11100
H  22.32800 -1.60800 43.07200
H  21.00200 -0.38900 44.58000
H  22.40100 0.27100 45.33100
H  21.69600 -1.15800 45.97300
H  24.08900 -2.18100 41.82000
H  25.66600 -2.25800 42.50700
H  26.44300 -0.68000 41.47800
H  25.07700 0.47200 41.79700
H  19.20100 -4.77200 44.91200
H  18.54800 -6.38000 45.10900
H  19.36400 -6.05200 43.63300
H  20.75500 -9.43700 48.10300
H  21.42900 -10.32000 46.71300
H  19.66000 -10.39700 47.15300
H  25.16300 -9.80300 48.15300
H  27.13800 -8.27600 49.63100
H  25.10700 -8.36100 50.80600
H  24.35500 -9.96500 50.35000
H  23.74200 -8.33700 49.85200
H  28.34900 -8.62600 47.31600
H  27.22200 -9.90600 47.23000
H  29.68100 -9.52400 48.74000
H  28.75300 -11.04400 48.45200
H  28.45400 -9.92500 49.84600
H  30.89100 -3.16200 47.75700
H  30.35500 -4.78700 48.45100
H  29.88700 -3.23300 49.09100
H  27.58800 -0.78500 44.00200
H  24.78600 2.00000 46.06600
H  25.88300 2.26700 47.47000
H  24.49300 1.30500 47.59800
Mg 42.59300 40.64600 25.67500
C  41.69500 42.81800 28.18400
C  43.53000 38.37300 28.09200
C  43.80700 38.62100 23.18600
C  42.05600 43.09900 23.32400
N  42.54800 40.68700 27.84600
C  41.98700 41.57800 28.67300
C  41.94600 41.11300 30.21000
C  42.78500 39.78200 30.11800
C  42.94900 39.55500 28.57600
C  44.02200 39.74700 30.93000
C  40.59000 41.11900 30.92500
C  40.43900 40.65300 32.39400
H  39.70900 41.52200 33.46200
N  43.46900 38.75200 25.62600
C  43.75400 37.98300 26.75200
C  44.28400 36.72800 26.27700
C  44.29900 36.67200 24.81400
C  43.85300 38.06500 24.47900
C  44.59400 35.55700 27.21700
C  44.71400 35.60500 23.86100
O  44.83700 35.82300 22.63900
C  45.07000 34.18200 24.36900
N  42.83000 40.82400 23.46600
C  43.27300 39.79900 22.68500
C  43.31800 40.18500 21.20600
C  42.69000 41.62800 21.31100
C  42.51500 41.91200 22.77700
C  44.76600 40.14100 20.50400
C  41.35800 41.89100 20.54100
C  40.18500 40.99600 21.01300
N  42.00200 42.55800 25.67600
C  41.88300 43.48800 24.69000
C  41.62300 44.73800 25.27600
C  41.46600 44.51900 26.63300
C  41.75500 43.19300 26.86200
C  41.46500 46.00900 24.53400
C  41.13100 45.12500 27.88600
O  40.73200 46.23100 28.23000
C  41.17600 44.00700 28.95300
C  42.05900 44.50500 30.01600
O  43.28900 44.51100 29.97100
O  41.28900 44.79300 31.09300
C  41.95600 45.42600 32.23000
H  43.87400 37.65200 28.83700
H  44.29000 38.11700 22.34700
H  41.89900 43.95000 22.65700
H  42.55600 41.86400 30.71300
H  42.15300 38.95800 30.44800
H  44.10300 38.73700 31.33100
H  44.05800 40.56900 31.64600
H  44.81300 39.91700 30.19900
H  39.95500 40.64900 30.17400
H  40.35300 42.18100 30.86000
H  41.46800 40.39100 32.64200
H  39.85100 39.73600 32.35100
H  43.81200 34.82700 27.00700
H  44.61800 35.80200 28.27900
H  45.57700 35.14700 26.98500
H  45.22700 33.57000 23.48100
H  44.21700 33.66300 24.80600
H  45.91200 34.14100 25.05900
H  42.63900 39.47000 20.74100
H  43.34400 42.39000 20.88500
H  45.20700 41.09900 20.23000
H  44.61100 39.84200 19.46700
H  45.37400 39.37100 20.97700
H  41.56800 41.62000 19.50600
H  41.04000 42.93400 20.54200
H  40.03600 40.17800 20.30800
H  39.31400 41.59700 21.27600
H  40.48300 40.44800 21.90700
H  40.53700 45.87800 23.97900
H  42.33200 46.43400 24.02800
H  41.09300 46.66400 25.32200
H  40.16000 43.80100 29.28900
H  42.13400 44.63800 32.96200
H  41.40600 46.28500 32.61500
H  42.94400 45.86400 32.09100

