158

Mg 35.83600 1.46200 30.32700
C  33.43100 2.53000 32.76900
C  38.07500 1.24100 32.80400
C  37.88800 0.61100 27.94900
C  33.28700 2.02800 27.89600
N  35.71800 1.65200 32.58600
C  34.68100 2.16300 33.29100
C  35.03400 2.24500 34.78500
C  36.62400 2.16800 34.74300
C  36.85200 1.66800 33.30700
C  37.41000 3.47600 35.01200
C  34.35500 1.16000 35.63600
C  34.84000 1.00900 37.11900
H  35.47800 2.19100 37.96800
N  37.69500 0.98500 30.37400
C  38.46900 0.88000 31.49800
C  39.80000 0.36600 31.21600
C  39.82500 0.31500 29.77900
C  38.42200 0.69800 29.26500
C  40.89400 -0.09600 32.20700
C  40.97800 -0.00600 28.81900
O  40.82100 -0.01800 27.61200
C  42.31100 -0.44500 29.43600
N  35.56400 1.20000 28.23800
C  36.60500 0.80000 27.42300
C  36.18300 0.70200 25.93600
C  34.68500 1.23800 25.91200
C  34.44900 1.47900 27.44100
C  37.20100 1.55300 25.00000
C  33.62300 0.39100 25.21700
C  32.61400 1.10600 24.27000
N  33.77600 2.16400 30.27900
C  32.93200 2.31700 29.25200
C  31.67900 2.71600 29.77900
C  31.80900 2.82000 31.15700
C  33.12700 2.46500 31.42900
C  30.43800 3.05600 28.97200
C  31.04300 3.04600 32.32500
O  29.85100 3.32300 32.46000
C  32.13300 2.96400 33.49700
C  32.25600 4.32800 34.28000
O  32.40300 5.39600 33.71900
O  31.89400 4.14100 35.61500
C  31.90400 5.40200 36.45300
H  38.86600 1.15500 33.55200
H  38.59200 0.37700 27.14800
H  32.49300 2.32500 27.20800
H  34.78300 3.22300 35.19500
H  36.94700 1.43600 35.48300
H  38.39600 3.18300 35.37200
H  36.89500 4.19300 35.65200
H  37.60100 3.94800 34.04900
H  34.75300 0.30000 35.09800
H  33.26900 1.07300 35.61100
H  35.55100 0.18400 37.10100
H  34.05900 0.66500 37.79800
H  41.82700 0.39500 31.93100
H  41.11800 -1.15600 32.08600
H  40.61400 0.12800 33.23600
H  42.91700 -1.05300 28.76400
H  42.22000 -1.30100 30.10500
H  42.81700 0.38700 29.92600
H  36.18200 -0.33000 25.58500
H  34.73900 2.24500 25.49800
H  37.53300 0.87000 24.21800
H  38.08600 1.95100 25.49700
H  36.65900 2.39400 24.57000
H  33.06300 -0.03600 26.04800
H  34.09700 -0.41900 24.66200
H  32.84700 2.16300 24.15000
H  31.66800 1.08600 24.81100
H  32.55100 0.58800 23.31300
H  29.99100 2.10300 28.69100
H  30.61900 3.54900 28.01700
H  29.78800 3.68900 29.57700
H  31.83800 2.17300 34.18700
H  32.13000 5.18200 37.49600
H  30.93900 5.89200 36.32400
H  32.73100 6.06500 36.19600
Mg -10.90800 17.32700 42.44300
C  -7.35900 16.65700 42.17000
C  -10.29000 20.51000 41.64500
C  -14.17700 17.61200 42.22500
C  -11.22000 13.79900 42.73700
N  -9.04200 18.33900 41.83300
C  -7.66900 17.98200 41.89900
C  -6.76800 19.15800 41.54000
C  -7.75100 20.35600 41.70100
C  -9.13900 19.73400 41.64000
C  -7.56200 21.13100 43.09700
C  -6.05100 19.06900 40.21600
C  -6.77800 19.30200 38.93200
H  -6.12700 18.85600 37.64300
N  -12.13700 18.94000 42.10300
C  -11.66700 20.18100 41.68000
C  -12.84300 20.96800 41.32800
C  -14.01600 20.18500 41.69800
C  -13.45500 18.82700 42.05100
C  -12.77100 22.34700 40.81200
C  -15.47000 20.66800 41.59300
O  -15.77600 21.80600 41.23300
C  -16.55400 19.71700 41.79300
N  -12.42400 15.93700 42.20500
C  -13.69100 16.35000 42.47400
C  -14.67000 15.13600 42.56100
C  -13.67200 13.99000 42.45700
C  -12.31500 14.62000 42.46200
C  -15.63100 14.98600 43.80200
C  -13.72100 12.95400 41.33800
C  -14.33700 11.61100 41.77700
N  -9.59700 15.50000 42.46100
C  -9.89400 14.17800 42.62300
C  -8.68000 13.45000 42.69500
C  -7.65900 14.39600 42.61700
C  -8.29800 15.59400 42.41800
C  -8.61800 11.92100 42.79700
C  -6.15400 14.63900 42.65000
O  -5.26100 13.81300 42.72900
C  -5.96700 16.09400 42.19300
C  -5.06400 16.78700 43.25700
O  -3.93000 17.16900 43.14200
O  -5.72600 16.79400 44.44100
C  -5.00700 17.45100 45.52600
H  -10.11700 21.58200 41.52700
H  -15.26800 17.64100 42.23200
H  -11.42800 12.74100 42.90700
H  -6.04800 19.31100 42.34500
H  -7.41400 21.08600 40.96500
H  -6.99500 20.67500 43.90700
H  -8.55700 21.17400 43.54000
H  -7.21600 22.15500 42.95600
H  -5.62000 18.07600 40.08400
H  -5.18000 19.72400 40.25800
H  -6.98800 20.36600 38.82700
H  -7.80000 18.93300 39.01600
H  -13.10500 22.18600 39.78700
H  -11.79000 22.82200 40.78700
H  -13.36000 23.08600 41.35400
H  -16.56900 19.00900 40.96400
H  -17.46900 20.30700 41.73800
H  -16.44400 19.17500 42.73200
H  -15.26500 15.05000 41.65200
H  -13.72100 13.42500 43.38800
H  -15.59800 15.92800 44.34800
H  -15.37200 14.12600 44.41900
H  -16.70500 14.86100 43.66100
H  -12.73700 12.65000 40.97900
H  -14.32900 13.37000 40.53500
H  -15.32300 11.58900 41.31300
H  -14.40300 11.62000 42.86500
H  -13.79000 10.74400 41.40600
H  -7.81700 11.58900 43.45700
H  -8.33800 11.62600 41.78600
H  -9.56100 11.45600 43.08400
H  -5.53500 16.14600 41.19400
H  -5.75000 17.28900 46.30700
H  -4.80900 18.48600 45.24600
H  -4.06600 16.91600 45.65000

