158

Mg 16.55800 -1.90800 27.64000
C  15.38300 0.18700 30.24900
C  18.39900 -3.58700 29.97900
C  17.91200 -3.55100 25.13000
C  14.81200 0.11900 25.37000
N  17.11300 -1.48000 29.87700
C  16.34200 -0.71300 30.72800
C  16.69900 -1.11300 32.15800
C  17.77700 -2.20700 32.09400
C  17.80500 -2.46100 30.57600
C  19.17300 -1.94500 32.65100
C  15.37100 -1.31300 33.02200
C  15.25000 -0.45600 34.29100
H  16.52000 0.10400 34.98000
N  17.92800 -3.35400 27.54100
C  18.56900 -3.92900 28.61600
C  19.31500 -5.03300 28.05500
C  19.28200 -4.96000 26.61400
C  18.37700 -3.92100 26.36700
C  20.11300 -6.01400 28.96000
C  19.89400 -5.94600 25.54900
O  19.72500 -5.86500 24.32900
C  20.66000 -7.14900 26.07000
N  16.39100 -1.73600 25.49700
C  17.07300 -2.50200 24.68300
C  16.84500 -2.10300 23.18600
C  15.55000 -1.18900 23.37500
C  15.49800 -0.92300 24.82100
C  18.09800 -1.39900 22.62900
C  14.23000 -1.81800 22.83400
C  13.40800 -0.87000 21.98200
N  15.23500 -0.17900 27.75600
C  14.59800 0.53400 26.76300
C  13.82600 1.53800 27.37900
C  14.03300 1.42700 28.79000
C  14.91400 0.37800 28.95400
C  12.81900 2.39200 26.64000
C  13.62300 1.99700 30.05000
O  12.82200 2.91100 30.27000
C  14.47200 1.21800 31.08800
C  15.29100 2.29700 31.70700
O  16.38800 2.57900 31.14600
O  14.65800 2.98600 32.73100
C  15.50900 4.06800 33.18900
H  18.85500 -4.26700 30.70200
H  18.28700 -4.04300 24.23000
H  14.24000 0.77900 24.71400
H  17.20800 -0.21900 32.51900
H  17.43600 -3.16500 32.48700
H  19.50500 -2.69700 33.36700
H  19.10100 -0.96100 33.11400
H  19.88000 -1.84300 31.82800
H  15.28700 -2.38500 33.20000
H  14.39300 -1.18700 32.55600
H  14.82200 -1.17200 34.99200
H  14.54500 0.33500 34.03700
H  19.71100 -6.99100 28.69400
H  19.87200 -5.88900 30.01500
H  21.20000 -5.96700 28.88200
H  21.13200 -7.55400 25.17500
H  20.07000 -7.95700 26.50400
H  21.42800 -6.80500 26.76400
H  16.72100 -3.06300 22.68500
H  15.65100 -0.29700 22.75700
H  17.89900 -0.73000 21.79300
H  18.81000 -2.16700 22.32600
H  18.68700 -0.82500 23.34500
H  13.63600 -2.19600 23.66600
H  14.41000 -2.72900 22.26200
H  12.98000 -0.16500 22.69400
H  12.54000 -1.35300 21.53200
H  13.91200 -0.31100 21.19300
H  12.81200 2.27000 25.55600
H  12.85400 3.46100 26.85100
H  11.78200 2.16900 26.89200
H  13.91200 0.67400 31.84900
H  15.64500 4.70200 32.31300
H  16.46700 3.69000 33.54500
H  15.09400 4.58500 34.05400
Mg 42.41200 40.99300 27.10000
C  41.42900 43.35100 29.42300
C  42.68900 38.64400 29.63700
C  43.59300 38.87000 24.77100
C  42.26500 43.46700 24.61900
N  42.22100 40.99500 29.30700
C  41.70000 42.09300 30.00400
C  41.51700 41.75800 31.44400
C  42.20100 40.37400 31.66400
C  42.39900 39.93900 30.10900
C  43.52000 40.28000 32.46500
C  40.00500 41.86900 31.94400
C  39.86200 42.55000 33.27500
H  39.58300 41.59800 34.50300
N  43.05500 39.05000 27.20600
C  43.10100 38.17000 28.28700
C  43.61600 36.90400 27.82700
C  43.86200 37.03100 26.40100
C  43.40800 38.36200 26.03900
C  44.13600 35.86200 28.82100
C  44.59900 35.99600 25.46300
O  45.02400 36.29400 24.36300
C  44.72100 34.53500 25.84600
N  43.11200 41.17700 25.08800
C  43.41500 40.12700 24.28200
C  43.69300 40.44200 22.83200
C  43.16900 41.88900 22.80500
C  42.82300 42.24200 24.29800
C  45.30100 40.29200 22.42900
C  41.98600 42.17600 21.91900
C  40.70800 41.48300 22.30200
N  42.04000 43.06700 27.00700
C  41.99800 43.94200 25.89800
C  41.50600 45.24300 26.29200
C  41.23300 45.04400 27.69300
C  41.61000 43.71600 28.04700
C  41.23600 46.42000 25.40500
C  40.68500 45.62200 28.85200
O  40.29600 46.77500 28.94800
C  40.92500 44.65300 30.05700
C  41.90100 45.08800 31.05400
O  43.11700 45.11400 30.81300
O  41.30100 45.45800 32.17700
C  42.18400 45.89000 33.28700
H  42.58000 37.76300 30.27200
H  43.62600 38.12000 23.97900
H  42.02900 44.25700 23.90300
H  42.17800 42.46100 31.95000
H  41.42800 39.79100 32.16500
H  44.38000 40.46100 31.82000
H  43.73800 39.25900 32.78100
H  43.48600 40.88600 33.37000
H  39.58000 40.86900 32.03800
H  39.34500 42.31500 31.20100
H  39.02500 43.23600 33.14100
H  40.70300 43.19400 33.53200
H  43.35400 35.16900 29.13100
H  44.31000 36.39600 29.75500
H  45.01000 35.24700 28.60700
H  45.75100 34.45500 26.19500
H  44.47100 33.95500 24.95800
H  43.98700 34.28000 26.61100
H  43.15100 39.72700 22.21300
H  43.97200 42.59000 22.57700
H  45.93000 39.86700 23.21100
H  45.69800 41.23600 22.05500
H  45.50900 39.60100 21.61300
H  42.19600 41.80000 20.91800
H  41.77900 43.24300 21.84100
H  40.46100 40.60300 21.70900
H  39.96000 42.24900 22.09800
H  40.73000 41.14900 23.34000
H  42.23100 46.80700 25.18600
H  40.58100 47.17100 25.84600
H  40.80100 46.21700 24.42600
H  39.99000 44.38700 30.55100
H  42.08000 46.92000 33.62800
H  43.22000 45.83600 32.95300
H  42.08100 45.24700 34.16100

