158

Mg 25.45100 1.82600 29.44500
C  27.56500 1.90200 32.29400
C  22.74800 1.79400 31.66700
C  23.52500 1.86000 26.86300
C  28.23500 1.06800 27.50700
N  25.19800 1.94200 31.70600
C  26.19500 2.11900 32.65700
C  25.58600 2.49000 34.03100
C  24.03800 2.28700 33.80400
C  23.97900 2.01200 32.27500
C  23.36400 1.08700 34.61600
C  26.06000 3.79900 34.66300
C  26.48500 3.66500 36.20800
H  25.74000 4.61600 37.21700
N  23.41500 1.84800 29.28500
C  22.46800 1.79800 30.27000
C  21.13400 1.72200 29.69100
C  21.33900 1.79700 28.28100
C  22.79200 1.84100 28.08800
C  19.86900 1.60800 30.41300
C  20.27400 1.81900 27.19000
O  20.59700 1.86700 26.02900
C  18.77300 1.85600 27.50900
N  25.84600 1.42100 27.47600
C  24.82500 1.53800 26.53500
C  25.44800 1.59200 25.12600
C  26.98800 1.33400 25.31800
C  27.03300 1.29700 26.84300
C  24.70200 0.54400 24.16400
C  27.80800 2.53300 24.72000
C  29.18700 2.20600 24.21200
N  27.43700 1.50200 29.79200
C  28.48900 1.17900 28.90200
C  29.70000 1.12300 29.57600
C  29.39700 1.39900 30.88500
C  28.02400 1.57800 31.01000
C  31.07800 0.64500 29.04400
C  30.02000 1.54600 32.18300
O  31.19600 1.47500 32.51800
C  28.89700 2.01200 33.17300
C  28.88000 1.09900 34.34700
O  28.18300 0.15100 34.57400
O  29.69600 1.75500 35.23100
C  29.93000 1.16200 36.60500
H  21.94000 1.96400 32.38200
H  22.81300 2.07800 26.06500
H  29.16000 0.85500 26.96700
H  26.00000 1.73900 34.70400
H  23.57200 3.22700 34.09600
H  22.39300 0.84500 34.18400
H  23.25300 1.51000 35.61500
H  24.00300 0.20500 34.57300
H  25.18300 4.44400 34.71000
H  26.87700 4.19500 34.06100
H  27.56300 3.77200 36.09200
H  26.23700 2.65500 36.53700
H  19.06000 2.27800 30.12200
H  20.10500 1.93200 31.42600
H  19.55100 0.57400 30.27600
H  18.28200 1.67600 26.55300
H  18.49900 2.83400 27.90700
H  18.63600 0.98500 28.14900
H  25.40100 2.61600 24.75600
H  27.34500 0.37000 24.95400
H  23.95200 0.99100 23.51200
H  24.16200 -0.19800 24.75300
H  25.49700 0.11000 23.55700
H  27.80000 3.20500 25.57800
H  27.34600 3.01400 23.85800
H  29.81900 3.00900 24.59200
H  29.20600 2.10800 23.12700
H  29.61900 1.25400 24.52300
H  30.99900 -0.14600 28.29900
H  31.59500 0.17300 29.87900
H  31.64500 1.49400 28.66000
H  29.05900 3.03800 33.50300
H  29.01000 1.00600 37.16700
H  30.67200 1.76000 37.13400
H  30.30200 0.13800 36.59800
Mg 17.34500 51.14700 26.56600
C  19.42800 49.83600 29.13000
C  15.12100 52.13100 29.00800
C  15.47100 52.37600 24.18600
C  19.61300 49.92100 24.20600
N  17.27600 51.00900 28.85400
C  18.24800 50.44000 29.62100
C  17.74900 50.53000 31.10400
C  16.23100 50.90300 30.97300
C  16.19100 51.41500 29.53600
C  15.17800 49.80400 31.28200
C  18.63000 51.39900 32.02900
C  18.68900 50.95300 33.51500
H  17.82100 51.50700 34.61500
N  15.58000 52.14400 26.59000
C  14.79300 52.51900 27.67000
C  13.73700 53.48500 27.20600
C  13.73800 53.31600 25.78000
C  14.92300 52.57300 25.44200
C  12.79500 54.07700 28.16500
C  12.78300 53.91600 24.76900
O  12.85100 53.68500 23.58400
C  11.66800 54.68200 25.30100
N  17.47100 51.03800 24.48400
C  16.63800 51.73100 23.74600
C  16.94900 51.74400 22.26300
C  18.46300 51.25500 22.34100
C  18.53300 50.71800 23.71100
C  15.93900 50.90100 21.39000
C  19.46900 52.32400 21.95000
C  20.29300 51.93600 20.70200
N  19.04100 49.94700 26.58100
C  19.88100 49.57200 25.51900
C  21.02400 48.90800 26.06200
C  20.89900 49.00800 27.47500
C  19.66900 49.68000 27.76000
C  22.19200 48.37500 25.17900
C  21.51600 48.63300 28.73800
O  22.59300 48.14700 29.02000
C  20.50900 49.11300 29.82500
C  20.07500 47.86100 30.58200
O  19.16600 47.10300 30.21900
O  20.74500 47.77800 31.74100
C  20.07800 46.91000 32.76700
H  14.48200 52.53000 29.79800
H  14.86200 52.71600 23.34600
H  20.31700 49.63000 23.42300
H  17.74800 49.50100 31.46300
H  16.08000 51.77200 31.61400
H  14.68900 50.08900 32.21300
H  15.64900 48.83200 31.13600
H  14.44600 49.66900 30.48500
H  18.15700 52.38000 32.07200
H  19.65600 51.57000 31.70300
H  19.72200 51.16700 33.78700
H  18.60900 49.86600 33.53600
H  13.23800 54.06500 29.16100
H  11.87000 53.50100 28.19900
H  12.59600 55.14600 28.09600
H  12.00700 55.55900 25.85300
H  11.09300 54.00400 25.93300
H  11.09700 55.04600 24.44700
H  16.94100 52.78400 21.93600
H  18.55400 50.36800 21.71500
H  15.64900 51.48400 20.51600
H  15.09900 50.47700 21.94100
H  16.46700 50.08800 20.89200
H  20.20100 52.44500 22.74800
H  18.99600 53.30500 21.89100
H  20.29200 52.75300 19.98100
H  19.89300 51.13300 20.08300
H  21.35500 51.80000 20.90700
H  21.74700 47.67400 24.47300
H  22.96500 47.92200 25.80000
H  22.58100 49.25000 24.65900
H  21.01300 49.64300 30.63300
H  20.78700 46.23000 33.24000
H  19.22600 46.29500 32.47600
H  19.75200 47.47000 33.64400

