158

Mg 35.98100 49.33100 25.87600
C  35.85900 48.00400 29.01200
C  34.90800 52.43300 27.14400
C  35.83000 50.53300 22.75000
C  36.45700 46.08300 24.55300
N  35.43000 50.10400 27.85800
C  35.63900 49.40900 28.99300
C  35.59200 50.29000 30.28800
C  35.18500 51.71900 29.65600
C  35.12000 51.42600 28.15400
C  34.04800 52.56600 30.29600
C  36.90800 50.38100 31.07500
C  36.62300 50.25900 32.60200
H  35.23900 50.57800 33.23100
N  35.40500 51.21400 25.06200
C  34.97800 52.30800 25.72300
C  34.73000 53.38700 24.80300
C  34.98600 52.81700 23.53100
C  35.46300 51.48200 23.72700
C  34.29000 54.79800 25.22300
C  34.79400 53.47100 22.22600
O  35.05800 52.94600 21.13700
C  34.30100 54.91500 22.10000
N  36.01100 48.39900 23.92800
C  35.93800 49.15400 22.77600
C  36.21000 48.32900 21.55100
C  36.28700 46.86400 22.17800
C  36.29600 47.13600 23.65400
C  35.23100 48.43600 20.37200
C  37.56500 46.02600 21.73700
C  39.00300 46.59800 21.97500
N  36.13600 47.44400 26.59800
C  36.40100 46.22800 25.98500
C  36.63700 45.19200 26.92800
C  36.39800 45.83400 28.18800
C  36.09700 47.18900 27.92300
C  37.00800 43.74700 26.60600
C  36.52600 45.72600 29.67800
O  36.67000 44.78600 30.45400
C  36.12300 47.12700 30.20500
C  34.90500 46.92800 31.05200
O  33.81800 46.58200 30.65300
O  35.27000 46.90900 32.36200
C  34.21300 46.62400 33.33200
H  34.56100 53.43400 27.40900
H  35.96000 50.89200 21.72700
H  36.64200 45.06900 24.19100
H  34.79900 49.88300 30.91600
H  35.92700 52.50400 29.80300
H  33.79600 52.19300 31.28900
H  33.17400 52.57900 29.64500
H  34.30300 53.61500 30.44900
H  37.46600 51.29100 30.85600
H  37.53300 49.55600 30.73300
H  37.35700 50.94100 33.03200
H  36.99800 49.28100 32.90400
H  34.72900 55.58400 24.60800
H  34.59800 55.07700 26.23000
H  33.21000 54.84900 25.08200
H  33.47600 55.10000 22.78800
H  34.04200 55.00500 21.04500
H  35.04400 55.62900 22.45400
H  37.15100 48.70700 21.15100
H  35.45400 46.19100 21.97400
H  34.39500 49.09700 20.60100
H  34.80700 47.51200 19.97600
H  35.68500 49.05800 19.60000
H  37.40300 45.83300 20.67600
H  37.51200 45.07800 22.27200
H  38.95800 47.39300 22.72000
H  39.49500 46.87100 21.04100
H  39.67100 45.75800 22.16400
H  37.39200 43.62600 25.59300
H  36.29100 42.94200 26.77000
H  37.81900 43.42900 27.26000
H  36.86100 47.63700 30.82400
H  33.47800 47.42800 33.29000
H  34.59500 46.61300 34.35200
H  33.64100 45.70600 33.20200
Mg 26.32600 51.44000 25.42300
C  23.96300 52.59100 27.77000
C  28.41400 50.79200 27.94500
C  28.41800 50.54400 23.16300
C  24.01400 52.71900 22.90600
N  26.20600 51.74100 27.58100
C  25.17800 52.12000 28.29600
C  25.36600 51.88600 29.78300
C  26.87700 51.54300 29.86000
C  27.24700 51.37200 28.34400
C  27.84900 52.67400 30.47000
C  24.41700 50.75200 30.35000
C  23.57400 51.07700 31.59000
H  23.97600 50.47100 32.94400
N  28.20100 50.78800 25.55900
C  28.91200 50.51000 26.68400
C  30.21700 50.04900 26.28700
C  30.27300 50.02300 24.86600
C  28.90400 50.39200 24.46900
C  31.23700 49.83300 27.44300
C  31.44400 49.71500 23.92100
O  31.38300 49.95500 22.69200
C  32.70700 49.22900 24.51900
N  26.25000 51.80700 23.29800
C  27.27100 51.21100 22.63800
C  26.99800 51.24300 21.12300
C  25.45000 51.75000 21.05500
C  25.21800 52.10300 22.52300
C  28.11200 52.06300 20.19600
C  24.34900 50.82900 20.51700
C  23.27700 51.40600 19.56400
N  24.35700 52.46700 25.31600
C  23.56500 52.84400 24.22800
C  22.33400 53.38400 24.65100
C  22.35000 53.31100 26.04000
C  23.65200 52.76600 26.37200
C  21.26100 53.95200 23.74100
C  21.71800 53.49300 27.35000
O  20.62400 53.86200 27.61200
C  22.71700 53.08100 28.53500
C  23.05000 54.09800 29.52000
O  23.90300 54.96300 29.44700
O  22.31300 53.88700 30.66900
C  22.24500 54.89000 31.74200
H  29.04300 50.44800 28.76900
H  28.96500 49.99400 22.39400
H  23.24600 52.84900 22.14200
H  25.29200 52.80200 30.36900
H  26.99100 50.58000 30.35800
H  27.28400 53.57500 30.70900
H  28.58100 53.01400 29.73700
H  28.17600 52.44000 31.48300
H  25.05900 49.87500 30.42000
H  23.76400 50.41200 29.54600
H  22.58700 50.66300 31.38200
H  23.36600 52.14500 31.65100
H  30.79900 49.26600 28.26400
H  31.31600 50.84500 27.84000
H  32.24300 49.45100 27.26700
H  33.01100 50.16100 24.99500
H  33.33700 48.97300 23.66700
H  32.56600 48.31100 25.08900
H  26.97800 50.21800 20.75200
H  25.42100 52.66900 20.47100
H  28.94100 52.21800 20.88500
H  27.74500 53.03700 19.87200
H  28.59100 51.51000 19.38800
H  23.74500 50.38000 21.30600
H  24.77700 49.95800 20.02100
H  23.23500 50.88700 18.60600
H  23.48800 52.46800 19.44400
H  22.30100 51.33800 20.04500
H  20.57600 54.58600 24.30400
H  20.81600 53.18200 23.11000
H  21.75300 54.72800 23.15600
H  22.17900 52.29200 29.06100
H  23.10000 55.56200 31.66000
H  22.23700 54.45100 32.73900
H  21.40500 55.58500 31.70200

