158

Mg 24.44000 -6.84300 46.73100
C  26.74000 -4.63400 45.15900
C  22.07400 -5.56200 44.60700
C  22.60200 -9.64900 47.33300
C  27.18800 -8.43000 48.27000
N  24.45200 -5.28500 45.06700
C  25.51500 -4.56600 44.55000
C  25.01700 -3.46600 43.59200
C  23.44100 -3.52700 43.67300
C  23.27600 -4.81400 44.56500
C  22.64700 -2.36500 44.28500
C  25.65300 -3.68500 42.12700
C  26.15900 -2.42200 41.50600
H  26.16100 -2.27700 39.95400
N  22.60000 -7.44200 46.18500
C  21.76000 -6.66100 45.38700
C  20.40700 -7.28400 45.36700
C  20.52300 -8.51900 46.13400
C  21.89700 -8.53700 46.64700
C  19.25500 -6.66100 44.68400
C  19.29900 -9.51700 46.25000
O  18.19800 -9.29600 45.72800
C  19.41500 -10.88600 46.93900
N  24.86100 -8.73800 47.70000
C  23.88000 -9.65000 47.90300
C  24.34200 -10.83700 48.73500
C  25.85400 -10.48700 48.97600
C  26.02900 -9.10500 48.24600
C  23.58300 -11.09200 50.02100
C  26.82800 -11.61400 48.67300
C  27.63400 -11.61000 47.38300
N  26.53300 -6.50400 46.86800
C  27.50400 -7.24600 47.55000
C  28.77600 -6.53400 47.34900
C  28.51700 -5.48300 46.48300
C  27.13300 -5.56100 46.13400
C  30.13200 -7.07000 47.82900
C  29.13600 -4.37600 45.74800
O  30.28700 -4.01900 45.76500
C  27.98100 -3.69800 44.91300
C  27.73600 -2.29400 45.26600
O  27.80700 -1.38900 44.41100
O  27.43300 -2.08100 46.57000
C  27.14700 -0.77300 47.09100
H  21.25800 -5.22900 43.96200
H  22.15400 -10.63400 47.47700
H  28.00600 -8.95500 48.76800
H  25.38400 -2.55800 44.07100
H  23.02900 -3.79000 42.69900
H  22.27800 -1.77000 43.45000
H  23.25400 -1.78300 44.97800
H  21.71600 -2.68000 44.75700
H  24.82600 -4.10700 41.55500
H  26.45900 -4.41800 42.12300
H  27.18900 -2.24200 41.81300
H  25.59800 -1.59300 41.93800
H  19.46700 -6.59000 43.61700
H  19.17400 -5.70500 45.20200
H  18.33200 -7.24100 44.67000
H  20.02400 -11.54500 46.32000
H  18.51900 -11.47400 47.13500
H  19.87600 -10.74400 47.91600
H  24.34000 -11.75700 48.15000
H  26.00000 -10.33400 50.04600
H  23.27200 -12.13100 50.13300
H  22.68200 -10.48400 49.93500
H  24.10400 -10.81100 50.93700
H  26.22900 -12.52500 48.67900
H  27.51400 -11.76200 49.50700
H  28.70000 -11.45900 47.55500
H  27.13400 -10.85100 46.78000
H  27.48200 -12.53000 46.81800
H  30.30500 -7.97700 47.25000
H  30.06500 -7.45000 48.84900
H  30.93500 -6.33900 47.73400
H  28.30200 -3.74600 43.87300
H  26.31100 -0.80700 47.79000
H  26.98200 0.04000 46.38400
H  27.97800 -0.46700 47.72600
Mg 26.21000 50.24200 26.19600
C  24.13100 51.51100 28.47900
C  28.65800 49.65400 28.57900
C  28.38300 49.52300 23.70700
C  23.93600 51.50800 23.57600
N  26.35100 50.39400 28.29400
C  25.37700 51.05000 29.06600
C  25.75500 50.95400 30.55800
C  27.31300 50.68700 30.52500
C  27.46200 50.13200 29.07500
C  28.22700 51.87200 30.97600
C  24.92500 49.81500 31.30900
C  24.17400 50.22400 32.61100
H  24.41500 49.36600 33.81700
N  28.13900 49.49500 26.19700
C  28.94000 49.30400 27.26400
C  30.18600 48.72400 26.76500
C  30.22200 48.76900 25.37500
C  28.90600 49.29900 25.07600
C  31.26400 48.19500 27.72100
C  31.33400 48.36200 24.40500
O  31.32900 48.65700 23.21200
C  32.57600 47.53800 24.71000
N  26.20300 50.62700 23.97400
C  27.22800 50.14100 23.24600
C  27.05800 50.41000 21.71900
C  25.53400 50.77700 21.70100
C  25.17700 51.04400 23.14300
C  27.93700 51.59100 21.25400
C  24.52500 49.72900 21.11500
C  23.35100 50.24000 20.17800
N  24.41500 51.29100 26.00600
C  23.55800 51.77100 24.94200
C  22.27400 52.10800 25.49300
C  22.48900 51.99400 26.87400
C  23.77400 51.55100 27.09600
C  21.18400 52.53100 24.60300
C  21.85300 52.36800 28.11000
O  20.72500 52.85800 28.25500
C  22.88100 51.91800 29.22100
C  23.00700 53.05800 30.21600
O  23.57000 54.15000 30.01100
O  22.34700 52.67900 31.28600
C  22.42800 53.57400 32.48500
H  29.36900 49.41300 29.37200
H  29.15700 49.36100 22.95400
H  23.25100 51.81400 22.78300
H  25.56800 51.93000 31.00500
H  27.56600 49.89000 31.22400
H  28.71200 52.27200 30.08500
H  28.98200 51.60700 31.71500
H  27.68600 52.69800 31.43700
H  25.60600 48.98600 31.50300
H  24.12700 49.36100 30.72200
H  23.10300 50.32100 32.43500
H  24.44500 51.25100 32.85600
H  32.19800 48.70000 27.47400
H  31.49500 47.15000 27.51200
H  31.06300 48.50600 28.74600
H  33.27100 48.11700 25.31700
H  33.02900 47.33000 23.74000
H  32.35600 46.65300 25.30700
H  27.27300 49.57500 21.05300
H  25.41800 51.72300 21.17200
H  27.29100 52.41100 20.93900
H  28.49600 51.31100 20.36100
H  28.56900 51.91400 22.08200
H  24.16800 49.07800 21.91300
H  25.17200 49.15700 20.45000
H  23.25500 49.63500 19.27700
H  23.54100 51.27000 19.87400
H  22.37500 50.22200 20.66300
H  20.31200 52.22900 25.18300
H  21.09900 52.16700 23.57900
H  21.22400 53.61900 24.55500
H  22.39200 51.10900 29.76400
H  23.15500 54.37500 32.35200
H  22.78000 52.95400 33.30900
H  21.40200 53.86500 32.71000

