158

Mg 45.09900 4.77200 46.31400
C  43.11300 7.58800 46.07500
C  42.26700 2.74000 46.13900
C  47.18800 2.09200 45.54300
C  47.91500 6.79200 45.72800
N  42.89600 5.13600 45.96700
C  42.34800 6.38100 45.97000
C  40.84300 6.31300 45.79100
C  40.56400 4.77000 46.13600
C  41.96000 4.11000 46.16100
C  39.83400 4.60500 47.58400
C  40.09100 6.90400 44.58000
C  41.02800 7.38500 43.39300
H  40.38300 7.48800 41.98400
N  44.78400 2.73500 45.78900
C  43.53000 2.12800 45.83800
C  43.78700 0.71600 45.83500
C  45.14400 0.47300 45.54800
C  45.79200 1.80100 45.57600
C  42.69200 -0.24600 46.14800
C  45.81500 -0.82100 45.17000
O  45.06300 -1.76400 45.27100
C  47.22000 -1.11400 44.67500
N  47.30000 4.46900 45.76400
C  47.88200 3.25600 45.61400
C  49.47400 3.44700 45.61000
C  49.58000 4.93500 45.03400
C  48.18200 5.43100 45.50700
C  50.12800 3.12100 46.99300
C  49.77100 5.00100 43.47000
C  51.22500 5.33700 42.91400
N  45.50500 6.76700 46.13800
C  46.72200 7.46400 46.05100
C  46.42800 8.88300 46.14300
C  45.07400 8.97000 46.25700
C  44.52200 7.67900 46.10600
C  47.23200 10.05600 46.00300
C  43.99700 9.89200 46.47900
O  43.92600 11.07900 46.64400
C  42.70800 9.03900 46.49200
C  41.97500 9.14400 47.77500
O  41.78500 8.31400 48.69300
O  41.34300 10.30400 47.76600
C  40.71400 10.71700 49.01500
H  41.37700 2.12300 46.28100
H  47.86400 1.23700 45.61800
H  48.77500 7.46500 45.70500
H  40.52400 6.94800 46.61800
H  39.98000 4.23000 45.39100
H  39.49000 5.50000 48.10300
H  40.58200 4.11400 48.20600
H  38.94200 3.98100 47.65000
H  39.49600 7.69500 45.03600
H  39.51000 6.06200 44.20500
H  41.89900 6.73100 43.34600
H  41.36900 8.35000 43.76800
H  42.68100 -0.84300 45.23600
H  41.69400 0.16600 46.30000
H  42.94400 -0.90200 46.98100
H  47.31100 -2.10900 44.23900
H  47.80300 -1.08700 45.59600
H  47.38800 -0.29600 43.97400
H  49.96300 2.77600 44.90400
H  50.24600 5.44900 45.72600
H  49.19800 2.91700 47.52400
H  50.60500 3.97400 47.47500
H  50.83800 2.31400 46.81000
H  49.06000 5.70600 43.04000
H  49.51000 4.01600 43.08500
H  51.61900 4.49900 42.34000
H  51.96600 5.56800 43.67900
H  51.27700 6.29700 42.40000
H  47.34200 10.11600 44.92000
H  48.24400 10.03100 46.40600
H  46.67100 10.89600 46.41300
H  42.01900 9.45300 45.75500
H  41.40200 11.04200 49.79600
H  40.15200 9.90300 49.47400
H  39.99900 11.52500 48.86200
Mg 5.49900 53.65200 41.95500
C  4.79100 50.24900 41.07900
C  8.55100 53.28600 40.62800
C  5.77800 56.92600 42.10700
C  2.12100 53.93100 42.82600
N  6.53100 51.94900 40.87800
C  6.11400 50.65700 40.69800
C  7.23700 49.84700 40.08100
C  8.49100 50.84600 40.15000
C  7.80200 52.14900 40.49700
C  9.53900 50.38800 41.26700
C  6.91300 49.36400 38.69500
C  6.40400 50.45400 37.74300
H  7.35700 50.75200 36.57100
N  6.96300 54.91900 41.51200
C  8.22800 54.58200 41.05900
C  9.11600 55.75300 41.14700
C  8.30600 56.78800 41.68900
C  6.94300 56.20900 41.80300
C  10.59900 55.70300 40.90300
C  8.82200 58.20100 42.10900
O  10.01700 58.53700 42.00900
C  7.87000 59.19300 42.76200
N  4.03700 55.22200 42.39700
C  4.45600 56.51100 42.36300
C  3.27900 57.46100 42.38000
C  2.02300 56.55200 42.61400
C  2.75700 55.14100 42.65800
C  3.33000 58.80000 43.26500
C  1.03600 56.68700 41.54000
C  -0.43100 56.82000 42.06100
N  3.84000 52.32000 42.24100
C  2.55500 52.61400 42.63100
C  1.79600 51.38800 42.59000
C  2.65100 50.43600 42.10200
C  3.87400 51.05200 41.76200
C  0.39700 51.06500 43.07200
C  2.74700 49.02000 41.72300
O  1.95500 48.16600 41.74100
C  4.20900 48.84500 41.19100
C  4.04300 48.05500 39.94100
O  3.48800 48.54000 38.96000
O  4.78500 46.92900 39.96100
C  4.84100 46.17400 38.69900
H  9.60400 53.03900 40.47900
H  5.89500 58.01200 42.09200
H  1.08200 54.07100 43.13100
H  7.35300 49.00300 40.76000
H  8.90500 51.12000 39.18000
H  9.82700 51.19300 41.94300
H  10.42000 49.95600 40.79400
H  9.29100 49.56900 41.94300
H  6.36500 48.42200 38.72000
H  7.84700 49.07100 38.21500
H  6.23200 51.40400 38.24800
H  5.45900 50.14300 37.29800
H  10.76200 56.09700 39.90000
H  11.00800 54.69500 40.97400
H  11.20300 56.22000 41.65000
H  8.36500 60.03200 43.25100
H  7.44400 58.56500 43.54400
H  7.16700 59.57900 42.02300
H  3.31200 57.81100 41.34800
H  1.80300 56.65100 43.67800
H  4.14000 58.55500 43.95200
H  2.37700 59.03700 43.73800
H  3.60700 59.70200 42.71900
H  1.12800 55.81100 40.89900
H  1.18200 57.55000 40.89100
H  -0.95700 57.75600 41.87300
H  -0.41400 56.58900 43.12600
H  -1.14300 56.12100 41.62300
H  -0.12100 50.61800 42.22400
H  -0.07400 52.02700 43.27700
H  0.38300 50.34700 43.89200
H  4.65900 48.11500 41.86400
H  4.81000 46.77000 37.78700
H  4.04800 45.42900 38.76900
H  5.73600 45.55400 38.65100

