158

Mg 53.71200 25.14500 44.63400
C  51.01400 27.58400 43.90700
C  51.69500 22.86100 43.27400
C  56.51800 23.23400 44.28200
C  55.68700 27.91500 45.52500
N  51.70500 25.27900 43.56400
C  50.76700 26.31300 43.39200
C  49.44900 25.83500 42.73400
C  49.63000 24.23400 42.76900
C  51.11700 24.11100 43.26200
C  48.71800 23.42800 43.66200
C  49.07800 26.39700 41.32500
C  50.18500 26.41900 40.25400
H  49.88700 25.69500 38.98200
N  54.01000 23.28300 44.06500
C  53.00200 22.49100 43.61900
C  53.53100 21.11200 43.64400
C  54.95400 21.22700 43.75000
C  55.23800 22.61100 44.08200
C  52.78400 19.89800 43.18200
C  55.97200 20.08800 43.63500
O  55.60700 18.95100 43.28700
C  57.36500 20.28400 43.96100
N  55.77500 25.49100 44.87000
C  56.72600 24.56400 44.61700
C  58.11400 25.19300 44.87100
C  57.90200 26.72000 45.07500
C  56.35200 26.71500 45.15600
C  59.15100 24.60800 45.85400
C  58.32800 27.63400 43.90000
C  59.17000 28.90400 44.17400
N  53.41800 27.23000 44.91500
C  54.29800 28.20500 45.36700
C  53.59800 29.40600 45.62900
C  52.31600 29.16600 45.07800
C  52.26300 27.90100 44.52200
C  54.13900 30.72100 46.23500
C  51.10100 29.85100 44.73000
O  50.80800 31.01700 44.99600
C  50.19900 28.88600 43.91800
C  49.97900 29.51300 42.65400
O  50.90000 29.84300 41.96200
O  48.65400 29.68300 42.37700
C  48.28100 30.16000 41.03600
H  51.08800 22.00500 42.97100
H  57.45600 22.76900 43.97100
H  56.29300 28.81100 45.67700
H  48.59700 26.22600 43.29100
H  49.56700 23.79900 41.77200
H  47.70800 23.81600 43.52800
H  48.86400 23.44000 44.74200
H  48.72000 22.36300 43.42900
H  48.73500 27.42200 41.46800
H  48.14500 25.95200 40.98200
H  51.10400 25.90700 40.54000
H  50.45100 27.47400 40.19200
H  53.05500 18.99800 43.73300
H  52.90700 19.60800 42.13800
H  51.73000 19.91800 43.46000
H  57.98400 19.39400 43.85000
H  57.53800 20.63500 44.97800
H  57.77400 20.93900 43.19100
H  58.58300 25.01100 43.90400
H  58.25100 27.08100 46.04200
H  60.08900 25.05300 45.52200
H  59.14100 23.52500 45.72700
H  58.89100 24.89600 46.87200
H  57.51500 28.14700 43.38400
H  58.89800 27.10800 43.13400
H  58.65900 29.86200 44.08400
H  60.09000 28.91800 43.59000
H  59.53800 28.75200 45.18900
H  53.94400 30.60200 47.30100
H  53.55200 31.53100 45.80100
H  55.20200 30.82600 46.01600
H  49.21800 28.61500 44.30900
H  47.73900 31.10500 41.07000
H  47.58000 29.46300 40.57700
H  49.23200 30.29500 40.52000
Mg 49.31600 47.27000 42.98100
C  45.97900 47.59500 42.24000
C  49.21200 44.25400 41.04200
C  52.60900 46.85100 43.36600
C  49.43300 50.61600 44.06300
N  47.71200 46.01200 41.71000
C  46.41700 46.41300 41.58800
C  45.60300 45.45500 40.57300
C  46.74300 44.42500 40.25600
C  47.96400 44.88000 41.07800
C  46.45400 42.89300 40.22700
C  44.89400 46.16200 39.35100
C  43.38500 45.90100 39.29900
H  42.80300 45.76400 37.92500
N  50.69600 45.75000 42.31400
C  50.44100 44.59800 41.66500
C  51.61300 43.78500 41.65400
C  52.66800 44.46700 42.29000
C  52.01700 45.76100 42.67900
C  51.59600 42.37600 41.14200
C  54.10300 43.96000 42.55500
O  54.43200 42.86200 42.15000
C  55.19100 44.78800 43.34900
N  50.85500 48.63700 43.42700
C  52.12500 48.18900 43.69300
C  53.00600 49.31400 44.22900
C  51.98900 50.40900 44.56100
C  50.66100 49.87400 44.03900
C  54.01100 48.93600 45.39300
C  52.42200 51.82400 43.97900
C  52.07800 52.17800 42.58200
N  48.01700 48.84500 43.25900
C  48.16300 50.18400 43.72400
C  46.90600 50.86200 43.76700
C  45.99000 49.89600 43.15600
C  46.72000 48.62700 42.96400
C  46.72400 52.25200 44.29500
C  44.61300 49.70200 42.84200
O  43.58200 50.28600 43.00000
C  44.52700 48.25100 42.25300
C  43.51700 47.41600 43.02000
O  43.75100 46.72200 44.05000
O  42.31600 47.32600 42.33500
C  41.55300 46.10000 42.71800
H  49.32300 43.41900 40.34700
H  53.65100 46.80100 43.68800
H  49.40900 51.63700 44.45100
H  44.86600 44.96000 41.20600
H  47.07400 44.70500 39.25600
H  46.39100 42.40200 39.25600
H  45.65200 42.83100 40.96200
H  47.36700 42.44200 40.61400
H  45.45400 46.08300 38.41900
H  44.99100 47.22700 39.56000
H  43.02200 46.76500 39.85700
H  43.04700 44.99000 39.79300
H  51.74200 42.48200 40.06700
H  50.67900 41.81300 41.31600
H  52.40000 41.76200 41.54800
H  55.42800 45.77000 42.93900
H  56.18300 44.35500 43.47800
H  54.76400 44.89100 44.34600
H  53.59900 49.52100 43.33800
H  51.89400 50.50500 45.64200
H  54.63500 49.81900 45.25500
H  54.62600 48.05900 45.19100
H  53.50100 49.00100 46.35400
H  53.49700 51.91400 44.13700
H  51.89800 52.54200 44.61000
H  51.57300 51.32900 42.12000
H  53.00700 52.32500 42.03200
H  51.51400 53.10600 42.48700
H  45.66100 52.48500 44.36200
H  47.13800 52.92800 43.54800
H  47.13000 52.39500 45.29700
H  43.98300 48.24800 41.30800
H  40.86400 45.75400 41.94700
H  40.94400 46.34600 43.58700
H  42.07700 45.21100 43.06800

