158

Mg 1.04200 7.69600 25.88500
C  1.84600 9.98600 28.52600
C  1.26300 5.14200 28.11800
C  0.21700 5.67700 23.41000
C  1.44500 10.39300 23.72700
N  1.34600 7.66300 28.11700
C  1.67900 8.64400 29.02900
C  1.75700 8.11800 30.46300
C  1.66300 6.57800 30.28100
C  1.39900 6.40400 28.73700
C  3.03500 5.87200 30.56200
C  0.65300 8.78800 31.31800
C  0.86300 8.70400 32.84400
H  2.12300 8.00800 33.39000
N  0.82300 5.65600 25.79800
C  0.84600 4.80000 26.84400
C  0.56500 3.46500 26.38800
C  0.29900 3.60200 24.94900
C  0.40500 5.05300 24.65400
C  0.68200 2.20700 27.33100
C  -0.08700 2.52700 23.93100
O  0.02100 2.64700 22.70300
C  -0.38500 1.21400 24.42300
N  1.07300 7.96500 23.80400
C  0.47900 7.02200 23.06900
C  0.47000 7.46300 21.54700
C  0.81300 8.99600 21.68600
C  1.04800 9.17100 23.16800
C  1.38500 6.56100 20.65000
C  -0.31400 9.97300 21.10700
C  -1.67500 9.97300 21.77900
N  1.43400 9.85500 26.04000
C  1.59300 10.75000 25.06000
C  1.82400 12.05100 25.63300
C  2.02300 11.79000 26.97100
C  1.73900 10.41400 27.19800
C  2.04500 13.35900 24.89100
C  2.39500 12.42200 28.22600
O  2.79200 13.54800 28.55700
C  2.24300 11.25000 29.29800
C  3.58400 10.99500 29.93600
O  4.52900 10.48700 29.38300
O  3.58400 11.40700 31.21700
C  4.87500 11.33800 31.96700
H  1.41500 4.30500 28.80300
H  -0.08700 5.06700 22.55700
H  1.55100 11.18900 22.98700
H  2.69800 8.34600 30.96300
H  0.80000 6.20600 30.83300
H  3.50300 5.51600 29.64400
H  2.95100 4.95900 31.15300
H  3.72400 6.46600 31.16200
H  -0.32300 8.34600 31.11500
H  0.41100 9.80800 31.01900
H  0.02000 8.12200 33.21400
H  0.67400 9.71200 33.21400
H  -0.33400 1.91900 27.60300
H  1.06200 2.38400 28.33700
H  1.28700 1.42400 26.87400
H  0.49300 0.69200 24.80300
H  -0.93300 0.58300 23.72200
H  -1.10100 1.40000 25.22300
H  -0.55100 7.33100 21.19000
H  1.75900 9.28800 21.23100
H  1.73500 5.67600 21.18200
H  2.26500 7.13900 20.36600
H  0.81500 6.21600 19.78800
H  -0.52500 9.71600 20.06800
H  -0.04500 11.02900 21.13500
H  -1.69300 10.75100 22.54200
H  -1.75900 9.04900 22.35100
H  -2.45700 9.97900 21.01900
H  2.42500 13.44400 23.87200
H  2.70600 13.95600 25.52000
H  1.05700 13.82000 24.90100
H  1.45800 11.54100 29.99600
H  4.78700 12.10600 32.73500
H  5.64900 11.66100 31.27100
H  5.10800 10.33200 32.31700
Mg 16.34300 51.79300 25.43900
C  18.00100 50.70600 28.21200
C  13.66300 52.87200 27.35200
C  14.55300 52.41000 22.52300
C  18.75800 50.11200 23.44100
N  15.88300 51.68100 27.49100
C  16.80700 51.39400 28.45200
C  16.38900 51.91700 29.84800
C  14.88900 52.31400 29.50500
C  14.83900 52.38200 28.00900
C  13.70800 51.44400 30.02500
C  17.33100 53.09600 30.35600
C  18.01200 52.94100 31.77000
H  17.33700 52.06800 32.80600
N  14.38500 52.61900 25.02000
C  13.42900 52.91900 25.96100
C  12.31100 53.51800 25.23500
C  12.65200 53.50700 23.82900
C  13.94600 52.88100 23.75700
C  11.22500 54.22200 25.86400
C  11.77600 53.88300 22.64800
O  12.19900 53.97700 21.49100
C  10.34400 54.24000 22.85800
N  16.68300 51.27000 23.33700
C  15.70900 51.59900 22.40900
C  16.10900 51.17800 21.00900
C  17.52200 50.59300 21.22700
C  17.70700 50.65000 22.75300
C  15.08500 50.27500 20.29300
C  18.77500 51.32700 20.61700
C  18.75700 52.82100 20.67800
N  17.96000 50.61500 25.68800
C  18.90000 50.08100 24.83300
C  19.93500 49.38800 25.55400
C  19.59800 49.54100 26.88300
C  18.34700 50.25500 26.92800
C  21.16200 48.64600 25.01600
C  20.04000 49.36100 28.26200
O  21.11800 48.83100 28.61900
C  18.97400 50.03100 29.24600
C  18.43200 49.02100 30.10300
O  17.35500 48.41800 30.06300
O  19.37200 48.69800 31.05000
C  18.92500 47.77500 32.12500
H  12.94200 53.28700 28.05900
H  14.01000 52.50100 21.58000
H  19.47700 49.56100 22.83100
H  16.51700 51.10800 30.56700
H  14.79100 53.34900 29.83300
H  13.53700 50.54100 29.43900
H  12.79100 51.94100 30.34400
H  14.02100 51.04700 30.99100
H  16.87000 54.04700 30.09000
H  18.13300 52.98000 29.62700
H  17.98800 53.97200 32.12400
H  19.06400 52.70300 31.61100
H  10.84800 55.07600 25.30200
H  11.49400 54.57000 26.86100
H  10.53600 53.40700 26.08600
H  10.06000 55.24200 23.17800
H  10.01700 53.50300 23.59100
H  9.89900 54.01800 21.88800
H  16.04200 52.02100 20.32200
H  17.53600 49.54000 20.94600
H  14.19100 50.27000 20.91600
H  15.51400 49.27400 20.23500
H  14.70100 50.62700 19.33600
H  18.70100 50.98700 19.58300
H  19.72600 50.99900 21.03600
H  17.90400 53.30600 21.15200
H  18.84000 53.29400 19.69900
H  19.56500 53.05700 21.37100
H  21.06500 48.56500 23.93300
H  21.30900 47.60500 25.30300
H  22.10600 49.15100 25.22100
H  19.48900 50.83800 29.76600
H  19.21000 46.79800 31.73500
H  17.85100 47.76200 32.31100
H  19.40300 48.04100 33.06800

