158

Mg 6.69400 54.32700 41.97800
C  5.89200 50.97600 41.67300
C  9.85600 53.66400 40.71500
C  7.33100 57.65300 41.45500
C  3.40300 55.02300 42.88900
N  7.70000 52.57300 41.12600
C  7.23000 51.27000 41.25800
C  8.32900 50.22900 40.85600
C  9.65500 51.06700 41.01900
C  9.06800 52.52700 40.93700
C  10.55900 50.80000 42.32400
C  8.11400 49.62300 39.40900
C  7.78800 50.56000 38.21900
H  6.60200 50.21500 37.32500
N  8.36000 55.54400 41.12400
C  9.56000 55.03700 40.69700
C  10.44900 56.13000 40.36100
C  9.72700 57.33400 40.49500
C  8.41100 56.85000 41.01900
C  11.80700 55.97300 39.84700
C  10.31100 58.65800 40.09600
O  11.29500 58.76000 39.37700
C  9.57800 59.99800 40.48500
N  5.47000 56.01800 41.94600
C  6.00600 57.30700 41.93900
C  5.11400 58.34100 42.52900
C  3.77300 57.51900 42.71000
C  4.23000 56.06600 42.57100
C  5.62300 58.91600 43.89700
C  2.62100 57.98500 41.76800
C  1.42900 58.69900 42.43900
N  4.92100 53.31000 42.24200
C  3.72500 53.69400 42.61600
C  2.90300 52.49000 42.82500
C  3.69400 51.44100 42.48400
C  4.93900 51.96100 42.10600
C  1.41500 52.58500 43.27000
C  3.73400 50.00900 42.36200
O  2.80600 49.23300 42.42400
C  5.10200 49.64800 41.86900
C  4.89800 48.92300 40.63700
O  4.29700 49.32000 39.68100
O  5.46600 47.69500 40.75100
C  5.24900 46.68700 39.64500
H  10.88200 53.36400 40.49000
H  7.51200 58.71800 41.30000
H  2.38600 55.20400 43.24500
H  8.44500 49.41500 41.57200
H  10.32300 50.88400 40.17800
H  10.53200 51.63300 43.02800
H  11.60700 50.64600 42.06600
H  10.19700 49.92100 42.85700
H  7.38000 48.81800 39.45300
H  9.10600 49.24500 39.16000
H  8.72600 50.56200 37.66500
H  7.73800 51.62300 38.45800
H  11.76700 55.06500 39.24500
H  12.45200 55.77600 40.70300
H  12.42400 56.60300 39.20600
H  8.69900 60.05200 39.84200
H  10.27200 60.80600 40.25800
H  9.36600 59.90800 41.55000
H  5.02500 59.02000 41.68100
H  3.27300 57.62500 43.67300
H  6.51500 58.32900 44.11500
H  4.87200 58.81300 44.67900
H  5.94600 59.95700 43.92800
H  2.13900 57.08000 41.39800
H  3.03600 58.49800 40.90000
H  1.69800 59.02700 43.44300
H  0.53000 58.10600 42.26400
H  1.33000 59.61700 41.86000
H  0.76400 53.01700 42.51100
H  1.22800 52.97600 44.27100
H  1.06400 51.55500 43.34300
H  5.60000 49.05500 42.63600
H  4.21100 46.38600 39.50600
H  5.70400 45.71900 39.85500
H  5.74300 47.18200 38.80900
Mg -11.51900 38.62300 41.97400
C  -9.38200 35.95600 40.89500
C  -9.51400 40.71100 40.20900
C  -13.75000 41.03100 42.40600
C  -13.74300 36.16800 42.96100
N  -9.74300 38.30500 40.61300
C  -8.96900 37.20300 40.48500
C  -7.70100 37.57500 39.64600
C  -7.66600 39.08900 39.57700
C  -9.01300 39.45300 40.18600
C  -6.48200 39.85400 40.29600
C  -7.67600 36.89500 38.22400
C  -6.45000 35.97600 37.93900
H  -5.48400 36.61100 36.94500
N  -11.57700 40.67400 41.54000
C  -10.62300 41.32300 40.76200
C  -11.06400 42.71000 40.60200
C  -12.24300 42.90800 41.38100
C  -12.58200 41.55000 41.88500
C  -10.37500 43.75200 39.78700
C  -12.95500 44.20900 41.47800
O  -12.54300 45.29900 41.02300
C  -14.16600 44.25100 42.37100
N  -13.63800 38.49700 42.38400
C  -14.20800 39.71800 42.71300
C  -15.60500 39.46300 43.30300
C  -15.63000 37.89600 43.40800
C  -14.26100 37.46000 42.89300
C  -15.93800 40.30100 44.60300
C  -16.81300 37.21400 42.61600
C  -17.97100 36.72200 43.52300
N  -11.56500 36.45300 41.94800
C  -12.51600 35.67200 42.55800
C  -12.02300 34.24000 42.63500
C  -10.83300 34.37500 41.90100
C  -10.61700 35.65900 41.52300
C  -12.58100 33.09300 43.41900
C  -9.64800 33.63200 41.43300
O  -9.39500 32.42100 41.56900
C  -8.70700 34.63700 40.71200
C  -7.45700 34.44800 41.42900
O  -7.28800 34.72300 42.63800
O  -6.43200 33.91700 40.75200
C  -5.08600 33.68900 41.30200
H  -8.94800 41.39600 39.57400
H  -14.58800 41.73100 42.38900
H  -14.33200 35.47300 43.56200
H  -6.88400 37.18400 40.25300
H  -7.58700 39.46900 38.55800
H  -5.61400 39.19400 40.30200
H  -6.77500 39.97800 41.33800
H  -6.17500 40.82500 39.90800
H  -7.83400 37.67400 37.47800
H  -8.47700 36.16000 38.14600
H  -6.75300 34.97200 37.64200
H  -5.71600 35.82500 38.73100
H  -11.12200 44.37100 39.29000
H  -9.80500 43.17600 39.05800
H  -9.82600 44.39700 40.47300
H  -14.99300 43.68500 41.94300
H  -14.62400 45.24000 42.35300
H  -13.96100 43.91800 43.38800
H  -16.40900 39.78900 42.64300
H  -15.73000 37.65300 44.46600
H  -15.05800 40.32600 45.24500
H  -16.69100 39.75000 45.16600
H  -16.04400 41.35500 44.34600
H  -16.51300 36.36200 42.00500
H  -17.29000 37.90500 41.92100
H  -18.73500 37.45500 43.78200
H  -17.58800 36.31100 44.45700
H  -18.54900 35.90800 43.08500
H  -13.64500 33.24700 43.59800
H  -12.06400 32.75800 44.31800
H  -12.53800 32.27500 42.69900
H  -8.69200 34.22700 39.70200
H  -4.78800 34.41800 42.05600
H  -4.35300 33.63400 40.49700
H  -5.02900 32.72200 41.80300

