158

Mg 7.98100 3.66500 27.96900
C  9.47500 2.24400 30.74700
C  6.33000 5.82100 29.81900
C  6.56900 4.74300 25.09800
C  9.19900 0.89000 26.11600
N  7.81000 3.95600 30.05300
C  8.62500 3.35400 31.03000
C  8.32000 4.00600 32.42900
C  7.16500 4.99500 32.11900
C  7.03500 4.85900 30.58800
C  5.80400 4.76500 32.89800
C  9.61900 4.61800 33.06700
C  10.20600 4.12400 34.34200
H  10.53400 5.13100 35.48600
N  6.67900 5.13600 27.53800
C  6.24400 6.07800 28.41800
C  5.59400 7.19700 27.76400
C  5.66100 6.87400 26.38700
C  6.34400 5.54500 26.29600
C  5.00800 8.42500 28.56500
C  5.16600 7.66000 25.20700
O  5.22000 7.20200 24.05200
C  4.28200 8.81400 25.33800
N  7.87700 2.88000 25.95400
C  7.18000 3.56600 24.96500
C  7.48800 2.95800 23.63300
C  8.31100 1.73400 23.94700
C  8.49400 1.83800 25.45800
C  6.25900 2.65900 22.71100
C  9.61500 1.62600 23.13900
C  9.48500 0.65600 22.01900
N  9.18700 1.89200 28.28000
C  9.56300 0.85200 27.51600
C  10.33500 -0.11200 28.21100
C  10.37900 0.43500 29.50300
C  9.73100 1.64600 29.47300
C  10.87300 -1.41200 27.73300
C  10.88700 0.23700 30.88600
O  11.58600 -0.65000 31.41900
C  10.32400 1.47200 31.76100
C  9.67500 0.92100 32.95400
O  8.59300 0.42600 33.06300
O  10.63000 0.90700 33.95100
C  10.33600 0.37300 35.27800
H  5.99200 6.58200 30.52500
H  6.19400 5.13100 24.14900
H  9.77300 0.10300 25.62300
H  7.97900 3.20700 33.08800
H  7.37300 6.05100 32.29400
H  4.93200 4.64900 32.25400
H  5.58000 5.72200 33.36900
H  5.84700 4.01700 33.69000
H  9.49300 5.69000 33.22200
H  10.38000 4.45400 32.30400
H  11.15300 3.67000 34.04800
H  9.42500 3.48400 34.75300
H  3.93400 8.26600 28.66200
H  5.37600 9.30700 28.04200
H  5.37900 8.39500 29.58900
H  4.15400 9.29500 24.36900
H  4.81600 9.54900 25.94200
H  3.31300 8.44900 25.67700
H  8.02900 3.80300 23.20700
H  7.66700 0.87000 23.78500
H  6.21200 1.59600 22.47500
H  6.37800 3.24000 21.79700
H  5.33900 2.98400 23.19700
H  10.36500 1.33900 23.87600
H  9.97000 2.57700 22.74300
H  10.08300 0.98600 21.17000
H  8.45300 0.43600 21.74400
H  9.83400 -0.24000 22.53100
H  11.88300 -1.53000 28.12500
H  10.84800 -1.66200 26.67200
H  10.27400 -2.18000 28.22400
H  11.11800 2.14500 32.08400
H  9.84800 1.19000 35.81000
H  11.28100 -0.05200 35.61800
H  9.54700 -0.37700 35.33100
Mg 47.50400 25.31400 28.51700
C  48.46500 27.61700 31.06700
C  46.50000 23.18300 30.74100
C  47.21700 23.04200 25.86300
C  48.54700 27.74300 26.15500
N  47.61800 25.34600 30.62700
C  47.98900 26.37000 31.49200
C  47.64000 26.10400 32.95300
C  47.00100 24.63200 32.78200
C  47.05700 24.36700 31.30300
C  47.68600 23.45000 33.54200
C  46.63200 27.13800 33.54500
C  46.92100 27.81000 34.89200
H  45.73500 28.00900 35.82400
N  46.91400 23.47300 28.37000
C  46.52300 22.74700 29.42100
C  46.11700 21.42800 29.10100
C  46.24700 21.32900 27.66000
C  46.80400 22.65400 27.15700
C  45.58900 20.33200 29.97500
C  45.71300 20.25300 26.75600
O  45.87500 20.39400 25.59200
C  44.87500 19.08600 27.30400
N  47.86600 25.36900 26.36600
C  47.56800 24.32600 25.51200
C  47.96300 24.71500 24.06800
C  48.09900 26.22900 24.20300
C  48.14700 26.48000 25.67200
C  49.24700 23.91500 23.61400
C  46.99200 27.10000 23.52800
C  47.56300 28.25100 22.70500
N  48.19900 27.32200 28.51800
C  48.68300 28.15400 27.51300
C  49.24800 29.35800 28.05800
C  49.13400 29.18300 29.43400
C  48.56200 27.93900 29.68800
C  49.87100 30.44200 27.16700
C  49.48500 29.79600 30.69200
O  50.06900 30.83500 30.86000
C  49.10200 28.78000 31.81300
C  50.27800 28.47000 32.72300
O  51.28400 27.90200 32.28800
O  50.11300 29.14800 33.93300
C  51.30100 29.14000 34.80200
H  46.20200 22.38200 31.42000
H  46.97000 22.36300 25.04500
H  48.79800 28.48700 25.39600
H  48.49000 25.95300 33.61800
H  45.96400 24.48200 33.08100
H  48.56400 23.01900 33.06000
H  46.93300 22.67000 33.65700
H  48.01100 23.77600 34.53000
H  45.69300 26.58700 33.59400
H  46.38000 27.99600 32.92200
H  47.38400 28.78200 34.72600
H  47.55400 27.07800 35.39600
H  44.53400 20.08300 29.86500
H  45.82100 20.57300 31.01300
H  46.29900 19.57800 29.63500
H  44.63000 18.53500 26.39600
H  43.91600 19.47000 27.65100
H  45.44800 18.41900 27.94900
H  47.12200 24.43400 23.43400
H  49.07000 26.53100 23.81200
H  50.01400 24.52400 23.13800
H  48.90500 23.09600 22.98100
H  49.73800 23.40600 24.44400
H  46.41900 27.50700 24.36100
H  46.25100 26.58300 22.91800
H  48.29100 27.83700 22.00800
H  47.80200 29.14300 23.28400
H  46.77600 28.47200 21.98300
H  49.43300 30.56300 26.17700
H  50.95200 30.34000 27.07200
H  49.83300 31.40900 27.67000
H  48.19900 29.15000 32.29800
H  52.19500 29.33600 34.21200
H  51.48700 28.16500 35.25400
H  51.01200 29.96700 35.45100

