158

Mg 1.08800 7.90700 26.87100
C  2.14000 9.57900 29.66000
C  0.54200 5.15300 28.94900
C  0.82400 5.98500 24.11200
C  1.60700 10.55900 24.90100
N  1.31900 7.43000 29.14600
C  1.66200 8.30400 30.06800
C  1.42300 7.79900 31.50400
C  1.19900 6.18100 31.11800
C  0.98400 6.23600 29.63300
C  2.54100 5.33300 31.44700
C  0.32500 8.44900 32.41100
C  0.69600 8.91400 33.80800
H  1.90700 8.21500 34.56700
N  0.70800 5.86500 26.59300
C  0.45000 4.95100 27.57300
C  0.01200 3.74000 26.98800
C  0.09900 3.86600 25.55400
C  0.63300 5.22600 25.36300
C  -0.42000 2.55400 27.78000
C  -0.38500 2.98500 24.43700
O  -0.39900 3.43000 23.27500
C  -0.84000 1.60900 24.61200
N  0.93300 8.24700 24.75900
C  0.98900 7.35800 23.73900
C  0.86600 8.01700 22.31700
C  0.78000 9.52600 22.78900
C  1.19900 9.44200 24.22900
C  2.12900 7.57600 21.38800
C  -0.59700 10.16900 22.57200
C  -0.70800 11.61200 21.89400
N  1.72700 9.68700 27.17800
C  1.84000 10.74700 26.29900
C  2.28900 11.90800 27.02900
C  2.38800 11.45600 28.37000
C  2.06300 10.11600 28.42300
C  2.46100 13.31800 26.51800
C  2.77800 12.02600 29.67000
O  3.09400 13.14600 30.05800
C  2.65000 10.73100 30.56800
C  3.94100 10.42400 31.30500
O  4.85600 9.75800 30.93500
O  3.97000 11.06900 32.53800
C  5.01600 11.04700 33.57600
H  0.20400 4.33900 29.59400
H  0.67800 5.40900 23.19600
H  1.78800 11.48200 24.34600
H  2.37600 7.82200 32.03300
H  0.31200 5.62000 31.41200
H  2.48200 4.78000 32.38500
H  3.39200 6.01100 31.39200
H  2.82300 4.73700 30.57900
H  -0.40300 7.65100 32.55900
H  -0.04200 9.33700 31.89700
H  -0.11300 8.80300 34.53000
H  1.06900 9.93100 33.68800
H  -1.50300 2.60600 27.89400
H  -0.09800 2.48000 28.81900
H  -0.26400 1.64700 27.19700
H  -1.45400 1.55400 25.51100
H  0.02500 0.96300 24.76100
H  -1.37800 1.17600 23.76800
H  -0.09600 7.70000 21.91500
H  1.58500 10.06800 22.29300
H  2.94100 8.29200 21.52000
H  1.89400 7.64000 20.32600
H  2.48600 6.59600 21.70600
H  -1.17000 10.25000 23.49500
H  -1.22000 9.48800 21.99200
H  -1.01900 12.33200 22.65100
H  -1.39400 11.70700 21.05200
H  0.21700 12.06400 21.53700
H  2.08500 13.35200 25.49600
H  3.52400 13.48500 26.69300
H  1.91100 14.11000 27.02700
H  1.96200 11.06900 31.34300
H  5.36600 12.06800 33.73200
H  5.76000 10.29600 33.31000
H  4.51500 10.74400 34.49500
Mg 24.84300 -6.28700 45.39500
C  27.07900 -3.92900 43.70000
C  22.36700 -5.13600 43.32100
C  23.09900 -8.97400 46.28000
C  27.78500 -7.70700 46.78800
N  24.76000 -4.75900 43.60200
C  25.80000 -3.88600 43.20800
C  25.34500 -3.05400 42.04000
C  23.74300 -3.26400 42.14100
C  23.57700 -4.45900 43.06600
C  23.05200 -1.99400 42.67800
C  25.95400 -3.58900 40.60400
C  26.48900 -2.58500 39.60300
H  26.02200 -2.76200 38.14200
N  22.98100 -6.88700 44.92700
C  22.10000 -6.29200 44.03900
C  20.79400 -6.92100 44.12200
C  20.93600 -7.97800 45.12100
C  22.41600 -7.98300 45.48000
C  19.61900 -6.45300 43.24000
C  19.82500 -8.80500 45.54100
O  18.65600 -8.72600 45.11900
C  20.12700 -9.88700 46.45000
N  25.24800 -7.98000 46.52300
C  24.38800 -8.97900 46.76900
C  25.03500 -10.27500 47.32500
C  26.38000 -9.68500 47.82000
C  26.49900 -8.39100 46.90700
C  24.23500 -11.11100 48.32700
C  27.56700 -10.68200 47.56100
C  28.82200 -10.49800 48.39400
N  26.92500 -5.91800 45.38300
C  27.97300 -6.54500 46.07000
C  29.19900 -5.92100 45.79600
C  28.84500 -4.81600 44.92600
C  27.44300 -4.88800 44.66500
C  30.56500 -6.32600 46.34300
C  29.41500 -3.60800 44.32300
O  30.51400 -3.12300 44.46100
C  28.30200 -3.09100 43.33200
C  28.17500 -1.61000 43.60300
O  27.55600 -1.11800 44.49400
O  28.82600 -0.93000 42.60800
C  28.85500 0.55900 42.67900
H  21.46000 -4.72800 42.87100
H  22.59800 -9.92600 46.46800
H  28.65700 -8.29700 47.07800
H  25.64700 -2.03900 42.29900
H  23.36000 -3.51200 41.15100
H  23.80000 -1.20500 42.60800
H  22.61900 -2.07500 43.67400
H  22.24000 -1.68600 42.01900
H  25.21300 -4.18600 40.07200
H  26.68000 -4.33300 40.93100
H  27.57800 -2.58400 39.64400
H  26.11800 -1.61200 39.92600
H  18.75100 -7.11200 43.23600
H  19.98800 -6.41700 42.21500
H  19.19600 -5.47200 43.46100
H  19.26400 -10.36400 46.91400
H  20.71900 -9.50700 47.28200
H  20.54300 -10.74800 45.92500
H  25.12600 -10.93200 46.46000
H  26.27000 -9.41300 48.87000
H  24.67900 -11.13600 49.32200
H  24.09800 -12.10200 47.89300
H  23.24100 -10.69200 48.47900
H  27.95500 -10.42900 46.57400
H  27.14600 -11.68700 47.61000
H  29.17600 -11.38900 48.91200
H  28.64000 -9.74100 49.15700
H  29.66200 -10.08400 47.83600
H  30.81400 -7.35700 46.09500
H  30.52600 -6.20300 47.42600
H  31.28500 -5.58000 46.00700
H  28.61400 -3.06000 42.28800
H  29.85800 0.87600 42.96300
H  28.16400 0.92700 43.43800
H  28.69000 1.06300 41.72700

