158

Mg 41.31900 40.72000 26.47000
C  40.80100 43.14100 29.14000
C  42.75800 38.79100 28.95600
C  42.15800 38.69400 24.15400
C  40.57500 43.35000 24.24200
N  41.69600 41.00600 28.79900
C  41.27100 41.97000 29.65600
C  41.42900 41.59300 31.13000
C  42.30900 40.28700 30.93900
C  42.30400 39.97600 29.43900
C  43.73300 40.47000 31.42800
C  40.09300 41.63000 31.89500
C  40.19500 40.90700 33.28000
H  39.51000 41.51600 34.51300
N  42.05600 38.92400 26.58700
C  42.66000 38.26300 27.71500
C  43.13200 36.94300 27.33800
C  42.97700 36.85900 25.91600
C  42.39200 38.18200 25.45500
C  43.69400 35.94100 28.29700
C  43.41700 35.74300 24.98900
O  43.30100 35.87000 23.75200
C  44.04200 34.47100 25.52400
N  41.52500 41.02500 24.48500
C  41.78800 39.96600 23.65500
C  41.41200 40.31600 22.16400
C  40.87000 41.80300 22.25100
C  41.00600 42.08000 23.74600
C  42.61100 40.18500 21.19200
C  39.37600 41.85400 21.84900
C  38.37400 41.17400 22.86500
N  40.72500 42.81100 26.54200
C  40.60200 43.74200 25.57700
C  40.28400 45.05900 26.13700
C  40.36600 44.87300 27.51100
C  40.61000 43.42800 27.73400
C  39.98400 46.30000 25.31200
C  40.21900 45.52400 28.78400
O  39.78800 46.62200 29.01400
C  40.58500 44.49500 29.83600
C  41.78000 44.93500 30.57100
O  42.90800 44.96700 30.05100
O  41.53500 45.30600 31.83900
C  42.73800 45.59700 32.65400
H  43.22800 38.14100 29.69800
H  42.11600 37.82600 23.49300
H  40.21000 44.10900 23.54600
H  42.01600 42.38500 31.59400
H  41.82800 39.46000 31.46100
H  44.45500 40.31400 30.62600
H  43.81100 39.68900 32.18400
H  43.82900 41.45700 31.88000
H  39.41800 41.03100 31.28500
H  39.75700 42.66600 31.95200
H  41.25600 40.76800 33.48800
H  39.86900 39.88200 33.10100
H  43.29300 34.95300 28.07100
H  43.28600 36.11400 29.29300
H  44.77600 35.99500 28.18000
H  44.81800 34.59400 26.28000
H  44.42400 33.83500 24.72500
H  43.17800 33.89400 25.85400
H  40.68800 39.56100 21.85800
H  41.56500 42.38800 21.64800
H  43.45000 39.93000 21.83900
H  42.97400 41.08100 20.68900
H  42.49300 39.40400 20.44100
H  39.31600 41.60100 20.79100
H  39.09400 42.90700 21.83400
H  37.71800 41.96100 23.23600
H  38.77800 40.76900 23.79200
H  37.72500 40.41200 22.43200
H  40.37700 47.20700 25.77000
H  38.90400 46.44400 25.27100
H  40.38000 46.10300 24.31500
H  39.73100 44.49100 30.51400
H  43.19500 46.46300 32.17400
H  43.42600 44.75400 32.59300
H  42.44600 45.81200 33.68200
Mg 0.50900 43.19700 26.85000
C  3.17900 43.48300 29.11900
C  -1.47100 42.60200 29.56100
C  -1.89700 42.59000 24.72400
C  2.76900 43.54800 24.28300
N  0.88700 42.87000 29.13300
C  2.00600 43.26100 29.80800
C  1.75500 43.27500 31.27600
C  0.36900 42.49900 31.41700
C  -0.14100 42.68500 29.98900
C  0.44000 41.07700 31.95900
C  1.69900 44.69200 31.68500
C  1.51200 45.02300 33.18300
H  1.37100 43.95100 34.20100
N  -1.46900 42.80800 27.09500
C  -2.15200 42.59000 28.28500
C  -3.48700 42.34000 28.05800
C  -3.66000 42.29900 26.66800
C  -2.32800 42.53300 26.06200
C  -4.51700 42.03300 29.12700
C  -4.88200 42.05900 25.85300
O  -4.87100 41.96900 24.64000
C  -6.27900 41.87500 26.46100
N  0.49300 42.97700 24.84600
C  -0.64300 42.73900 24.15300
C  -0.28800 42.51700 22.67800
C  1.09900 43.14300 22.50900
C  1.51400 43.20800 23.97700
C  -0.53700 40.95100 22.29100
C  1.15200 44.45900 21.63800
C  2.29100 44.40700 20.54900
N  2.51600 43.51200 26.63300
C  3.33700 43.65400 25.50500
C  4.71600 43.64300 25.81800
C  4.65700 43.65700 27.24800
C  3.32900 43.51100 27.63400
C  5.98400 43.79800 24.95600
C  5.50400 43.66800 28.44600
O  6.76800 43.64500 28.63900
C  4.49000 43.83500 29.68400
C  4.99300 43.01400 30.80000
O  5.14300 41.79300 30.76100
O  5.31300 43.83500 31.86500
C  5.85700 43.10000 33.06400
H  -2.22200 42.33900 30.30900
H  -2.70200 42.48400 23.99400
H  3.36600 43.76100 23.39300
H  2.50500 42.60900 31.70400
H  -0.20500 42.97100 32.21500
H  0.22700 41.13800 33.02600
H  1.42200 40.61800 31.84200
H  -0.27200 40.55700 31.31800
H  1.01300 45.28600 31.08100
H  2.63500 45.15900 31.38100
H  0.71700 45.76900 33.19400
H  2.52900 45.38400 33.34000
H  -5.04700 42.89300 29.53900
H  -4.00300 41.51100 29.93300
H  -5.27700 41.31500 28.82000
H  -7.03400 42.14500 25.72200
H  -6.47700 42.61400 27.23700
H  -6.36500 40.87900 26.89500
H  -0.93400 43.16700 22.08800
H  1.67700 42.32400 22.08000
H  -1.19900 40.52700 23.04700
H  0.32800 40.29000 22.33300
H  -0.99400 40.78600 21.31600
H  1.47400 45.18500 22.38500
H  0.20700 44.86100 21.27300
H  1.73200 44.25100 19.62600
H  3.04200 43.64500 20.75500
H  2.75100 45.39500 20.58800
H  6.52000 42.85000 24.89500
H  6.66100 44.53800 25.38300
H  5.61000 43.99800 23.95200
H  4.59800 44.87900 29.97800
H  4.94200 43.03700 33.65400
H  6.61200 43.62800 33.64600
H  6.19200 42.08600 32.84400

