158

Mg 9.11200 48.16600 26.47700
C  7.43100 48.52700 29.54200
C  11.91800 49.20000 28.02900
C  10.54400 48.15300 23.58400
C  6.02800 48.34000 24.89900
N  9.56300 48.78500 28.56300
C  8.77400 48.80700 29.64200
C  9.59600 49.00700 30.94300
C  10.88900 49.62700 30.34100
C  10.83800 49.13000 28.87600
C  11.00700 51.19600 30.28800
C  9.80400 47.69200 31.65600
C  9.39400 47.72200 33.09700
H  9.37300 46.38200 33.94400
N  11.04400 48.37800 25.92200
C  12.06700 48.75600 26.70200
C  13.26600 48.85600 25.92000
C  12.88700 48.54600 24.57400
C  11.45500 48.30900 24.66700
C  14.65300 49.14200 26.64400
C  13.69700 48.34700 23.27600
O  13.17400 48.00200 22.23600
C  15.25200 48.39600 23.49600
N  8.38700 48.26500 24.37200
C  9.16200 48.25300 23.38200
C  8.38100 48.10400 22.04000
C  6.93500 48.40700 22.47900
C  7.11100 48.28900 23.99900
C  8.77900 49.00600 20.87800
C  5.72200 47.61500 21.82000
C  5.31700 48.13800 20.40600
N  7.07800 48.36400 27.04900
C  5.94600 48.34300 26.25200
C  4.79500 48.25200 27.10500
C  5.31400 48.28300 28.41100
C  6.72900 48.34100 28.31900
C  3.33900 48.04700 26.74100
C  5.05900 48.21100 29.83000
O  4.03300 48.01100 30.45900
C  6.41000 48.31500 30.64200
C  6.57500 47.00500 31.32200
O  6.99200 45.94100 30.90300
O  6.05800 47.14100 32.58900
C  5.95600 45.83300 33.23300
H  12.76000 49.65700 28.55300
H  10.98400 48.04200 22.59100
H  5.05200 48.33100 24.40900
H  9.03500 49.75500 31.50500
H  11.84000 49.35400 30.79700
H  10.25800 51.62900 30.95200
H  10.87500 51.56100 29.27000
H  11.98300 51.48300 30.67800
H  10.86100 47.48000 31.49500
H  9.33500 46.86400 31.12600
H  8.35900 48.06400 33.13100
H  10.00400 48.42300 33.66700
H  14.51600 49.32900 27.70900
H  15.20200 49.92500 26.12000
H  15.29500 48.27500 26.49100
H  15.81300 47.51500 23.80700
H  15.44700 49.17600 24.23300
H  15.70500 48.89300 22.63800
H  8.51100 47.03800 21.85400
H  6.91100 49.49100 22.37600
H  9.76500 49.40500 21.11400
H  8.05000 49.74300 20.54100
H  8.88000 48.31700 20.04100
H  4.78100 47.48400 22.35500
H  6.18500 46.65800 21.57700
H  5.71800 47.53300 19.59300
H  5.62700 49.16800 20.23100
H  4.23400 48.06000 20.30700
H  3.04500 48.64900 25.88200
H  2.76000 48.35700 27.61000
H  3.28500 47.01200 26.40200
H  6.33300 49.12500 31.36700
H  4.98200 45.40800 32.98700
H  6.00300 45.84700 34.32200
H  6.72300 45.08400 33.03600
Mg -0.30100 43.88900 26.13100
C  1.81800 43.77100 28.81000
C  -2.91400 43.14000 28.41700
C  -2.41600 43.23600 23.61400
C  2.44900 44.42400 23.93200
N  -0.40500 43.27700 28.40600
C  0.51900 43.55200 29.27000
C  0.03400 43.50000 30.71600
C  -1.46100 43.15400 30.55200
C  -1.60800 43.17300 29.04800
C  -1.86300 41.85000 31.14900
C  0.31200 44.84400 31.47200
C  0.77900 44.77300 32.96700
H  0.51200 43.55600 33.82200
N  -2.37000 43.30900 26.02300
C  -3.28000 43.08700 27.06000
C  -4.51600 42.68500 26.50700
C  -4.35700 42.56300 25.10900
C  -3.01800 43.04200 24.83200
C  -5.73500 42.34500 27.38200
C  -5.33000 41.93600 24.14000
O  -5.07900 41.98900 22.94800
C  -6.64100 41.38700 24.48500
N  -0.01200 43.93500 24.10100
C  -1.07000 43.63700 23.27200
C  -0.54000 43.57600 21.86300
C  0.94300 44.05700 21.95100
C  1.15000 44.10900 23.41900
C  -0.69700 42.13600 21.16200
C  1.21800 45.38000 21.14100
C  1.10600 46.79900 21.77900
N  1.75600 44.18400 26.24300
C  2.70100 44.45600 25.32400
C  3.98100 44.54700 25.97300
C  3.67800 44.21000 27.35200
C  2.33000 44.02600 27.45900
C  5.34300 44.79600 25.25600
C  4.27300 43.92000 28.64200
O  5.41700 43.80800 29.08000
C  3.03300 43.80900 29.63900
C  3.18500 42.63400 30.44700
O  3.18400 41.53900 29.95000
O  3.52400 42.87400 31.78300
C  4.13700 41.78400 32.54600
H  -3.77400 42.90900 29.04900
H  -3.04000 42.96800 22.75900
H  3.25300 44.56400 23.20700
H  0.53500 42.63600 31.15400
H  -2.06200 43.95600 30.98200
H  -0.93800 41.47100 31.58200
H  -2.38100 41.22600 30.42100
H  -2.55200 41.92100 31.99100
H  -0.59300 45.45100 31.47100
H  1.06800 45.35900 30.87900
H  0.10300 45.50400 33.41100
H  1.81900 45.09100 33.03800
H  -6.67300 42.35000 26.82600
H  -5.88900 42.77800 28.37100
H  -5.45500 41.33200 27.67200
H  -6.62600 40.55000 25.18300
H  -6.97700 40.95800 23.54100
H  -7.52800 41.96800 24.73600
H  -1.08200 44.27900 21.23000
H  1.54300 43.21500 21.60500
H  0.25100 41.64600 20.94200
H  -1.31700 42.24600 20.27200
H  -1.32200 41.50800 21.79700
H  0.44400 45.29100 20.37800
H  2.17900 45.41300 20.62700
H  0.25600 47.30200 21.31700
H  1.98800 47.35000 21.45100
H  0.91500 46.85800 22.85100
H  5.38600 44.60900 24.18300
H  6.05500 44.17700 25.80300
H  5.61000 45.84400 25.39000
H  3.06800 44.78200 30.12800
H  4.45600 42.28200 33.46100
H  5.05600 41.41800 32.08600
H  3.40000 41.00800 32.75000

