158

Mg 26.51100 0.43000 29.71700
C  28.17200 0.16300 32.77900
C  23.63500 1.07800 31.49900
C  24.66700 0.40900 26.73700
C  29.19600 -0.99600 28.00400
N  25.99400 0.62600 31.90700
C  26.86900 0.58900 32.98500
C  26.21100 0.94100 34.27500
C  24.76600 1.35200 33.81200
C  24.78800 0.98900 32.31400
C  23.64300 0.42500 34.47800
C  26.94700 2.04800 35.10700
C  27.45700 1.80000 36.50000
H  27.21500 2.90300 37.48700
N  24.46500 0.78500 29.15400
C  23.47600 0.96700 30.06500
C  22.22800 1.16600 29.38200
C  22.53800 1.09700 28.01200
C  23.96100 0.75100 27.94100
C  20.92900 1.50700 29.98100
C  21.62300 1.29600 26.76500
O  22.00100 1.01900 25.64600
C  20.31000 1.85900 26.91000
N  26.85600 -0.21600 27.65900
C  25.99400 -0.06500 26.64800
C  26.59600 -0.27400 25.22300
C  28.06000 -0.79900 25.70200
C  28.06100 -0.70400 27.17700
C  25.87100 -1.23500 24.25400
C  29.30300 -0.10800 25.11400
C  29.28900 1.37000 25.06100
N  28.37200 -0.30900 30.26100
C  29.33800 -0.80600 29.44300
C  30.44700 -1.14500 30.26600
C  30.09000 -0.67800 31.55800
C  28.74500 -0.20000 31.52000
C  31.65000 -1.79400 29.71900
C  30.53300 -0.50900 32.92700
O  31.59300 -0.89800 33.35300
C  29.32700 0.04600 33.81200
C  29.09300 -0.95600 34.88400
O  28.37600 -1.93500 34.85300
O  29.84700 -0.61700 35.94800
C  29.94100 -1.68500 36.94000
H  22.78100 1.49200 32.03800
H  24.35000 0.42100 25.69200
H  30.03900 -1.43400 27.46500
H  26.38400 0.02000 34.83100
H  24.39400 2.36800 33.94200
H  24.09200 -0.11200 35.31400
H  23.22000 -0.33100 33.81800
H  22.81100 1.05500 34.79200
H  26.23700 2.87500 35.08200
H  27.81800 2.44800 34.58800
H  28.54400 1.75600 36.42000
H  26.85500 0.95600 36.83600
H  20.88700 1.30000 31.05000
H  20.12100 0.94800 29.50900
H  20.72200 2.55500 29.76300
H  20.03400 2.34600 25.97500
H  20.30100 2.60300 27.70700
H  19.69600 1.00700 27.20400
H  26.67800 0.71800 24.78000
H  28.18600 -1.85600 25.46500
H  24.91100 -1.47600 24.71100
H  26.44300 -2.15100 24.11000
H  25.61700 -0.82600 23.27600
H  29.25500 -0.42000 24.07100
H  30.15400 -0.59000 25.59500
H  28.60200 1.82600 25.77400
H  29.40600 1.73200 24.03900
H  30.28800 1.51100 25.47200
H  32.08500 -2.46800 30.45700
H  32.43600 -1.07500 29.48600
H  31.42100 -2.24400 28.75300
H  29.58400 0.96400 34.34100
H  29.33100 -1.53500 37.83100
H  30.93300 -1.63700 37.38800
H  29.78100 -2.67900 36.52100
Mg 6.08500 54.20800 42.48800
C  5.41300 50.91000 41.93300
C  9.24000 53.79300 40.99400
C  6.41300 57.69800 42.06600
C  2.91300 54.65900 43.73400
N  7.16000 52.56000 41.59500
C  6.63000 51.32400 41.49000
C  7.65300 50.41100 40.87600
C  9.00100 51.19700 41.08400
C  8.49200 52.61700 41.24200
C  9.83000 50.74400 42.28300
C  7.45600 50.10600 39.33700
C  7.05900 51.29600 38.48300
H  5.95200 50.96700 37.45800
N  7.63400 55.53900 41.71200
C  8.84400 55.12700 41.18000
C  9.64800 56.26700 40.94800
C  8.86200 57.44200 41.18800
C  7.52500 56.89700 41.62600
C  11.03600 56.23700 40.60300
C  9.42500 58.85400 41.02900
O  10.54900 59.03300 40.62700
C  8.63300 60.04600 41.41300
N  4.81700 55.91100 42.73700
C  5.20000 57.24400 42.54600
C  4.09000 58.16300 42.97000
C  2.95700 57.16000 43.41500
C  3.60300 55.81100 43.33700
C  4.47000 59.34400 43.93900
C  1.61000 57.38800 42.67400
C  0.75300 58.51700 43.26000
N  4.44600 52.97900 42.85900
C  3.27400 53.34900 43.57400
C  2.60500 52.09200 43.89000
C  3.41500 51.05600 43.33600
C  4.43900 51.71100 42.53500
C  1.41300 51.88300 44.72100
C  3.54600 49.57000 43.14800
O  2.88000 48.66200 43.58800
C  4.79300 49.46100 42.16400
C  4.17600 48.85300 40.86100
O  3.21900 49.27600 40.28300
O  4.80800 47.70500 40.52800
C  4.33500 46.91800 39.41600
H  10.20000 53.50100 40.56400
H  6.57000 58.77800 42.04400
H  1.97500 54.70700 44.29100
H  7.57700 49.46700 41.41500
H  9.60700 51.17900 40.17700
H  10.72500 50.21900 41.94900
H  9.32800 50.03900 42.94400
H  10.06300 51.62400 42.88300
H  6.81000 49.23200 39.24800
H  8.37900 49.75500 38.87500
H  7.99600 51.60800 38.02100
H  6.68600 52.17900 39.00300
H  11.13800 56.44900 39.53900
H  11.43100 55.22900 40.73000
H  11.68500 56.84500 41.23300
H  7.72600 60.02500 40.80900
H  9.06500 60.99300 41.08900
H  8.27200 60.16200 42.43500
H  3.79400 58.67600 42.05500
H  2.72700 57.42100 44.44800
H  5.52200 59.25800 44.21400
H  3.79700 59.37500 44.79600
H  4.37300 60.33400 43.49300
H  0.92800 56.54400 42.77500
H  1.88600 57.59500 41.64000
H  0.60900 59.34800 42.56900
H  1.02600 58.79900 44.27700
H  -0.25900 58.11700 43.33000
H  1.42700 50.84800 45.06400
H  0.58900 52.14300 44.05600
H  1.33500 52.66600 45.47500
H  5.50200 48.74500 42.57900
H  3.25500 47.04800 39.34000
H  4.46900 45.84700 39.56700
H  4.81000 47.26800 38.49900

