158

Mg 29.43200 58.69200 41.73700
C  26.35300 57.18700 40.32000
C  31.00200 55.87800 40.16400
C  32.16900 60.31700 41.78600
C  27.41900 61.53800 42.19600
N  28.76900 56.80000 40.40800
C  27.53500 56.51900 39.97000
C  27.49400 55.20500 39.11600
C  28.83400 54.52500 39.60200
C  29.59300 55.84800 40.01600
C  28.77400 53.56000 40.80700
C  27.38700 55.43400 37.57300
C  26.45300 54.53300 36.74200
H  25.53600 55.24000 35.67000
N  31.42400 58.09300 41.22100
C  31.86200 56.92000 40.63700
C  33.28300 57.01800 40.59100
C  33.70200 58.34700 41.08900
C  32.41100 58.93300 41.38500
C  34.20300 55.97200 40.11300
C  35.03100 58.94400 41.19400
O  35.98600 58.26400 40.84100
C  35.36700 60.22300 41.72000
N  29.76300 60.59600 41.95800
C  30.99800 61.01700 42.10900
C  31.02800 62.51100 42.49300
C  29.56300 62.96600 42.48300
C  28.85400 61.61500 42.25200
C  31.86000 62.84800 43.78300
C  29.18400 63.96200 41.34300
C  28.33900 65.21600 41.76900
N  27.21900 59.25000 41.57700
C  26.58100 60.41200 41.86900
C  25.18200 60.25500 41.63300
C  25.00400 59.01100 41.06500
C  26.31400 58.38700 41.03400
C  24.08400 61.28500 41.86800
C  24.07200 58.12300 40.33300
O  22.89000 58.15700 40.06200
C  24.90000 56.93600 39.99800
C  24.49400 55.71800 40.77600
O  24.84500 55.42900 41.91000
O  23.54400 55.08500 40.00600
C  23.16500 53.73200 40.32800
H  31.64600 55.07700 39.79500
H  33.06000 60.89800 42.03200
H  26.79000 62.41800 42.34200
H  26.69000 54.53700 39.42400
H  29.36500 54.05500 38.77400
H  27.75300 53.21600 40.97100
H  29.14300 54.16600 41.63400
H  29.56300 52.84500 40.57400
H  28.35500 55.35600 37.07900
H  27.09100 56.47300 37.43000
H  25.75300 53.98100 37.36900
H  27.05500 53.76400 36.25800
H  34.03400 55.04500 40.66000
H  35.27700 56.15300 40.14400
H  33.89800 55.70500 39.10100
H  35.10600 60.99300 40.99400
H  36.45600 60.21500 41.77900
H  34.96600 60.43200 42.71100
H  31.43500 62.99400 41.60400
H  29.35100 63.43400 43.44400
H  32.46800 62.02000 44.14600
H  31.24100 63.21900 44.60000
H  32.60600 63.63300 43.65800
H  28.62200 63.46400 40.55300
H  30.02300 64.36500 40.77500
H  28.88200 66.12000 41.49200
H  28.19700 65.23000 42.85000
H  27.35600 65.23400 41.29700
H  23.98500 61.59700 42.90700
H  23.13500 60.85400 41.55100
H  24.28300 62.23500 41.37100
H  24.70900 56.79800 38.93400
H  23.09600 53.16100 39.40200
H  22.16300 53.77300 40.75600
H  23.91900 53.25500 40.95400
Mg -9.27100 18.55400 42.94200
C  -5.82200 18.08000 43.14200
C  -8.75900 21.83500 42.28700
C  -12.56200 18.83500 42.29100
C  -9.71400 14.99800 43.00200
N  -7.44200 19.68300 42.43900
C  -6.15700 19.36700 42.77200
C  -5.18500 20.63200 42.51700
C  -6.24200 21.80700 42.49400
C  -7.57500 21.04600 42.35700
C  -6.20200 22.68700 43.82100
C  -4.25500 20.71400 41.19100
C  -4.72500 20.08100 39.79200
H  -4.74100 21.04000 38.61200
N  -10.52200 20.16300 42.39900
C  -10.09500 21.44800 42.23100
C  -11.18900 22.26000 41.94700
C  -12.34400 21.35600 41.81600
C  -11.85000 20.03100 42.19100
C  -11.13900 23.68700 41.68600
C  -13.73900 21.75200 41.40700
O  -14.06800 22.91400 41.26500
C  -14.88400 20.84100 41.33300
N  -10.98400 17.08800 42.64100
C  -12.23400 17.47000 42.48300
C  -13.22600 16.22000 42.65300
C  -12.25500 14.99600 42.83100
C  -10.94200 15.72300 42.86000
C  -14.40300 16.27100 43.68300
C  -12.35400 13.87900 41.75700
C  -13.38000 12.75500 42.06200
N  -8.03900 16.88300 43.02300
C  -8.34900 15.52500 43.15900
C  -7.10200 14.80100 43.40200
C  -6.06000 15.77900 43.41200
C  -6.68600 17.00900 43.12900
C  -6.94500 13.28300 43.50500
C  -4.59900 15.97300 43.47300
O  -3.68500 15.15200 43.56900
C  -4.37500 17.50400 43.32300
C  -3.75800 17.97900 44.62700
O  -2.78300 18.68200 44.69000
O  -4.48000 17.54100 45.66700
C  -3.89300 17.92600 46.94800
H  -8.60400 22.91500 42.34200
H  -13.64900 18.91900 42.23400
H  -9.73100 13.90700 43.05300
H  -4.52300 20.61500 43.38200
H  -6.11500 22.37000 41.56900
H  -7.07700 22.53800 44.45400
H  -6.28400 23.74700 43.58200
H  -5.31700 22.47000 44.41900
H  -3.24400 20.40800 41.45800
H  -4.22000 21.79200 41.03200
H  -5.76500 19.77400 39.90600
H  -4.08500 19.24100 39.52400
H  -11.05000 23.88700 40.61800
H  -10.27300 24.13400 42.17500
H  -11.97800 24.31200 41.99000
H  -15.10800 20.48900 42.34000
H  -14.57300 19.94900 40.78800
H  -15.75000 21.27200 40.83100
H  -13.73700 16.12800 41.69500
H  -12.38700 14.57000 43.82600
H  -14.33900 17.22900 44.19900
H  -14.47100 15.47400 44.42400
H  -15.33700 16.23000 43.12300
H  -11.41200 13.40000 41.48800
H  -12.68100 14.38300 40.84800
H  -13.68200 12.71800 43.10900
H  -12.87300 11.81900 41.82900
H  -14.20200 12.93800 41.37000
H  -6.03200 13.02000 44.04000
H  -6.80300 12.81900 42.52900
H  -7.83700 12.84900 43.95700
H  -3.64700 17.51500 42.51200
H  -4.63800 17.89200 47.74300
H  -3.50600 18.94500 46.96000
H  -3.14900 17.16200 47.17400

