158

Mg 16.62900 -1.78100 27.35700
C  15.76600 0.24200 30.00200
C  18.73000 -3.67600 29.47600
C  18.03900 -3.40400 24.65100
C  14.85600 0.26900 25.21600
N  17.17700 -1.61400 29.52700
C  16.67700 -0.73200 30.45300
C  17.12300 -1.21200 31.86400
C  18.26600 -2.27100 31.56000
C  18.06300 -2.57100 30.10800
C  19.69100 -1.84400 31.96600
C  15.92200 -1.65800 32.77600
C  15.97000 -1.26600 34.26600
H  17.01200 -0.30300 34.75500
N  18.00800 -3.40600 27.14100
C  18.75000 -3.99700 28.07300
C  19.44000 -5.14600 27.50300
C  19.13900 -5.22500 26.16000
C  18.34700 -3.93500 25.88000
C  20.20800 -6.14200 28.36800
C  19.56500 -6.14300 25.11300
O  19.41200 -5.92200 23.89900
C  20.17600 -7.48600 25.54500
N  16.39600 -1.64400 25.22500
C  17.16000 -2.38100 24.35800
C  16.93300 -1.93500 22.86300
C  15.93800 -0.73000 23.08600
C  15.69800 -0.69300 24.59400
C  18.25700 -1.50200 22.12600
C  14.51000 -0.88700 22.40900
C  13.92000 0.30100 21.57900
N  15.42000 -0.03100 27.49700
C  14.78400 0.68000 26.54600
C  13.91200 1.68800 27.23200
C  14.37600 1.59500 28.58300
C  15.29900 0.60700 28.67500
C  13.09100 2.71500 26.62200
C  14.11900 2.08900 29.86000
O  13.37100 2.93900 30.24600
C  15.06600 1.32300 30.88100
C  15.85800 2.24500 31.71700
O  17.05500 2.42500 31.66600
O  15.06100 2.87800 32.70100
C  15.71100 3.72200 33.67300
H  19.19400 -4.22600 30.29800
H  18.46700 -3.90200 23.77800
H  14.29900 0.90600 24.52600
H  17.60600 -0.31000 32.23900
H  18.03100 -3.22200 32.03900
H  20.11500 -2.84800 32.00400
H  19.89600 -1.37000 32.92600
H  20.16300 -1.17200 31.25000
H  15.89300 -2.74700 32.74500
H  14.97300 -1.37100 32.32400
H  16.12100 -2.18400 34.83500
H  14.95800 -0.89400 34.42900
H  21.01700 -6.51400 27.74000
H  19.60000 -7.00700 28.63300
H  20.63300 -5.68100 29.25900
H  20.19400 -8.21600 24.73600
H  19.63700 -7.86900 26.41200
H  21.23600 -7.28300 25.69400
H  16.45600 -2.78400 22.37300
H  16.31300 0.23600 22.74800
H  17.97400 -0.97600 21.21400
H  19.03100 -2.22500 21.87100
H  18.74800 -0.70000 22.67800
H  13.76000 -1.21100 23.13100
H  14.58400 -1.66700 21.65100
H  12.84500 0.36700 21.75000
H  14.03800 -0.06900 20.56100
H  14.42900 1.22500 21.85500
H  12.44800 2.31000 25.84100
H  13.79000 3.44900 26.22100
H  12.45100 3.08200 27.42400
H  14.48200 0.77900 31.62400
H  15.09500 4.54600 34.03400
H  16.48500 4.27200 33.13700
H  16.19500 3.19500 34.49600
Mg 49.31600 47.27000 42.98100
C  45.97900 47.59500 42.24000
C  49.21200 44.25400 41.04200
C  52.60900 46.85100 43.36600
C  49.43300 50.61600 44.06300
N  47.71200 46.01200 41.71000
C  46.41700 46.41300 41.58800
C  45.60300 45.45500 40.57300
C  46.74300 44.42500 40.25600
C  47.96400 44.88000 41.07800
C  46.45400 42.89300 40.22700
C  44.89400 46.16200 39.35100
C  43.38500 45.90100 39.29900
H  42.80300 45.76400 37.92500
N  50.69600 45.75000 42.31400
C  50.44100 44.59800 41.66500
C  51.61300 43.78500 41.65400
C  52.66800 44.46700 42.29000
C  52.01700 45.76100 42.67900
C  51.59600 42.37600 41.14200
C  54.10300 43.96000 42.55500
O  54.43200 42.86200 42.15000
C  55.19100 44.78800 43.34900
N  50.85500 48.63700 43.42700
C  52.12500 48.18900 43.69300
C  53.00600 49.31400 44.22900
C  51.98900 50.40900 44.56100
C  50.66100 49.87400 44.03900
C  54.01100 48.93600 45.39300
C  52.42200 51.82400 43.97900
C  52.07800 52.17800 42.58200
N  48.01700 48.84500 43.25900
C  48.16300 50.18400 43.72400
C  46.90600 50.86200 43.76700
C  45.99000 49.89600 43.15600
C  46.72000 48.62700 42.96400
C  46.72400 52.25200 44.29500
C  44.61300 49.70200 42.84200
O  43.58200 50.28600 43.00000
C  44.52700 48.25100 42.25300
C  43.51700 47.41600 43.02000
O  43.75100 46.72200 44.05000
O  42.31600 47.32600 42.33500
C  41.55300 46.10000 42.71800
H  49.32300 43.41900 40.34700
H  53.65100 46.80100 43.68800
H  49.40900 51.63700 44.45100
H  44.86600 44.96000 41.20600
H  47.07400 44.70500 39.25600
H  46.39100 42.40200 39.25600
H  45.65200 42.83100 40.96200
H  47.36700 42.44200 40.61400
H  45.45400 46.08300 38.41900
H  44.99100 47.22700 39.56000
H  43.02200 46.76500 39.85700
H  43.04700 44.99000 39.79300
H  51.74200 42.48200 40.06700
H  50.67900 41.81300 41.31600
H  52.40000 41.76200 41.54800
H  55.42800 45.77000 42.93900
H  56.18300 44.35500 43.47800
H  54.76400 44.89100 44.34600
H  53.59900 49.52100 43.33800
H  51.89400 50.50500 45.64200
H  54.63500 49.81900 45.25500
H  54.62600 48.05900 45.19100
H  53.50100 49.00100 46.35400
H  53.49700 51.91400 44.13700
H  51.89800 52.54200 44.61000
H  51.57300 51.32900 42.12000
H  53.00700 52.32500 42.03200
H  51.51400 53.10600 42.48700
H  45.66100 52.48500 44.36200
H  47.13800 52.92800 43.54800
H  47.13000 52.39500 45.29700
H  43.98300 48.24800 41.30800
H  40.86400 45.75400 41.94700
H  40.94400 46.34600 43.58700
H  42.07700 45.21100 43.06800

