158

Mg 53.58400 25.51300 44.03800
C  50.74800 27.46500 43.93800
C  51.72200 22.87000 42.80200
C  56.42700 23.76100 43.84000
C  55.44800 28.42000 45.08300
N  51.56300 25.25700 43.43600
C  50.59800 26.21800 43.35100
C  49.23200 25.72100 42.78500
C  49.43600 24.19800 42.94600
C  51.02000 24.05000 43.14200
C  48.51500 23.44700 43.99700
C  48.97200 26.22700 41.26200
C  50.15600 26.29600 40.30000
H  50.10100 25.51500 38.93600
N  53.99500 23.58400 43.40500
C  53.13700 22.67400 42.86900
C  53.84400 21.49600 42.47900
C  55.21700 21.74900 42.86600
C  55.29900 23.07700 43.37000
C  53.16400 20.31300 41.96700
C  56.16000 20.62600 42.81700
O  55.81400 19.47500 42.52500
C  57.52600 20.74900 43.48800
N  55.70600 26.09900 44.13700
C  56.65600 25.12500 44.24300
C  57.97100 25.67000 44.87000
C  57.68000 27.20300 45.08200
C  56.20100 27.25200 44.73500
C  58.35800 25.00200 46.25000
C  58.45100 28.15300 44.15700
C  58.33100 27.89800 42.61200
N  53.18800 27.48400 44.50500
C  54.00800 28.56400 45.00000
C  53.20400 29.62300 45.42800
C  51.95900 29.28400 44.92200
C  51.95000 27.98300 44.42000
C  53.59700 30.90100 46.17900
C  50.58800 29.78400 44.82300
O  50.07300 30.81800 45.18900
C  49.77300 28.66200 44.08500
C  49.50700 29.12800 42.69200
O  50.33400 29.32500 41.79800
O  48.21700 29.39900 42.56400
C  47.67800 29.95300 41.36000
H  51.14700 22.02000 42.42800
H  57.34100 23.18200 43.98800
H  55.98800 29.26200 45.52200
H  48.35400 26.06800 43.33000
H  49.17800 23.70300 42.01000
H  49.03300 22.76000 44.66600
H  47.79100 22.89600 43.39700
H  48.01600 24.26000 44.52400
H  48.51900 27.21900 41.27900
H  48.19700 25.64100 40.76900
H  51.04100 25.84700 40.75100
H  50.46700 27.30800 40.03900
H  53.61700 19.89900 41.06700
H  52.10400 20.47400 41.77600
H  53.25700 19.49500 42.68100
H  57.91100 19.73500 43.38400
H  57.55800 21.02800 44.54100
H  58.10300 21.42900 42.86100
H  58.82500 25.62300 44.19400
H  57.68300 27.56300 46.11000
H  59.01900 24.16600 46.02300
H  57.44500 24.56300 46.65400
H  58.81200 25.65000 46.99900
H  59.49800 28.04800 44.44300
H  58.00300 29.14100 44.26900
H  59.28400 27.58700 42.18300
H  58.05500 28.84800 42.15400
H  57.59700 27.17200 42.26100
H  54.46500 30.86100 46.83600
H  52.79300 31.34400 46.76800
H  53.90500 31.66800 45.46800
H  48.80800 28.40700 44.52500
H  46.59800 30.05900 41.46900
H  47.85200 29.44500 40.41100
H  47.99900 30.99100 41.27900
Mg 6.10700 53.21800 40.46000
C  5.94000 49.61100 40.33600
C  9.47700 52.95900 39.63300
C  6.08700 56.56000 39.56200
C  2.65800 53.30000 40.65600
N  7.50000 51.44800 40.04400
C  7.26000 50.07400 40.06800
C  8.51900 49.28700 39.87600
C  9.58900 50.45500 39.97200
C  8.80700 51.72100 39.82000
C  10.51600 50.42200 41.30100
C  8.63900 48.39300 38.62000
C  8.75200 49.16700 37.29500
H  7.64200 48.84900 36.35600
N  7.61400 54.56900 39.93700
C  8.96300 54.27700 39.68700
C  9.63300 55.51600 39.18300
C  8.75400 56.54500 39.35800
C  7.38800 55.95300 39.72400
C  11.09000 55.57300 38.78400
C  9.09300 58.07800 39.27100
O  10.22300 58.49400 38.90800
C  8.03000 59.05200 39.61200
N  4.49400 54.72200 39.92900
C  4.81800 56.04000 39.74900
C  3.57700 56.86300 39.90300
C  2.45000 55.78500 40.11700
C  3.23400 54.52600 40.35700
C  3.71400 57.86500 41.06100
C  1.40900 55.68500 38.94900
C  -0.05800 56.10100 39.28800
N  4.60700 51.76700 40.53500
C  3.26900 52.00200 40.67400
C  2.58600 50.74000 40.80000
C  3.56900 49.75500 40.70600
C  4.78400 50.42600 40.41700
C  1.21100 50.49600 41.24700
C  3.88700 48.41300 40.85500
O  3.21600 47.43800 41.14600
C  5.41800 48.19800 40.49100
C  5.42800 47.28400 39.30500
O  5.13200 47.65000 38.22500
O  5.78600 46.00300 39.57600
C  5.76300 45.17300 38.36200
H  10.53300 52.88400 39.36400
H  6.15200 57.57500 39.16400
H  1.58800 53.41100 40.84100
H  8.52000 48.73800 40.81700
H  10.26600 50.28000 39.13600
H  11.55900 50.41200 40.98200
H  10.21500 49.54400 41.87200
H  10.22600 51.27400 41.91600
H  7.75100 47.76600 38.69000
H  9.50300 47.73000 38.57000
H  9.70300 48.92700 36.81900
H  8.99700 50.22600 37.37000
H  11.21800 56.47500 38.18500
H  11.50200 54.77600 38.16500
H  11.70900 55.69400 39.67300
H  8.39200 60.05300 39.84600
H  7.56000 58.64100 40.50500
H  7.35700 59.08500 38.75500
H  3.40300 57.43700 38.99300
H  1.79700 55.87000 40.98600
H  4.07800 58.78900 40.61100
H  4.46000 57.39500 41.70200
H  2.76700 57.88800 41.60000
H  1.49500 54.68100 38.53100
H  1.83300 56.26300 38.12800
H  -0.74100 55.57000 38.62400
H  -0.13700 57.18200 39.39900
H  -0.12100 55.55100 40.22700
H  0.83600 51.42900 41.66800
H  1.23900 49.63700 41.91800
H  0.57400 50.26400 40.39400
H  5.73800 47.73500 41.42400
H  4.88900 45.36400 37.73800
H  5.78600 44.10500 38.57900
H  6.66400 45.36200 37.77900

