158

Mg 24.64400 -4.89700 45.68500
C  26.70100 -2.34400 44.62600
C  22.05900 -3.70900 43.92100
C  23.10700 -7.95700 46.11500
C  27.46600 -6.24200 47.53300
N  24.44700 -3.29500 44.22000
C  25.38200 -2.28400 44.13700
C  24.89800 -1.36600 43.00300
C  23.32200 -1.58500 43.08000
C  23.25200 -2.94900 43.73700
C  22.51200 -0.59000 43.94100
C  25.66000 -1.79500 41.71400
C  26.25000 -0.75300 40.73900
H  25.95800 -0.80700 39.23000
N  22.76400 -5.64600 45.21600
C  21.86000 -4.99500 44.48600
C  20.67900 -5.81500 44.32800
C  20.99700 -7.06400 44.92800
C  22.35100 -6.94700 45.47900
C  19.42500 -5.46000 43.58100
C  20.07200 -8.27800 45.00600
O  18.86300 -8.22300 44.61800
C  20.51900 -9.67600 45.47600
N  25.32700 -6.92400 46.39300
C  24.37300 -7.91900 46.62200
C  25.01500 -9.07400 47.49400
C  26.29400 -8.43300 48.00900
C  26.43900 -7.15700 47.26100
C  23.94500 -9.55100 48.52300
C  27.59100 -9.27300 47.74600
C  28.63400 -9.29800 48.89100
N  26.77300 -4.47800 45.97700
C  27.73200 -5.05900 46.85000
C  28.90100 -4.18500 46.85600
C  28.56400 -3.10200 45.94000
C  27.25500 -3.35800 45.40900
C  30.14700 -4.32400 47.60200
C  29.04300 -1.98200 45.33000
O  30.09800 -1.40000 45.45500
C  27.83400 -1.40500 44.35800
C  27.56000 0.01900 44.59100
O  26.93000 0.47400 45.52300
O  28.19600 0.74100 43.64900
C  27.99800 2.18000 43.83000
H  21.19100 -3.34500 43.36700
H  22.67700 -8.92500 46.38000
H  28.30500 -6.57800 48.14600
H  25.16400 -0.32500 43.18400
H  22.80900 -1.62900 42.11900
H  21.82100 -0.02000 43.32100
H  23.16000 0.08400 44.50200
H  21.92000 -1.08100 44.71300
H  24.83900 -2.13300 41.08100
H  26.37300 -2.59000 41.93200
H  27.33600 -0.84700 40.72600
H  25.93700 0.25100 41.02600
H  19.05900 -6.15500 42.82500
H  19.59600 -4.50900 43.07700
H  18.51000 -5.25000 44.13500
H  20.76800 -9.72800 46.53600
H  21.43500 -10.00000 44.98300
H  19.71800 -10.40000 45.32400
H  25.19100 -9.97000 46.89900
H  26.17100 -8.10200 49.04100
H  24.36300 -9.58200 49.53000
H  23.47300 -10.51700 48.34800
H  23.17700 -8.78000 48.57400
H  28.07700 -8.88900 46.84900
H  27.13400 -10.25400 47.62000
H  28.47900 -10.26000 49.37900
H  28.38700 -8.56200 49.65800
H  29.64200 -9.13000 48.51400
H  30.27400 -3.51600 48.32200
H  31.01100 -4.36900 46.93900
H  30.15400 -5.23600 48.19800
H  28.11300 -1.50600 43.30900
H  28.68500 2.93500 43.44600
H  28.04700 2.38800 44.89900
H  26.99600 2.47900 43.52500
Mg 48.07600 25.50000 28.69400
C  48.63400 27.82900 31.18900
C  47.12900 23.20600 31.03300
C  47.27600 23.31300 26.15700
C  49.60600 27.57400 26.42500
N  47.86000 25.54200 30.86000
C  48.12500 26.58900 31.68600
C  47.72100 26.32500 33.11900
C  47.30000 24.76600 33.11600
C  47.46500 24.47300 31.62100
C  48.08600 23.83400 34.01500
C  46.60300 27.30700 33.72800
C  45.74200 26.89300 34.94900
H  45.64400 27.83700 36.16400
N  47.35400 23.48800 28.60800
C  47.06400 22.69200 29.66100
C  46.65200 21.36700 29.28100
C  46.58700 21.49100 27.88600
C  47.05300 22.83200 27.45900
C  46.33300 20.17700 30.21600
C  46.21300 20.45100 26.85800
O  46.12200 20.68200 25.68200
C  46.04500 19.00800 27.33200
N  48.57300 25.40100 26.59400
C  48.01400 24.45700 25.82000
C  48.31100 24.79700 24.34100
C  48.97300 26.18600 24.38500
C  49.09300 26.38300 25.90200
C  49.15600 23.83800 23.57600
C  48.02300 27.32000 23.78000
C  48.12500 27.56000 22.24000
N  48.97200 27.35600 28.73700
C  49.57800 28.03400 27.72600
C  50.01300 29.26700 28.22500
C  49.69400 29.30200 29.59700
C  49.06200 28.07700 29.85100
C  50.66200 30.34200 27.44700
C  49.79600 30.07200 30.78800
O  50.11900 31.19500 31.04600
C  49.09700 29.17100 31.91100
C  50.06500 28.97100 33.01700
O  51.17400 28.35900 32.91100
O  49.63800 29.47300 34.17200
C  50.40300 29.23000 35.42000
H  46.86700 22.46900 31.79600
H  46.87400 22.73400 25.32300
H  50.03200 28.34700 25.78200
H  48.66900 26.34800 33.65700
H  46.22100 24.76800 33.27500
H  47.44000 23.18900 34.61100
H  48.87000 24.30000 34.61200
H  48.73600 23.17600 33.43800
H  45.97400 27.61600 32.89300
H  47.05600 28.24300 34.05500
H  46.30800 26.04000 35.32300
H  44.74000 26.62100 34.61500
H  45.91400 20.42800 31.19000
H  47.23900 19.61300 30.44000
H  45.54000 19.65400 29.68200
H  45.05900 18.88400 27.78000
H  46.82600 18.62100 27.98700
H  46.08300 18.32600 26.48300
H  47.34600 24.78700 23.83600
H  49.97700 26.24300 23.96500
H  48.69000 23.56100 22.63100
H  49.23400 22.87600 24.08200
H  50.13400 24.25100 23.33000
H  48.12200 28.31100 24.22200
H  47.01300 27.01800 24.05700
H  49.04700 27.07200 21.92300
H  48.14600 28.61800 21.98100
H  47.31000 27.11700 21.66700
H  50.07000 30.52300 26.55000
H  51.63400 29.94700 27.15300
H  50.75800 31.25600 28.03400
H  48.20300 29.58400 32.37800
H  50.45200 30.18700 35.93900
H  51.41200 28.82000 35.36100
H  49.77900 28.66600 36.11300

