158

Mg 49.24700 36.08500 27.58800
C  47.48300 34.25400 30.06200
C  49.97400 38.53900 30.05900
C  51.13100 37.67000 25.30500
C  48.26300 33.81600 25.26100
N  48.69100 36.33300 29.81800
C  48.08000 35.41300 30.61500
C  48.09100 35.90300 32.10400
C  48.54400 37.37100 31.92700
C  49.03900 37.47400 30.45000
C  47.38700 38.39400 32.41800
C  49.19600 34.95500 32.87100
C  49.08000 34.72600 34.39500
H  48.29600 35.64300 35.24700
N  50.33400 37.86900 27.63300
C  50.52700 38.71000 28.75000
C  51.41900 39.80300 28.41700
C  51.72300 39.61300 26.98600
C  51.06300 38.36000 26.56100
C  51.55200 40.94900 29.37500
C  52.47400 40.53200 26.05100
O  52.65000 40.35300 24.88200
C  53.27700 41.72300 26.67300
N  49.57400 35.84500 25.53400
C  50.42800 36.60400 24.81000
C  50.35900 36.31500 23.32500
C  49.44200 35.08400 23.23600
C  49.08800 34.83500 24.77800
C  49.86500 37.44400 22.48400
C  50.05800 33.79100 22.59600
C  49.51300 33.42000 21.19100
N  48.21700 34.30800 27.59200
C  47.83600 33.56900 26.56900
C  46.80000 32.58300 27.00400
C  46.67100 32.81200 28.35000
C  47.53000 33.89800 28.68700
C  46.16900 31.57300 26.15500
C  46.05600 32.35700 29.51900
O  45.27800 31.43800 29.68300
C  46.48600 33.34500 30.61900
C  46.85300 32.63700 31.92300
O  47.83700 31.93800 32.05100
O  45.85000 32.89200 32.81500
C  45.91600 31.98400 34.00800
H  50.18800 39.30500 30.80800
H  51.62000 38.16300 24.46200
H  47.81400 33.10800 24.56200
H  47.12500 35.77800 32.59300
H  49.49700 37.55900 32.42100
H  46.42600 37.88400 32.48400
H  47.30300 39.27400 31.78100
H  47.69200 38.70700 33.41700
H  50.22600 35.15700 32.57700
H  49.20400 33.95500 32.43500
H  50.10100 34.65100 34.76900
H  48.83300 33.68500 34.60100
H  52.19500 41.76300 29.04100
H  52.08600 40.63500 30.27200
H  50.62300 41.49200 29.54900
H  53.85900 41.44300 27.55100
H  52.59100 42.53200 26.92300
H  53.89000 42.07800 25.84400
H  51.36600 36.00200 23.05000
H  48.45600 35.20100 22.78700
H  49.10800 37.96000 23.07500
H  49.34700 37.06800 21.60200
H  50.71900 38.06900 22.22200
H  49.82800 32.90400 23.18700
H  51.13800 33.93200 22.58700
H  48.78800 34.13900 20.81100
H  49.06500 32.42800 21.24700
H  50.30100 33.51500 20.44300
H  45.25800 32.02300 25.76000
H  45.86600 30.76200 26.81700
H  46.82000 31.26400 25.33700
H  45.58000 33.92900 30.78000
H  45.32200 32.49300 34.76700
H  46.89200 31.72300 34.41700
H  45.36700 31.07800 33.75000
Mg 43.13900 41.75700 26.89600
C  42.24900 44.11500 29.35700
C  44.14100 39.60600 29.15200
C  44.19000 39.85300 24.28100
C  42.56000 44.42600 24.48600
N  43.41500 41.94900 29.05200
C  42.74400 42.85600 29.89600
C  42.73800 42.36900 31.35300
C  43.45000 40.95600 31.26300
C  43.66200 40.80900 29.75900
C  44.73100 40.81800 32.00500
C  41.25400 42.39100 31.90000
C  40.95100 43.35800 33.11500
H  40.17500 42.69600 34.28600
N  44.06500 39.99200 26.69900
C  44.35400 39.19700 27.80300
C  44.94800 37.97500 27.27900
C  44.94300 37.98800 25.83300
C  44.44200 39.36100 25.55300
C  45.45600 36.89900 28.11800
C  45.34000 36.90500 24.76400
O  45.48800 37.18500 23.62400
C  45.57400 35.53500 25.25300
N  43.51900 42.22200 24.62400
C  43.73200 41.09200 23.83300
C  43.53800 41.49000 22.38000
C  43.02800 43.02000 22.44700
C  42.99800 43.23100 23.93200
C  44.68800 41.24500 21.44700
C  41.72100 43.36800 21.63700
C  40.38000 42.72100 22.04800
N  42.67800 43.81800 26.93800
C  42.43400 44.69600 25.88100
C  41.92900 45.94600 26.40400
C  41.88100 45.78200 27.77000
C  42.30700 44.51200 28.04300
C  41.58700 47.19800 25.52100
C  41.60200 46.47000 29.02800
O  41.27100 47.62200 29.18900
C  41.77900 45.34300 30.19700
C  42.86600 45.84500 31.09100
O  43.99700 46.09800 30.69800
O  42.41400 46.08600 32.33300
C  43.19500 46.67100 33.37400
H  44.29600 38.78600 29.85600
H  44.37900 39.21500 23.41500
H  42.31300 45.22400 23.78300
H  43.34400 43.03300 31.96900
H  42.80100 40.15100 31.60700
H  45.61000 40.81000 31.36000
H  44.72400 39.87200 32.54700
H  44.95500 41.61800 32.71200
H  41.01600 41.36700 32.18600
H  40.65100 42.67200 31.03600
H  40.26500 44.12600 32.75800
H  41.80200 43.96900 33.41600
H  45.90100 37.36900 28.99500
H  46.31000 36.46600 27.59700
H  44.62000 36.27700 28.43800
H  45.72200 34.87800 24.39600
H  44.75200 35.10500 25.82400
H  46.46700 35.43200 25.87000
H  42.70000 40.84900 22.10600
H  43.76400 43.66800 21.97000
H  45.63500 41.09600 21.96500
H  44.82800 42.10400 20.79100
H  44.42000 40.35100 20.88300
H  41.73600 42.91900 20.64400
H  41.56000 44.42900 21.45200
H  40.24700 41.72700 21.62200
H  39.59100 43.43900 21.82300
H  40.35600 42.53600 23.12200
H  40.63600 46.98000 25.03500
H  42.23100 47.43000 24.67200
H  41.44400 48.06300 26.16800
H  40.83900 45.07400 30.68000
H  43.64400 45.79300 33.83800
H  42.67200 47.14200 34.20600
H  43.88000 47.41200 32.96200

