158

Mg 54.43400 24.46700 44.55900
C  51.60900 26.34400 43.91700
C  52.66100 21.64300 43.64600
C  57.30500 22.80300 44.21100
C  56.15800 27.47200 45.19900
N  52.39600 24.10000 43.88400
C  51.39300 25.00700 43.65200
C  50.09000 24.30900 43.21500
C  50.38700 22.78400 43.48700
C  51.90400 22.80700 43.75800
C  49.56600 22.24400 44.63100
C  49.75900 24.60700 41.77000
C  48.33500 25.07500 41.45500
H  47.92600 25.37600 40.01400
N  54.92300 22.49300 43.94000
C  54.06700 21.47400 43.65400
C  54.77300 20.28100 43.33100
C  56.11100 20.53400 43.52900
C  56.20000 21.98300 43.90800
C  54.13600 19.01800 42.70600
C  57.25100 19.55600 43.40500
O  57.08800 18.38600 43.06800
C  58.66900 19.92700 43.84100
N  56.44200 25.13400 44.37700
C  57.48200 24.21700 44.33000
C  58.84400 24.93600 44.64200
C  58.47500 26.37800 44.79100
C  56.89400 26.34300 44.83200
C  59.64500 24.47500 45.87700
C  58.99900 27.40400 43.73000
C  59.80800 28.63800 44.34100
N  53.95000 26.45800 44.86000
C  54.71200 27.60200 45.10800
C  53.87900 28.76600 45.19300
C  52.64000 28.31100 44.73900
C  52.75500 26.89900 44.54300
C  54.20300 30.17100 45.61700
C  51.28500 28.76700 44.50400
O  50.74000 29.85600 44.59900
C  50.63600 27.50000 43.85500
C  50.06900 28.00500 42.48800
O  50.79000 28.31400 41.53400
O  48.69700 28.28700 42.58500
C  48.04300 28.92500 41.41400
H  52.13200 20.69000 43.57400
H  58.30700 22.36900 44.18400
H  56.69600 28.36700 45.52000
H  49.27800 24.68600 43.83600
H  50.24400 22.13500 42.62400
H  48.52900 22.58200 44.63400
H  49.93200 22.26800 45.65700
H  49.40400 21.18100 44.45600
H  49.94000 23.73800 41.13700
H  50.42000 25.38900 41.39600
H  48.15500 25.95300 42.07600
H  47.75800 24.19600 41.74200
H  54.36100 18.07700 43.20900
H  54.51300 19.01600 41.68400
H  53.05300 19.12100 42.65000
H  59.06700 20.75500 43.25400
H  59.20000 18.97500 43.81100
H  58.52000 20.14600 44.89800
H  59.46300 24.85000 43.74900
H  58.63000 26.80200 45.78300
H  59.11500 23.77500 46.52400
H  59.97700 25.29500 46.51300
H  60.54800 24.02500 45.46500
H  58.07700 27.78100 43.28800
H  59.57200 26.90700 42.94700
H  60.81800 28.69200 43.93400
H  59.98100 28.63900 45.41700
H  59.26600 29.55900 44.12500
H  53.69300 30.80300 44.89000
H  55.28500 30.22400 45.49900
H  53.86800 30.49400 46.60300
H  49.79200 27.23500 44.49200
H  47.71800 29.95500 41.56100
H  47.12500 28.34700 41.31500
H  48.63900 29.07000 40.51200
Mg 31.60400 58.50100 40.73000
C  28.48500 57.44700 39.20100
C  32.98300 55.77800 39.05500
C  34.54300 59.92100 40.95700
C  30.04200 61.37000 41.66800
N  30.72400 56.84300 39.27700
C  29.47800 56.58600 38.84200
C  29.38900 55.28400 38.04700
C  30.73600 54.51600 38.44400
C  31.57200 55.74900 39.01200
C  30.63100 53.36300 39.51600
C  29.15200 55.47000 36.56400
C  27.93000 54.75100 35.93400
H  27.83800 54.85300 34.38600
N  33.55700 57.89200 40.22600
C  33.88200 56.79700 39.43400
C  35.26100 56.76300 39.15700
C  35.77100 57.98900 39.65000
C  34.61000 58.70500 40.32900
C  35.95700 55.70700 38.40800
C  37.19200 58.47900 39.60000
O  38.08400 57.84500 39.05800
C  37.52800 59.71600 40.22300
N  32.23500 60.41800 41.38500
C  33.53800 60.74900 41.47200
C  33.73900 62.09400 42.15700
C  32.18500 62.51300 42.36000
C  31.39500 61.40300 41.80500
C  34.52900 62.04700 43.44700
C  31.86300 63.90900 41.75200
C  31.26900 64.85700 42.69200
N  29.60100 59.24700 40.57400
C  29.17100 60.45000 41.04900
C  27.78900 60.56600 40.86800
C  27.37700 59.34800 40.20700
C  28.61400 58.65700 39.93000
C  27.02100 61.73600 41.13500
C  26.32300 58.55300 39.58300
O  25.06800 58.65000 39.53500
C  27.01000 57.33500 38.85600
C  26.33100 56.05300 39.26400
O  26.66700 55.35800 40.22900
O  25.58000 55.59500 38.25300
C  25.21900 54.18800 38.31400
H  33.44200 54.94600 38.51700
H  35.46200 60.48700 41.12600
H  29.54000 62.21900 42.13700
H  28.49400 54.73400 38.33900
H  31.14900 54.20200 37.48500
H  31.24600 52.46700 39.42800
H  29.61400 52.97100 39.48400
H  30.77800 53.67500 40.55000
H  30.01800 55.06800 36.03800
H  29.10700 56.52000 36.27600
H  26.99400 55.15500 36.31800
H  28.08300 53.69800 36.17000
H  35.24300 55.33100 37.67500
H  36.34300 54.90500 39.03700
H  36.66200 55.98600 37.62500
H  36.98300 60.54700 39.77500
H  38.54200 60.05800 40.01800
H  37.42200 59.64200 41.30500
H  34.02400 62.70200 41.29800
H  31.93100 62.41000 43.41500
H  34.92400 61.04200 43.59900
H  33.92700 62.30900 44.31700
H  35.34500 62.76900 43.42700
H  31.19100 63.81500 40.89800
H  32.83300 64.25600 41.39400
H  30.32200 65.17800 42.25800
H  31.93500 65.71700 42.76800
H  31.13200 64.30500 43.62100
H  26.69300 61.82400 42.17000
H  26.10400 61.72200 40.54600
H  27.55400 62.62600 40.79900
H  26.79900 57.45900 37.79300
H  25.93400 53.46400 37.92400
H  24.30400 54.06900 37.73400
H  24.96000 53.80600 39.30200

