158

Mg 9.13900 3.20700 27.58000
C  10.15800 1.59700 30.57900
C  7.56200 5.47300 29.51300
C  7.96500 4.55500 24.76400
C  10.20300 0.39100 25.90900
N  9.01500 3.54500 29.73000
C  9.55400 2.86800 30.79700
C  9.26900 3.42400 32.18900
C  8.36400 4.64100 31.80000
C  8.29300 4.62700 30.26800
C  6.96400 4.77900 32.45500
C  10.58300 3.59400 33.05200
C  10.58600 4.74800 34.09600
H  11.19900 4.36800 35.52300
N  7.87100 4.74000 27.22900
C  7.32500 5.58400 28.10200
C  6.62600 6.64900 27.35700
C  6.91700 6.45900 25.95000
C  7.66500 5.24800 25.94000
C  5.83100 7.78900 28.09200
C  6.49900 7.26500 24.66100
O  6.81100 6.89300 23.58800
C  5.64000 8.47100 24.81700
N  9.21900 2.65800 25.62600
C  8.68900 3.35400 24.63300
C  8.95900 2.80900 23.17300
C  9.64900 1.42200 23.59400
C  9.74900 1.49900 25.11900
C  7.78000 2.74800 22.23500
C  11.06900 1.22500 22.88300
C  11.16000 0.16800 21.80200
N  10.09800 1.38700 28.05900
C  10.44700 0.33500 27.24000
C  11.07700 -0.69500 28.01900
C  11.00400 -0.27200 29.35700
C  10.42600 0.99100 29.33400
C  11.87200 -1.80400 27.42800
C  11.29100 -0.59500 30.76400
O  11.74700 -1.59000 31.30300
C  10.78800 0.62000 31.60600
C  9.75500 0.14600 32.58600
O  8.62100 -0.09800 32.27800
O  10.19700 0.10500 33.84000
C  9.13700 0.06000 34.88100
H  6.96600 6.16800 30.10700
H  7.78100 4.95200 23.76300
H  10.66000 -0.41500 25.33200
H  8.54400 2.70200 32.56500
H  8.83200 5.56900 32.12900
H  6.20500 4.49400 31.72600
H  6.68800 5.80600 32.69500
H  6.88600 4.19100 33.37000
H  11.42700 3.76000 32.38400
H  10.76800 2.61800 33.50000
H  9.55700 4.99000 34.36200
H  11.12800 5.64900 33.80800
H  6.48300 8.66300 28.06400
H  5.45300 7.48500 29.06800
H  4.90400 8.03700 27.57600
H  4.77000 8.02600 25.30000
H  5.45300 8.85200 23.81300
H  6.18600 9.26500 25.32700
H  9.64100 3.45600 22.62100
H  9.09000 0.57000 23.20900
H  8.02400 3.38100 21.38200
H  6.87500 3.22400 22.61000
H  7.48500 1.72700 21.99200
H  11.80400 1.05500 23.67000
H  11.24100 2.18400 22.39200
H  10.80800 -0.80200 22.15200
H  12.16400 -0.08900 21.46400
H  10.52700 0.41200 20.94900
H  12.45900 -1.45000 26.58100
H  11.15100 -2.49400 26.99000
H  12.56600 -2.16700 28.18700
H  11.65300 1.15800 31.99500
H  8.53400 0.96800 34.91100
H  9.44100 0.06600 35.92700
H  8.49700 -0.78400 34.62600
Mg 41.44800 40.64900 27.07200
C  40.80000 43.08800 29.71900
C  42.12600 38.34600 29.44000
C  42.29600 38.66200 24.55400
C  41.29400 43.49700 24.79200
N  41.48200 40.81300 29.37700
C  41.03800 41.83700 30.22100
C  40.96700 41.32500 31.65100
C  41.37000 39.77100 31.58000
C  41.76100 39.61500 30.04500
C  42.53500 39.46400 32.53800
C  39.65900 41.62600 32.39700
C  39.71200 42.70500 33.44900
H  39.04200 42.40500 34.79300
N  41.94000 38.75400 27.00500
C  42.25300 37.97700 28.09100
C  42.77600 36.72000 27.62000
C  42.68900 36.70900 26.20300
C  42.24700 38.07600 25.85200
C  43.28200 35.61600 28.50800
C  42.99400 35.51800 25.23600
O  42.79400 35.59000 24.04900
C  43.62900 34.28400 25.65200
N  41.72800 40.99200 25.00000
C  42.14400 39.98400 24.14000
C  42.12000 40.42400 22.66200
C  41.93300 42.03800 22.79000
C  41.53700 42.17500 24.32700
C  43.28400 40.02000 21.78800
C  40.88100 42.49300 21.78600
C  39.38000 42.62400 22.32400
N  41.12600 42.82600 27.17400
C  40.90400 43.72900 26.18300
C  40.41100 44.93600 26.73000
C  40.40700 44.75500 28.14000
C  40.79200 43.42000 28.37200
C  40.16200 46.21400 25.96300
C  40.17700 45.40000 29.34000
O  39.90000 46.58700 29.56800
C  40.39800 44.36600 30.47100
C  41.38800 44.91800 31.39500
O  42.57700 44.75800 31.20000
O  40.85300 45.61300 32.42300
C  41.73100 46.39200 33.30900
H  42.29800 37.49700 30.10600
H  42.61600 37.95800 23.78300
H  41.24300 44.17600 23.93900
H  41.75300 41.87900 32.16400
H  40.50600 39.13100 31.76000
H  43.41400 39.59100 31.90700
H  42.46700 38.44500 32.91700
H  42.40200 40.15000 33.37500
H  39.27700 40.70600 32.83800
H  38.89300 41.98400 31.70900
H  39.10900 43.48300 32.97900
H  40.71600 43.03300 33.71900
H  42.40800 34.98800 28.67900
H  43.62700 35.90800 29.50000
H  44.09600 35.05000 28.05300
H  42.90400 33.80400 26.30800
H  44.52700 34.60400 26.17900
H  43.83100 33.60700 24.82200
H  41.21400 40.09800 22.15200
H  42.82800 42.58700 22.49700
H  42.94600 39.86500 20.76300
H  43.57200 39.05100 22.19400
H  44.12000 40.71600 21.85900
H  40.89400 42.04200 20.79300
H  41.13200 43.50300 21.46300
H  39.34300 42.38600 23.38800
H  38.68300 41.88300 21.93400
H  38.89900 43.59400 22.19700
H  39.95800 45.96900 24.92100
H  40.98800 46.92200 26.04200
H  39.32800 46.70800 26.46200
H  39.44100 44.47800 30.98100
H  41.61100 46.04400 34.33500
H  41.33900 47.40300 33.42600
H  42.77300 46.47700 33.00100

