158

Mg 1.88000 -1.68600 44.13400
C  5.45000 -0.96400 43.97700
C  1.40200 1.23700 42.37600
C  -1.25600 -2.68300 43.92200
C  2.85900 -4.95800 45.35800
N  3.29300 -0.11100 43.29500
C  4.66700 0.04500 43.38800
C  5.08800 1.24600 42.58600
C  3.81800 1.96400 42.23700
C  2.75800 0.95200 42.65300
C  3.67900 3.30900 43.04100
C  5.84000 0.86700 41.25500
C  7.25600 1.54000 41.14000
H  8.19200 0.89600 40.02700
N  0.25400 -0.82400 43.31700
C  0.24200 0.41400 42.62100
C  -1.15500 0.72100 42.33300
C  -1.89900 -0.45000 42.69900
C  -0.97100 -1.35300 43.39900
C  -1.59300 2.13100 41.89300
C  -3.36700 -0.64100 42.55800
O  -3.97200 0.34900 42.15800
C  -4.23500 -1.89700 42.69000
N  0.96800 -3.60500 44.48100
C  -0.38000 -3.65300 44.46400
C  -0.82800 -5.13900 44.79600
C  0.45700 -5.80600 45.22400
C  1.54900 -4.73300 44.99000
C  -2.07700 -5.20000 45.81300
C  0.91400 -7.11500 44.42400
C  1.28900 -8.25600 45.43100
N  3.74100 -2.81000 44.66300
C  3.97300 -4.10200 45.08100
C  5.43200 -4.27400 45.39000
C  5.99200 -3.01700 44.98000
C  4.96500 -2.18800 44.45100
C  6.09400 -5.52700 45.96200
C  7.30100 -2.24600 44.87000
O  8.45100 -2.63500 45.13700
C  6.94200 -0.89500 44.25300
C  7.16400 0.27400 45.19600
O  6.41900 0.72400 46.01400
O  8.37600 0.81500 44.89000
C  8.64300 2.18000 45.44100
H  1.30800 2.19800 41.86600
H  -2.32400 -2.89500 44.01100
H  3.16500 -5.92100 45.77100
H  5.82000 1.77100 43.20000
H  3.69000 2.17300 41.17500
H  4.63900 3.81900 43.11500
H  3.25600 3.11300 44.02600
H  3.00900 3.98500 42.51000
H  5.20000 1.04700 40.39100
H  5.97800 -0.21400 41.25800
H  7.69800 1.77000 42.11000
H  6.99300 2.52600 40.75800
H  -0.89300 2.79700 42.39700
H  -2.54300 2.31600 42.39400
H  -1.73100 2.24600 40.81800
H  -3.68700 -2.65400 42.12900
H  -5.27800 -1.79700 42.39100
H  -4.27500 -2.12500 43.75500
H  -1.08200 -5.47700 43.79200
H  0.47600 -5.95300 46.30300
H  -1.92200 -5.95500 46.58400
H  -2.99800 -5.47400 45.29900
H  -2.19200 -4.28200 46.38800
H  1.78200 -6.89800 43.80200
H  0.21600 -7.44500 43.65400
H  0.90000 -9.22100 45.10700
H  1.09700 -8.02900 46.48000
H  2.36900 -8.40600 45.40500
H  6.77000 -5.32600 46.79300
H  6.65100 -5.84800 45.08200
H  5.41200 -6.25000 46.40900
H  7.56300 -0.77100 43.36600
H  8.07400 3.03600 45.07900
H  9.68400 2.45600 45.27000
H  8.63900 2.20100 46.53100
Mg 6.09600 54.14100 41.39100
C  5.68100 50.73600 40.61700
C  9.18000 54.08200 40.07000
C  5.79000 57.47400 41.51000
C  2.54800 54.02500 42.66800
N  7.27200 52.55500 40.40700
C  6.88800 51.32100 40.20600
C  8.17600 50.45500 39.69600
C  9.34600 51.50800 39.81400
C  8.53100 52.81700 40.02800
C  10.53400 51.28000 40.88400
C  8.07500 49.82600 38.38600
C  7.78000 50.74500 37.15500
H  6.80200 50.09400 36.13800
N  7.35100 55.61200 40.94300
C  8.66000 55.37800 40.46000
C  9.29900 56.72000 40.34800
C  8.30300 57.68900 40.78900
C  7.06200 56.92900 41.04900
C  10.76700 57.01300 39.84400
C  8.52000 59.19700 40.91000
O  9.59200 59.64800 40.54000
C  7.58000 60.19900 41.47200
N  4.52100 55.55800 42.32400
C  4.65800 56.82100 41.96200
C  3.44100 57.64800 42.34300
C  2.47600 56.57400 42.93800
C  3.22900 55.28100 42.58500
C  3.78200 58.80300 43.36100
C  1.04400 56.65500 42.30300
C  -0.12300 56.38300 43.23500
N  4.45100 52.73600 41.68800
C  3.14800 52.79000 42.23400
C  2.68300 51.42900 42.47300
C  3.57200 50.59200 41.82700
C  4.61100 51.41500 41.31500
C  1.53800 50.99000 43.35200
C  3.90400 49.16900 41.55900
O  3.34800 48.13700 41.92600
C  5.20800 49.28400 40.63500
C  4.75600 48.73700 39.31700
O  3.96500 49.28300 38.54500
O  5.30200 47.45000 39.06100
C  4.75500 46.81400 37.87200
H  10.24700 54.12000 39.84000
H  5.66100 58.52500 41.24100
H  1.47800 54.11700 42.86500
H  8.49300 49.73600 40.45100
H  9.83200 51.56700 38.84000
H  10.32400 51.94800 41.71900
H  11.55300 51.44800 40.53500
H  10.46600 50.27600 41.30200
H  7.41000 48.96300 38.39200
H  9.05800 49.44400 38.10900
H  8.75100 51.00200 36.73000
H  7.35800 51.67100 37.54600
H  11.30100 56.08200 40.03900
H  11.28600 57.75900 40.44500
H  10.85500 57.22100 38.77800
H  8.14600 61.10000 41.70800
H  6.98300 59.90700 42.33600
H  6.82700 60.44900 40.72500
H  3.01400 58.11100 41.45300
H  2.46600 56.77400 44.01000
H  3.73800 59.75900 42.83900
H  4.72600 58.61100 43.87100
H  2.97400 58.79600 44.09300
H  0.91500 55.91700 41.51000
H  0.83100 57.61600 41.83600
H  -0.92000 57.12600 43.20400
H  0.04100 56.33000 44.31100
H  -0.51300 55.37700 43.08000
H  0.77500 51.73200 43.11300
H  1.76200 50.93100 44.41700
H  1.21100 50.00300 43.02300
H  5.94300 48.65700 41.14000
H  3.96500 46.08400 38.05100
H  5.60500 46.27300 37.45600
H  4.42100 47.51700 37.10900

