158

Mg 53.80600 24.10100 44.47800
C  51.23800 26.26900 43.45100
C  51.79900 21.63000 43.34400
C  56.43100 22.15100 44.82100
C  55.66900 26.87400 45.47100
N  51.86500 24.01100 43.30200
C  51.02000 25.03300 43.00300
C  49.88900 24.49700 42.12200
C  49.71900 23.09600 42.76600
C  51.16800 22.89700 43.24700
C  48.65000 22.99000 43.88800
C  50.09900 24.63800 40.61400
C  48.97500 25.13000 39.70000
H  49.59200 25.80600 38.46100
N  54.08000 22.10300 44.17400
C  53.11700 21.24300 43.72500
C  53.69700 19.92300 43.69100
C  54.99200 20.00800 44.28200
C  55.23700 21.47700 44.45500
C  52.97400 18.68300 43.17300
C  55.87000 18.80400 44.68700
O  55.54200 17.65300 44.52300
C  57.24900 18.98900 45.38000
N  55.80600 24.48300 44.79900
C  56.66300 23.48000 45.01900
C  58.03700 24.00600 45.34000
C  57.87400 25.55500 45.29000
C  56.37200 25.64200 45.23100
C  58.65300 23.60100 46.70100
C  58.48300 26.27000 44.04800
C  59.06400 27.69200 44.21500
N  53.54400 26.17600 44.57200
C  54.31500 27.16500 45.09400
C  53.61900 28.47500 45.08900
C  52.39000 28.12900 44.48900
C  52.38900 26.76200 44.11300
C  54.02800 29.73400 45.67900
C  51.03500 28.59500 44.06500
O  50.56300 29.72800 44.13300
C  50.26400 27.41400 43.51800
C  49.79700 27.78700 42.13200
O  50.54700 27.89600 41.19100
O  48.50000 28.15300 42.17700
C  47.87000 28.72400 40.99900
H  51.08100 20.82200 43.18900
H  57.32300 21.54400 44.98700
H  56.31000 27.62600 45.93600
H  48.99900 25.07500 42.36800
H  49.44200 22.28000 42.09800
H  47.80900 23.56600 43.50000
H  49.04900 23.48000 44.77600
H  48.40600 21.94300 44.06700
H  50.45100 23.65800 40.29400
H  51.02200 25.16600 40.37400
H  48.36700 25.91500 40.15000
H  48.37200 24.29800 39.33700
H  52.17700 18.90400 42.46300
H  52.51300 18.22800 44.05000
H  53.55600 17.85800 42.76200
H  57.07500 19.73100 46.16000
H  57.98500 19.34300 44.65800
H  57.65000 18.09800 45.86300
H  58.72500 23.56500 44.61900
H  58.38500 25.91100 46.18500
H  59.14300 22.62900 46.63300
H  57.90900 23.37700 47.46500
H  59.37700 24.28900 47.13700
H  57.73100 26.21100 43.26100
H  59.27000 25.55900 43.80000
H  60.15300 27.73000 44.25700
H  58.65600 28.27900 45.03700
H  58.73900 28.39400 43.44700
H  54.89300 30.19800 45.20600
H  54.21900 29.47300 46.72000
H  53.19000 30.42600 45.58600
H  49.39700 27.20500 44.14400
H  48.03900 28.24900 40.03300
H  48.28600 29.72700 41.09400
H  46.81300 28.95800 41.12400
Mg -2.10100 34.65900 26.18100
C  -3.53600 32.80300 28.81000
C  -0.58400 36.65100 28.53600
C  -1.02900 36.47200 23.67700
C  -3.82300 32.53700 23.94900
N  -2.32200 34.79200 28.47700
C  -2.73600 33.81300 29.38200
C  -2.29700 34.12200 30.81900
C  -1.38800 35.32900 30.63500
C  -1.42600 35.66800 29.11400
C  -1.73700 36.47600 31.55300
C  -1.68300 32.84800 31.43700
C  -2.36000 32.36500 32.70300
H  -1.41000 32.29600 33.92400
N  -0.89200 36.31200 26.15100
C  -0.35700 36.95200 27.21700
C  0.58100 37.93100 26.65300
C  0.44200 37.91300 25.28100
C  -0.45000 36.82800 24.97000
C  1.38600 38.89600 27.49300
C  1.13000 38.72700 24.23800
O  0.88200 38.58200 23.05700
C  2.19900 39.73800 24.57200
N  -2.45500 34.57800 24.17000
C  -1.91500 35.42300 23.31600
C  -2.27200 35.14700 21.86100
C  -2.87600 33.71600 21.96400
C  -3.16600 33.60600 23.43600
C  -3.24000 36.13500 21.27600
C  -1.92700 32.56500 21.43400
C  -0.45200 32.48000 21.97800
N  -3.54900 33.12800 26.30500
C  -4.04600 32.30400 25.32000
C  -4.73200 31.08200 25.86500
C  -4.53600 31.25500 27.24900
C  -3.81300 32.46300 27.42900
C  -5.28500 29.90700 25.13500
C  -4.83200 30.67100 28.54800
O  -5.44200 29.68300 28.93300
C  -4.20000 31.66100 29.58500
C  -5.35400 32.18600 30.57100
O  -6.11600 33.11400 30.41200
O  -5.28000 31.41100 31.68800
C  -6.14200 31.63500 32.88800
H  0.07200 37.26500 29.15600
H  -0.92500 37.18300 22.85400
H  -4.38200 31.78800 23.38300
H  -3.18200 34.33800 31.41700
H  -0.35800 35.09600 30.90700
H  -0.76800 36.95600 31.68900
H  -2.16300 36.02800 32.45100
H  -2.36000 37.22200 31.06000
H  -0.66300 33.16000 31.66300
H  -1.50500 32.05700 30.70800
H  -2.66200 31.32800 32.55800
H  -3.27700 32.92500 32.89000
H  1.37600 39.89900 27.06600
H  2.39300 38.51100 27.65200
H  1.00900 39.07800 28.49900
H  1.77300 40.67800 24.92300
H  2.54700 40.13200 23.61700
H  2.94400 39.19100 25.14900
H  -1.39300 35.02300 21.22900
H  -3.83900 33.59300 21.46800
H  -3.38100 37.05700 21.84000
H  -4.23200 35.69100 21.19400
H  -2.76500 36.49600 20.36400
H  -1.87100 32.45200 20.35100
H  -2.38100 31.61200 21.70400
H  0.20600 33.10300 21.37300
H  -0.07000 31.46600 21.86200
H  -0.25600 32.83000 22.99100
H  -6.21500 30.05000 24.58400
H  -5.58400 29.14600 25.85700
H  -4.50400 29.49400 24.49800
H  -3.50800 31.08600 30.20000
H  -6.55800 30.67000 33.17800
H  -6.94900 32.34700 32.71500
H  -5.57900 31.97000 33.75900

