158

Mg 2.15200 -1.21700 43.54000
C  5.62200 -0.49600 43.19500
C  1.41900 1.37700 41.46800
C  -0.91900 -2.59900 43.26200
C  3.27600 -4.13500 45.31000
N  3.46900 0.23900 42.50600
C  4.80300 0.35600 42.41800
C  5.31000 1.57600 41.50700
C  3.93500 2.14500 41.13000
C  2.83900 1.25000 41.76200
C  3.65500 3.57600 41.54400
C  6.15300 1.04600 40.35100
C  7.06200 2.08500 39.67700
H  6.62900 2.53700 38.31400
N  0.48000 -0.67200 42.51300
C  0.34000 0.41100 41.73000
C  -0.98600 0.57600 41.31200
C  -1.67300 -0.58700 41.75600
C  -0.70000 -1.41100 42.53800
C  -1.34900 1.78700 40.39700
C  -3.10400 -1.03300 41.28200
O  -3.91200 -0.19800 40.77100
C  -3.53100 -2.39600 41.38700
N  1.33100 -3.06200 44.04300
C  -0.00100 -3.33600 44.02400
C  -0.44900 -4.51100 44.90600
C  0.93900 -5.21000 45.11600
C  1.98000 -4.09800 44.83300
C  -1.25600 -3.96400 46.11400
C  1.20500 -6.53400 44.28400
C  1.20700 -7.84400 45.08100
N  4.06200 -2.10800 44.33000
C  4.29400 -3.31600 45.01100
C  5.73400 -3.46600 45.16900
C  6.25900 -2.33700 44.54600
C  5.21700 -1.53800 44.01100
C  6.54800 -4.64600 45.74700
C  7.53300 -1.71800 44.21800
O  8.67900 -1.92200 44.49500
C  7.16200 -0.51300 43.27600
C  7.76100 0.77400 43.73300
O  8.36900 1.45100 42.91500
O  7.48900 1.22700 45.00700
C  8.04800 2.55200 45.40000
H  1.09100 2.21300 40.84800
H  -1.89300 -3.08900 43.31600
H  3.49000 -5.07700 45.81900
H  5.94600 2.21600 42.11800
H  3.83900 2.20700 40.04600
H  3.37100 4.17200 40.67700
H  4.55400 4.00800 41.98300
H  2.88600 3.47200 42.31000
H  5.59300 0.60800 39.52500
H  6.87200 0.28900 40.66600
H  8.09900 1.75400 39.71500
H  7.16500 3.01400 40.23900
H  -0.72300 1.83600 39.50600
H  -1.25000 2.63600 41.07300
H  -2.40500 1.72500 40.13500
H  -4.33900 -2.51200 40.66500
H  -3.83700 -2.60000 42.41300
H  -2.65500 -2.93600 41.02800
H  -1.01500 -5.27700 44.37700
H  1.10700 -5.45800 46.16400
H  -2.27700 -4.31600 46.26600
H  -1.26600 -2.87500 46.14100
H  -0.75600 -4.19200 47.05600
H  2.19100 -6.47100 43.82500
H  0.46000 -6.69200 43.50500
H  0.45100 -8.55600 44.74800
H  0.81000 -7.81600 46.09500
H  2.14400 -8.40000 45.11000
H  5.94300 -4.95800 46.59700
H  7.46000 -4.18300 46.12500
H  6.76400 -5.36000 44.95300
H  7.61800 -0.84300 42.34200
H  7.42000 3.11600 46.09000
H  8.39800 3.21100 44.60500
H  8.92700 2.28900 45.98800
Mg 55.68400 24.52300 44.67100
C  52.96600 26.45400 43.72800
C  53.89100 21.71000 43.33600
C  58.44900 22.91400 44.89900
C  57.20900 27.48700 45.97700
N  53.78000 24.15100 43.52500
C  52.87000 25.11700 43.22800
C  51.67100 24.52700 42.55800
C  51.75400 23.07600 42.99800
C  53.22000 22.93200 43.31300
C  50.81700 22.69300 44.14500
C  51.62300 24.76500 41.00100
C  50.17000 24.58200 40.48100
H  49.96400 24.81000 38.95100
N  56.08400 22.60000 44.08200
C  55.27100 21.58300 43.64600
C  55.99600 20.30500 43.55900
C  57.32700 20.64600 44.00300
C  57.34400 22.08900 44.36400
C  55.43300 18.94900 43.10500
C  58.44100 19.65300 44.13800
O  58.38400 18.60800 43.52800
C  59.65300 19.92700 44.84200
N  57.58400 25.09700 45.39900
C  58.61600 24.18000 45.38500
C  59.91400 24.83600 45.85500
C  59.50400 26.31700 46.19400
C  58.00200 26.32000 45.87800
C  60.52500 24.14500 47.12800
C  60.35300 27.50600 45.40800
C  60.80500 28.79700 46.22500
N  55.19800 26.57100 44.96500
C  55.89800 27.64200 45.51300
C  55.05400 28.80000 45.38600
C  53.84700 28.37900 44.73500
C  54.06200 27.05300 44.44300
C  55.44000 30.17900 45.88300
C  52.60500 28.79100 44.31300
O  52.11800 29.86900 44.38700
C  51.88900 27.56400 43.60700
C  51.49100 27.97000 42.24500
O  52.27600 28.20100 41.33800
O  50.08700 28.11000 42.17000
C  49.57600 28.48100 40.76300
H  53.32300 20.83600 43.01200
H  59.44100 22.46300 44.96800
H  57.68100 28.38500 46.38200
H  50.76200 24.98800 42.94200
H  51.54400 22.39600 42.17200
H  51.46300 22.61900 45.02000
H  50.47300 21.67800 43.94700
H  50.03400 23.41600 44.37500
H  52.22400 24.02100 40.47800
H  52.03100 25.74300 40.74300
H  49.56500 25.41500 40.83800
H  49.79200 23.58700 40.71800
H  55.24700 18.22700 43.90000
H  56.15400 18.45800 42.45200
H  54.49800 19.05100 42.55400
H  60.22300 20.56200 44.16500
H  60.15500 18.96800 44.97400
H  59.42300 20.42700 45.78300
H  60.69200 24.78700 45.09300
H  59.55000 26.50400 47.26600
H  60.18600 23.13400 47.35200
H  60.46200 24.66600 48.08300
H  61.59400 24.19300 46.92000
H  59.90600 27.81600 44.46300
H  61.33200 27.09700 45.16000
H  60.22400 28.83400 47.14700
H  60.69300 29.73300 45.67900
H  61.84100 28.69400 46.54800
H  56.39000 30.08900 46.41100
H  54.79900 30.66700 46.61700
H  55.58200 30.92400 45.10000
H  51.01900 27.21500 44.16300
H  49.15200 29.48300 40.68900
H  48.86600 27.69600 40.50200
H  50.34500 28.51600 39.99200

