158

Mg 35.46800 1.42000 29.67400
C  33.12900 2.79500 31.96300
C  37.80000 1.55900 32.31000
C  37.80400 0.90000 27.48000
C  33.14500 2.03300 27.09000
N  35.48300 2.23100 31.83800
C  34.37000 2.55700 32.59000
C  34.64200 2.55100 34.08300
C  36.17000 2.37500 34.07800
C  36.49300 2.02400 32.68600
C  37.07600 3.60500 34.39800
C  33.79900 1.29900 34.69400
C  33.33400 1.41200 36.11600
H  34.05200 2.45400 37.05000
N  37.53600 1.23000 29.85700
C  38.32200 1.17300 30.93900
C  39.70700 0.83400 30.59800
C  39.68900 0.56600 29.23200
C  38.32500 0.92900 28.78100
C  40.76300 0.60700 31.63800
C  40.75700 -0.01900 28.34800
O  40.63900 -0.04100 27.11900
C  41.94700 -0.66000 28.89900
N  35.43500 1.34700 27.60000
C  36.51700 1.06100 26.94100
C  36.22200 1.00300 25.39000
C  34.64900 0.97300 25.35400
C  34.33900 1.49400 26.76800
C  36.94200 1.94400 24.41300
C  33.86900 -0.36500 24.95900
C  33.58900 -0.52300 23.44300
N  33.52600 2.02200 29.52300
C  32.71500 2.36400 28.40000
C  31.38400 2.76000 28.79700
C  31.55000 2.86100 30.22300
C  32.82900 2.54600 30.57100
C  30.23200 3.13000 27.89400
C  30.79700 3.32400 31.32300
O  29.66300 3.74900 31.40900
C  31.75600 3.22700 32.52800
C  31.61600 4.45500 33.33600
O  31.97000 5.60200 33.06900
O  31.03000 4.04900 34.49700
C  30.97800 5.06800 35.62400
H  38.51200 1.77000 33.11200
H  38.53000 0.71700 26.68400
H  32.44800 2.13500 26.25500
H  34.24900 3.47300 34.51100
H  36.41600 1.59200 34.79600
H  38.07900 3.24400 34.62400
H  36.59200 4.11900 35.22800
H  37.09900 4.29100 33.55100
H  34.53200 0.49300 34.65000
H  32.90100 1.15700 34.09400
H  33.35300 0.42800 36.58300
H  32.33100 1.83100 36.04100
H  40.86900 -0.47600 31.69800
H  40.45700 1.11900 32.55000
H  41.74300 0.99000 31.35300
H  42.51900 -1.15800 28.11600
H  41.65100 -1.42200 29.62000
H  42.61400 0.05300 29.38300
H  36.43200 -0.01400 25.05900
H  34.26800 1.73700 24.67700
H  37.93900 1.51900 24.29600
H  37.03400 2.96500 24.78400
H  36.40800 1.91700 23.46300
H  32.91800 -0.27000 25.48100
H  34.35200 -1.26700 25.33600
H  32.74700 0.10400 23.15300
H  33.13700 -1.49700 23.25400
H  34.52100 -0.28900 22.92800
H  30.63500 3.21800 26.88500
H  29.76800 4.01900 28.32200
H  29.43800 2.38400 27.90300
H  31.41300 2.32800 33.04000
H  31.18200 6.11700 35.40800
H  31.74400 4.78300 36.34600
H  30.01800 4.81000 36.07000
Mg 9.41300 47.99600 26.17500
C  7.19100 47.80500 28.76800
C  11.91700 49.09100 28.38000
C  11.42100 48.51900 23.58700
C  6.81200 47.23700 23.98200
N  9.52500 48.29400 28.33400
C  8.51000 48.17600 29.19300
C  8.89400 48.56600 30.66700
C  10.35100 49.18400 30.43000
C  10.63400 48.85900 28.97900
C  10.48500 50.71000 30.84000
C  8.93700 47.32500 31.57700
C  9.73000 47.37100 32.91200
H  9.00600 47.08100 34.30300
N  11.38200 48.77500 26.02000
C  12.33100 49.07400 27.00300
C  13.55200 49.38500 26.44500
C  13.42600 49.21500 25.01200
C  12.01800 48.79100 24.81500
C  14.71500 49.67300 27.31800
C  14.49800 49.39600 23.90700
O  14.34200 49.27600 22.70700
C  15.82500 49.91700 24.36800
N  9.08000 47.90000 24.00400
C  10.12300 48.12700 23.15700
C  9.70100 47.92300 21.64800
C  8.34600 47.14100 21.85200
C  7.96700 47.52900 23.35300
C  9.45100 49.29700 20.91100
C  8.39800 45.64000 21.48300
C  8.46200 45.24400 19.95400
N  7.47400 47.59500 26.24100
C  6.49600 47.34900 25.27900
C  5.17100 47.14600 25.90800
C  5.39800 47.32700 27.27200
C  6.77900 47.66500 27.40600
C  3.88500 46.79000 25.19300
C  4.79500 47.32300 28.57200
O  3.60900 47.08100 28.89400
C  5.90900 47.56500 29.61300
C  6.05500 46.28500 30.44100
O  6.73300 45.33500 30.17200
O  5.38100 46.42600 31.61400
C  5.51300 45.32500 32.62000
H  12.57300 49.38100 29.20400
H  12.03200 48.52700 22.68200
H  6.00900 46.88900 23.32900
H  8.22900 49.24900 31.19600
H  11.00200 48.64800 31.12000
H  10.62700 51.35300 29.97100
H  11.37500 50.77000 31.46600
H  9.55800 51.08100 31.27800
H  9.27400 46.39600 31.11700
H  7.88600 47.30900 31.86500
H  10.18200 48.35400 33.04200
H  10.48400 46.58500 32.89500
H  15.06900 50.70300 27.30300
H  15.45800 48.95000 26.97900
H  14.61700 49.50200 28.39000
H  16.41000 50.19900 23.49300
H  16.12600 49.09500 25.01900
H  15.62900 50.81200 24.95700
H  10.24100 47.14000 21.11500
H  7.59000 47.63700 21.24200
H  10.04000 49.20400 19.99800
H  9.82500 50.07400 21.57800
H  8.42800 49.56100 20.64200
H  7.39400 45.32100 21.76400
H  9.11700 45.06200 22.06400
H  9.06100 45.92900 19.35400
H  7.48500 45.24800 19.47000
H  8.90600 44.25000 19.90500
H  3.24600 46.17400 25.82500
H  4.32300 46.21700 24.37600
H  3.34600 47.64800 24.79000
H  5.71800 48.45400 30.21400
H  5.15700 45.61400 33.60900
H  6.58200 45.11300 32.60800
H  4.89800 44.47400 32.33000

