158

Mg 35.47700 1.68200 28.75100
C  33.51900 3.12700 31.22800
C  38.06200 1.35700 31.03300
C  37.35600 0.71200 26.20800
C  32.93900 2.36900 26.35200
N  35.84600 2.41800 30.91500
C  34.78200 2.82600 31.76900
C  35.27200 2.91600 33.22900
C  36.87700 2.62200 33.04500
C  36.94200 2.05900 31.62000
C  37.69800 3.91300 33.28700
C  34.49700 1.90600 34.08800
C  33.74200 2.38400 35.35800
H  34.35500 3.54300 36.21900
N  37.46700 1.11200 28.66300
C  38.35900 1.05400 29.66300
C  39.63100 0.63000 29.13800
C  39.47200 0.36600 27.74100
C  38.08400 0.82700 27.46000
C  40.81000 0.37300 30.09600
C  40.43900 -0.29300 26.72700
O  40.18100 -0.45100 25.54800
C  41.81600 -0.63300 27.21300
N  35.19400 1.50500 26.53300
C  36.11500 0.95200 25.76900
C  35.70900 0.86000 24.24400
C  34.19700 1.26400 24.34300
C  34.08300 1.74200 25.78300
C  36.47000 1.82600 23.25300
C  33.27400 0.08000 23.99600
C  32.24500 0.36000 22.85300
N  33.58100 2.40500 28.77400
C  32.66200 2.67100 27.73800
C  31.50700 3.48300 28.26400
C  31.82100 3.55200 29.64200
C  33.08700 2.93000 29.86600
C  30.28900 3.87400 27.46500
C  31.21800 4.00000 30.87700
O  30.09600 4.51000 31.08500
C  32.30000 3.61700 31.92800
C  32.57700 4.82100 32.78000
O  33.27600 5.75700 32.43700
O  31.72300 4.83100 33.82600
C  31.62700 6.02000 34.67200
H  38.85400 1.24500 31.77600
H  37.98400 0.14700 25.51600
H  32.23600 2.79200 25.63100
H  35.07700 3.94600 33.52700
H  37.13800 1.78000 33.68600
H  38.30100 3.74400 34.17900
H  37.05200 4.78700 33.37000
H  38.30100 4.15700 32.41200
H  35.26700 1.22000 34.44000
H  33.83500 1.31700 33.45400
H  33.75000 1.52200 36.02600
H  32.73900 2.74000 35.12700
H  40.83100 1.27900 30.70400
H  41.84800 0.32900 29.76700
H  40.55000 -0.49800 30.69700
H  42.44900 -0.90900 26.37000
H  41.77700 -1.39900 27.98900
H  42.10200 0.28200 27.73100
H  35.88500 -0.15000 23.87400
H  33.96800 2.11200 23.69800
H  35.67900 2.09200 22.55200
H  37.14100 1.18200 22.68500
H  36.92600 2.64400 23.81200
H  32.76800 -0.22500 24.91100
H  33.89700 -0.76000 23.68700
H  31.28600 0.16100 23.33000
H  32.33400 -0.41600 22.09200
H  32.22700 1.40200 22.53500
H  30.58500 4.20700 26.47000
H  29.78300 4.64100 28.05000
H  29.62500 3.00900 27.45100
H  31.97700 2.79500 32.56700
H  32.33400 6.81000 34.41900
H  31.65800 5.83500 35.74600
H  30.60600 6.35800 34.49400
Mg 48.59400 34.53500 26.93800
C  46.49000 33.15200 29.42400
C  48.88700 37.38300 28.83800
C  50.11400 36.06100 24.29000
C  47.90700 31.80800 24.91600
N  47.78900 35.25400 28.86400
C  47.08900 34.42300 29.77100
C  47.22800 34.90700 31.19100
C  47.50000 36.40100 30.99700
C  48.14600 36.37500 29.46700
C  46.22500 37.33400 31.16600
C  48.41200 34.19400 31.97800
C  48.40200 34.33800 33.51600
H  47.33700 35.26100 34.19300
N  49.42000 36.47900 26.60400
C  49.51600 37.48300 27.58100
C  50.13000 38.63000 26.99700
C  50.39400 38.31300 25.60100
C  49.91000 36.93100 25.40500
C  50.53600 39.81800 27.75200
C  51.10800 39.13900 24.49200
O  51.38500 38.59100 23.36200
C  51.54400 40.56000 24.70000
N  48.95400 33.99600 24.97100
C  49.66900 34.77100 24.12000
C  49.67700 34.07500 22.70700
C  49.41300 32.58100 23.01300
C  48.76600 32.76400 24.42000
C  48.82100 34.85900 21.74500
C  50.53100 31.54100 23.11900
C  51.67400 31.86300 24.14100
N  47.52400 32.78700 27.11900
C  47.33600 31.78400 26.17900
C  46.54100 30.74400 26.77600
C  46.11700 31.27400 27.95000
C  46.78600 32.45300 28.15800
C  46.26600 29.40800 26.20300
C  45.37900 30.98400 29.19800
O  44.76000 30.05700 29.59500
C  45.47700 32.25300 30.11100
C  45.72900 31.86000 31.49000
O  46.68900 31.26100 31.97000
O  44.70200 32.29400 32.25900
C  44.78800 31.84700 33.66300
H  48.86200 38.32400 29.39100
H  50.60500 36.44300 23.39300
H  47.74600 30.95100 24.25800
H  46.28700 34.69300 31.69800
H  48.29800 36.87400 31.56800
H  45.40200 36.83500 31.67700
H  45.85000 37.57500 30.17100
H  46.54800 38.20400 31.73800
H  49.34000 34.68800 31.69200
H  48.49700 33.14200 31.70300
H  49.37400 34.71800 33.82900
H  48.38400 33.38900 34.05100
H  51.32800 39.40300 28.37400
H  49.70200 39.94300 28.44300
H  50.66400 40.76400 27.22500
H  52.47300 40.57700 25.26900
H  50.77000 41.16000 25.17800
H  51.57300 41.02100 23.71200
H  50.68700 34.24100 22.33200
H  48.58900 32.14100 22.45200
H  48.13200 35.43000 22.36800
H  48.32800 34.16300 21.06600
H  49.44500 35.55300 21.18200
H  50.89200 31.42000 22.09800
H  50.10900 30.60300 23.48200
H  51.41500 31.43500 25.11000
H  51.69500 32.95100 24.20600
H  52.66300 31.55400 23.80600
H  45.42800 28.96400 26.74200
H  47.06600 28.69700 26.41000
H  45.96900 29.46700 25.15600
H  44.58200 32.86700 30.01000
H  45.78300 32.01000 34.07900
H  44.69700 30.76100 33.67500
H  43.95100 32.36300 34.13300

