158

Mg 45.60600 4.31200 46.89700
C  43.71600 7.24200 46.54600
C  42.70100 2.50000 46.29600
C  47.46500 1.62000 46.50300
C  48.52300 6.37300 46.35800
N  43.42700 4.79700 46.67200
C  42.97500 6.09400 46.53800
C  41.42200 6.06600 46.34900
C  41.07200 4.56700 46.56800
C  42.47700 3.83600 46.62400
C  40.17100 4.35300 47.81400
C  40.90000 6.62600 44.96500
C  41.88300 6.61800 43.75500
H  41.13400 6.02500 42.56100
N  45.14400 2.29500 46.55300
C  43.91700 1.77700 46.23400
C  44.04200 0.36400 45.91300
C  45.44000 0.04800 45.98600
C  46.05900 1.36000 46.37900
C  42.88100 -0.56800 45.34300
C  46.03300 -1.29400 45.67500
O  45.37300 -2.30800 45.37000
C  47.57200 -1.46100 45.47200
N  47.66700 4.06300 46.38300
C  48.17600 2.83000 46.50100
C  49.74100 2.84600 46.32700
C  50.06300 4.35800 46.31200
C  48.70400 4.98500 46.42800
C  50.67900 1.95900 47.25400
C  50.93500 4.92900 45.17200
C  52.21400 5.71000 45.47900
N  46.07300 6.34400 46.66500
C  47.27400 6.98600 46.45300
C  47.00200 8.45400 46.45100
C  45.61000 8.63700 46.60100
C  45.10400 7.27700 46.62000
C  48.06600 9.54900 46.22900
C  44.48400 9.53900 46.63400
O  44.37500 10.77000 46.68700
C  43.23400 8.69800 46.58300
C  42.36200 8.99400 47.77300
O  42.13600 8.29300 48.81200
O  41.71100 10.21600 47.64500
C  40.78100 10.63700 48.69600
H  41.75300 2.01400 46.05700
H  48.13700 0.77900 46.32100
H  49.43000 6.98200 46.37000
H  41.11800 6.66900 47.20500
H  40.56300 4.26700 45.65200
H  39.63600 5.23300 48.17100
H  40.86700 4.10900 48.61600
H  39.40600 3.60800 47.59200
H  40.76800 7.70000 45.09800
H  39.96200 6.24000 44.56700
H  42.61800 5.84300 43.97100
H  42.37500 7.54100 43.44500
H  43.03700 -0.77700 44.28400
H  41.84500 -0.23600 45.40200
H  42.83800 -1.49900 45.90800
H  47.83700 -2.48000 45.19300
H  48.11600 -1.45700 46.41700
H  47.99300 -0.69700 44.81800
H  50.00600 2.41300 45.36200
H  50.65200 4.58800 47.20000
H  51.31400 1.24500 46.73000
H  50.02500 1.44700 47.95900
H  51.20100 2.63000 47.93600
H  50.37800 5.66400 44.59000
H  51.20700 4.12200 44.49200
H  53.10600 5.13500 45.22900
H  52.16200 5.99600 46.53000
H  52.14700 6.60500 44.86200
H  48.59500 9.69300 47.17100
H  47.63900 10.51300 45.95100
H  48.82900 9.26400 45.50500
H  42.77900 8.95600 45.62700
H  40.67100 11.72200 48.70300
H  41.02600 10.57400 49.75700
H  39.87400 10.11500 48.39200
Mg 47.46600 26.07000 28.17800
C  48.59000 27.93800 30.89900
C  46.51800 23.63400 30.42100
C  46.74500 24.10100 25.57100
C  48.81700 28.55200 26.08000
N  47.43300 25.92600 30.40000
C  47.88300 26.84300 31.28200
C  47.67400 26.34800 32.74800
C  47.27800 24.90600 32.57500
C  47.11600 24.76800 31.02500
C  48.33500 23.88400 33.11500
C  46.58800 27.15000 33.50800
C  47.03800 27.70400 34.88900
H  46.05500 27.76200 36.08700
N  46.70700 24.15600 28.00800
C  46.35100 23.32700 29.01100
C  45.90900 22.08800 28.46500
C  45.84300 22.30300 27.06800
C  46.43800 23.57200 26.79600
C  45.62000 20.84600 29.31000
C  45.37500 21.38100 25.98000
O  45.57200 21.52300 24.78400
C  44.49100 20.26100 26.34300
N  47.92500 26.18300 26.17200
C  47.39700 25.28400 25.26500
C  47.52500 25.83200 23.83200
C  47.98400 27.33500 24.06100
C  48.21700 27.39200 25.58400
C  48.41200 24.89500 22.96400
C  47.04300 28.55100 23.55600
C  47.57000 29.68800 22.66100
N  48.50200 27.86600 28.39600
C  49.03800 28.70100 27.45600
C  49.77000 29.75600 28.05900
C  49.57300 29.49600 29.43000
C  48.84200 28.31700 29.59700
C  50.54600 30.87100 27.37500
C  49.85600 30.06800 30.73700
O  50.33900 31.17900 31.05200
C  49.18800 29.18400 31.79200
C  50.31500 28.77800 32.73900
O  51.17600 27.98600 32.49400
O  50.15000 29.41700 33.92800
C  51.29400 29.29500 34.87200
H  46.20400 22.93100 31.19500
H  46.32600 23.75700 24.62300
H  49.24400 29.32700 25.44000
H  48.59800 26.34200 33.32700
H  46.39400 24.63600 33.15300
H  47.84500 23.27200 33.87200
H  49.26600 24.37200 33.40500
H  48.57800 23.20600 32.29700
H  45.61900 26.66300 33.61500
H  46.28800 27.95500 32.83700
H  47.45100 28.70900 34.80600
H  47.82400 27.02200 35.21200
H  46.31000 20.09600 28.92600
H  44.59700 20.56200 29.06300
H  45.65600 20.88900 30.39900
H  44.22500 19.64000 25.48700
H  43.61600 20.63900 26.87200
H  45.10000 19.68400 27.04000
H  46.51300 25.94000 23.44000
H  49.00200 27.41600 23.68200
H  48.70700 24.11400 23.66500
H  49.32600 25.41400 22.67600
H  47.90700 24.56700 22.05600
H  46.60700 28.91400 24.48600
H  46.14900 28.18200 23.05300
H  48.57300 29.56300 22.25400
H  47.52500 30.52800 23.35400
H  46.95200 29.78600 21.76800
H  50.55500 31.77200 27.98800
H  50.01900 31.17500 26.47000
H  51.52300 30.46200 27.12000
H  48.30600 29.53000 32.33200
H  51.19900 28.36100 35.42700
H  51.30300 30.07800 35.63000
H  52.25600 29.17500 34.37500

