158

Mg 30.51800 58.45100 40.10800
C  27.59500 56.65200 39.18800
C  32.46200 55.85300 38.92100
C  33.12500 60.59600 40.08200
C  28.35200 61.04300 41.07800
N  29.99900 56.47500 39.25400
C  28.82300 56.00400 38.92900
C  28.95200 54.55300 38.40800
C  30.36700 54.21500 38.97200
C  31.03500 55.61800 39.02600
C  30.43600 53.61500 40.40100
C  28.93400 54.61200 36.83100
C  27.64800 54.13100 36.22400
H  26.88000 55.04200 35.30900
N  32.53200 58.27900 39.68900
C  33.08800 57.11400 39.11000
C  34.53500 57.36900 39.03500
C  34.72600 58.75100 39.30800
C  33.47800 59.32300 39.76700
C  35.48800 56.37600 38.52700
C  36.08900 59.41000 39.17700
O  37.00700 58.77300 38.66600
C  36.41700 60.77600 39.65800
N  30.65700 60.49400 40.40600
C  31.90300 61.16900 40.35100
C  31.74600 62.60600 41.00500
C  30.28900 62.62500 41.54800
C  29.71900 61.35800 40.98000
C  32.77000 63.08300 42.03700
C  29.49900 63.97600 41.30200
C  28.43300 64.30700 42.43500
N  28.35900 58.77400 40.16700
C  27.65400 59.90300 40.53500
C  26.23600 59.65000 40.44800
C  26.11100 58.32700 39.88100
C  27.47600 57.88900 39.70400
C  25.22200 60.56500 41.05800
C  25.23600 57.28900 39.35600
O  24.03900 57.08900 39.17700
C  26.17300 56.12400 38.92600
C  25.70800 54.93900 39.74300
O  26.15600 54.62100 40.86600
O  24.88200 54.15200 38.89900
C  24.38600 52.96800 39.55500
H  32.89800 54.88000 38.68200
H  33.96500 61.29400 40.05600
H  27.79100 61.92800 41.38400
H  28.24800 53.84700 38.84800
H  30.95100 53.51700 38.37200
H  30.89400 52.62700 40.35400
H  29.47200 53.31800 40.81400
H  30.91700 54.32000 41.07900
H  29.70800 53.91000 36.52300
H  29.25400 55.55800 36.39500
H  27.02300 53.76800 37.04100
H  27.94300 53.33600 35.53900
H  35.56600 56.29000 37.44300
H  35.13100 55.37900 38.78500
H  36.49300 56.40500 38.94700
H  35.99200 60.89000 40.65600
H  35.97900 61.50300 38.97400
H  37.48700 60.97700 39.61000
H  31.77600 63.24800 40.12500
H  30.37900 62.43700 42.61700
H  32.28900 63.27100 42.99700
H  33.37600 63.93300 41.72600
H  33.39700 62.21500 42.23900
H  28.99500 63.90300 40.33900
H  30.27000 64.72700 41.13100
H  27.57700 64.85100 42.03500
H  28.91900 64.92600 43.18800
H  28.10500 63.43500 43.00000
H  24.51500 59.92400 41.58400
H  24.62700 61.08000 40.30300
H  25.74200 61.28500 41.69000
H  25.96000 56.00800 37.86300
H  25.13200 52.17600 39.48700
H  23.59800 52.65700 38.87000
H  23.92200 53.08400 40.53500
Mg -2.14700 34.42900 25.97600
C  -3.44300 32.87800 28.77900
C  -0.23300 36.39400 27.90500
C  -1.30000 36.04900 23.11300
C  -4.30000 32.39000 23.96400
N  -2.14400 34.88400 28.15900
C  -2.65400 34.03700 29.14100
C  -2.07300 34.29700 30.46100
C  -1.19000 35.53400 30.24800
C  -1.17000 35.61900 28.66800
C  -1.62900 36.81400 31.01800
C  -1.34600 33.06700 31.13100
C  -1.95000 32.46200 32.38000
H  -1.15500 32.55900 33.64800
N  -0.85500 35.93700 25.60000
C  -0.05100 36.52300 26.50600
C  1.01300 37.28500 25.83800
C  0.68000 37.19100 24.41900
C  -0.58900 36.48300 24.34700
C  2.17400 37.86800 26.60400
C  1.47100 37.73100 23.24200
O  1.06800 37.65900 22.08200
C  2.82300 38.32100 23.54800
N  -2.75600 34.27500 23.78500
C  -2.40800 35.21700 22.84400
C  -2.83400 34.83000 21.40000
C  -3.64100 33.54400 21.72200
C  -3.57400 33.35800 23.27300
C  -3.58900 35.91700 20.56500
C  -3.15500 32.28000 21.01800
C  -2.04000 31.41200 21.63800
N  -3.64400 33.01000 26.22500
C  -4.29200 32.19100 25.32800
C  -4.96300 31.18200 25.98700
C  -4.76500 31.47300 27.34600
C  -3.83300 32.49700 27.44900
C  -5.74100 30.16800 25.38000
C  -5.06200 31.03000 28.64700
O  -5.81300 30.12600 28.98600
C  -4.29600 31.93700 29.67000
C  -5.18000 32.56900 30.59700
O  -5.81500 33.60900 30.33100
O  -5.21100 31.92900 31.81500
C  -5.95400 32.44200 32.91100
H  0.47500 36.85100 28.59900
H  -1.03100 36.62300 22.22400
H  -4.75100 31.58700 23.37900
H  -2.95300 34.51200 31.06700
H  -0.15400 35.38700 30.55100
H  -1.88100 37.59400 30.30000
H  -0.78100 37.24400 31.55200
H  -2.30700 36.64300 31.85400
H  -0.36600 33.42900 31.44100
H  -1.18400 32.37100 30.30800
H  -2.14100 31.42200 32.11200
H  -2.85400 33.02400 32.61300
H  3.15200 37.81200 26.12600
H  2.13500 37.34400 27.55900
H  1.94200 38.91500 26.80100
H  2.67500 39.16900 24.21700
H  3.28000 38.62000 22.60400
H  3.40700 37.50200 23.96600
H  -1.91000 34.60800 20.86600
H  -4.68200 33.74800 21.47200
H  -3.61400 36.86300 21.10600
H  -4.64100 35.63400 20.52900
H  -3.12100 35.96900 19.58300
H  -2.84500 32.48500 19.99300
H  -4.02400 31.64200 20.85400
H  -1.53500 31.69100 22.56200
H  -1.30600 31.34600 20.83400
H  -2.45600 30.41700 21.79500
H  -5.44700 29.70200 24.43900
H  -6.81100 30.35400 25.46400
H  -5.56000 29.34300 26.07000
H  -3.65200 31.32700 30.30400
H  -5.76900 33.48800 33.15600
H  -5.63700 31.83200 33.75600
H  -7.02400 32.26100 32.80600

