158

Mg 26.13200 50.56800 26.36200
C  23.62300 51.22000 28.75800
C  28.09000 49.23700 28.77000
C  28.50900 50.07900 24.02200
C  24.04400 51.95300 23.98600
N  25.88300 50.32300 28.56400
C  24.82100 50.58800 29.35000
C  25.12500 50.27200 30.82900
C  26.60900 49.87900 30.76700
C  26.90200 49.80800 29.23900
C  27.57900 50.84300 31.42900
C  24.09400 49.26300 31.42600
C  23.39000 49.72200 32.70200
H  23.49600 48.90400 34.00400
N  28.04300 49.77600 26.40700
C  28.68000 49.26100 27.50200
C  29.97500 48.72700 27.11400
C  30.11300 49.08100 25.71600
C  28.84800 49.63500 25.29900
C  30.96700 48.03000 28.02000
C  31.32000 48.75600 24.82300
O  31.39200 49.06300 23.62600
C  32.46400 48.03000 25.37900
N  26.30400 50.99900 24.34600
C  27.36700 50.60800 23.53800
C  27.07600 51.05300 22.00800
C  25.61700 51.67600 22.03500
C  25.24400 51.40300 23.52400
C  28.14800 51.95600 21.40300
C  24.62300 51.33300 20.91000
C  23.38900 50.42500 21.21900
N  24.18600 51.34500 26.31900
C  23.53500 51.98500 25.25400
C  22.26500 52.51800 25.71000
C  22.31800 52.32700 27.10000
C  23.44700 51.56700 27.39900
C  21.33600 53.31700 24.83700
C  21.59500 52.60400 28.37000
O  20.61600 53.28700 28.52800
C  22.46800 51.88200 29.45700
C  23.00900 52.99900 30.31800
O  24.02400 53.65900 30.05200
O  22.12300 53.20800 31.34800
C  22.47700 54.11700 32.44200
H  28.68200 48.78200 29.56700
H  29.27000 49.95100 23.24900
H  23.33900 52.49700 23.35300
H  25.03600 51.25000 31.30200
H  26.72500 48.89900 31.23100
H  28.11100 51.35200 30.62500
H  28.29200 50.20700 31.95400
H  27.01700 51.58600 31.99500
H  24.62300 48.34600 31.68400
H  23.47200 48.94900 30.58800
H  22.33800 49.64300 32.42500
H  23.52600 50.79300 32.85600
H  31.13600 46.98600 27.75600
H  30.77700 47.95000 29.09000
H  31.88900 48.61200 28.01900
H  32.21700 47.07700 25.84600
H  32.76500 48.71800 26.16900
H  33.27400 47.79900 24.68700
H  27.02600 50.10600 21.47200
H  25.70500 52.76200 22.06000
H  27.81400 52.95000 21.10600
H  28.34600 51.45000 20.45800
H  29.09500 51.91300 21.94200
H  25.16500 50.90100 20.06800
H  24.34600 52.35300 20.64300
H  23.09900 49.85300 20.33700
H  22.52300 51.00400 21.54000
H  23.73200 49.72400 21.98000
H  20.82300 54.12800 25.35500
H  20.59200 52.68300 24.35400
H  21.80800 53.86400 24.02100
H  21.93900 51.26500 30.18300
H  23.29800 53.65100 32.98600
H  21.66900 54.19000 33.17100
H  22.77500 55.11200 32.11300
Mg 16.42200 52.21500 25.67400
C  18.28600 51.00600 28.21500
C  14.09600 53.40400 27.96700
C  14.52400 53.23300 23.17700
C  18.77900 50.83900 23.43600
N  16.26600 52.29400 27.88500
C  17.16100 51.77800 28.76800
C  16.71300 51.84100 30.23700
C  15.25700 52.66800 30.05700
C  15.21000 52.84000 28.53100
C  14.01000 52.02700 30.68900
C  17.72300 52.54400 31.17800
C  17.93200 52.00000 32.57900
H  16.85700 51.13500 33.24300
N  14.55500 53.23100 25.61000
C  13.70600 53.56300 26.64300
C  12.62000 54.32400 26.08600
C  12.75200 54.30000 24.65200
C  14.02100 53.51000 24.40700
C  11.56200 54.89300 27.02700
C  11.85900 54.96100 23.55100
O  12.01800 54.93300 22.32500
C  10.61500 55.65400 23.88000
N  16.58100 51.86600 23.50600
C  15.72400 52.61400 22.73600
C  16.18500 52.64200 21.27200
C  17.54900 51.85600 21.39800
C  17.69500 51.51700 22.83000
C  15.17700 51.93400 20.28900
C  18.76700 52.66400 20.85100
C  19.90600 51.89900 20.18100
N  18.07900 51.06200 25.74800
C  18.98800 50.59400 24.79500
C  20.09000 49.98000 25.38500
C  19.77300 50.03500 26.76600
C  18.57300 50.72200 26.89900
C  21.20600 49.26900 24.70100
C  20.24900 49.58000 28.08800
O  21.26500 49.01400 28.49600
C  19.26100 50.13500 28.99700
C  18.66300 48.98800 29.71400
O  17.66100 48.39200 29.32800
O  19.20000 48.76000 30.95700
C  18.50100 47.63600 31.71300
H  13.26800 53.68900 28.61900
H  13.95500 53.68300 22.36100
H  19.62600 50.74400 22.75300
H  16.47600 50.86200 30.65200
H  15.44500 53.61900 30.55700
H  14.28300 51.13900 31.25900
H  13.32900 51.55200 29.98400
H  13.37200 52.73500 31.21900
H  17.35200 53.55900 31.31900
H  18.68900 52.62000 30.67900
H  18.10200 52.85200 33.23900
H  18.85600 51.42300 32.61100
H  11.37600 55.84600 26.53200
H  11.98100 55.01200 28.02600
H  10.66300 54.27900 27.07600
H  10.13400 55.84400 22.92000
H  11.02800 56.51700 24.40300
H  9.93900 55.02000 24.45200
H  16.37000 53.65400 20.91000
H  17.56300 50.96600 20.76800
H  14.76300 52.64000 19.57000
H  14.34800 51.55400 20.88600
H  15.60400 51.11400 19.71100
H  19.23900 53.33000 21.57300
H  18.41700 53.22100 19.98200
H  20.81600 51.83700 20.77700
H  20.04500 52.24100 19.15500
H  19.53700 50.87500 20.22500
H  22.17200 49.39200 25.19200
H  21.22500 49.66500 23.68500
H  21.05800 48.19000 24.73400
H  19.70300 50.72600 29.80000
H  18.77500 47.89700 32.73500
H  18.91700 46.68200 31.39000
H  17.42400 47.74900 31.59000

