158

Mg 49.53300 46.16800 42.88400
C  45.97200 46.46900 41.89700
C  49.23300 42.87400 42.01000
C  52.80500 45.96100 43.08000
C  49.63400 49.64100 43.03000
N  47.81500 44.87800 42.00700
C  46.47200 45.21500 41.54800
C  45.70300 43.95500 41.08000
C  46.64000 42.77600 41.48300
C  47.96400 43.59800 41.87000
C  46.15600 42.00000 42.75600
C  45.23700 43.84000 39.57500
C  46.31400 44.38800 38.52800
H  46.69800 43.54100 37.30000
N  50.87900 44.63300 42.55100
C  50.53600 43.30400 42.28000
C  51.77800 42.50500 42.34500
C  52.87900 43.38600 42.53700
C  52.23000 44.76800 42.76700
C  51.76600 41.02700 42.10300
C  54.28400 42.97000 42.36900
O  54.54100 41.84100 41.93100
C  55.40900 43.93200 42.52500
N  50.97100 47.59900 42.87500
C  52.28200 47.28300 43.15100
C  53.09900 48.51100 43.56800
C  52.03800 49.65200 43.35900
C  50.79300 48.92500 42.95300
C  53.53700 48.32200 45.09300
C  52.31900 50.76700 42.28200
C  52.11400 52.21100 42.82400
N  48.06700 47.80500 42.73900
C  48.34100 49.13500 42.76900
C  46.99400 49.82400 42.67600
C  46.12900 48.86300 42.23500
C  46.79000 47.55100 42.34200
C  46.73900 51.28500 42.79500
C  44.75600 48.60900 41.81100
O  43.84600 49.34600 41.69000
C  44.64800 47.06700 41.44000
C  43.41300 46.44200 42.01900
O  42.42200 46.05100 41.40400
O  43.50600 46.52500 43.40000
C  42.25100 46.08800 44.11500
H  49.10000 41.83000 41.72000
H  53.86700 45.88900 43.32600
H  49.72800 50.71800 43.18700
H  44.82100 43.98200 41.72000
H  46.75100 42.20300 40.56200
H  46.88200 42.04900 43.56700
H  46.22800 40.92700 42.57500
H  45.22400 42.40700 43.14900
H  44.39900 44.49600 39.33700
H  44.88200 42.82600 39.39300
H  47.29300 44.59900 38.95900
H  45.91900 45.32000 38.12300
H  52.48300 40.48100 42.71700
H  52.15400 40.86500 41.09700
H  50.81900 40.49000 42.15400
H  55.34500 44.71100 41.76500
H  56.35000 43.39200 42.42000
H  55.40900 44.40000 43.50900
H  53.95200 48.59000 42.89400
H  51.97300 50.24900 44.26800
H  54.05500 47.40000 45.35800
H  52.62100 48.26500 45.68100
H  54.13700 49.17500 45.41000
H  51.64100 50.72500 41.42900
H  53.34300 50.73200 41.91100
H  52.07100 52.23800 43.91300
H  51.19900 52.69600 42.48400
H  53.01100 52.76600 42.54700
H  46.81200 51.57800 41.74800
H  47.46700 51.68300 43.50200
H  45.75000 51.52700 43.18200
H  44.60100 46.96900 40.35500
H  41.83500 45.25600 43.54900
H  41.66000 47.00300 44.08400
H  42.35200 45.84700 45.17300
Mg -12.27900 16.00600 41.69000
C  -9.46000 14.04700 40.96000
C  -10.48200 18.74600 40.39900
C  -15.12600 17.55200 41.20500
C  -13.93000 13.07900 42.69300
N  -10.19000 16.30000 40.69900
C  -9.20100 15.39000 40.57200
C  -7.89900 15.99300 39.89000
C  -8.24500 17.45900 39.82600
C  -9.71800 17.53100 40.33400
C  -7.29900 18.38500 40.69000
C  -7.66100 15.34700 38.51000
C  -6.23000 14.93300 38.13900
H  -5.51800 15.67100 37.04900
N  -12.77000 17.95000 41.10600
C  -11.88800 18.86400 40.59100
C  -12.66300 20.05500 40.38200
C  -14.00900 19.70300 40.45900
C  -14.05300 18.35700 40.93800
C  -12.00300 21.33100 40.03200
C  -15.26500 20.62700 40.12400
O  -15.05800 21.77900 39.72300
C  -16.74600 20.08200 40.16300
N  -14.19500 15.43300 42.04500
C  -15.23500 16.24800 41.74400
C  -16.59800 15.53100 41.80600
C  -16.25400 14.07300 42.39400
C  -14.71500 14.18500 42.41600
C  -17.84700 16.26800 42.61000
C  -16.87600 12.99600 41.59600
C  -17.57500 11.91500 42.54800
N  -11.80500 13.97600 41.92700
C  -12.59000 12.93800 42.43300
C  -11.75800 11.73200 42.52900
C  -10.55400 12.10500 41.88900
C  -10.65100 13.48100 41.47100
C  -12.11000 10.35300 43.00200
C  -9.28500 11.61700 41.51600
O  -8.87500 10.50600 41.61100
C  -8.55700 12.83100 40.84100
C  -7.27900 13.05800 41.50200
O  -7.11300 13.13600 42.72100
O  -6.25500 13.05800 40.64000
C  -4.86300 13.33300 41.06500
H  -9.99500 19.66900 40.07700
H  -16.14400 17.94000 41.13200
H  -14.52500 12.27800 43.13600
H  -7.05300 15.90800 40.57200
H  -8.05600 17.81600 38.81400
H  -6.69600 18.89700 39.94000
H  -6.75000 17.91700 41.50700
H  -7.96200 19.15200 41.09100
H  -7.96500 16.00300 37.69500
H  -8.22200 14.42300 38.37100
H  -6.27900 13.87300 37.89000
H  -5.61100 15.10500 39.01900
H  -11.71000 21.38000 38.98300
H  -11.11000 21.43700 40.64800
H  -12.62300 22.20000 40.24900
H  -17.53700 20.66300 39.68800
H  -16.96600 19.98700 41.22600
H  -16.75900 19.13000 39.63400
H  -17.01900 15.41700 40.80700
H  -16.43600 13.96500 43.46400
H  -17.83000 15.87100 43.62500
H  -18.70100 15.94900 42.01300
H  -17.70800 17.34600 42.52600
H  -16.04200 12.57900 41.03300
H  -17.54300 13.33000 40.80100
H  -16.90400 11.45500 43.27300
H  -17.96300 11.15700 41.86700
H  -18.42800 12.37900 43.04400
H  -12.74100 10.44200 43.88600
H  -11.24400 9.77300 43.32300
H  -12.69400 9.99200 42.15500
H  -8.44100 12.66500 39.77100
H  -4.52600 12.52000 41.70800
H  -4.81000 14.25700 41.64100
H  -4.24600 13.50300 40.18200

