158

Mg 24.19600 -4.50700 45.79700
C  26.43400 -2.15500 44.24900
C  21.67100 -3.07500 43.90400
C  22.31100 -7.30100 46.27500
C  27.03600 -6.03600 47.07800
N  24.14200 -2.89500 44.28800
C  25.09700 -2.01000 43.88100
C  24.57200 -0.93600 42.93200
C  23.06600 -1.07300 43.25100
C  22.92000 -2.43000 43.88700
C  22.48700 0.18900 44.08300
C  25.03400 -1.14900 41.46500
C  25.96700 -0.22600 40.61500
H  25.65600 -0.30700 39.17200
N  22.16100 -5.02400 45.35500
C  21.32100 -4.30300 44.55800
C  20.06700 -4.97900 44.48800
C  20.15700 -6.19200 45.21200
C  21.61800 -6.23700 45.65400
C  18.95800 -4.40500 43.75200
C  18.96900 -7.19300 45.39600
O  17.82700 -6.89100 45.04200
C  19.13100 -8.47700 46.17200
N  24.59800 -6.38600 46.53400
C  23.67000 -7.38500 46.74800
C  24.35400 -8.61500 47.42400
C  25.77500 -8.12800 47.75500
C  25.80900 -6.74900 47.10200
C  23.68900 -9.39500 48.69100
C  26.89000 -9.19600 47.43000
C  27.57900 -9.88200 48.61100
N  26.31700 -4.04000 45.93300
C  27.28400 -4.81200 46.47700
C  28.55400 -4.06300 46.34100
C  28.24900 -3.00100 45.48900
C  26.88800 -3.10200 45.25100
C  29.92200 -4.52500 46.87800
C  28.88100 -1.91700 44.72400
O  30.02300 -1.49600 44.65200
C  27.60200 -1.32800 43.96300
C  27.39500 0.13600 44.34400
O  27.00900 0.61300 45.42100
O  27.57900 0.83600 43.19200
C  27.10600 2.23100 43.15300
H  20.87200 -2.51700 43.41000
H  21.81100 -8.26300 46.40700
H  27.94000 -6.49900 47.47900
H  25.05300 -0.01600 43.26300
H  22.51900 -1.09500 42.30900
H  23.29000 0.75200 44.55900
H  21.89500 -0.15900 44.92900
H  21.91100 0.76600 43.36000
H  24.19600 -1.37600 40.80700
H  25.53000 -2.12000 41.44800
H  26.97400 -0.61800 40.76200
H  25.95700 0.82100 40.91800
H  19.29500 -3.92300 42.83400
H  18.34600 -3.79100 44.41300
H  18.47600 -5.32700 43.42700
H  19.80600 -9.11700 45.60300
H  18.23400 -9.07000 46.35000
H  19.62200 -8.22800 47.11200
H  24.34900 -9.37100 46.63800
H  25.89500 -7.85000 48.80200
H  23.71100 -10.47000 48.51100
H  22.64700 -9.10500 48.82800
H  24.30500 -9.20600 49.57100
H  27.56500 -8.75800 46.69400
H  26.35100 -9.96000 46.87000
H  27.49800 -9.39000 49.58000
H  28.64100 -9.99100 48.39200
H  27.11500 -10.86800 48.63200
H  30.15900 -5.51000 46.47600
H  29.88500 -4.39000 47.95900
H  30.64100 -3.80000 46.49500
H  27.96200 -1.43900 42.94000
H  26.30400 2.43500 43.86300
H  26.92400 2.47800 42.10700
H  27.98900 2.82000 43.40300
Mg 45.17500 5.26800 47.15000
C  43.15700 8.15200 46.51600
C  42.60700 3.27900 46.21000
C  47.39500 2.69400 47.10200
C  47.96800 7.44000 47.07600
N  43.11900 5.72200 46.41600
C  42.46100 6.93900 46.31200
C  41.05600 6.77100 45.81500
C  40.87400 5.20700 45.90700
C  42.28400 4.63300 46.18100
C  39.76100 4.80100 46.91800
C  40.78700 7.59400 44.48100
C  40.20200 6.74700 43.32800
H  39.90900 7.60500 42.08500
N  45.00800 3.23900 46.81400
C  43.82600 2.58600 46.51700
C  44.06000 1.18100 46.65600
C  45.44700 0.96000 46.87300
C  46.04400 2.29600 46.92500
C  42.96600 0.17500 46.27500
C  46.06500 -0.40600 46.86200
O  45.34600 -1.38100 46.79000
C  47.57800 -0.58800 46.91100
N  47.40700 5.12200 47.05400
C  48.04500 3.92500 47.10300
C  49.61800 4.00900 47.09300
C  49.77800 5.55000 46.89900
C  48.29200 6.14000 47.05600
C  50.28400 3.20900 48.25600
C  50.50000 6.10600 45.61300
C  49.97500 5.56400 44.26500
N  45.49100 7.34400 47.07600
C  46.72300 8.10500 47.09000
C  46.41900 9.49300 47.06100
C  45.05200 9.53500 46.92800
C  44.51000 8.27000 46.87700
C  47.41300 10.53600 47.00600
C  43.95400 10.44500 46.72800
O  43.91500 11.69100 46.66800
C  42.69100 9.53300 46.46000
C  41.64900 9.88500 47.48500
O  41.52700 9.31600 48.57300
O  40.90900 10.99700 47.03200
C  39.83700 11.36400 47.97800
H  41.76400 2.65400 45.90800
H  48.18600 1.94100 47.11800
H  48.80000 8.14400 47.14500
H  40.43200 7.19000 46.60500
H  40.55300 4.79400 44.95100
H  39.31700 5.65800 47.42400
H  40.09700 4.10100 47.68400
H  38.99500 4.26600 46.35700
H  41.63800 8.19000 44.15300
H  39.94600 8.23600 44.74500
H  39.31900 6.21600 43.68500
H  41.02500 6.08700 43.05400
H  42.05100 0.61400 46.67300
H  43.06000 -0.75000 46.84300
H  42.91500 -0.14700 45.23500
H  47.80500 -1.65100 46.82600
H  47.95800 -0.23800 47.87100
H  48.11100 -0.11500 46.08600
H  49.83400 3.51000 46.14900
H  50.30900 5.78200 47.82200
H  51.20900 3.71700 48.53100
H  50.55500 2.20500 47.93100
H  49.65200 2.97800 49.11300
H  51.57100 5.91700 45.68800
H  50.50000 7.19500 45.64200
H  48.95600 5.20800 44.41300
H  50.59200 4.69100 44.05500
H  50.07700 6.14600 43.34900
H  48.19200 10.55400 47.76800
H  46.83800 11.46100 47.00000
H  47.93000 10.46000 46.04900
H  42.27100 9.86500 45.51100
H  39.35100 12.21100 47.49500
H  40.15800 11.67300 48.97200
H  39.09900 10.56200 47.96700

