158

Mg 1.66000 -1.90900 44.06900
C  5.15700 -1.40000 43.46700
C  1.00500 0.83300 42.26700
C  -1.36200 -3.08200 43.88200
C  2.78600 -5.10900 45.42600
N  2.95700 -0.55500 42.97900
C  4.30700 -0.37900 42.97600
C  4.82100 0.98400 42.39800
C  3.45800 1.69800 42.20000
C  2.37500 0.63100 42.52100
C  3.16600 3.01200 43.10400
C  5.86800 0.92800 41.20600
C  5.86100 -0.25700 40.26100
H  5.54700 0.06100 38.73800
N  -0.02100 -1.19500 43.28100
C  -0.09300 0.01800 42.63300
C  -1.51800 0.26800 42.39700
C  -2.26100 -0.87700 42.83000
C  -1.21000 -1.76500 43.38400
C  -1.94000 1.56500 41.84400
C  -3.84500 -1.02600 42.71700
O  -4.55100 -0.14000 42.27100
C  -4.55600 -2.18800 43.39500
N  0.87700 -3.84600 44.55900
C  -0.46900 -4.04000 44.39300
C  -0.99100 -5.44500 44.96500
C  0.30700 -5.96700 45.70900
C  1.41600 -4.94900 45.15100
C  -2.31300 -5.35800 45.86000
C  0.64500 -7.52100 45.49900
C  1.12300 -8.21100 46.76200
N  3.53700 -2.97100 44.59500
C  3.81800 -4.24300 45.14900
C  5.21100 -4.40400 45.33700
C  5.80000 -3.28500 44.74800
C  4.75300 -2.48500 44.24600
C  5.91700 -5.54800 46.08600
C  7.04000 -2.69000 44.50500
O  8.20000 -3.01900 44.77300
C  6.68000 -1.38800 43.72300
C  6.98200 -0.22100 44.56200
O  6.28700 0.31600 45.37500
O  8.24700 0.20700 44.24700
C  8.57900 1.58900 44.75900
H  0.73400 1.68900 41.64500
H  -2.38300 -3.46900 43.87700
H  3.25700 -5.99700 45.85200
H  5.32700 1.58400 43.15400
H  3.39100 1.92800 41.13600
H  2.82300 3.84000 42.48300
H  4.08400 3.26900 43.63200
H  2.36300 2.93100 43.83600
H  6.90700 1.06000 41.50700
H  5.61600 1.81700 40.62800
H  5.21500 -1.08700 40.54900
H  6.85300 -0.70600 40.19500
H  -1.88500 1.66500 40.76000
H  -1.39000 2.42000 42.23900
H  -2.97900 1.66900 42.15900
H  -5.63300 -2.02100 43.36600
H  -4.12900 -2.18900 44.39700
H  -4.30500 -3.13000 42.90800
H  -1.29300 -6.01700 44.08700
H  0.29900 -5.84600 46.79200
H  -2.00800 -5.67400 46.85700
H  -3.04300 -6.11100 45.56300
H  -2.75600 -4.37300 45.70900
H  1.38900 -7.78400 44.74700
H  -0.31600 -7.92900 45.18700
H  0.33300 -8.70100 47.33300
H  1.63100 -7.53800 47.45200
H  1.91000 -8.90600 46.46900
H  5.84000 -6.48400 45.53300
H  5.61800 -5.74100 47.11600
H  6.99300 -5.37200 46.12000
H  7.20400 -1.28500 42.77300
H  7.90700 2.06100 45.47600
H  8.41900 2.30200 43.95100
H  9.64200 1.61400 44.99800
Mg 30.39200 58.73800 40.49500
C  27.74500 56.76500 39.15500
C  32.50700 56.37700 39.57900
C  32.68200 61.02100 41.09800
C  27.87500 61.22700 41.28300
N  30.10800 56.84600 39.47800
C  29.02700 56.22100 38.94900
C  29.34200 55.00100 38.10800
C  30.72400 54.71600 38.64900
C  31.17600 56.07500 39.19800
C  30.81900 53.62700 39.76700
C  29.18100 55.39800 36.66800
C  28.46800 54.45000 35.71000
H  28.86700 54.53900 34.23300
N  32.37700 58.66300 40.45300
C  33.10500 57.60300 40.07900
C  34.45600 57.84600 40.40200
C  34.57400 59.22300 40.84600
C  33.19900 59.69600 40.77100
C  35.54900 56.92000 40.13700
C  35.87200 59.84600 41.28100
O  36.92800 59.31800 41.03600
C  35.99000 61.29400 41.85300
N  30.21800 60.84500 41.05900
C  31.38900 61.52800 41.25300
C  31.09200 62.89100 41.76000
C  29.59500 62.83800 42.22300
C  29.16500 61.58700 41.44400
C  32.11800 63.47800 42.76700
C  28.80100 64.06100 41.93700
C  28.14800 64.69800 43.17000
N  28.29800 59.05500 40.15700
C  27.43000 60.04400 40.59100
C  26.05300 59.70700 40.16400
C  26.16800 58.43600 39.63700
C  27.50700 58.03000 39.72600
C  24.84500 60.60900 40.33200
C  25.34800 57.37700 39.16000
O  24.14300 57.31200 38.94700
C  26.42200 56.23000 38.80300
C  26.25500 55.04400 39.61200
O  26.43500 55.01300 40.83700
O  25.87100 53.98600 38.81300
C  25.90300 52.72600 39.57400
H  33.36300 55.73200 39.37100
H  33.48700 61.74000 41.26200
H  27.12700 61.97500 41.55200
H  28.71600 54.16700 38.42800
H  31.36300 54.22400 37.91600
H  30.91100 54.13300 40.72800
H  31.69300 53.02300 39.52700
H  29.95400 52.96400 39.73600
H  30.18900 55.50300 36.26500
H  28.63600 56.34100 36.62800
H  27.40100 54.62200 35.85300
H  28.69500 53.41500 35.96500
H  36.11800 57.23100 39.26100
H  35.26800 55.88100 39.96400
H  36.23400 56.93400 40.98400
H  37.03900 61.54200 42.01500
H  35.33500 61.37400 42.72100
H  35.65600 62.05700 41.15000
H  31.15500 63.48400 40.84800
H  29.63100 62.55300 43.27400
H  32.69300 62.71900 43.29600
H  31.74000 64.20900 43.48300
H  32.83500 64.07800 42.20700
H  28.05500 63.80200 41.18600
H  29.48800 64.75000 41.44500
H  28.48100 65.73400 43.09600
H  28.63000 64.36400 44.08900
H  27.06900 64.54600 43.16200
H  24.37300 60.25500 41.24800
H  24.20300 60.33400 39.49500
H  25.15500 61.65400 40.32500
H  26.32700 56.02900 37.73600
H  25.48400 52.85900 40.57200
H  26.92000 52.41400 39.81000
H  25.32600 51.97800 39.03000

