158

Mg 1.23400 7.62600 25.40600
C  1.73000 9.50300 28.29400
C  1.78500 4.78300 27.40900
C  0.89300 5.88400 22.60000
C  1.50700 10.61500 23.60600
N  1.82300 7.21900 27.56700
C  1.74300 8.15700 28.53400
C  1.76000 7.47100 29.92100
C  2.14800 5.94300 29.63300
C  1.94200 5.96900 28.11200
C  3.53300 5.54400 30.04300
C  0.33700 7.66800 30.62900
C  0.38900 7.87500 32.21500
H  1.67700 7.58400 32.96200
N  1.31400 5.61100 25.03700
C  1.42700 4.56200 26.07200
C  1.25900 3.29100 25.35800
C  1.01700 3.60900 23.96800
C  0.98800 5.08800 23.79600
C  1.29300 1.92300 26.03600
C  0.77300 2.58400 22.83700
O  0.33800 2.96300 21.74600
C  1.17600 1.13100 23.01000
N  1.15700 8.20600 23.39800
C  0.95400 7.25400 22.43200
C  1.01400 7.90800 21.02400
C  0.81900 9.46900 21.30000
C  1.26800 9.45700 22.82700
C  2.32000 7.71400 20.15700
C  -0.65900 9.96000 21.02800
C  -0.77800 11.14300 20.02800
N  1.53100 9.66500 25.82200
C  1.59800 10.74100 24.96400
C  1.79800 11.96600 25.75500
C  1.81700 11.47700 27.08000
C  1.57900 10.10700 27.05300
C  2.09300 13.35600 25.22200
C  2.11900 11.94300 28.41500
O  2.51700 13.05600 28.75300
C  1.91900 10.68800 29.27600
C  3.07900 10.56900 30.14600
O  4.13200 9.97300 29.98600
O  2.76200 11.22500 31.34000
C  3.69300 11.16500 32.45300
H  1.97100 3.89100 28.01000
H  0.72200 5.27100 21.71300
H  1.39400 11.59000 23.12700
H  2.51900 7.88400 30.58500
H  1.43800 5.24000 30.06800
H  4.10600 6.17800 30.71900
H  4.12100 5.28600 29.16200
H  3.32800 4.57700 30.50200
H  -0.24500 6.75500 30.50400
H  -0.23600 8.51700 30.25600
H  -0.45700 7.35400 32.66500
H  0.29200 8.94700 32.38300
H  1.99700 1.17400 25.67300
H  0.32600 1.44600 25.87500
H  1.39700 2.05900 27.11300
H  1.10800 0.48000 22.13800
H  0.45000 0.70100 23.70100
H  2.16400 0.99400 23.44900
H  0.20500 7.56300 20.38000
H  1.50300 10.11100 20.74400
H  2.77000 8.64200 19.80300
H  2.27100 6.90900 19.42300
H  3.01700 7.22400 20.83700
H  -1.18400 10.30000 21.92000
H  -1.29400 9.19600 20.58000
H  -1.61000 11.00200 19.33800
H  0.07900 11.27900 19.36800
H  -0.93500 12.05300 20.60800
H  1.73400 13.46900 24.19900
H  3.16100 13.57200 25.26900
H  1.61800 14.05600 25.90900
H  1.04100 10.89800 29.88700
H  3.25300 11.37300 33.42800
H  4.52700 11.84400 32.27400
H  4.06800 10.14200 32.41600
Mg 40.75500 7.78900 29.49000
C  42.64600 9.22000 31.96800
C  38.53600 6.66400 31.80900
C  38.91300 6.61000 26.92600
C  43.21300 8.68300 27.11600
N  40.59900 7.96100 31.62000
C  41.42200 8.64200 32.46900
C  41.00100 8.60900 33.97300
C  39.96600 7.43700 33.85300
C  39.60700 7.38900 32.34800
C  40.24600 6.13700 34.56800
C  40.47900 10.00700 34.52700
C  39.75500 10.02400 35.90000
H  40.56800 10.63200 37.05500
N  39.08400 6.73800 29.40200
C  38.27300 6.41900 30.46200
C  37.21700 5.58200 29.94600
C  37.15900 5.72000 28.50800
C  38.42200 6.41900 28.24300
C  36.31300 4.87500 30.99500
C  36.11500 5.28100 27.56700
O  36.30600 5.26400 26.34700
C  34.76800 4.93600 28.15900
N  41.03600 7.64000 27.37900
C  40.20000 7.03800 26.59900
C  40.56900 7.16700 25.04800
C  41.82100 8.02900 25.17200
C  42.04300 8.07300 26.62000
C  40.86900 5.74700 24.46600
C  41.91100 9.42600 24.30500
C  40.90400 10.44200 24.73600
N  42.57400 8.74100 29.53200
C  43.47400 9.00900 28.46100
C  44.58000 9.70900 28.98700
C  44.27000 9.89800 30.34300
C  43.05100 9.23300 30.62500
C  45.79900 10.24300 28.16200
C  44.72000 10.39900 31.61600
O  45.77800 11.00300 31.77000
C  43.72100 10.07500 32.69100
C  44.31900 9.45500 33.93900
O  44.88700 8.38700 33.99100
O  44.20500 10.29400 34.96400
C  44.64800 9.73600 36.30900
H  37.76900 6.24100 32.46100
H  38.30700 6.32600 26.06300
H  43.89100 9.09400 26.36500
H  41.81000 8.36200 34.66000
H  39.02400 7.83900 34.22500
H  39.46900 5.97300 35.31500
H  41.24200 6.10100 35.00700
H  40.23700 5.36700 33.79600
H  39.90600 10.45500 33.71600
H  41.28400 10.74100 34.54100
H  39.52800 9.00000 36.20000
H  38.77000 10.42400 35.66200
H  35.46100 5.55200 31.05700
H  36.76400 4.52600 31.92400
H  35.77200 3.99300 30.65400
H  34.60800 5.44900 29.10700
H  34.94200 3.89100 28.41600
H  33.98900 5.04600 27.40600
H  39.75600 7.55000 24.43100
H  42.66100 7.44600 24.79600
H  41.83000 5.66000 23.95900
H  40.15800 5.53100 23.66900
H  40.63000 4.99600 25.21900
H  41.56400 9.14000 23.31200
H  42.91900 9.83500 24.37800
H  39.92400 9.96700 24.69200
H  40.88100 11.25100 24.00600
H  41.19300 10.77200 25.73300
H  45.47900 10.93700 27.38400
H  46.38000 9.43200 27.72300
H  46.48000 10.76700 28.83200
H  43.38600 11.05500 33.03100
H  45.71600 9.95700 36.33700
H  44.27700 8.73700 36.53300
H  44.24600 10.37600 37.09400

