158

Mg 1.72700 -1.06900 43.98700
C  5.18900 -0.67600 43.47800
C  1.14100 1.70400 42.11800
C  -1.44100 -2.13200 43.78200
C  2.55000 -4.34900 45.39100
N  3.10000 0.30500 42.77700
C  4.42500 0.31100 42.77000
C  4.99200 1.58400 42.02400
C  3.65500 2.31000 41.63200
C  2.55500 1.44200 42.29500
C  3.53300 3.80900 42.14900
C  6.01000 1.22700 40.88300
C  5.86800 -0.03400 40.03000
H  5.69300 0.08700 38.50900
N  0.01200 -0.22100 43.23200
C  -0.01800 0.98300 42.59600
C  -1.32100 1.26700 42.19700
C  -2.11500 0.10400 42.47700
C  -1.22500 -0.84300 43.23300
C  -1.83400 2.48800 41.44100
C  -3.62500 -0.20000 42.17800
O  -4.24200 0.67200 41.60700
C  -4.36500 -1.42900 42.64800
N  0.70700 -3.08000 44.45900
C  -0.56700 -3.17300 44.38600
C  -1.11600 -4.58200 44.74200
C  0.11700 -5.11400 45.56700
C  1.20700 -4.16200 45.09700
C  -2.52700 -4.74400 45.31500
C  0.32300 -6.62300 45.28100
C  0.99000 -7.49400 46.43500
N  3.46400 -2.29300 44.39600
C  3.59200 -3.53700 44.95800
C  4.97000 -3.87900 45.06700
C  5.63000 -2.80000 44.54500
C  4.71600 -1.84500 44.09600
C  5.51600 -5.13300 45.68900
C  6.96100 -2.25700 44.25200
O  8.07900 -2.65800 44.57100
C  6.71800 -0.81300 43.63200
C  7.29400 0.20000 44.56900
O  6.99300 0.34500 45.72800
O  8.13300 1.10700 43.94300
C  8.63200 2.30900 44.68500
H  0.92300 2.62800 41.57800
H  -2.39500 -2.62500 43.58300
H  2.79400 -5.32200 45.82300
H  5.63300 2.25400 42.59600
H  3.60700 2.19800 40.54800
H  3.37100 4.00400 43.21000
H  2.68400 4.25600 41.63100
H  4.45700 4.24800 41.77400
H  6.94900 1.23900 41.43600
H  6.16400 2.08000 40.22200
H  4.92900 -0.49300 40.34000
H  6.61300 -0.74700 40.38200
H  -2.67200 2.97800 41.93600
H  -2.16100 2.37700 40.40700
H  -1.15800 3.34200 41.48100
H  -5.27200 -1.34200 42.04800
H  -4.52600 -1.53200 43.72100
H  -3.87700 -2.31800 42.25000
H  -1.24900 -5.06600 43.77400
H  -0.09900 -4.97100 46.62600
H  -3.25900 -5.13600 44.60900
H  -2.95500 -3.75400 45.47200
H  -2.51900 -5.26700 46.27100
H  0.99200 -6.74300 44.42900
H  -0.65400 -7.08000 45.12400
H  0.24000 -8.21800 46.75000
H  1.36600 -6.92300 47.28400
H  1.88400 -7.94300 46.00300
H  4.84900 -5.99300 45.62200
H  5.86800 -4.99600 46.71100
H  6.38900 -5.45900 45.12300
H  7.33900 -0.82000 42.73700
H  8.36000 2.33800 45.74000
H  8.32300 3.14800 44.06200
H  9.71900 2.29800 44.60100
Mg 40.48000 9.51700 29.00900
C  42.75800 10.56900 31.40700
C  38.42200 8.39900 31.37000
C  38.58800 8.13900 26.54300
C  42.94700 10.14700 26.60900
N  40.69300 9.35900 31.23500
C  41.59700 10.00700 32.01600
C  41.16200 9.95700 33.42600
C  39.78600 9.23100 33.34900
C  39.60000 8.96200 31.89600
C  39.66000 7.99600 34.26100
C  40.93600 11.42000 34.04000
C  40.36400 11.49200 35.49800
H  41.35700 11.48300 36.62100
N  38.59800 8.51900 28.93900
C  37.94400 8.16000 30.07900
C  36.69900 7.50700 29.67700
C  36.73700 7.42200 28.22200
C  37.99000 8.02900 27.82200
C  35.69400 6.91800 30.64500
C  35.65600 6.93000 27.24600
O  35.84000 6.88700 26.05600
C  34.28700 6.37100 27.74200
N  40.73400 9.28500 26.89000
C  39.80800 8.60600 26.12100
C  40.25400 8.61400 24.64700
C  41.66600 9.35400 24.71500
C  41.72600 9.64200 26.15600
C  40.40200 7.17500 24.03900
C  41.71500 10.58000 23.86700
C  41.41900 11.96900 24.52400
N  42.47800 10.19200 28.95300
C  43.34100 10.38600 27.94200
C  44.58500 10.90700 28.48300
C  44.35100 11.14300 29.84600
C  43.08500 10.56900 30.11700
C  45.77900 11.38000 27.61700
C  44.86200 11.66100 31.09800
O  45.93600 12.14000 31.33900
C  43.79400 11.40900 32.23900
C  44.45000 10.58400 33.28600
O  44.77400 9.40700 33.24200
O  44.84700 11.44600 34.28200
C  45.26500 10.81900 35.49900
H  37.62600 8.33100 32.11500
H  37.91200 7.79000 25.75900
H  43.71500 10.18800 25.83300
H  41.87200 9.36200 34.00000
H  38.94500 9.82600 33.70300
H  39.35300 7.11200 33.70300
H  38.94300 8.20100 35.05600
H  40.56400 7.73300 34.81000
H  40.35400 11.96000 33.29400
H  41.82200 12.04400 34.15700
H  39.76500 10.58700 35.59800
H  39.59700 12.26100 35.60100
H  34.86100 7.61700 30.57400
H  36.11800 6.87000 31.64800
H  35.25600 5.99000 30.27800
H  34.30600 5.66100 28.56900
H  33.78400 5.84500 26.93100
H  33.62800 7.17300 28.07400
H  39.46900 9.10100 24.06900
H  42.52700 8.72800 24.48000
H  40.27000 6.42200 24.81500
H  41.39100 7.08900 23.59000
H  39.57000 7.08800 23.34100
H  41.06800 10.52300 22.99100
H  42.69800 10.63000 23.39900
H  40.72000 12.54500 23.91900
H  42.30400 12.60400 24.54700
H  40.96400 11.97500 25.51500
H  45.88600 12.45200 27.77700
H  45.64300 11.11200 26.56900
H  46.63600 10.88700 28.07600
H  43.51900 12.38200 32.64700
H  45.15000 11.47800 36.35900
H  46.33700 10.68600 35.35900
H  44.73800 9.89300 35.73000

