158

Mg 2.90700 -1.25100 42.04700
C  6.26200 -0.30300 41.90100
C  2.05400 1.65100 40.37200
C  -0.22900 -2.62400 41.46000
C  3.95600 -4.41800 43.24900
N  4.03400 0.55800 41.32700
C  5.39300 0.74000 41.41600
C  5.75700 2.00100 40.72600
C  4.39000 2.62700 40.43800
C  3.39800 1.56400 40.74800
C  4.09400 3.95300 41.25500
C  6.76300 1.82000 39.55300
C  6.97500 0.47700 38.80900
H  6.66900 0.45600 37.29900
N  1.18900 -0.57800 41.05500
C  1.04600 0.70200 40.53500
C  -0.37700 0.75700 40.09700
C  -1.07800 -0.39400 40.50200
C  -0.03600 -1.25100 41.07100
C  -0.96100 2.10300 39.48300
C  -2.57200 -0.55200 40.43500
O  -3.29700 0.32100 39.97400
C  -3.27800 -1.63600 41.19900
N  2.08100 -3.30400 42.26100
C  0.73400 -3.53000 41.91600
C  0.32100 -5.01200 42.19900
C  1.69300 -5.57100 42.78400
C  2.64700 -4.37500 42.77900
C  -0.96600 -5.17300 43.01800
C  2.28100 -6.82400 42.06100
C  2.87900 -7.90200 43.01200
N  4.70200 -2.14900 42.67400
C  4.98800 -3.43200 43.19900
C  6.41100 -3.56500 43.30400
C  6.94700 -2.38300 42.86000
C  5.84500 -1.53100 42.49100
C  7.03400 -4.78500 43.90400
C  8.19300 -1.63500 42.59600
O  9.32100 -2.01500 42.82300
C  7.76800 -0.30000 42.04000
C  8.38000 0.82300 42.81600
O  9.28500 1.49700 42.39100
O  7.98100 0.87500 44.14300
C  8.66000 1.77800 45.10700
H  1.63000 2.57500 39.97300
H  -1.09900 -3.15600 41.06700
H  4.21000 -5.44600 43.51800
H  6.32700 2.61700 41.42100
H  4.13000 2.84200 39.40100
H  3.04600 4.21000 41.09800
H  4.59100 4.85300 40.89300
H  4.31900 3.88800 42.31900
H  7.68900 2.23600 39.94900
H  6.54700 2.64200 38.87000
H  6.38100 -0.33600 39.22800
H  8.03500 0.22600 38.84800
H  -0.22900 2.78800 39.05500
H  -1.57300 2.63700 40.20900
H  -1.50200 1.74100 38.60800
H  -4.35800 -1.52000 41.10800
H  -2.95200 -1.35400 42.20000
H  -3.03700 -2.64200 40.85700
H  0.04100 -5.49100 41.26100
H  1.54100 -5.82300 43.83400
H  -1.36600 -4.18400 43.24600
H  -0.71800 -5.70400 43.93700
H  -1.76300 -5.66300 42.46000
H  3.06300 -6.44800 41.40200
H  1.57100 -7.23700 41.34400
H  3.87800 -8.07800 42.61300
H  2.31100 -8.82200 43.14900
H  3.09100 -7.60400 44.03900
H  7.28000 -5.46800 43.09200
H  6.34500 -5.25900 44.60300
H  7.94700 -4.42700 44.38000
H  8.23700 -0.24300 41.05800
H  8.19800 2.76300 45.04700
H  9.70000 1.99100 44.86200
H  8.57500 1.45100 46.14300
Mg 8.27900 3.84200 28.45700
C  9.94000 2.38900 31.23900
C  6.30300 5.44300 30.71500
C  6.84800 5.29400 25.85000
C  9.86000 1.58500 26.40700
N  8.07200 3.84700 30.81400
C  8.92600 3.26200 31.65400
C  8.66100 3.77300 33.15900
C  7.28800 4.39100 32.97000
C  7.25500 4.66000 31.42500
C  6.19000 3.43700 33.54900
C  9.74800 4.77400 33.53800
C  10.08700 4.93200 35.09900
H  9.21800 4.41800 36.19400
N  6.90900 5.30400 28.28700
C  6.19800 5.82700 29.32300
C  5.23900 6.82200 28.84000
C  5.51900 6.96700 27.42300
C  6.52300 5.86900 27.09200
C  4.19900 7.50200 29.66500
C  4.91100 7.91500 26.45000
O  5.28700 7.97300 25.28000
C  3.90000 8.98000 26.91300
N  8.09400 3.31200 26.33000
C  7.59700 4.21200 25.52100
C  7.83400 3.69400 24.04300
C  9.06300 2.67400 24.23800
C  9.00900 2.51900 25.77500
C  6.55600 3.04000 23.34200
C  10.38900 3.13100 23.68400
C  11.19700 4.21000 24.55600
N  9.54900 2.28000 28.70700
C  10.15400 1.47100 27.74900
C  11.16500 0.55000 28.36300
C  11.13700 0.94700 29.72700
C  10.16400 1.93700 29.89600
C  11.88500 -0.52200 27.56600
C  11.75200 0.70600 31.01300
O  12.66100 -0.02800 31.39400
C  10.97700 1.57600 32.06200
C  10.33500 0.79200 33.10900
O  9.55600 -0.07000 32.77800
O  10.90900 1.08100 34.30300
C  10.43400 0.08800 35.35000
H  5.64100 5.99300 31.38700
H  6.35700 5.87800 25.06900
H  10.49200 1.03800 25.70400
H  8.68400 2.93800 33.85800
H  7.24600 5.36100 33.46500
H  5.21700 3.92000 33.45900
H  6.34000 3.17300 34.59600
H  6.15600 2.55400 32.91100
H  9.54100 5.73400 33.06500
H  10.64500 4.36300 33.07500
H  10.21200 6.01500 35.10200
H  11.08200 4.50400 35.22400
H  4.45400 8.55300 29.79800
H  4.06200 6.96800 30.60600
H  3.19500 7.43700 29.24600
H  2.96000 8.60700 27.31900
H  3.62600 9.56100 26.03200
H  4.29400 9.64000 27.68600
H  8.09700 4.56900 23.44800
H  8.78400 1.71500 23.80000
H  6.36000 3.66000 22.46800
H  5.68500 3.17100 23.98400
H  6.65700 1.99900 23.03500
H  10.23900 3.70800 22.77200
H  11.11200 2.33900 23.48700
H  12.02300 3.82300 25.15100
H  10.59300 4.74300 25.29000
H  11.60300 4.93500 23.85000
H  11.59400 -0.56900 26.51700
H  11.66500 -1.50100 27.99200
H  12.94900 -0.31800 27.68700
H  11.65800 2.33300 32.44900
H  10.03000 -0.80700 34.87800
H  9.70900 0.56600 36.00900
H  11.22300 -0.19300 36.04700

