158

Mg 23.90000 -5.58400 45.66500
C  26.49300 -3.57100 44.42100
C  21.67100 -3.89400 43.60500
C  21.83800 -8.25800 45.86600
C  26.43700 -7.50000 47.35500
N  24.09300 -3.88000 44.36400
C  25.21800 -3.16600 43.96900
C  24.86100 -2.07200 42.90400
C  23.37900 -1.88600 43.20300
C  23.01400 -3.29300 43.77100
C  23.03500 -0.76400 44.23700
C  25.12900 -2.56800 41.44600
C  25.45900 -1.41000 40.52300
H  24.73600 -1.26400 39.17300
N  21.95500 -5.96000 44.88400
C  21.22800 -5.15400 44.05600
C  19.99000 -5.79600 43.66600
C  20.00800 -7.08400 44.32700
C  21.26600 -7.16300 45.10800
C  19.02500 -5.20000 42.68500
C  18.89300 -8.05100 44.36400
O  17.87000 -7.78800 43.67300
C  18.81300 -9.18900 45.35900
N  24.09400 -7.53500 46.64000
C  23.08500 -8.46900 46.50900
C  23.46200 -9.72900 47.31300
C  24.96200 -9.48200 47.75400
C  25.17600 -8.07700 47.23100
C  22.52500 -10.17200 48.52100
C  25.97700 -10.46400 47.11600
C  25.66600 -11.93100 47.33900
N  25.95700 -5.46200 46.03200
C  26.84700 -6.32700 46.67300
C  28.19900 -5.82300 46.52700
C  28.09900 -4.73300 45.69700
C  26.75000 -4.59100 45.35900
C  29.35900 -6.46600 47.13600
C  28.83500 -3.78000 44.95700
O  30.04900 -3.52500 45.02600
C  27.78300 -2.91300 44.10200
C  27.82400 -1.45400 44.45300
O  27.33600 -0.92300 45.42000
O  28.41300 -0.82200 43.41400
C  28.20600 0.66800 43.43500
H  21.05000 -3.32800 42.90700
H  21.22300 -9.15800 45.93800
H  27.14400 -8.11000 47.92200
H  25.42700 -1.16200 43.10500
H  22.74700 -1.58100 42.37000
H  22.67200 -1.24700 45.14400
H  22.27000 -0.13900 43.77600
H  23.94600 -0.22100 44.48900
H  24.25700 -3.02100 40.97500
H  25.93700 -3.29900 41.43100
H  26.52300 -1.57400 40.34800
H  25.34000 -0.50800 41.12400
H  19.52600 -4.49700 42.01900
H  18.30500 -4.63100 43.27300
H  18.46500 -5.92600 42.09700
H  17.73700 -9.36200 45.36800
H  19.09000 -8.83100 46.35100
H  19.36100 -10.06400 45.01000
H  23.39000 -10.53200 46.58000
H  25.07900 -9.48100 48.83700
H  21.59500 -9.60300 48.52100
H  23.03100 -10.04100 49.47700
H  22.35300 -11.24800 48.55200
H  26.91700 -10.16700 47.58200
H  25.97100 -10.15300 46.07200
H  26.47500 -12.34800 47.93900
H  25.38100 -12.47800 46.44000
H  24.80300 -11.98200 48.00300
H  29.17300 -6.91600 48.11100
H  30.22100 -5.80200 47.21000
H  29.77900 -7.29800 46.56900
H  27.87300 -3.05700 43.02600
H  28.83800 1.05400 44.23500
H  27.14000 0.76100 43.64700
H  28.40800 1.19300 42.50100
Mg 6.59600 53.99400 40.29400
C  6.16600 50.49400 40.01900
C  9.74800 53.56900 39.09800
C  6.64800 57.24800 39.86400
C  3.09300 54.13600 40.85700
N  7.70800 52.23300 39.45200
C  7.33600 50.92800 39.44200
C  8.56300 50.06600 39.27000
C  9.77000 51.04800 39.23200
C  9.06200 52.36300 39.29700
C  10.76600 50.80600 40.36000
C  8.55500 49.32300 37.92600
C  8.45200 50.13900 36.66900
H  7.48300 49.74100 35.51000
N  8.06200 55.27700 39.71200
C  9.32800 54.88400 39.25500
C  10.09800 56.06400 39.05300
C  9.20900 57.15600 39.27500
C  7.92300 56.59200 39.60900
C  11.54800 56.11300 38.58200
C  9.64300 58.60400 39.32200
O  10.75500 58.89900 38.92400
C  8.74300 59.71900 39.80200
N  5.03500 55.42800 40.29500
C  5.40200 56.76400 40.20800
C  4.18600 57.67500 40.38200
C  3.00400 56.61000 40.51800
C  3.73800 55.28000 40.53100
C  4.42600 58.60900 41.70600
C  1.85000 56.62200 39.39900
C  0.57900 57.41700 39.64600
N  4.89400 52.65100 40.43100
C  3.58800 52.83200 40.96100
C  3.05200 51.53100 41.31800
C  3.99700 50.60400 40.91500
C  5.07700 51.32100 40.42300
C  1.75100 51.29200 42.01400
C  4.29100 49.23300 40.82700
O  3.49900 48.30700 41.10900
C  5.66000 49.02700 40.26100
C  5.44900 48.11400 39.08900
O  4.77000 48.33700 38.06500
O  6.25700 47.05700 39.13500
C  6.06700 46.05500 38.05800
H  10.78000 53.43500 38.76900
H  6.50700 58.33000 39.83000
H  2.03800 54.29700 41.08700
H  8.72200 49.38900 40.10900
H  10.39800 51.10600 38.34300
H  10.74600 49.76900 40.69300
H  10.54500 51.58000 41.09600
H  11.79400 50.97600 40.04000
H  7.65700 48.71200 37.83600
H  9.40200 48.64800 37.80300
H  9.47700 50.31500 36.34500
H  8.08800 51.11600 36.98700
H  11.91300 55.22100 38.07300
H  12.23700 56.46100 39.35100
H  11.64000 56.85600 37.78900
H  7.81600 59.83500 39.24200
H  9.28500 60.62400 39.52800
H  8.54100 59.56500 40.86200
H  4.07700 58.27100 39.47500
H  2.55500 56.68900 41.50800
H  4.37300 59.63700 41.34700
H  5.33500 58.40300 42.27100
H  3.61300 58.42200 42.40800
H  1.52500 55.60500 39.17800
H  2.26100 56.92700 38.43700
H  0.32800 58.18600 38.91600
H  0.57900 58.04700 40.53600
H  -0.17900 56.64600 39.51400
H  1.09700 50.76400 41.32000
H  1.33000 52.20400 42.43600
H  1.96100 50.72700 42.92200
H  6.19500 48.45500 41.02000
H  6.73000 46.20700 37.20600
H  5.08600 46.07400 37.58400
H  6.29400 45.05600 38.43200

