158

Mg 44.77600 3.04500 47.17800
C  42.36400 5.53100 46.75200
C  42.10900 0.78600 47.09900
C  46.97300 0.59700 47.01000
C  47.28300 5.45300 46.68900
N  42.54000 3.16500 47.09500
C  41.81200 4.26900 46.94700
C  40.36000 3.89700 46.69700
C  40.28300 2.50400 47.41600
C  41.72000 2.11500 47.19500
C  39.79900 2.42700 48.94700
C  40.12000 3.96000 45.18300
C  38.68800 4.34700 44.78600
H  38.56300 5.47000 43.81000
N  44.55600 0.96200 47.07700
C  43.42700 0.21400 47.01900
C  43.73300 -1.18800 46.96600
C  45.17700 -1.27700 46.95200
C  45.66400 0.13000 46.99200
C  42.78700 -2.26500 46.80400
C  45.96000 -2.57800 46.92200
O  45.29900 -3.57400 47.04000
C  47.43200 -2.77900 46.63600
N  46.85800 3.00000 46.70300
C  47.59900 1.82300 46.95200
C  49.12500 2.21600 47.14900
C  49.10300 3.75900 47.14500
C  47.63600 4.14400 46.84100
C  49.84900 1.63800 48.43200
C  50.13400 4.30100 46.14300
C  51.27000 5.09300 46.89300
N  44.86600 5.06200 46.87300
C  45.94100 5.93100 46.61400
C  45.39200 7.29200 46.39100
C  44.02100 7.08900 46.52300
C  43.74900 5.75400 46.72300
C  46.15400 8.58000 46.13900
C  42.80200 7.86300 46.50400
O  42.61400 9.08500 46.41900
C  41.67500 6.85200 46.68900
C  40.96500 7.23300 47.94100
O  41.38800 7.31400 49.08300
O  39.65800 7.43600 47.59500
C  38.63400 7.70100 48.61300
H  41.25300 0.11500 47.19400
H  47.70200 -0.16200 47.30100
H  47.98900 6.26300 46.88400
H  39.82200 4.72600 47.15600
H  39.69500 1.82500 46.79800
H  40.60000 2.05900 49.58800
H  38.96100 1.73100 48.97600
H  39.48300 3.43900 49.19900
H  40.46400 3.00100 44.79700
H  40.74100 4.75500 44.77000
H  38.01800 4.41700 45.64300
H  38.35900 3.48700 44.20200
H  42.85200 -2.67100 45.79400
H  41.78000 -1.92000 47.04100
H  43.00500 -3.12100 47.44300
H  48.11700 -2.42200 47.40500
H  47.77200 -2.25200 45.74500
H  47.55400 -3.81600 46.32300
H  49.56000 1.79400 46.24300
H  49.23100 4.16700 48.14800
H  50.68000 1.06400 48.02100
H  49.18300 0.98300 48.99500
H  50.27400 2.37700 49.11100
H  49.77000 4.92100 45.32400
H  50.65600 3.51200 45.60200
H  52.03500 5.19900 46.12300
H  51.75600 4.63700 47.75600
H  50.91900 6.10900 47.07000
H  45.51700 9.37000 45.74100
H  47.03200 8.37900 45.52600
H  46.43600 9.04800 47.08200
H  41.00200 6.78600 45.83400
H  38.67400 7.01200 49.45600
H  37.62900 7.60000 48.20200
H  38.77600 8.68300 49.06500
Mg -0.27900 44.05600 24.99200
C  1.74200 43.81000 27.73800
C  -3.03600 43.26400 27.02000
C  -2.30200 43.94900 22.24400
C  2.49100 44.46800 22.94900
N  -0.58300 43.63000 27.14500
C  0.38900 43.60900 28.14700
C  -0.22200 43.34800 29.50500
C  -1.72800 42.96300 29.13800
C  -1.74200 43.33900 27.66500
C  -2.23000 41.48100 29.47200
C  0.05600 44.47200 30.52500
C  0.36500 44.01500 31.98000
H  -0.18400 42.72600 32.46800
N  -2.37900 43.76700 24.69200
C  -3.34500 43.46400 25.64100
C  -4.69100 43.47300 24.98100
C  -4.48800 43.74400 23.57300
C  -2.98400 43.84100 23.43200
C  -5.96100 43.23200 25.80300
C  -5.50500 43.95300 22.54800
O  -5.23900 44.19000 21.37700
C  -7.04200 43.88700 22.92700
N  0.02500 44.35000 22.86200
C  -0.94800 44.06300 21.97800
C  -0.37000 43.94500 20.59300
C  1.12400 44.42600 20.78200
C  1.29100 44.48300 22.29500
C  -0.51900 42.43000 20.17100
C  1.41500 45.75800 20.04400
C  0.95200 46.99500 20.88500
N  1.66800 44.08400 25.21000
C  2.68100 44.27200 24.30500
C  3.97000 44.10200 24.99800
C  3.63200 43.91100 26.32200
C  2.20500 43.98800 26.39800
C  5.31500 44.04200 24.36500
C  4.23100 43.71600 27.59300
O  5.38900 43.54500 28.02400
C  3.01700 43.71600 28.54200
C  3.14900 42.51900 29.37400
O  2.82900 41.36700 29.07000
O  3.57500 42.89300 30.63000
C  3.70200 41.97500 31.74900
H  -3.80700 42.97800 27.73900
H  -2.91500 43.90400 21.34200
H  3.33000 44.55700 22.25600
H  0.31100 42.47500 29.88200
H  -2.46100 43.53300 29.71000
H  -2.73600 41.09800 28.58600
H  -2.82000 41.40300 30.38600
H  -1.40400 40.85300 29.80300
H  -0.82900 45.10800 30.56600
H  0.87900 45.11100 30.20500
H  0.05900 44.88500 32.56100
H  1.45400 44.04200 32.01200
H  -6.36200 42.27600 25.46800
H  -6.60200 44.10000 25.65500
H  -5.77500 43.21300 26.87700
H  -7.27800 44.72300 23.58600
H  -7.35100 42.96600 23.42000
H  -7.67900 44.02800 22.05400
H  -0.86700 44.56400 19.84600
H  1.84000 43.75900 20.30200
H  0.46800 41.97600 20.07800
H  -0.94900 42.23200 19.18900
H  -1.16500 41.83000 20.81100
H  0.87100 45.74700 19.10000
H  2.47700 45.81800 19.80400
H  0.37700 46.72600 21.77100
H  0.30100 47.60000 20.25300
H  1.71100 47.74900 21.09200
H  5.27900 43.51000 23.41500
H  6.01400 43.52600 25.02200
H  5.72900 45.04900 24.31400
H  3.11800 44.61000 29.15700
H  4.72200 41.92900 32.12900
H  3.23600 41.03700 31.44400
H  3.15600 42.38700 32.59800

