158

Mg 46.10700 25.06600 28.11800
C  46.78200 27.23400 30.88000
C  45.15600 22.71500 30.38800
C  46.02100 22.84600 25.57800
C  47.82500 27.20900 26.09000
N  45.90300 25.08800 30.33800
C  46.11700 26.09300 31.27700
C  45.66700 25.74500 32.75300
C  45.37200 24.21300 32.55000
C  45.51500 23.97700 31.00200
C  46.31200 23.35200 33.32800
C  44.47400 26.57000 33.32400
C  44.63300 27.26700 34.68200
H  43.61600 27.13600 35.84500
N  45.55700 23.05300 27.99300
C  45.06600 22.25800 28.99900
C  44.67700 20.88100 28.52700
C  45.11200 20.86700 27.09200
C  45.62600 22.28500 26.83600
C  44.18500 19.80800 29.32600
C  45.09700 19.70900 26.15200
O  45.53800 19.77300 25.01500
C  44.67800 18.35300 26.63500
N  46.78800 25.04000 26.16200
C  46.47800 24.09100 25.23800
C  46.87600 24.57800 23.82900
C  47.14400 26.09900 24.02300
C  47.18300 26.18200 25.49600
C  48.09300 23.83500 23.20300
C  45.96500 27.02700 23.50500
C  46.32300 28.00200 22.33700
N  47.25900 26.77500 28.34800
C  47.87700 27.58600 27.39300
C  48.38300 28.82700 28.01900
C  47.94800 28.69100 29.37900
C  47.27000 27.51000 29.56900
C  49.04900 29.92400 27.30600
C  47.93700 29.30600 30.66200
O  48.48800 30.38900 30.94100
C  47.23700 28.36200 31.77400
C  48.19800 27.83500 32.85200
O  49.01100 26.98600 32.58400
O  48.11900 28.54300 34.05700
C  48.85800 28.06800 35.24900
H  44.76800 22.07900 31.18600
H  46.00600 22.07100 24.80900
H  48.22100 27.91000 25.35300
H  46.56800 25.91000 33.34300
H  44.36800 23.89100 32.82700
H  47.05400 22.87000 32.69200
H  45.75100 22.58700 33.86500
H  46.89900 23.87600 34.08200
H  43.58100 25.95000 33.40200
H  44.21200 27.29300 32.55200
H  44.77400 28.31100 34.40200
H  45.62900 26.96800 35.00900
H  43.36700 19.33600 28.78200
H  44.07200 20.19600 30.33800
H  44.97800 19.08300 29.50600
H  45.45000 18.03200 27.33500
H  44.53000 17.77500 25.72300
H  43.69900 18.38600 27.11200
H  46.09100 24.56000 23.07200
H  48.09900 26.48200 23.66200
H  48.32100 22.92900 23.76400
H  49.01200 24.41400 23.10800
H  47.77800 23.47200 22.22500
H  45.70200 27.64600 24.36300
H  45.03200 26.50100 23.30100
H  46.31300 28.99600 22.78300
H  45.47000 27.94800 21.66000
H  47.26200 27.76900 21.83400
H  48.38600 30.74100 27.02300
H  49.56900 29.52700 26.43400
H  49.86500 30.30300 27.92100
H  46.36100 28.83900 32.21200
H  48.49200 27.04600 35.35000
H  48.71400 28.58000 36.20000
H  49.91700 28.09200 34.99300
Mg -9.46300 18.13900 42.69700
C  -6.02800 17.29700 42.39500
C  -8.63900 21.43600 42.05900
C  -12.64700 18.64500 42.17000
C  -10.07100 14.54200 43.07400
N  -7.55500 19.14400 42.28600
C  -6.28700 18.67500 42.31300
C  -5.26400 19.82400 42.24900
C  -6.07100 21.08600 42.40000
C  -7.53500 20.58800 42.23300
C  -5.79300 21.95200 43.68400
C  -4.46400 19.70700 40.87700
C  -5.13500 18.99500 39.67400
H  -4.71900 19.42600 38.25200
N  -10.52600 19.85100 42.24500
C  -10.00500 21.13100 42.04100
C  -11.14100 22.00900 41.96300
C  -12.28300 21.23100 41.94800
C  -11.85500 19.80400 42.07900
C  -11.02300 23.48500 41.80300
C  -13.70400 21.82300 41.80500
O  -13.95100 23.05200 41.83600
C  -14.85300 20.89800 41.59800
N  -11.04000 16.79400 42.51200
C  -12.34300 17.35000 42.35900
C  -13.42200 16.25100 42.52600
C  -12.58200 14.91900 42.47000
C  -11.14900 15.43600 42.71000
C  -14.29800 16.47900 43.72400
C  -12.54600 14.11800 41.09900
C  -13.36100 12.78200 41.00800
N  -8.33900 16.28200 42.78900
C  -8.73400 14.93300 42.88700
C  -7.55200 14.17400 42.86800
C  -6.48500 15.02000 42.68100
C  -6.98500 16.29200 42.67400
C  -7.56500 12.74000 42.93400
C  -5.06800 15.02900 42.54500
O  -4.21400 14.13500 42.72800
C  -4.65700 16.60400 42.37000
C  -3.64700 16.95900 43.49300
O  -2.54500 17.41100 43.31400
O  -4.27900 16.85000 44.74600
C  -3.49200 17.30300 45.87000
H  -8.35100 22.48700 41.99900
H  -13.71400 18.85000 42.05900
H  -10.26800 13.48700 43.27300
H  -4.64700 19.63400 43.12800
H  -5.88800 21.77500 41.57600
H  -5.74400 23.00200 43.39800
H  -4.78400 21.64100 43.95300
H  -6.49900 21.68400 44.47000
H  -3.61000 19.08000 41.13600
H  -4.15100 20.72900 40.66300
H  -6.21700 19.08400 39.77000
H  -4.92000 17.92800 39.71600
H  -11.39800 23.86200 40.85100
H  -9.96300 23.73600 41.77500
H  -11.40200 24.15300 42.57700
H  -14.93900 20.27200 42.48700
H  -14.63800 20.41200 40.64700
H  -15.75800 21.49200 41.47400
H  -13.97900 16.39800 41.60100
H  -12.93700 14.25400 43.25800
H  -14.18500 15.66700 44.44300
H  -15.26100 16.40900 43.21900
H  -14.19200 17.39200 44.31000
H  -11.49900 13.81900 41.07900
H  -12.85200 14.65500 40.20100
H  -13.90200 12.83600 40.06300
H  -14.11700 12.68500 41.78700
H  -12.74900 11.89100 40.87600
H  -6.60000 12.34200 42.61800
H  -8.38700 12.44300 42.28400
H  -7.83700 12.47900 43.95600
H  -4.21200 16.56500 41.37600
H  -3.66500 16.66000 46.73300
H  -3.80900 18.33400 46.02800
H  -2.44000 17.16100 45.62300

