158

Mg -0.80900 7.75000 26.69200
C  0.08400 9.55600 29.45900
C  -0.97500 4.81000 28.75700
C  -1.08600 5.82200 23.92300
C  0.04600 10.43100 24.59600
N  -0.56400 7.26200 28.84100
C  -0.39700 8.23200 29.78800
C  -0.52600 7.66700 31.24800
C  -0.39700 6.13500 31.01500
C  -0.75800 6.03200 29.50500
C  1.04400 5.50200 31.26800
C  -1.87700 7.96600 31.84400
C  -2.05000 8.06300 33.33200
H  -0.88800 7.67500 34.25200
N  -1.04200 5.63500 26.34600
C  -1.15400 4.63800 27.35000
C  -1.46500 3.40100 26.64800
C  -1.56900 3.66900 25.31400
C  -1.16100 5.09300 25.09200
C  -1.80000 2.23900 27.48600
C  -1.97100 2.75700 24.21900
O  -2.14900 3.16500 23.00600
C  -2.04700 1.25000 24.45500
N  -0.70100 8.07300 24.48900
C  -0.92000 7.15000 23.56400
C  -0.84700 7.69800 22.09800
C  -0.41300 9.19000 22.34000
C  -0.28500 9.22600 23.90700
C  0.04400 6.84900 21.17700
C  -1.43800 10.18800 21.83500
C  -2.75700 10.11900 22.51000
N  -0.07500 9.62400 26.93500
C  0.19300 10.64200 25.97600
C  0.64900 11.80100 26.63700
C  0.62800 11.38100 28.02100
C  0.12400 10.09900 28.16100
C  1.01900 13.07900 26.10800
C  1.02300 11.80500 29.36600
O  1.55100 12.82700 29.66800
C  0.65100 10.68200 30.35000
C  1.84100 10.23000 31.15000
O  2.57900 9.30200 30.77300
O  2.00400 11.09600 32.25900
C  3.23800 10.83600 32.97300
H  -0.97700 3.94900 29.42900
H  -1.19300 5.23200 23.01100
H  0.30900 11.29900 23.98900
H  0.28400 8.04500 31.87300
H  -1.16200 5.64400 31.61800
H  1.06000 5.02100 32.24600
H  1.78900 6.29700 31.25800
H  1.21600 4.70200 30.54800
H  -2.60200 7.20200 31.56100
H  -2.15300 8.90100 31.35700
H  -3.00100 7.63500 33.64600
H  -2.37200 9.09300 33.49000
H  -0.98300 1.51700 27.45500
H  -2.68500 1.77000 27.05500
H  -2.05500 2.45000 28.52500
H  -2.14200 0.73300 23.50000
H  -2.90900 1.01500 25.07900
H  -1.13200 0.92500 24.95100
H  -1.81500 7.75300 21.60100
H  0.52900 9.35800 21.81700
H  0.05400 5.77600 21.37200
H  1.12800 6.94400 21.10500
H  -0.34200 7.00700 20.17100
H  -1.57800 9.96600 20.77800
H  -0.99700 11.17300 21.98900
H  -3.46300 9.93800 21.69900
H  -3.09900 11.01800 23.02400
H  -2.80900 9.32400 23.25400
H  0.11900 13.69100 26.17000
H  1.49700 13.05400 25.12900
H  1.80200 13.41900 26.78600
H  -0.11600 11.14700 30.97000
H  4.15000 10.58600 32.43100
H  3.07000 10.06000 33.72000
H  3.52200 11.68100 33.60000
Mg 24.57800 1.90900 29.24200
C  26.86900 1.52600 31.82900
C  22.16000 1.95900 31.55100
C  22.50900 1.95000 26.70000
C  27.30000 1.08200 26.97800
N  24.51300 1.76600 31.52700
C  25.55800 1.83300 32.33700
C  25.18600 2.22200 33.73700
C  23.60000 1.94300 33.70900
C  23.40300 1.91700 32.19300
C  23.11600 0.62100 34.35300
C  25.67300 3.64900 34.35100
C  26.36500 3.68700 35.71600
H  25.85700 4.63700 36.84100
N  22.60800 1.91700 29.15000
C  21.75000 1.99400 30.21500
C  20.38100 1.88400 29.73400
C  20.43100 1.85600 28.28000
C  21.91000 1.89700 27.97000
C  19.17400 1.88300 30.72600
C  19.30900 1.80200 27.22000
O  19.48800 2.01600 26.02500
C  17.91900 1.55900 27.70200
N  24.90500 1.52000 27.07800
C  23.86200 1.93200 26.31300
C  24.37100 1.96000 24.83300
C  25.89100 1.80800 24.94700
C  26.05500 1.46000 26.41600
C  23.71300 0.83500 24.00800
C  26.85300 2.97200 24.37000
C  26.38800 4.38100 24.65400
N  26.69600 1.40300 29.37100
C  27.63300 1.03600 28.36600
C  28.90100 0.82600 28.98400
C  28.68300 1.03200 30.38400
C  27.32100 1.32500 30.53800
C  30.23000 0.73200 28.24000
C  29.34700 1.10300 31.65800
O  30.49300 0.89100 32.04800
C  28.22200 1.50400 32.63400
C  28.16000 0.39800 33.73900
O  27.50200 -0.62700 33.63800
O  28.81300 0.77900 34.87400
C  28.67400 -0.16000 36.00800
H  21.34000 1.99400 32.27100
H  21.87400 2.25100 25.86500
H  28.16900 0.91800 26.33800
H  25.57800 1.41600 34.35700
H  22.88600 2.62200 34.17600
H  22.16300 0.44400 33.85500
H  22.90300 0.74600 35.41400
H  23.73900 -0.22300 34.05500
H  24.73000 4.18000 34.47900
H  26.28800 4.13500 33.59400
H  27.36000 4.06500 35.48100
H  26.50000 2.65400 36.03700
H  18.38800 1.17700 30.45600
H  18.66200 2.84500 30.69600
H  19.49500 1.60700 31.73000
H  17.15200 1.70200 26.94100
H  17.61600 2.16200 28.55800
H  17.80200 0.49500 27.90700
H  23.98900 2.87500 24.38100
H  26.11400 0.83600 24.50800
H  22.76500 0.50300 24.43300
H  24.31500 -0.03700 23.75500
H  23.38500 1.35100 23.10600
H  26.97800 2.82900 23.29700
H  27.76600 2.75500 24.92600
H  25.46600 4.38100 25.23500
H  26.08900 4.73900 23.66900
H  27.15500 4.97100 25.15600
H  30.09600 1.13100 27.23400
H  30.32500 -0.34700 28.12100
H  31.07900 1.11300 28.80700
H  28.44700 2.48300 33.05800
H  27.75800 0.20000 36.47700
H  29.52000 0.14300 36.62400
H  28.61200 -1.23000 35.80800

