158

Mg 17.18200 -2.16400 27.16200
C  16.32400 0.19900 29.67500
C  19.01200 -3.88000 29.47200
C  18.32800 -3.97400 24.66100
C  16.00500 0.31600 24.80200
N  17.51700 -1.94200 29.29400
C  17.12500 -0.86600 30.11700
C  17.58800 -1.15000 31.54300
C  18.54000 -2.37700 31.39500
C  18.32900 -2.75800 29.91300
C  20.04100 -2.22400 31.78200
C  16.40500 -1.50100 32.55700
C  16.50800 -0.94000 34.03400
H  17.93800 -0.59700 34.50900
N  18.32900 -3.79700 27.04000
C  19.00900 -4.36400 28.13300
C  19.58900 -5.67500 27.79600
C  19.53800 -5.60200 26.31600
C  18.71500 -4.46100 25.94800
C  20.27600 -6.52800 28.76500
C  20.31600 -6.45400 25.38200
O  20.30100 -6.33800 24.17500
C  21.12600 -7.65700 25.93000
N  17.21200 -1.85700 25.05100
C  17.71400 -2.79200 24.22200
C  17.65800 -2.26600 22.73800
C  16.82400 -0.99900 22.86700
C  16.67900 -0.82000 24.35500
C  19.09100 -1.99200 22.19000
C  15.47400 -1.19600 22.09900
C  15.21600 -0.15500 20.96700
N  16.21900 -0.25400 27.22300
C  15.75000 0.56200 26.16800
C  15.12600 1.71700 26.73000
C  15.23900 1.59100 28.16200
C  15.92100 0.37300 28.39600
C  14.35700 2.75800 26.02700
C  15.06300 2.24800 29.46900
O  14.56100 3.32500 29.73500
C  15.72500 1.32900 30.54500
C  16.69500 2.08500 31.41100
O  17.78100 2.55100 31.09500
O  16.12400 2.25800 32.63900
C  16.84000 3.18300 33.53000
H  19.53400 -4.44600 30.24600
H  18.66100 -4.66900 23.88800
H  15.67800 1.06600 24.07800
H  18.23700 -0.30500 31.77200
H  18.14500 -3.15500 32.04800
H  20.34100 -3.15500 32.26300
H  20.15400 -1.38300 32.46700
H  20.70900 -2.05000 30.93900
H  16.24700 -2.56500 32.73200
H  15.49600 -1.09600 32.11100
H  16.13400 -1.57100 34.84100
H  15.93500 -0.01300 34.04400
H  20.58400 -7.52600 28.45200
H  19.62200 -6.69800 29.62000
H  21.19100 -6.06300 29.13200
H  21.53800 -8.13300 25.04000
H  20.48000 -8.36400 26.45100
H  21.90900 -7.27900 26.58700
H  17.18500 -2.99900 22.08500
H  17.14800 -0.01900 22.51800
H  19.93800 -1.99200 22.87600
H  19.12400 -0.96800 21.81700
H  19.41300 -2.69500 21.42100
H  14.60600 -1.12500 22.75500
H  15.43600 -2.11700 21.51600
H  16.19000 0.06300 20.53000
H  14.70500 0.76300 21.25700
H  14.55400 -0.54700 20.19500
H  13.98900 2.39700 25.06700
H  14.89500 3.69900 25.90900
H  13.43100 2.96700 26.56400
H  14.88300 0.94700 31.12100
H  16.25100 3.49800 34.39100
H  17.33300 4.03400 33.05900
H  17.66200 2.77700 34.12000
Mg 53.68100 22.59700 45.12400
C  51.49400 25.12400 43.98800
C  51.52500 20.32200 43.52700
C  56.03500 20.28600 45.53000
C  55.85700 25.06100 46.15900
N  51.76900 22.68600 44.06300
C  51.15500 23.84000 43.63600
C  49.95800 23.54200 42.76900
C  49.61700 22.07700 43.22300
C  51.03400 21.60500 43.61000
C  48.61700 21.99900 44.41400
C  50.23700 23.65800 41.23900
C  49.04900 24.15100 40.38800
H  48.49700 23.14100 39.32600
N  53.87600 20.69200 44.42600
C  52.85600 19.94400 43.93400
C  53.29300 18.52100 43.87600
C  54.60500 18.48800 44.41800
C  54.92000 19.84800 44.78800
C  52.36700 17.44500 43.35000
C  55.49900 17.21900 44.53200
O  55.01300 16.09400 44.24000
C  56.96700 17.39700 44.62400
N  55.76400 22.71200 45.72000
C  56.51400 21.56300 45.85400
C  57.84800 21.86800 46.41400
C  57.73800 23.34400 46.80000
C  56.41700 23.77500 46.11000
C  58.32100 20.95400 47.69200
C  58.91900 24.26200 46.25900
C  59.71000 25.13100 47.24700
N  53.70600 24.68100 45.18700
C  54.62000 25.51100 45.66900
C  54.22700 26.86800 45.73900
C  52.97500 26.80800 45.01400
C  52.71800 25.48000 44.67300
C  54.87900 28.08400 46.33400
C  51.82400 27.56800 44.57700
O  51.61300 28.78100 44.71100
C  50.83000 26.53600 43.84100
C  50.39500 26.90800 42.44800
O  51.17900 27.06600 41.54600
O  49.00100 27.00200 42.41200
C  48.59400 27.38100 41.04900
H  50.71000 19.71900 43.12100
H  56.71100 19.48500 45.83600
H  56.65900 25.74000 46.45600
H  49.13000 24.18600 43.06500
H  49.15600 21.46100 42.45100
H  47.76300 21.39800 44.10200
H  48.14900 22.96000 44.62700
H  49.01300 21.64800 45.36600
H  50.45900 22.64700 40.89700
H  51.09100 24.30300 41.03400
H  49.44600 24.98700 39.81300
H  48.23000 24.48300 41.02700
H  52.55400 16.38400 43.51400
H  52.37700 17.52000 42.26200
H  51.32700 17.68900 43.56900
H  57.39600 18.25100 44.09900
H  57.47200 16.53500 44.18800
H  57.18900 17.48700 45.68700
H  58.48600 21.71400 45.54400
H  57.57200 23.46000 47.87100
H  59.01900 20.20500 47.31700
H  57.41500 20.52100 48.11400
H  58.78500 21.57600 48.45800
H  58.68400 24.96300 45.45800
H  59.72300 23.59300 45.95300
H  60.79300 25.25700 47.21400
H  59.48200 24.75000 48.24300
H  59.42400 26.18200 47.23100
H  55.80300 27.86300 46.86800
H  54.18900 28.56000 47.03100
H  55.07000 28.81000 45.54400
H  49.93800 26.56600 44.46700
H  49.18800 26.91600 40.26300
H  48.51800 28.46900 41.02800
H  47.64200 26.86600 40.92200

