158

Mg 6.88600 56.54200 42.21200
C  6.03200 53.18000 42.21800
C  9.88400 55.67300 40.72500
C  7.20900 59.75200 41.64800
C  3.52500 57.25400 43.42300
N  7.77000 54.61900 41.30500
C  7.24800 53.35900 41.52900
C  8.09400 52.25500 40.80300
C  9.52900 52.99400 40.83600
C  9.09300 54.47600 41.00200
C  10.62200 52.57500 41.84500
C  7.51500 52.01800 39.40600
C  7.85400 50.54900 38.92300
H  6.91300 49.95600 37.86400
N  8.39700 57.54600 41.39100
C  9.59500 57.03400 40.92100
C  10.47000 58.16200 40.56500
C  9.69000 59.35300 40.72400
C  8.35400 58.93900 41.24600
C  11.88200 57.98200 39.85900
C  10.24800 60.74200 40.55900
O  11.29200 60.91700 39.95000
C  9.57700 61.99800 41.12500
N  5.48400 58.28900 42.39700
C  5.94600 59.49400 42.16900
C  4.82100 60.55200 42.46400
C  3.68400 59.75700 43.12900
C  4.20300 58.35800 42.92700
C  5.30800 61.73100 43.34300
C  2.27500 59.94600 42.50400
C  1.17700 60.53800 43.42500
N  5.11300 55.53200 42.68800
C  3.93300 55.87900 43.30600
C  3.16600 54.73800 43.68100
C  3.94300 53.62300 43.35300
C  5.10000 54.16600 42.74800
C  1.82800 54.66300 44.35400
C  4.09200 52.15400 43.36100
O  3.33200 51.25300 43.73100
C  5.45500 51.87400 42.66400
C  5.25100 50.87700 41.63800
O  4.67900 51.07000 40.56500
O  5.61800 49.71700 42.09300
C  5.27100 48.40500 41.50300
H  10.95600 55.53200 40.56800
H  7.44400 60.81500 41.72400
H  2.55100 57.52500 43.83500
H  8.11100 51.31600 41.35700
H  9.93100 52.71700 39.86100
H  11.50000 52.35600 41.23800
H  10.30400 51.75300 42.48600
H  10.76500 53.47100 42.44900
H  8.00600 52.66300 38.67800
H  6.45700 52.20500 39.21900
H  7.76900 49.94600 39.82700
H  8.85400 50.43600 38.50400
H  11.84800 57.59400 38.84200
H  12.44300 57.21500 40.39300
H  12.52300 58.86400 39.88100
H  9.29600 61.70800 42.13800
H  8.75900 62.31600 40.47800
H  10.24900 62.82900 41.33900
H  4.51100 60.77900 41.44400
H  3.75400 59.89100 44.20900
H  4.70300 61.91600 44.23100
H  5.30000 62.68400 42.81300
H  6.31000 61.46900 43.68200
H  2.03100 58.99600 42.02900
H  2.39400 60.76200 41.79100
H  1.08700 59.89700 44.30200
H  0.23800 60.46000 42.87700
H  1.37500 61.56400 43.73500
H  1.08600 55.36900 43.98100
H  1.96900 54.77000 45.42900
H  1.57300 53.61800 44.17500
H  6.21500 51.55000 43.37500
H  6.15600 48.16500 40.91400
H  4.37700 48.38100 40.88100
H  5.14100 47.64300 42.27100
Mg -5.30100 24.86400 26.18600
C  -3.58700 26.55600 28.68500
C  -6.49300 22.67500 28.57100
C  -6.92800 23.17800 23.73700
C  -3.84100 27.06000 23.83300
N  -5.00200 24.63300 28.30500
C  -4.40100 25.55000 29.21400
C  -4.65400 25.25700 30.66700
C  -5.25300 23.79200 30.50900
C  -5.71400 23.73400 29.00900
C  -4.31900 22.64800 30.86100
C  -5.67600 26.24400 31.27700
C  -5.62100 26.38200 32.83900
H  -5.58700 25.06500 33.65300
N  -6.48600 23.11300 26.12600
C  -6.86200 22.35100 27.25100
C  -7.68300 21.31300 26.85800
C  -7.80200 21.39000 25.45400
C  -7.13100 22.63100 25.01200
C  -8.30800 20.27700 27.75300
C  -8.47200 20.44300 24.46600
O  -8.46300 20.66700 23.27000
C  -8.99500 19.12700 24.92200
N  -5.51700 25.16800 24.08900
C  -6.12500 24.25600 23.23300
C  -5.80600 24.56200 21.75700
C  -5.05000 25.88500 21.84100
C  -4.80900 26.11200 23.36600
C  -5.17600 23.33500 21.20900
C  -5.80400 27.11700 21.15300
C  -4.99200 27.80000 20.01100
N  -3.94900 26.50200 26.19400
C  -3.45100 27.30100 25.19400
C  -2.47400 28.28400 25.77400
C  -2.62700 28.09700 27.10900
C  -3.49800 27.02500 27.34800
C  -1.76900 29.45100 25.16800
C  -2.19000 28.59100 28.46000
O  -1.50000 29.56700 28.78400
C  -2.81200 27.60000 29.47700
C  -1.61900 26.96000 30.23800
O  -0.76400 26.16400 29.82800
O  -1.69400 27.38000 31.53700
C  -0.75500 26.79500 32.36000
H  -6.95500 22.08500 29.36500
H  -7.40500 22.63400 22.91900
H  -3.45500 27.73200 23.06400
H  -3.73700 25.31000 31.25400
H  -6.14000 23.67700 31.13200
H  -4.30100 21.80600 30.16900
H  -4.35300 22.40500 31.92300
H  -3.30100 22.98700 30.67000
H  -6.68800 25.95500 30.99400
H  -5.38400 27.20400 30.85300
H  -6.50500 26.93800 33.14900
H  -4.76200 27.01900 33.05300
H  -7.85100 19.32700 27.47400
H  -9.38600 20.26200 27.58900
H  -8.11900 20.40900 28.81800
H  -8.15900 18.49700 25.22700
H  -9.40400 18.50100 24.12900
H  -9.81100 19.23300 25.63800
H  -6.67800 24.58900 21.10300
H  -4.15200 25.78400 21.23200
H  -5.61100 22.38700 21.52300
H  -4.12600 23.43000 21.48500
H  -5.29100 23.38500 20.12600
H  -5.85100 27.96600 21.83400
H  -6.80200 26.89500 20.77500
H  -5.55700 27.54600 19.11400
H  -3.97600 27.40700 19.97600
H  -4.84300 28.87400 20.11500
H  -0.77400 29.25500 24.76800
H  -1.65300 30.18700 25.96400
H  -2.34500 29.90700 24.36300
H  -3.37600 28.14200 30.23600
H  0.18000 27.05400 31.86300
H  -0.92200 25.72900 32.51100
H  -0.73600 27.36500 33.29000

