158

Mg 2.37000 -1.73400 43.34300
C  5.82000 -0.93200 42.73800
C  1.47800 1.04300 41.66600
C  -0.71700 -2.85200 43.48800
C  3.53600 -4.87700 44.61900
N  3.56200 -0.21600 42.16800
C  4.92600 0.03600 42.24600
C  5.32200 1.37000 41.65000
C  3.87500 2.05600 41.44700
C  2.90000 0.89500 41.83500
C  3.69600 3.39700 42.34500
C  6.09700 1.24600 40.30800
C  7.43600 2.00200 40.21000
H  8.05600 2.32900 38.79700
N  0.58500 -1.04800 42.59000
C  0.40300 0.17900 42.04400
C  -0.98100 0.34300 41.66600
C  -1.66000 -0.68600 42.32300
C  -0.61100 -1.61800 42.82000
C  -1.56800 1.41200 40.80600
C  -3.21700 -0.82500 42.30800
O  -3.87000 0.08400 41.86300
C  -3.91100 -2.05100 42.89900
N  1.53000 -3.61000 44.04400
C  0.20200 -3.80200 43.97900
C  -0.16300 -5.19200 44.47300
C  1.21600 -5.81600 44.89800
C  2.11300 -4.70500 44.43400
C  -1.30700 -5.11800 45.60400
C  1.61800 -7.14300 44.27000
C  1.54400 -8.41200 45.15100
N  4.24600 -2.77100 43.62500
C  4.49300 -3.96900 44.24500
C  5.88100 -4.08900 44.49600
C  6.45800 -2.93400 43.92500
C  5.42400 -2.20600 43.31600
C  6.59700 -5.18900 45.24600
C  7.72900 -2.17500 43.73500
O  8.89000 -2.36600 44.09500
C  7.32700 -0.80200 43.04300
C  7.57100 0.38000 43.92000
O  6.82500 0.79400 44.82500
O  8.63400 1.04900 43.44400
C  8.86100 2.40300 43.96300
H  1.18500 2.01200 41.25500
H  -1.77500 -3.12000 43.51200
H  3.88600 -5.74400 45.18200
H  5.88900 1.86200 42.44000
H  3.63500 2.27800 40.40700
H  4.70400 3.68300 42.64400
H  3.16100 3.00900 43.21200
H  3.22400 4.21500 41.80200
H  5.53600 1.52600 39.41700
H  6.49700 0.25100 40.11400
H  8.29300 1.53100 40.69000
H  7.26200 2.94500 40.72800
H  -2.25700 0.94500 40.10200
H  -0.76400 1.86500 40.22500
H  -1.97600 2.20700 41.42900
H  -4.92400 -1.65600 42.81500
H  -3.62700 -1.98300 43.94900
H  -3.82100 -2.93000 42.26100
H  -0.53700 -5.75900 43.62000
H  1.27800 -5.81500 45.98600
H  -2.23500 -5.60600 45.30700
H  -1.67600 -4.11600 45.82400
H  -0.92800 -5.51400 46.54700
H  2.60600 -7.09600 43.81400
H  0.86500 -7.27600 43.49300
H  2.34000 -9.09700 44.85900
H  0.64300 -8.96200 44.88000
H  1.49900 -8.18200 46.21600
H  7.16800 -5.81600 44.56200
H  5.99000 -5.89000 45.81900
H  7.29500 -4.64900 45.88600
H  7.81600 -0.59200 42.09200
H  8.50400 3.23600 43.35800
H  9.94800 2.44500 44.03300
H  8.48400 2.53800 44.97800
Mg -5.56400 25.41700 26.33600
C  -4.31800 26.84000 29.20000
C  -7.40200 23.25600 28.17000
C  -6.63000 23.96200 23.42300
C  -3.23600 27.34200 24.52000
N  -5.73200 25.01300 28.39800
C  -5.26600 25.81500 29.46400
C  -5.98100 25.46300 30.79700
C  -6.62000 24.08900 30.45500
C  -6.61200 24.14200 28.93800
C  -5.83800 22.91900 31.07300
C  -7.01900 26.49900 31.32600
C  -7.24300 26.38400 32.85400
H  -6.88800 25.15100 33.71200
N  -6.88000 23.82000 25.90800
C  -7.56300 23.08200 26.79200
C  -8.38400 22.17700 26.03800
C  -8.10500 22.38100 24.61800
C  -7.12800 23.38000 24.58300
C  -9.30900 21.21200 26.79400
C  -8.73700 21.67400 23.45900
O  -8.38400 22.01000 22.30600
C  -9.58400 20.44300 23.64900
N  -4.99800 25.50900 24.28900
C  -5.63800 24.94900 23.23400
C  -4.96500 25.34000 21.85000
C  -4.03400 26.55400 22.23300
C  -4.10700 26.47500 23.79800
C  -4.33400 24.12100 21.18400
C  -4.44400 27.88400 21.60600
C  -3.59400 28.42100 20.47000
N  -4.11700 26.85300 26.69100
C  -3.22000 27.51300 25.91700
C  -2.56000 28.56100 26.62700
C  -2.96100 28.32100 27.94000
C  -3.88600 27.24200 27.95100
C  -1.66100 29.66700 26.00600
C  -2.86700 28.71600 29.30000
O  -2.22400 29.62000 29.92800
C  -3.73200 27.81000 30.19600
C  -2.85200 27.27400 31.27700
O  -1.89800 26.53300 31.02900
O  -3.12300 27.80900 32.45000
C  -2.36500 27.42700 33.62900
H  -8.19300 22.74100 28.71800
H  -6.86300 23.66400 22.39800
H  -2.59700 28.00400 23.93200
H  -5.14900 25.43500 31.50000
H  -7.64700 23.98800 30.80500
H  -4.79900 23.13600 31.32000
H  -5.77500 22.16500 30.28700
H  -6.29800 22.42400 31.92800
H  -8.01200 26.34500 30.90300
H  -6.72900 27.48100 30.95100
H  -8.30900 26.40500 33.08200
H  -6.82300 27.24900 33.36800
H  -8.86700 21.03500 27.77400
H  -9.55700 20.25600 26.33400
H  -10.23300 21.76100 26.97700
H  -8.99100 19.83800 24.33400
H  -9.58600 19.88200 22.71400
H  -10.58800 20.64800 24.02000
H  -5.72800 25.76900 21.20000
H  -2.99300 26.50800 21.91300
H  -3.24400 24.11800 21.20900
H  -4.61600 24.07700 20.13200
H  -4.71500 23.14100 21.47100
H  -4.42500 28.58900 22.43700
H  -5.48700 27.88300 21.29100
H  -4.37600 28.57300 19.72700
H  -2.84900 27.70400 20.12500
H  -3.11500 29.39600 20.57300
H  -1.14000 30.17400 26.81800
H  -2.15900 30.48100 25.48000
H  -0.78500 29.30500 25.46600
H  -4.41000 28.57800 30.56900
H  -2.94600 27.03200 34.46200
H  -1.80400 28.28300 34.00300
H  -1.56300 26.74200 33.35200

