158

Mg 24.99700 -7.48200 47.37200
C  27.04200 -5.05000 45.83800
C  22.38300 -6.26200 45.24900
C  23.08500 -10.31000 47.94100
C  27.74600 -8.98700 48.71100
N  24.77200 -5.81200 45.63000
C  25.75900 -4.94100 45.28100
C  25.18000 -3.93400 44.27300
C  23.57800 -4.14700 44.31200
C  23.51700 -5.44000 45.15500
C  22.91800 -3.00200 45.06100
C  25.86000 -4.19600 42.87200
C  26.55200 -2.98800 42.18200
H  25.75100 -2.26200 41.06600
N  22.93400 -8.15100 46.72900
C  22.07600 -7.53600 45.96100
C  20.81200 -8.12200 46.01700
C  20.91200 -9.25900 46.82400
C  22.35600 -9.31400 47.21700
C  19.65500 -7.47300 45.30200
C  19.91600 -10.32400 47.12100
O  18.82700 -10.27500 46.49700
C  20.11100 -11.32400 48.21900
N  25.37300 -9.33200 48.20200
C  24.45700 -10.33100 48.32000
C  25.02000 -11.49200 49.18700
C  26.52100 -11.18900 49.08600
C  26.54900 -9.71500 48.63900
C  24.41300 -11.65400 50.68600
C  27.40200 -12.15700 48.11300
C  28.54700 -13.06400 48.85500
N  26.91800 -6.96300 47.58000
C  27.96900 -7.72700 48.13100
C  29.22200 -6.99600 48.01200
C  28.84900 -5.93100 47.17800
C  27.47000 -5.98000 46.83400
C  30.54500 -7.31100 48.61000
C  29.30300 -4.70900 46.51000
O  30.41400 -4.21400 46.50500
C  28.16900 -4.17300 45.53700
C  27.98900 -2.75400 45.78600
O  27.32000 -2.31100 46.72800
O  28.76200 -2.02300 44.91600
C  28.78000 -0.55500 45.22100
H  21.52200 -5.85200 44.71800
H  22.57000 -11.23700 48.20100
H  28.60200 -9.57100 49.05600
H  25.49300 -2.99300 44.72400
H  23.17200 -4.22400 43.30400
H  22.69500 -3.40800 46.04800
H  21.99400 -2.72700 44.55300
H  23.47900 -2.12600 45.38500
H  25.04100 -4.51100 42.22600
H  26.63700 -4.95300 42.98200
H  27.49200 -3.34400 41.76100
H  26.84100 -2.20900 42.88700
H  18.68700 -7.97100 45.34400
H  19.97800 -7.40000 44.26400
H  19.43800 -6.51900 45.78200
H  19.17200 -11.65200 48.66500
H  20.74300 -10.70300 48.85300
H  20.55500 -12.20200 47.74800
H  24.88600 -12.42200 48.63400
H  27.03300 -11.17800 50.04700
H  25.16500 -11.37900 51.42600
H  24.13400 -12.69800 50.83000
H  23.54700 -11.00200 50.79300
H  27.83300 -11.49000 47.36600
H  26.80000 -12.90600 47.59800
H  28.41700 -12.92000 49.92800
H  29.50500 -12.70800 48.47500
H  28.44700 -14.14100 48.72000
H  30.93600 -8.19200 48.10000
H  30.54700 -7.46900 49.68800
H  31.22600 -6.49100 48.37800
H  28.54000 -4.33400 44.52500
H  27.73900 -0.23700 45.27600
H  29.43000 0.02000 44.56100
H  29.06900 -0.32900 46.24800
Mg 6.53500 53.99400 41.24400
C  5.92100 50.58200 40.83100
C  9.71400 53.40100 39.79100
C  6.87300 57.24700 40.74400
C  3.16000 54.49300 42.12200
N  7.69300 52.21200 40.35300
C  7.30000 50.90900 40.44800
C  8.43200 49.90300 40.14200
C  9.67800 50.83900 40.06700
C  8.97400 52.20500 39.99000
C  10.59800 50.68600 41.32800
C  8.31800 48.91100 38.90900
C  8.01900 49.65300 37.59500
H  7.37200 48.93600 36.44900
N  8.06200 55.14400 40.31500
C  9.26600 54.74900 39.86400
C  10.09500 55.88200 39.58300
C  9.32500 57.02500 39.87800
C  8.03500 56.51500 40.39200
C  11.46200 55.75400 39.01000
C  9.72900 58.49400 39.56600
O  10.83500 58.71900 39.06900
C  8.82800 59.67600 39.84800
N  5.09900 55.59300 41.11500
C  5.57000 56.87500 41.09400
C  4.45100 57.95800 41.28100
C  3.32300 57.04100 41.85200
C  3.86600 55.62300 41.69600
C  4.87700 59.09600 42.20400
C  1.92800 57.20000 41.24200
C  1.32600 58.61100 41.39000
N  4.89200 52.75200 41.55100
C  3.60500 53.11600 41.94700
C  2.76600 51.91500 41.95200
C  3.62400 50.89600 41.53600
C  4.93200 51.45300 41.27900
C  1.33600 51.79300 42.32300
C  3.66400 49.47100 41.21200
O  2.82900 48.59000 41.27800
C  5.19900 49.19200 40.82500
C  5.14300 48.45800 39.57100
O  4.73300 48.84600 38.46600
O  5.45600 47.06200 39.86100
C  5.02200 46.10600 38.85200
H  10.78000 53.18000 39.70300
H  7.08700 58.31100 40.86100
H  2.14100 54.66700 42.47200
H  8.43600 49.20200 40.97600
H  10.21800 50.65400 39.13900
H  11.51100 50.19500 40.99000
H  10.10900 50.07200 42.08300
H  10.86100 51.70400 41.61700
H  7.49900 48.23100 39.14500
H  9.22300 48.30600 38.87600
H  8.93800 50.11500 37.23300
H  7.42800 50.52000 37.88900
H  11.81100 54.76300 38.72000
H  12.15000 56.09200 39.78400
H  11.40700 56.44200 38.16600
H  7.93200 59.38600 39.29800
H  9.27600 60.51200 39.31000
H  8.80200 59.88300 40.91800
H  4.11300 58.35100 40.32200
H  3.11400 57.03300 42.92200
H  5.76600 58.87800 42.79600
H  4.12700 59.29500 42.96900
H  5.08100 59.96100 41.57300
H  1.18000 56.59600 41.75600
H  2.00600 56.87800 40.20400
H  0.44900 58.65100 42.03500
H  1.08800 58.92800 40.37400
H  2.03000 59.35300 41.76700
H  0.96500 52.76400 42.65300
H  1.10900 51.13900 43.16400
H  0.74200 51.59800 41.43000
H  5.60100 48.53700 41.59800
H  5.31300 45.11300 39.19500
H  5.64400 46.37500 37.99900
H  3.96200 46.27200 38.66300

