158

Mg 7.93400 2.99800 27.72900
C  9.60500 1.67000 30.53900
C  6.01100 4.90400 29.68200
C  6.05400 3.62600 24.96700
C  9.43800 0.34700 25.79000
N  7.95400 3.27400 29.85100
C  8.62300 2.60200 30.86300
C  8.28000 3.11300 32.22400
C  7.11700 4.12700 31.91200
C  6.98800 4.14200 30.37000
C  5.84900 3.73300 32.67900
C  9.53600 3.61400 32.99500
C  9.10500 4.58600 34.18500
H  9.74200 4.13900 35.45100
N  6.36800 4.22300 27.32400
C  5.69300 4.96400 28.26900
C  4.86200 5.88500 27.62300
C  4.81800 5.50400 26.25200
C  5.80700 4.43500 26.10000
C  4.21400 7.00300 28.36900
C  3.88700 6.00000 25.20500
O  3.88200 5.63000 24.03900
C  2.89400 7.14000 25.57700
N  7.90100 2.18000 25.60100
C  6.97700 2.60100 24.71000
C  7.09000 1.91500 23.40100
C  8.29900 0.86000 23.67100
C  8.58600 1.17900 25.11500
C  5.76400 1.22400 22.96000
C  9.58400 1.07300 22.78900
C  9.98600 -0.19500 21.92900
N  9.36100 1.52900 27.96700
C  9.84100 0.52500 27.11700
C  10.60300 -0.42900 27.87800
C  10.63300 0.08900 29.15300
C  9.79600 1.25000 29.18200
C  11.31400 -1.68100 27.38800
C  11.17400 -0.16900 30.39700
O  11.92500 -1.07400 30.78800
C  10.56000 0.88700 31.39800
C  9.86500 0.12500 32.52500
O  8.76100 -0.38800 32.41600
O  10.55600 0.18900 33.64200
C  10.23300 -0.69700 34.81200
H  5.50300 5.53500 30.41500
H  5.40700 3.90600 24.13300
H  9.85100 -0.53800 25.30200
H  7.96000 2.22500 32.76900
H  7.51000 5.11400 32.15300
H  5.81700 4.26000 33.63300
H  5.79400 2.66800 32.90500
H  4.99300 4.07900 32.10100
H  10.25800 4.01200 32.28200
H  9.96800 2.77200 33.53400
H  8.02300 4.63200 34.30600
H  9.59200 5.53800 33.97400
H  4.52500 7.10600 29.40900
H  3.14100 6.81300 28.33600
H  4.45800 7.94300 27.87500
H  2.26700 7.47500 24.75000
H  3.48500 7.99400 25.90700
H  2.25400 6.85900 26.41300
H  7.37800 2.61300 22.61400
H  7.98600 -0.18300 23.63500
H  4.98200 1.41700 23.69500
H  5.79900 0.15800 22.73400
H  5.43700 1.76600 22.07300
H  10.44000 1.21200 23.45000
H  9.46200 1.89400 22.08300
H  10.96900 -0.60400 22.16100
H  10.00600 -0.00400 20.85600
H  9.25700 -0.97700 22.13900
H  10.59100 -2.41900 27.04200
H  11.84900 -2.23600 28.15900
H  11.82100 -1.48300 26.44400
H  11.30500 1.54000 31.85400
H  9.71700 -1.63000 34.58700
H  9.50700 -0.09700 35.36100
H  11.13500 -0.91900 35.38300
Mg 30.73800 56.67800 39.79300
C  28.16400 54.41100 38.77200
C  33.02000 54.16700 38.79800
C  33.19200 58.95500 39.71800
C  28.36600 59.21900 40.00400
N  30.53500 54.50000 38.81100
C  29.38700 53.81300 38.61400
C  29.67900 52.39000 38.20200
C  31.25700 52.29400 38.20900
C  31.63200 53.71700 38.66800
C  31.94100 51.07800 38.91900
C  29.03400 51.94800 36.94000
C  29.36700 52.70600 35.62700
H  28.31500 53.45800 34.93200
N  32.79400 56.62100 39.34400
C  33.54000 55.47400 39.08500
C  34.93100 55.85600 38.99800
C  35.04600 57.23000 39.30800
C  33.67900 57.62800 39.48700
C  36.04900 55.00100 38.54700
C  36.38500 57.96800 39.34200
O  37.42900 57.53400 38.86400
C  36.42100 59.23900 40.15000
N  30.77400 58.80500 39.89600
C  31.90100 59.48800 39.89300
C  31.62200 60.97300 39.99100
C  30.09700 61.07700 40.28300
C  29.70800 59.61800 40.08500
C  32.50400 61.67200 41.07300
C  29.31800 62.07200 39.37300
C  29.81300 63.54700 39.18000
N  28.67200 56.86100 39.62000
C  27.83000 57.93700 39.76200
C  26.51800 57.53100 39.53300
C  26.55300 56.14100 39.21200
C  27.97600 55.83400 39.16800
C  25.27400 58.35100 39.75700
C  25.78100 55.02200 39.00200
O  24.52300 54.93500 39.04600
C  26.69400 53.88200 38.64100
C  26.28400 52.78000 39.61100
O  26.78900 52.61800 40.71200
O  25.28500 52.05800 39.04600
C  24.88500 50.80200 39.66600
H  33.77600 53.40700 38.58800
H  33.94000 59.74100 39.59500
H  27.65000 60.01600 40.21100
H  29.24400 51.76300 38.98000
H  31.67000 52.18500 37.20600
H  32.54300 50.49200 38.22500
H  31.16700 50.44800 39.35800
H  32.58800 51.51400 39.68100
H  27.98300 51.75600 37.15400
H  29.49500 50.98300 36.72500
H  29.63500 51.89500 34.95000
H  30.18300 53.39600 35.84500
H  35.68500 54.02500 38.22700
H  36.71700 54.92700 39.40500
H  36.66000 55.46700 37.77400
H  37.40600 59.35800 40.60100
H  35.68900 58.99000 40.91800
H  36.08500 60.21200 39.79200
H  31.84200 61.35400 38.99300
H  29.89000 61.34600 41.31800
H  33.35200 61.10900 41.46300
H  31.87900 61.98900 41.90800
H  32.92900 62.58600 40.65800
H  28.30100 62.08600 39.76700
H  29.30900 61.55300 38.41500
H  30.22300 63.79000 38.19900
H  30.58200 63.73600 39.92900
H  28.99800 64.25300 39.34200
H  25.29300 59.42100 39.54900
H  25.07500 58.45800 40.82400
H  24.40700 57.76100 39.45900
H  26.52700 53.42300 37.66700
H  23.81700 50.77700 39.88200
H  25.38600 50.65000 40.62200
H  25.17600 50.11000 38.87700

