158

Mg 8.17100 2.29600 27.34300
C  9.66500 1.11100 30.24100
C  6.29400 4.35800 29.30500
C  6.83600 3.63400 24.61400
C  9.69800 -0.12000 25.42900
N  7.95100 2.61000 29.49100
C  8.64400 2.05200 30.51100
C  8.39600 2.64200 31.88800
C  7.22700 3.60500 31.52900
C  7.11700 3.52400 30.02700
C  5.76900 3.46700 32.21100
C  9.57000 3.37200 32.55500
C  9.28200 4.37300 33.69500
H  10.22400 4.26000 34.86400
N  6.70900 3.76700 27.01500
C  6.05600 4.52100 27.96400
C  5.03600 5.30300 27.34700
C  5.20100 5.16200 25.88600
C  6.27500 4.14000 25.80700
C  3.99500 6.12100 28.18800
C  4.48100 5.82700 24.83100
O  4.76100 5.58200 23.65600
C  3.31800 6.76800 25.11900
N  8.25800 1.75000 25.28900
C  7.67100 2.53600 24.32700
C  8.15600 2.16700 22.95400
C  8.88000 0.80500 23.17600
C  9.00100 0.81000 24.71100
C  7.14300 2.14100 21.74600
C  10.30900 0.68900 22.43600
C  10.27400 -0.45500 21.43100
N  9.45800 0.79600 27.73900
C  10.08600 -0.04500 26.83900
C  11.01000 -0.89300 27.59200
C  10.89400 -0.45800 28.90500
C  9.96800 0.56000 28.92800
C  11.87000 -1.99400 27.02300
C  11.31600 -0.65700 30.29200
O  12.07600 -1.54300 30.69800
C  10.52400 0.39500 31.25900
C  9.77300 -0.32100 32.37100
O  8.61400 -0.60800 32.28500
O  10.60700 -0.46700 33.46700
C  10.06800 -1.24500 34.65000
H  5.65500 4.92300 29.98700
H  6.36300 3.96400 23.68600
H  10.23400 -0.87200 24.84600
H  8.03700 1.88300 32.58300
H  7.58900 4.61500 31.72100
H  4.97700 3.20900 31.50900
H  5.55400 4.37300 32.77800
H  5.73200 2.68700 32.97200
H  10.12500 3.94600 31.81300
H  10.22600 2.60700 32.97000
H  8.24800 4.27200 34.02600
H  9.43900 5.38800 33.33000
H  4.22700 6.17600 29.25200
H  3.01700 5.65700 28.06400
H  3.90000 7.15300 27.85200
H  3.57800 7.67700 25.66200
H  2.58700 6.16200 25.65400
H  2.94700 7.12400 24.15900
H  8.87200 2.96200 22.74300
H  8.16200 0.10000 22.75400
H  7.49600 1.51900 20.92300
H  7.08700 3.15900 21.36000
H  6.24400 1.59600 22.03500
H  11.22800 0.67400 23.02100
H  10.37800 1.54000 21.75800
H  10.35900 0.01700 20.45200
H  9.36100 -1.04800 21.48100
H  11.13000 -1.09500 21.64300
H  11.70900 -2.88500 27.63100
H  12.95300 -1.87900 27.05300
H  11.48600 -2.31800 26.05600
H  11.22900 1.11800 31.66800
H  9.88100 -0.52500 35.44700
H  10.73600 -2.09600 34.78800
H  9.11700 -1.69000 34.36100
Mg -12.11500 16.08900 42.28100
C  -9.29300 14.18100 41.64100
C  -10.78400 18.75000 40.38600
C  -15.21600 17.59500 42.13200
C  -13.73100 13.09100 43.26600
N  -10.25000 16.30600 41.07400
C  -9.24300 15.38900 40.90500
C  -8.09400 15.94000 40.19500
C  -8.47500 17.40200 39.80300
C  -9.96000 17.55300 40.42300
C  -7.48300 18.34000 40.41200
C  -7.69100 15.01300 39.03700
C  -6.19600 14.59500 38.85000
H  -5.47400 15.28000 37.63000
N  -12.82200 18.01700 41.63400
C  -12.10800 19.00100 40.97400
C  -12.92900 20.15600 40.79200
C  -14.23800 19.85800 41.30600
C  -14.16700 18.42200 41.72700
C  -12.40100 21.52300 40.11400
C  -15.36200 20.81700 41.45800
O  -15.14000 21.95000 41.16600
C  -16.69500 20.46900 41.84000
N  -14.22100 15.52100 42.75300
C  -15.30800 16.26200 42.55800
C  -16.67500 15.49300 42.71800
C  -16.12600 14.12100 43.17600
C  -14.55100 14.25200 43.08900
C  -17.86700 16.09200 43.55800
C  -16.59600 12.89900 42.28900
C  -16.90400 11.56100 43.01200
N  -11.58900 14.08600 42.62900
C  -12.30800 13.02700 43.07200
C  -11.43200 11.91600 43.37200
C  -10.13900 12.35200 42.85400
C  -10.35800 13.64000 42.35700
C  -11.89700 10.56700 43.72500
C  -8.83400 11.95600 42.63400
O  -8.18300 10.94800 42.90100
C  -8.23500 13.14800 41.82000
C  -7.00800 13.59100 42.49900
O  -6.94600 14.18300 43.52700
O  -5.85600 13.17800 41.79700
C  -4.63200 13.73300 42.34800
H  -10.35700 19.55000 39.77800
H  -16.20100 18.02200 41.93000
H  -14.23400 12.15400 43.51100
H  -7.23700 15.96000 40.86800
H  -8.66000 17.67600 38.76400
H  -6.97200 17.93800 41.28700
H  -8.04600 19.17500 40.82900
H  -6.76500 18.56800 39.62500
H  -7.92900 15.43500 38.06100
H  -8.23600 14.07600 39.14800
H  -6.05300 13.51600 38.79200
H  -5.72000 14.96900 39.75700
H  -12.75800 22.43100 40.59900
H  -12.56000 21.49100 39.03600
H  -11.33700 21.56000 40.34800
H  -17.40700 21.29400 41.80000
H  -16.68700 19.95100 42.79900
H  -17.14600 19.81200 41.09700
H  -17.02000 15.40700 41.68700
H  -16.44000 13.90400 44.19700
H  -18.35400 15.27000 44.08300
H  -18.46800 16.61200 42.81300
H  -17.64600 16.96100 44.17900
H  -15.85500 12.69800 41.51500
H  -17.48300 13.18300 41.72300
H  -17.98200 11.40400 43.03100
H  -16.60600 11.67600 44.05500
H  -16.50100 10.63500 42.60100
H  -11.06100 9.91000 43.48800
H  -12.80200 10.32000 43.17000
H  -12.36200 10.55900 44.71000
H  -7.97900 12.74200 40.84200
H  -4.68500 14.81300 42.20900
H  -3.70500 13.39700 41.88500
H  -4.46100 13.50300 43.39900

