158

Mg -0.31600 7.06900 26.20700
C  0.32100 9.14800 28.84800
C  0.10300 4.34200 28.31200
C  -0.36800 4.90500 23.50800
C  0.07800 9.77600 23.96800
N  0.08500 6.84000 28.30300
C  0.19100 7.82400 29.23100
C  0.29800 7.30700 30.68900
C  0.59800 5.78500 30.36300
C  0.22500 5.65100 28.90400
C  2.05200 5.26600 30.74600
C  -1.02600 7.75700 31.42900
C  -0.80900 8.18500 32.85700
H  0.39400 7.60500 33.59600
N  -0.45000 4.97200 25.96400
C  -0.24000 4.06200 26.98000
C  -0.34700 2.74200 26.37900
C  -0.65500 2.87200 25.02700
C  -0.44100 4.27900 24.77400
C  -0.37800 1.51900 27.24500
C  -1.08500 1.79800 24.01700
O  -1.42300 2.08000 22.88300
C  -1.23500 0.34900 24.48100
N  -0.17300 7.27800 24.09400
C  -0.28300 6.23000 23.17900
C  -0.37000 6.73200 21.73600
C  -0.25300 8.27300 21.93800
C  -0.06700 8.51600 23.41000
C  0.71500 6.15300 20.75700
C  -1.17500 9.13100 21.14600
C  -2.51900 9.49500 21.79900
N  0.21000 9.10300 26.34600
C  0.30300 10.03600 25.33600
C  0.46700 11.36700 25.99100
C  0.48800 11.08600 27.35700
C  0.39700 9.68400 27.51900
C  0.63000 12.73000 25.10500
C  0.65800 11.59500 28.67500
O  0.98800 12.71400 28.99300
C  0.48500 10.39900 29.66700
C  1.65100 10.35100 30.50200
O  2.77800 10.01400 30.18400
O  1.33100 10.85900 31.72100
C  2.52000 11.16400 32.54100
H  0.26300 3.51900 29.01100
H  -0.54700 4.29500 22.62000
H  -0.06500 10.59300 23.25700
H  1.14500 7.84900 31.10900
H  -0.15500 5.21500 30.90700
H  2.69000 5.11000 29.87600
H  2.04600 4.36100 31.35300
H  2.52600 6.03500 31.35600
H  -1.74800 6.94300 31.49900
H  -1.54000 8.52500 30.85100
H  -1.64000 7.97000 33.52800
H  -0.84300 9.26500 33.00200
H  -0.03200 1.64100 28.27200
H  0.25900 0.73700 26.83200
H  -1.42000 1.21500 27.34200
H  -0.29900 -0.14300 24.74600
H  -1.65200 -0.12700 23.59400
H  -1.76200 0.19100 25.42200
H  -1.39300 6.60500 21.38200
H  0.72000 8.51900 21.51400
H  1.25700 6.85300 20.12000
H  0.14600 5.62200 19.99400
H  1.33300 5.38400 21.22000
H  -1.40000 8.66500 20.18600
H  -0.77800 10.13200 20.97800
H  -3.33000 9.50600 21.07100
H  -2.48900 10.52600 22.15000
H  -2.80800 8.77300 22.56300
H  -0.33500 13.21200 24.94800
H  1.16900 12.42600 24.20800
H  1.28000 13.49000 25.53900
H  -0.37900 10.47900 30.32700
H  2.27800 10.76700 33.52700
H  2.77300 12.21700 32.66400
H  3.44600 10.61700 32.36300
Mg 7.53600 3.07400 27.95700
C  8.93000 1.83600 30.82300
C  5.92700 5.38000 29.76900
C  5.87500 4.04500 25.03500
C  9.30800 0.71100 26.08300
N  7.36000 3.52000 30.02700
C  8.03400 2.86900 31.07400
C  7.73400 3.56200 32.38300
C  6.75200 4.70900 32.00600
C  6.65200 4.50800 30.54400
C  5.32400 4.69400 32.70900
C  9.00100 4.06700 33.16800
C  9.17600 3.71900 34.75300
H  9.56200 4.80100 35.73900
N  6.06900 4.44700 27.50700
C  5.64200 5.39600 28.39300
C  4.74000 6.30000 27.68000
C  4.61500 5.93700 26.36500
C  5.53100 4.77900 26.24300
C  4.04100 7.36400 28.43000
C  3.81500 6.56600 25.22500
O  3.66800 6.04700 24.16000
C  3.05700 7.74300 25.53700
N  7.49600 2.32100 25.86400
C  6.73500 2.94800 24.87700
C  6.96100 2.21500 23.54600
C  8.26500 1.43700 23.85400
C  8.32600 1.42500 25.38700
C  5.83400 1.21500 23.14200
C  9.54900 2.05300 23.23400
C  10.30300 1.08000 22.33900
N  8.89700 1.54700 28.31200
C  9.57400 0.71700 27.50200
C  10.49200 -0.13600 28.25900
C  10.31700 0.38400 29.59500
C  9.32100 1.35300 29.54700
C  11.46400 -1.21400 27.80700
C  10.70000 0.15100 30.99500
O  11.43800 -0.60400 31.56800
C  9.80900 1.16200 31.83600
C  9.04200 0.33100 32.76000
O  8.11500 -0.34300 32.45300
O  9.69900 0.21100 33.98700
C  9.07000 -0.54900 35.03100
H  5.64100 6.15000 30.49000
H  5.57600 4.36100 24.03400
H  10.06900 0.22000 25.47200
H  7.09900 2.87800 32.94600
H  7.21200 5.69700 32.00100
H  4.71900 4.00600 32.11900
H  4.93000 5.70900 32.66300
H  5.27700 4.35600 33.74500
H  8.85200 5.14400 33.24200
H  9.98000 4.04800 32.68900
H  10.03300 3.04700 34.81000
H  8.37200 3.08700 35.12900
H  4.51900 8.32400 28.23700
H  4.04200 7.01700 29.46300
H  2.99300 7.45300 28.14300
H  2.35900 7.45100 26.32100
H  2.47500 8.01300 24.65600
H  3.73100 8.54900 25.82700
H  6.99400 2.94000 22.73300
H  8.16700 0.42700 23.45900
H  5.00000 1.23200 23.84400
H  6.11300 0.16100 23.14000
H  5.30700 1.43900 22.21400
H  10.24000 2.37400 24.01500
H  9.25200 2.94800 22.68800
H  10.74900 1.52300 21.44900
H  9.61000 0.30000 22.02500
H  11.18700 0.66300 22.82300
H  11.58200 -1.15900 26.72400
H  11.06700 -2.19000 28.08400
H  12.38400 -1.00700 28.35300
H  10.45300 1.83500 32.40300
H  9.95100 -1.01400 35.47400
H  8.32800 -1.30600 34.77500
H  8.58100 0.06800 35.78400

