158

Mg 49.55300 34.20000 25.74500
C  47.37500 33.03700 28.19300
C  49.62200 37.22500 27.33100
C  51.50700 35.33100 23.26500
C  48.99200 31.29300 23.95700
N  48.58700 35.02900 27.59600
C  47.90100 34.34400 28.51800
C  47.68400 35.15400 29.83000
C  48.05700 36.56600 29.34100
C  48.72800 36.29500 27.96300
C  46.78900 37.47100 29.15000
C  48.69100 34.68000 30.98200
C  48.03400 34.38900 32.31100
H  46.89900 35.33400 32.81100
N  50.49100 36.04000 25.36900
C  50.36500 37.16500 26.17200
C  51.14500 38.19900 25.48000
C  51.60400 37.74100 24.27800
C  51.18300 36.32600 24.27100
C  51.32900 39.53800 26.04400
C  52.31600 38.44100 23.12400
O  52.79600 37.85600 22.13400
C  52.60200 39.91800 23.21500
N  50.02100 33.46500 23.68600
C  50.99000 34.11900 22.95200
C  51.44700 33.22100 21.80800
C  50.71400 31.87300 22.10100
C  49.92000 32.20000 23.36900
C  51.09800 33.71300 20.38800
C  51.74000 30.63300 22.35500
C  52.10700 29.78100 21.16000
N  48.35600 32.50000 25.90100
C  48.17500 31.39500 25.11100
C  47.22100 30.44700 25.65200
C  46.79300 31.07200 26.86100
C  47.55800 32.30600 27.00600
C  46.79600 29.18100 24.97100
C  46.00000 30.98000 28.09700
O  45.22900 30.12000 28.52800
C  46.40300 32.24300 28.99600
C  46.96200 31.54300 30.19400
O  48.05300 31.15000 30.32200
O  46.02400 31.37800 31.13600
C  46.51900 30.66300 32.35800
H  49.54000 38.15400 27.89900
H  52.22000 35.62700 22.49200
H  48.80800 30.38400 23.38000
H  46.65600 35.08500 30.18500
H  48.68000 37.12400 30.04100
H  45.90600 37.12600 29.68700
H  46.57200 37.45000 28.08200
H  46.92500 38.51900 29.41600
H  49.49300 35.38800 31.19000
H  49.08900 33.68900 30.76700
H  48.87700 34.58700 32.97300
H  47.74300 33.40300 32.67200
H  51.03800 39.53200 27.09400
H  50.68500 40.26300 25.54500
H  52.34100 39.90900 25.88500
H  53.35100 40.04000 23.99700
H  51.71500 40.43300 23.58400
H  53.01300 40.28500 22.27500
H  52.52600 33.13900 21.94300
H  49.99300 31.75500 21.29300
H  51.04400 32.93700 19.62400
H  51.84200 34.46900 20.13900
H  50.13300 34.20900 20.48400
H  51.24300 30.07800 23.15100
H  52.60500 31.10600 22.81900
H  53.17700 29.94600 21.03300
H  51.56500 30.24600 20.33700
H  51.75800 28.75300 21.24900
H  45.87600 28.94800 25.50700
H  47.54200 28.38700 24.93300
H  46.50100 29.54900 23.98900
H  45.50800 32.84500 29.15800
H  46.93300 31.51500 32.89800
H  47.22100 29.84800 32.18400
H  45.69600 30.32800 32.98900
Mg 28.80700 56.30800 40.55400
C  26.40400 53.95000 39.67800
C  31.14000 54.03900 39.64400
C  31.19500 58.78500 40.18900
C  26.23100 58.71100 40.93100
N  28.69900 54.27500 39.70700
C  27.65100 53.45400 39.46600
C  28.09000 52.11100 38.88100
C  29.56100 52.08100 39.24100
C  29.78900 53.57200 39.50600
C  29.97500 51.22100 40.51900
C  27.68500 51.81600 37.40000
C  28.23600 52.82000 36.30000
H  27.36100 53.41300 35.21800
N  30.98000 56.45200 40.10800
C  31.74800 55.31900 39.78900
C  33.07300 55.74900 39.67300
C  33.12900 57.12500 39.77600
C  31.76900 57.53600 40.03300
C  34.18300 54.68300 39.45800
C  34.33600 57.95400 39.73200
O  35.41300 57.41400 39.55300
C  34.36800 59.38400 40.02900
N  28.70500 58.42600 40.57900
C  29.86400 59.15900 40.58400
C  29.50100 60.59100 40.69700
C  27.96900 60.60200 40.98600
C  27.58700 59.17700 40.85400
C  30.35400 61.44200 41.64700
C  27.12500 61.57200 40.10700
C  26.37000 62.70000 40.82400
N  26.77000 56.37900 40.44600
C  25.80900 57.36900 40.65000
C  24.52400 56.86700 40.54000
C  24.68000 55.51900 40.17200
C  26.07100 55.29400 40.07100
C  23.20100 57.51000 40.84200
C  23.95800 54.28400 39.93000
O  22.70000 54.10600 39.90600
C  25.04600 53.22700 39.49500
C  24.84100 51.90700 40.17500
O  24.62800 50.86700 39.60300
O  25.16900 51.91700 41.47400
C  24.99200 50.65800 42.20600
H  31.88200 53.23900 39.61400
H  31.79600 59.65600 39.92100
H  25.52500 59.53700 41.03700
H  27.71300 51.41600 39.63200
H  30.21000 51.80500 38.41000
H  29.71400 50.16500 40.46200
H  29.68300 51.76700 41.41600
H  31.04200 51.32400 40.71800
H  26.59500 51.79300 37.41200
H  27.97300 50.85800 36.96700
H  28.82500 52.25300 35.58000
H  28.90000 53.55200 36.76000
H  33.71000 53.76800 39.10200
H  34.69000 54.51200 40.40800
H  34.94600 54.92000 38.71600
H  33.78900 59.48600 40.94600
H  33.90700 59.93200 39.20600
H  35.38700 59.76200 40.11600
H  29.57700 60.93500 39.66600
H  27.68600 60.97100 41.97100
H  31.12800 60.82800 42.10700
H  29.76200 61.99800 42.37500
H  30.81400 62.22700 41.04700
H  26.39300 61.07000 39.47400
H  27.79100 61.99000 39.35200
H  25.38600 62.33100 41.11300
H  26.29900 63.46100 40.04600
H  26.90900 63.04900 41.70500
H  22.45600 56.73600 41.02500
H  22.93700 58.02600 39.91900
H  23.28500 58.11700 41.74300
H  24.87700 53.03600 38.43500
H  24.86700 50.85300 43.27100
H  25.81500 49.94800 42.11900
H  24.02600 50.20400 41.98900

