158

Mg 27.16900 49.59900 26.08300
C  25.01800 50.67700 28.69700
C  29.51300 48.81200 28.42000
C  29.46300 49.12500 23.50700
C  24.91800 50.92200 23.79100
N  27.30400 49.90800 28.27700
C  26.28700 50.17900 29.19300
C  26.59300 49.79000 30.62100
C  28.15100 49.54000 30.46500
C  28.35000 49.34000 28.92400
C  29.20700 50.48000 31.17900
C  25.72000 48.53900 31.04900
C  25.45900 48.25700 32.61300
H  25.91700 49.27300 33.68900
N  29.11800 48.90600 26.02700
C  29.89800 48.65900 27.09000
C  31.16900 48.22600 26.68400
C  31.29300 48.47900 25.26000
C  29.94600 48.86800 24.87400
C  32.20000 47.69300 27.61000
C  32.53800 48.37400 24.42900
O  32.54800 48.58200 23.22200
C  33.79900 47.87800 24.97700
N  27.14100 49.79300 23.92900
C  28.14900 49.55000 23.08100
C  27.73900 49.75200 21.64800
C  26.29800 50.27000 21.72200
C  26.09700 50.37700 23.24800
C  28.72300 50.65100 20.77400
C  25.26900 49.34500 21.04300
C  24.21300 50.08800 20.26000
N  25.29200 50.64200 26.13200
C  24.53600 51.12100 25.11700
C  23.33700 51.60100 25.72000
C  23.44600 51.43100 27.13200
C  24.69900 50.90700 27.33700
C  22.18900 52.26900 24.99000
C  22.81600 51.74600 28.39700
O  21.69000 52.20500 28.64600
C  23.81200 51.15900 29.45900
C  24.16800 52.17400 30.51300
O  25.08700 52.96400 30.47700
O  23.18200 52.17200 31.51500
C  23.40400 53.06700 32.67600
H  30.11400 48.28900 29.16700
H  30.19500 49.00200 22.70600
H  24.18800 51.22700 23.03800
H  26.33100 50.63000 31.26400
H  28.37800 48.59300 30.95500
H  28.58300 51.20700 31.70000
H  29.72600 51.08200 30.43300
H  29.90600 50.01300 31.87200
H  26.30500 47.75000 30.57700
H  24.72600 48.69100 30.62900
H  25.86600 47.29500 32.92400
H  24.38000 48.10400 32.56500
H  32.76100 46.87300 27.16100
H  31.66400 47.28300 28.46600
H  32.86700 48.53100 27.81500
H  34.61400 47.92800 24.25500
H  33.86800 46.87500 25.39900
H  34.09000 48.55300 25.78200
H  27.70700 48.72500 21.28400
H  26.24800 51.24100 21.23000
H  29.11600 51.38200 21.48000
H  28.17300 51.16900 19.98900
H  29.60700 50.15800 20.37000
H  24.87800 48.61100 21.74800
H  25.73600 48.69400 20.30400
H  23.32900 49.45400 20.33200
H  24.51700 50.39100 19.25800
H  23.91300 50.94400 20.86500
H  22.46800 53.23500 24.57000
H  21.30500 52.35200 25.62300
H  22.04700 51.67000 24.09100
H  23.20200 50.30400 29.75100
H  24.31200 52.60900 33.06800
H  22.55800 52.94700 33.35300
H  23.52600 54.13800 32.51900
Mg -12.76400 38.97000 42.37400
C  -10.83500 35.99300 41.57600
C  -10.68900 40.70800 40.18500
C  -14.69800 41.59000 42.77400
C  -15.16000 36.80500 43.72400
N  -10.92000 38.39700 41.07400
C  -10.25600 37.18800 41.03600
C  -8.96000 37.36800 40.26300
C  -8.95900 38.92400 39.90700
C  -10.31000 39.34800 40.35800
C  -7.75200 39.75800 40.46100
C  -8.83100 36.41100 38.99500
C  -7.57400 35.52700 39.00000
H  -6.65500 35.56300 37.65800
N  -12.66100 40.94400 41.65000
C  -11.74300 41.46600 40.76300
C  -12.13500 42.85000 40.34200
C  -13.34400 43.14100 41.14400
C  -13.63300 41.89700 41.89500
C  -11.73200 43.71200 39.16700
C  -14.12900 44.42100 41.05200
O  -13.75600 45.45700 40.50300
C  -15.42100 44.62300 41.76200
N  -14.64300 39.21800 43.16200
C  -15.21500 40.43800 43.30800
C  -16.63100 40.30600 43.92200
C  -16.78400 38.77800 44.18300
C  -15.48600 38.20000 43.57800
C  -16.86400 41.19200 45.19100
C  -18.10600 38.15600 43.81200
C  -18.78900 37.07100 44.68800
N  -12.87800 36.78500 42.75800
C  -13.95800 36.09700 43.35500
C  -13.70300 34.74500 43.36500
C  -12.46800 34.63800 42.78200
C  -11.97200 35.95700 42.38500
C  -14.65100 33.67500 43.81000
C  -11.47400 33.64700 42.30900
O  -11.40200 32.46400 42.43500
C  -10.40000 34.46100 41.44800
C  -9.05400 34.28600 42.06300
O  -8.26500 33.43600 41.70200
O  -8.73400 35.25000 42.94100
C  -7.42300 35.13700 43.60000
H  -10.03500 41.40400 39.65600
H  -15.49900 42.30200 42.98600
H  -15.86300 36.02200 44.01500
H  -8.15000 37.17800 40.96700
H  -8.85100 39.05300 38.83000
H  -7.00200 39.68000 39.67400
H  -7.31400 39.23600 41.31200
H  -8.01300 40.79600 40.66800
H  -8.80600 36.96300 38.05600
H  -9.69600 35.75300 38.91900
H  -7.93600 34.50300 39.09200
H  -6.99400 35.66700 39.91200
H  -12.58300 43.65400 38.48700
H  -10.78300 43.39600 38.73400
H  -11.50600 44.75500 39.39100
H  -16.08000 43.85200 41.36300
H  -15.79500 45.57300 41.38000
H  -15.37400 44.59700 42.85100
H  -17.41600 40.64300 43.24500
H  -16.66600 38.44300 45.21300
H  -17.43500 42.05900 44.85900
H  -15.91100 41.50400 45.61800
H  -17.29500 40.67200 46.04700
H  -17.98800 37.73900 42.81200
H  -18.92500 38.87100 43.74400
H  -18.84800 36.10200 44.19300
H  -19.80300 37.32600 44.99800
H  -18.23500 36.86900 45.60500
H  -14.67500 33.68300 44.89900
H  -14.32500 32.73700 43.36100
H  -15.58700 33.81200 43.26900
H  -10.25900 34.19600 40.40000
H  -6.89700 36.09200 43.58700
H  -6.78000 34.33400 43.23900
H  -7.46800 34.82600 44.64300

