158

Mg 26.18600 -0.57900 28.97000
C  28.01800 -0.90900 31.85700
C  23.28900 -0.16800 30.83500
C  24.30700 -0.78900 26.08000
C  29.01000 -1.35100 27.12800
N  25.76800 -0.42200 31.12500
C  26.67600 -0.53700 32.14800
C  26.00100 -0.28100 33.53000
C  24.54500 -0.18800 33.14800
C  24.48400 -0.16900 31.59300
C  23.70100 -1.30000 33.83000
C  26.53700 1.03500 34.35300
C  27.13800 0.74500 35.74300
H  27.01000 1.82000 36.82800
N  24.11400 -0.38300 28.52900
C  23.10800 -0.16300 29.43200
C  21.85200 0.03000 28.74800
C  22.13300 -0.08800 27.37400
C  23.58900 -0.46900 27.29400
C  20.55900 0.27900 29.53600
C  21.19700 0.03300 26.18100
O  21.54900 0.05100 25.01700
C  19.84000 0.29600 26.51000
N  26.55000 -1.14100 26.94100
C  25.64300 -1.11200 25.93100
C  26.22200 -1.35400 24.57300
C  27.63900 -1.73300 25.06500
C  27.73000 -1.35500 26.47000
C  25.62000 -2.52000 23.73700
C  28.72400 -1.02700 24.04300
C  29.40800 0.30100 24.45800
N  28.21200 -0.88300 29.31000
C  29.28600 -1.10500 28.50300
C  30.48600 -1.27700 29.26400
C  30.09700 -1.20800 30.62500
C  28.65800 -0.99700 30.57900
C  31.83200 -1.59000 28.68000
C  30.60000 -1.28800 31.99500
O  31.75000 -1.42600 32.40500
C  29.24100 -1.10200 32.79700
C  29.04200 -2.29300 33.63700
O  28.68400 -3.42400 33.22300
O  29.37800 -1.94800 34.88400
C  29.06200 -2.95500 35.85100
H  22.31700 -0.26600 31.32300
H  23.78400 -0.87500 25.12600
H  29.91000 -1.69600 26.61600
H  26.15100 -1.19500 34.10500
H  24.05300 0.72700 33.47700
H  22.66400 -0.96900 33.89600
H  23.97900 -1.58600 34.84500
H  23.66500 -2.14100 33.13700
H  25.75000 1.76200 34.55600
H  27.24600 1.57400 33.72400
H  28.17800 0.49200 35.53800
H  26.59300 -0.11600 36.12900
H  19.99200 1.13000 29.15800
H  20.72100 0.41000 30.60600
H  19.91600 -0.59300 29.41400
H  19.49000 -0.44000 27.23300
H  19.22200 0.12300 25.62900
H  19.80100 1.31900 26.88600
H  26.28900 -0.40100 24.04900
H  27.83700 -2.78900 24.88100
H  25.58400 -2.13200 22.72000
H  24.61600 -2.75800 24.08800
H  26.32700 -3.34000 23.60600
H  28.23200 -0.92600 23.07600
H  29.55200 -1.73300 23.98600
H  30.48200 0.35500 24.63200
H  28.94200 0.75900 25.33000
H  29.15300 0.95100 23.62000
H  32.30000 -0.79400 28.10200
H  31.73200 -2.48900 28.07200
H  32.41700 -1.85300 29.56200
H  29.41700 -0.26800 33.47600
H  28.28800 -2.45600 36.43400
H  29.98200 -3.07200 36.42300
H  28.70200 -3.94800 35.58200
Mg 35.39500 0.94400 29.43700
C  33.07400 1.64300 31.99100
C  37.76100 0.53900 31.68800
C  37.67200 0.44300 26.68000
C  32.91800 1.64600 26.97500
N  35.42200 1.37600 31.68000
C  34.35700 1.33100 32.48600
C  34.80300 1.23800 33.99400
C  36.32600 1.15700 33.82000
C  36.50700 0.96000 32.36000
C  37.14700 2.32400 34.43200
C  34.13200 0.10200 34.72900
C  33.74100 0.55000 36.18000
H  34.61200 1.56900 36.99700
N  37.37200 0.50900 29.22100
C  38.17300 0.48500 30.34100
C  39.53000 0.14400 29.94600
C  39.57300 0.17700 28.51500
C  38.13600 0.39000 28.02500
C  40.75700 0.07900 30.95200
C  40.71300 -0.09600 27.61500
O  40.59400 -0.09300 26.40200
C  42.12100 -0.43400 28.05500
N  35.21000 0.94100 27.13800
C  36.29100 0.66400 26.25700
C  35.97900 0.71500 24.77000
C  34.37800 0.88400 24.89200
C  34.12600 1.18400 26.43700
C  36.65300 1.90500 24.04600
C  33.61200 -0.40400 24.47200
C  33.81400 -1.68500 25.28800
N  33.43300 1.52200 29.38600
C  32.56400 1.72200 28.35500
C  31.32400 2.15800 28.89400
C  31.40600 2.10200 30.30300
C  32.78600 1.71700 30.56200
C  30.15100 2.68300 28.10500
C  30.75900 2.36600 31.59800
O  29.62000 2.81200 31.85000
C  31.91800 2.13400 32.77100
C  32.21100 3.50700 33.34800
O  32.87600 4.36300 32.77200
O  31.69100 3.62300 34.65500
C  31.90000 4.84700 35.37000
H  38.54800 0.25100 32.38800
H  38.40500 0.29600 25.88400
H  32.18600 1.81900 26.18300
H  34.55800 2.18900 34.46700
H  36.73100 0.21400 34.18900
H  37.46500 2.22000 35.47000
H  36.56600 3.23700 34.56400
H  38.08400 2.43300 33.88700
H  34.71200 -0.81300 34.84700
H  33.21100 -0.21000 34.23700
H  33.68800 -0.37300 36.75900
H  32.70300 0.88100 36.17800
H  41.31700 -0.84600 30.82100
H  40.57700 0.07200 32.02700
H  41.33800 0.98800 30.80100
H  42.49900 0.19800 28.85800
H  42.69900 -0.36300 27.13300
H  42.24000 -1.48400 28.32200
H  36.31900 -0.23600 24.35900
H  33.94900 1.77300 24.42900
H  37.13200 1.41800 23.19700
H  37.51200 2.34700 24.55100
H  35.90100 2.66300 23.82600
H  33.85400 -0.58700 23.42500
H  32.54500 -0.18600 24.52900
H  34.24900 -1.48600 26.26800
H  34.46400 -2.35200 24.72200
H  32.92400 -2.31300 25.31600
H  29.79000 1.86300 27.48500
H  30.44000 3.47400 27.41400
H  29.52400 3.27300 28.77300
H  31.50500 1.47100 33.53200
H  30.92400 5.30200 35.53900
H  32.55600 5.54000 34.84400
H  32.39200 4.66200 36.32500

