158

Mg 44.77500 5.59100 47.56600
C  42.51600 8.34700 47.08100
C  42.02600 3.48700 47.33100
C  46.80100 3.10800 47.51900
C  47.38300 7.91600 46.99100
N  42.51800 5.93700 47.11800
C  41.84000 7.11300 46.82900
C  40.39000 6.86500 46.38100
C  40.20100 5.38300 46.83600
C  41.63700 4.88300 47.04500
C  39.42200 5.13500 48.14900
C  40.17500 7.02500 44.86100
C  39.50400 8.29900 44.39300
H  40.22400 9.12000 43.27300
N  44.43200 3.52300 47.43800
C  43.24300 2.84200 47.51700
C  43.47700 1.44100 47.64800
C  44.91600 1.30200 47.56700
C  45.48000 2.63700 47.45500
C  42.38600 0.30600 47.65500
C  45.68600 0.04100 47.64600
O  45.14800 -1.04400 47.94600
C  47.20800 -0.08100 47.37500
N  46.91300 5.52100 47.08900
C  47.43800 4.32500 47.43000
C  48.95400 4.53000 47.48700
C  49.15700 6.03100 47.23200
C  47.74900 6.55700 47.06000
C  49.52700 4.01700 48.90400
C  50.00000 6.45800 46.01300
C  51.08100 5.53200 45.51800
N  44.96500 7.71100 47.16500
C  46.11400 8.48400 47.08300
C  45.72100 9.89900 47.16500
C  44.25400 9.88200 47.22300
C  43.90500 8.51500 47.11000
C  46.61100 11.12800 47.26900
C  43.05700 10.65100 47.33300
O  42.98300 11.86400 47.60800
C  41.89100 9.71100 47.00100
C  40.80400 9.78200 48.08700
O  40.78900 9.09300 49.11400
O  39.87600 10.81000 47.71400
C  38.75000 10.95800 48.63000
H  41.27700 2.69300 47.35600
H  47.69000 2.49100 47.66800
H  48.22200 8.61300 47.05600
H  39.67100 7.46800 46.93600
H  39.63100 4.81500 46.10000
H  38.66600 4.36300 48.00800
H  38.75800 5.99200 48.25800
H  40.07100 5.10400 49.02400
H  39.54800 6.20300 44.51500
H  41.15100 6.98600 44.37800
H  39.32200 9.06200 45.15000
H  38.51100 8.05100 44.02100
H  42.47600 -0.01800 48.69200
H  42.58800 -0.46200 46.90800
H  41.34900 0.62000 47.54300
H  47.42500 -1.15000 47.38100
H  47.73900 0.50500 48.12500
H  47.41400 0.33600 46.38900
H  49.40400 3.90100 46.72000
H  49.66100 6.46600 48.09500
H  48.82100 3.34900 49.39600
H  49.83300 4.78200 49.61800
H  50.36200 3.33900 48.72700
H  50.48800 7.40800 46.23100
H  49.41600 6.57000 45.09900
H  51.46500 4.96100 46.36300
H  51.94200 6.05800 45.10600
H  50.77400 4.82200 44.75000
H  47.42200 10.91700 46.57300
H  46.86600 11.33100 48.30900
H  46.09800 12.03700 46.95300
H  41.59500 9.95000 45.98000
H  38.09700 11.79100 48.37000
H  39.19700 11.13200 49.60800
H  38.12600 10.06700 48.70100
Mg 34.94000 3.53500 29.97300
C  32.57300 4.57600 32.21100
C  37.34400 3.84700 32.46600
C  37.25600 2.55100 27.74900
C  32.57300 3.60300 27.49200
N  34.94200 4.11500 32.06800
C  33.81700 4.36500 32.79200
C  34.26400 4.48300 34.28700
C  35.74800 4.75400 34.18600
C  36.06200 4.27000 32.79600
C  36.06200 6.20200 34.40600
C  33.72300 3.27900 35.18000
C  34.19200 3.39000 36.60400
H  34.35200 4.71300 37.35100
N  36.98300 3.28500 30.10000
C  37.76900 3.46100 31.16800
C  39.07600 3.12400 30.77900
C  39.14300 2.71200 29.40600
C  37.74000 2.84500 28.96500
C  40.23200 3.31000 31.69300
C  40.34200 2.11900 28.54200
O  40.18700 1.84500 27.36000
C  41.64900 1.96500 29.08400
N  34.96300 3.37300 27.87300
C  36.00400 2.83100 27.17500
C  35.68000 2.49300 25.66600
C  34.16500 2.72500 25.68200
C  33.85600 3.25900 27.06600
C  36.58300 3.26000 24.69600
C  33.51100 1.36700 25.34500
C  33.01900 0.53400 26.53200
N  33.01400 3.99700 29.83300
C  32.15600 3.99900 28.74600
C  30.84200 4.42000 29.13900
C  30.92900 4.64100 30.51600
C  32.28500 4.40300 30.85500
C  29.62200 4.61200 28.32100
C  30.19600 4.89300 31.71200
O  29.03800 5.14300 31.96700
C  31.27200 4.89900 32.92700
C  31.35600 6.17800 33.61400
O  32.20500 7.05100 33.42200
O  30.60000 6.19400 34.78700
C  31.03900 7.06800 35.89400
H  38.09800 3.93300 33.25100
H  37.83800 2.17900 26.90300
H  31.77900 3.55100 26.74400
H  33.63800 5.29200 34.66500
H  36.38400 4.15600 34.83900
H  36.16300 6.41100 35.47100
H  35.22000 6.77000 34.01200
H  36.96900 6.33400 33.81600
H  33.90100 2.28500 34.76900
H  32.65700 3.43300 35.34500
H  35.03200 2.72800 36.81100
H  33.38900 2.96600 37.20700
H  40.49200 2.31000 32.04100
H  40.17700 3.98400 32.54700
H  41.00100 3.73300 31.04600
H  41.74900 1.35100 29.97900
H  41.96800 3.00000 29.21100
H  42.27600 1.63700 28.25500
H  35.93400 1.43900 25.55700
H  33.85800 3.47500 24.95300
H  36.12200 4.02100 24.06700
H  37.01000 2.53600 24.00200
H  37.34600 3.78500 25.27100
H  34.01500 0.76300 24.59100
H  32.56200 1.69000 24.91700
H  31.98500 0.28900 26.29000
H  33.13300 0.97500 27.52200
H  33.63700 -0.36000 26.45600
H  29.69500 4.49000 27.24000
H  29.08100 5.49300 28.66700
H  29.00200 3.77000 28.62900
H  31.01900 4.17300 33.70000
H  30.32400 7.88200 36.01300
H  31.97200 7.61600 35.76400
H  31.05100 6.59400 36.87500

