158

Mg -10.14500 40.06000 43.56000
C  -8.94600 36.98100 42.41500
C  -7.35600 41.50700 42.11500
C  -11.50600 43.18900 43.97400
C  -13.24800 38.52900 44.31000
N  -8.35300 39.29400 42.47400
C  -7.99000 37.95600 42.20100
C  -6.67200 37.84900 41.46900
C  -6.05600 39.26400 41.73500
C  -7.28400 40.11600 42.13000
C  -4.84300 39.26300 42.79500
C  -6.84600 37.47700 39.98000
C  -5.82400 36.42600 39.35000
H  -4.76700 36.94300 38.26700
N  -9.43300 42.05100 43.16100
C  -8.28300 42.42200 42.56500
C  -8.14300 43.83300 42.39700
C  -9.33900 44.37800 43.02900
C  -10.21300 43.23300 43.42000
C  -6.96700 44.50600 41.74900
C  -9.61700 45.87100 43.12600
O  -8.83800 46.71000 42.65200
C  -10.90600 46.43300 43.73600
N  -12.00300 40.73200 44.26600
C  -12.33700 42.06200 44.29900
C  -13.88500 42.17200 44.56700
C  -14.24500 40.76000 45.09100
C  -13.12500 39.94000 44.49900
C  -14.20000 43.31700 45.53300
C  -15.66500 40.36400 44.59300
C  -15.82200 39.95600 43.09700
N  -10.94600 38.13200 43.55100
C  -12.22600 37.66300 43.79700
C  -12.32700 36.23800 43.50300
C  -11.05700 35.99200 43.01000
C  -10.25100 37.14400 42.97700
C  -13.57100 35.42600 43.53400
C  -10.26800 34.94400 42.49700
O  -10.60700 33.68900 42.37600
C  -8.85400 35.53700 41.99700
C  -7.71300 34.75600 42.53900
O  -7.33800 34.57400 43.71800
O  -7.05200 34.16200 41.56200
C  -6.29300 33.00600 41.94500
H  -6.38900 41.97300 41.91500
H  -12.04600 44.13800 43.95000
H  -14.14800 37.97700 44.59000
H  -5.96400 37.09600 41.81400
H  -5.63100 39.57600 40.78200
H  -5.10800 38.53400 43.56000
H  -4.83300 40.25700 43.24300
H  -3.91900 39.06900 42.24800
H  -6.73400 38.42800 39.45900
H  -7.85900 37.10900 39.81900
H  -6.51300 35.70600 38.90900
H  -5.17300 35.87400 40.02800
H  -7.10100 45.52900 41.39800
H  -6.54500 44.07100 40.84300
H  -6.11800 44.62300 42.42300
H  -11.81600 46.19600 43.18500
H  -10.90900 47.51300 43.87700
H  -10.97700 46.12000 44.77800
H  -14.26100 42.37100 43.56400
H  -14.08800 40.60400 46.15800
H  -13.33300 43.91500 45.81400
H  -14.73600 42.89700 46.38500
H  -14.88200 44.03000 45.07100
H  -16.37400 41.13600 44.89300
H  -16.07200 39.47900 45.08100
H  -16.01400 40.89300 42.57500
H  -16.49200 39.09600 43.06800
H  -14.88000 39.52500 42.75800
H  -13.39700 34.35400 43.43700
H  -14.15100 35.70000 42.65300
H  -14.12500 35.48200 44.47100
H  -8.76900 35.52400 40.91100
H  -6.93400 32.44100 42.62200
H  -5.36500 33.23100 42.46900
H  -6.08100 32.48500 41.01200
Mg -10.75500 17.70200 42.25900
C  -7.30600 18.17200 42.89400
C  -11.07600 21.21300 42.31500
C  -13.78100 17.31000 40.99500
C  -10.07200 14.30300 41.93000
N  -9.37800 19.43500 42.53800
C  -8.08200 19.38800 42.72700
C  -7.43500 20.82900 42.63100
C  -8.69300 21.74200 42.91400
C  -9.81100 20.79100 42.62800
C  -8.64900 22.35000 44.38200
C  -6.95800 21.00700 41.10000
C  -5.37200 21.00400 40.88100
H  -4.80900 20.18100 39.65700
N  -12.20800 19.07200 41.71000
C  -12.18600 20.47100 41.82400
C  -13.40100 21.01900 41.36400
C  -14.15400 19.92600 40.86400
C  -13.37900 18.66600 41.14000
C  -13.85700 22.51800 41.24000
C  -15.48100 19.99700 40.15900
O  -16.01500 21.06800 39.97700
C  -16.13300 18.79400 39.52600
N  -11.75300 16.07000 41.61300
C  -13.03500 16.17200 41.27200
C  -13.59800 14.82200 40.99200
C  -12.46300 13.80600 41.34800
C  -11.35500 14.75300 41.62100
C  -14.96600 14.51200 41.68500
C  -12.18000 12.74600 40.28300
C  -12.74100 11.27500 40.51700
N  -9.03100 16.41200 42.55600
C  -8.96100 15.04900 42.35200
C  -7.59500 14.61900 42.57000
C  -6.88200 15.82300 42.83200
C  -7.80400 16.87700 42.78900
C  -7.13100 13.20700 42.45900
C  -5.57700 16.38800 43.06300
O  -4.47000 15.83000 43.13200
C  -5.76700 17.99400 43.20000
C  -5.23800 18.53500 44.50000
O  -5.54700 18.13900 45.55700
O  -4.32500 19.51900 44.30800
C  -3.72300 20.19300 45.46300
H  -11.20600 22.28700 42.46000
H  -14.80300 17.08300 40.68300
H  -9.96000 13.21800 41.88100
H  -6.59500 21.09100 43.27500
H  -8.69600 22.59600 42.23700
H  -9.57200 22.09800 44.90600
H  -8.75200 23.42600 44.23800
H  -7.72700 22.09900 44.90600
H  -7.23100 22.00100 40.74700
H  -7.29600 20.17800 40.47800
H  -4.93700 20.50400 41.74700
H  -4.95300 22.00100 40.74500
H  -13.05300 23.16700 41.58800
H  -14.71200 22.84700 41.83200
H  -14.04300 22.82000 40.21000
H  -16.91900 19.16300 38.86800
H  -16.50400 18.20900 40.36700
H  -15.45000 18.30200 38.83300
H  -13.77800 14.76400 39.91800
H  -12.63600 13.37100 42.33200
H  -15.70500 14.24500 40.92900
H  -15.23000 15.39200 42.27000
H  -14.96100 13.73100 42.44600
H  -11.11700 12.52300 40.18500
H  -12.39500 13.15100 39.29400
H  -13.54100 11.29000 41.25800
H  -11.88800 10.66800 40.82200
H  -13.21900 10.93300 39.59900
H  -7.72500 12.69900 41.69900
H  -7.06700 12.68200 43.41200
H  -6.11700 13.27100 42.06700
H  -5.10000 18.36000 42.42000
H  -4.47100 20.40800 46.22600
H  -3.31700 21.13600 45.09800
H  -2.86600 19.71700 45.94000

