158

Mg 55.32800 24.66000 45.66200
C  52.52300 26.31600 44.54700
C  53.93600 21.71400 44.78300
C  58.37700 23.23800 46.08600
C  56.63200 27.76800 46.59900
N  53.46600 24.12500 44.73400
C  52.54300 24.94500 44.26900
C  51.32200 24.20400 43.81800
C  51.64500 22.71200 44.30700
C  53.11000 22.79300 44.62500
C  50.70300 22.33900 45.58300
C  51.28500 24.23600 42.21900
C  49.84800 24.01900 41.63000
H  49.59700 22.91600 40.58900
N  56.00800 22.70700 45.62700
C  55.28500 21.64700 45.24500
C  56.11100 20.45800 45.22400
C  57.39900 20.89400 45.62500
C  57.34700 22.36700 45.87200
C  55.55200 19.05100 44.78400
C  58.55900 19.92900 45.89200
O  58.54800 18.73400 45.47400
C  59.89700 20.32200 46.46500
N  57.26300 25.44700 46.04200
C  58.35800 24.64200 46.35500
C  59.59900 25.48800 46.65400
C  58.94400 26.89100 46.97600
C  57.49300 26.72200 46.53800
C  60.61000 24.96500 47.82300
C  59.80200 28.10600 46.54500
C  59.56600 28.72800 45.22600
N  54.68500 26.70900 45.67300
C  55.27100 27.80800 46.17400
C  54.32700 28.93600 46.14600
C  53.19000 28.40900 45.47600
C  53.51000 27.12100 45.17200
C  54.49500 30.30000 46.71600
C  51.80500 28.63100 45.01600
O  51.04400 29.59800 45.04800
C  51.31600 27.31800 44.28700
C  50.99700 27.58400 42.83900
O  51.80500 27.85800 41.90800
O  49.72500 27.33300 42.63400
C  49.20100 27.55000 41.24900
H  53.43600 20.82800 44.38700
H  59.35000 22.74600 46.03000
H  57.12300 28.69600 46.89900
H  50.45600 24.64300 44.31300
H  51.51500 22.01000 43.48300
H  50.16700 21.44400 45.26500
H  50.09800 23.17600 45.93000
H  51.29400 22.11700 46.47100
H  51.81400 23.43200 41.70700
H  51.70000 25.16100 41.81900
H  49.41300 24.89600 41.15000
H  49.25300 23.73500 42.49800
H  56.16600 18.19800 45.07100
H  55.53200 18.98500 43.69600
H  54.54200 18.85900 45.14600
H  60.42400 20.90100 45.70700
H  60.48600 19.46200 46.78400
H  59.63500 20.93700 47.32600
H  60.14200 25.44000 45.71000
H  58.79500 26.92100 48.05500
H  60.46900 24.01400 48.33500
H  60.64300 25.72900 48.60000
H  61.62100 25.01600 47.41800
H  60.80200 27.67200 46.52900
H  59.65500 28.75200 47.41100
H  58.75800 28.38400 44.58000
H  60.46100 28.54700 44.63100
H  59.35500 29.79500 45.29700
H  54.21900 31.06200 45.98800
H  55.56300 30.45200 46.87600
H  54.01100 30.35800 47.69100
H  50.39600 27.02300 44.79100
H  49.25100 28.59300 40.93800
H  48.12500 27.38000 41.21100
H  49.68200 26.95000 40.47600
Mg 0.13800 43.68700 25.52500
C  2.21900 43.44500 28.32500
C  -2.49200 43.13700 27.72300
C  -1.76000 43.17900 22.80300
C  3.09900 43.91200 23.50700
N  -0.15300 43.51300 27.74100
C  0.87700 43.36200 28.63900
C  0.30700 43.48000 30.09700
C  -1.26600 43.31400 29.90000
C  -1.28800 43.19800 28.34300
C  -1.86500 42.03000 30.63600
C  0.73900 44.81100 30.75700
C  0.88400 44.70500 32.27000
H  0.44000 43.45800 33.11500
N  -1.87300 43.29500 25.32200
C  -2.81500 43.17900 26.31700
C  -4.18600 43.10200 25.69900
C  -3.92400 42.83900 24.33300
C  -2.50400 43.18000 24.05800
C  -5.45900 43.07900 26.61000
C  -4.97200 42.56600 23.22600
O  -4.63600 42.20700 22.06000
C  -6.43800 42.63400 23.59100
N  0.60100 43.31500 23.38400
C  -0.37600 43.24100 22.46000
C  0.24300 43.39300 21.06900
C  1.57500 44.19100 21.39500
C  1.81200 43.77700 22.88500
C  0.44700 41.98600 20.33300
C  1.72000 45.73000 21.20400
C  2.54500 46.20500 19.90700
N  2.24700 43.73100 25.86500
C  3.32300 43.84200 24.93300
C  4.55200 43.90500 25.61600
C  4.20100 43.73000 26.96600
C  2.82200 43.62400 27.02000
C  5.86800 44.12600 24.99700
C  4.75600 43.55900 28.28300
O  5.88800 43.47000 28.71000
C  3.49600 43.58000 29.20700
C  3.66100 42.52800 30.22600
O  3.51800 41.30800 30.16400
O  4.13000 43.12200 31.36200
C  4.49900 42.27800 32.43800
H  -3.40100 42.98400 28.31000
H  -2.44200 43.24200 21.95300
H  3.96500 44.12200 22.87600
H  0.66400 42.62900 30.67600
H  -1.85000 44.19900 30.15000
H  -2.56000 41.57200 29.93300
H  -2.45700 42.55000 31.38900
H  -1.10100 41.33200 30.98000
H  0.01700 45.61500 30.61300
H  1.68300 45.11300 30.30400
H  0.37100 45.55800 32.71300
H  1.91900 44.89600 32.55400
H  -6.27100 43.49100 26.01000
H  -5.40400 43.63400 27.54700
H  -5.66800 42.02700 26.80400
H  -7.05800 42.37000 22.73400
H  -6.59100 43.68900 23.81400
H  -6.52300 41.87800 24.37200
H  -0.28200 44.14400 20.47900
H  2.37100 43.72000 20.81700
H  1.46000 41.61200 20.18400
H  -0.01100 42.08200 19.34900
H  -0.18100 41.19600 20.74600
H  2.13100 46.20700 22.09300
H  0.77100 46.26400 21.15200
H  3.33000 46.87900 20.24800
H  1.92100 46.69300 19.15700
H  3.07900 45.44200 19.34200
H  5.79400 43.97900 23.91900
H  6.50400 43.38200 25.47700
H  6.13300 45.16500 25.19200
H  3.62000 44.54200 29.70400
H  4.37900 42.92200 33.30900
H  5.55600 42.01500 32.39600
H  3.83300 41.44200 32.65100

