158

Mg 16.63600 52.07400 26.71000
C  18.61500 50.55400 28.99800
C  14.46300 53.10600 29.23700
C  14.63300 53.61400 24.39200
C  18.70900 51.04600 24.13900
N  16.57300 51.79100 28.89200
C  17.55600 51.15400 29.57800
C  17.24100 51.27900 31.04500
C  15.74300 51.85000 31.09400
C  15.57700 52.28400 29.63400
C  14.64000 50.83100 31.44100
C  18.40200 51.99900 31.73400
C  18.11000 52.53400 33.13600
H  17.35100 51.61200 34.10500
N  14.77700 53.17600 26.83800
C  14.08900 53.44700 27.93100
C  12.94900 54.34700 27.54900
C  12.94700 54.43600 26.16500
C  14.16400 53.73000 25.72500
C  12.09900 54.93300 28.70800
C  11.89700 55.22200 25.28800
O  11.97100 55.35600 24.04900
C  10.82600 56.05700 25.90100
N  16.62000 52.25600 24.59200
C  15.80700 53.09900 23.86200
C  16.07600 53.10700 22.34200
C  17.48100 52.42400 22.28200
C  17.61900 51.81000 23.70900
C  15.11300 52.46900 21.36100
C  18.65300 53.45300 22.10900
C  19.59800 53.21400 20.95800
N  18.35400 50.93700 26.53900
C  19.07100 50.62300 25.41500
C  20.24900 49.87200 25.86300
C  20.07100 49.75200 27.26200
C  18.95200 50.52300 27.65200
C  21.36900 49.30100 24.90900
C  20.58500 49.14800 28.51100
O  21.52500 48.40000 28.74200
C  19.69500 49.74600 29.68300
C  19.17600 48.70200 30.68200
O  18.29200 47.93800 30.49100
O  20.09500 48.74700 31.70600
C  19.71500 47.84600 32.76600
H  13.95900 53.36200 30.17100
H  14.00600 54.12300 23.65700
H  19.52900 50.80600 23.45800
H  17.22900 50.24900 31.40200
H  15.59000 52.83700 31.53000
H  15.02900 50.02300 32.06000
H  14.22500 50.38800 30.53600
H  13.81200 51.33600 31.93900
H  18.80000 52.83900 31.16300
H  19.19800 51.27000 31.88700
H  17.60500 53.49100 33.00100
H  19.04600 52.66800 33.67700
H  11.16400 54.38100 28.80100
H  11.85600 55.97100 28.47900
H  12.64900 54.90800 29.64900
H  10.09600 56.48400 25.21300
H  11.39500 56.83800 26.40500
H  10.38300 55.37300 26.62500
H  16.09000 54.15500 22.04300
H  17.37400 51.59800 21.57900
H  14.43000 51.81500 21.90200
H  15.61800 51.85800 20.61300
H  14.70200 53.34100 20.85200
H  19.25000 53.34800 23.01500
H  18.41600 54.51000 21.98700
H  19.46800 53.98300 20.19700
H  19.34400 52.31900 20.39000
H  20.61900 53.18200 21.33900
H  22.18900 49.87900 25.33300
H  21.34200 49.65400 23.87800
H  21.55300 48.22700 24.94800
H  20.35900 50.46100 30.16800
H  18.65300 47.95800 32.98600
H  20.25000 48.20200 33.64700
H  19.77800 46.79100 32.49800
Mg -11.43700 38.84000 42.38800
C  -9.43700 35.98700 41.34600
C  -9.09700 40.81700 41.00500
C  -13.44100 41.47000 42.94300
C  -13.91300 36.62500 43.30200
N  -9.49600 38.32200 41.30500
C  -8.85000 37.17800 40.96500
C  -7.62800 37.45200 40.11200
C  -7.36000 39.00400 40.18800
C  -8.73300 39.42700 40.84100
C  -6.14500 39.40800 41.01100
C  -7.86600 36.91600 38.66400
C  -6.71600 36.03300 38.19300
H  -5.69400 36.67600 37.21200
N  -11.31100 40.85500 41.89500
C  -10.23500 41.49200 41.39300
C  -10.36800 42.91900 41.55200
C  -11.67000 43.18400 42.10400
C  -12.20100 41.81200 42.29600
C  -9.30000 43.87800 41.11500
C  -12.36100 44.50100 42.37500
O  -11.72500 45.55600 42.29900
C  -13.77600 44.66200 42.72600
N  -13.43300 39.02400 42.85800
C  -13.96400 40.18500 43.23600
C  -15.39100 40.14700 43.79000
C  -15.59000 38.56600 43.80500
C  -14.24500 38.01600 43.26200
C  -15.50300 40.98700 45.07400
C  -16.84000 38.01100 43.05600
C  -18.15700 38.71000 43.24100
N  -11.67000 36.69300 42.47500
C  -12.72500 35.97400 42.93600
C  -12.36300 34.52300 42.92400
C  -11.09300 34.50700 42.29500
C  -10.75100 35.88200 41.99200
C  -13.10600 33.41600 43.49800
C  -10.00800 33.63100 41.82600
O  -9.96300 32.37900 41.71400
C  -8.99600 34.57900 41.11400
C  -7.61900 34.26000 41.60100
O  -7.19000 34.78600 42.62500
O  -6.99100 33.40100 40.78500
C  -5.65700 32.92200 41.23700
H  -8.24300 41.37500 40.61700
H  -14.07800 42.30300 43.24600
H  -14.63200 35.91900 43.72100
H  -6.86300 36.78800 40.51300
H  -7.18300 39.33900 39.16600
H  -5.73400 40.33200 40.60500
H  -5.42800 38.58800 41.02400
H  -6.44100 39.55500 42.05000
H  -7.95800 37.73600 37.95300
H  -8.77400 36.31300 38.66600
H  -7.11000 35.05700 37.90900
H  -6.02700 35.67000 38.95500
H  -9.01000 44.49000 41.96900
H  -9.68700 44.52000 40.32300
H  -8.41100 43.36900 40.74400
H  -14.40500 44.00200 42.12800
H  -14.05400 45.70000 42.54300
H  -13.75800 44.57700 43.81200
H  -15.98100 40.50800 42.94700
H  -15.84600 38.25200 44.81700
H  -14.64200 41.63200 45.24800
H  -15.71700 40.34000 45.92600
H  -16.27500 41.75400 45.01800
H  -17.08300 36.99200 43.35800
H  -16.58000 38.00900 41.99700
H  -18.15400 39.05800 44.27400
H  -18.96300 37.99000 43.10400
H  -18.25000 39.52500 42.52400
H  -12.95300 33.45700 44.57600
H  -12.77700 32.46000 43.09200
H  -14.16100 33.62900 43.32100
H  -9.05100 34.39800 40.04000
H  -5.11900 33.87000 41.24800
H  -5.16100 32.32700 40.47100
H  -5.65400 32.38700 42.18700

