158

Mg 34.78500 2.85700 30.35600
C  32.46300 3.73300 33.04700
C  37.28100 2.90600 32.88100
C  36.89200 2.34300 28.08300
C  32.09900 3.44300 28.24400
N  34.76500 3.45600 32.67200
C  33.71200 3.54000 33.50600
C  34.18400 3.44200 34.94500
C  35.73900 3.61600 34.83500
C  35.99100 3.29200 33.36700
C  36.27900 5.00000 35.34100
C  33.72900 2.18800 35.76000
C  33.16500 2.53800 37.17900
H  33.83500 3.60300 38.06200
N  36.77500 2.53700 30.49100
C  37.62700 2.70000 31.59100
C  38.97100 2.32100 31.12600
C  38.94700 2.15000 29.72300
C  37.54700 2.32000 29.34100
C  40.17800 2.51100 32.06500
C  40.02700 1.73400 28.76700
O  39.83600 1.66000 27.53800
C  41.31200 1.24500 29.30400
N  34.51300 3.01400 28.40600
C  35.55200 2.61800 27.62200
C  35.02400 2.44800 26.21400
C  33.47600 2.58200 26.30800
C  33.36100 3.14600 27.70800
C  35.66800 3.51200 25.24000
C  32.69800 1.26800 26.14200
C  31.57400 1.34300 25.10600
N  32.69500 3.60200 30.56000
C  31.76600 3.66700 29.61000
C  30.44500 3.69500 30.21100
C  30.64600 3.79200 31.51000
C  32.06500 3.69400 31.71000
C  29.23200 3.75700 29.45900
C  30.07100 3.88000 32.78100
O  28.88800 3.89700 33.09100
C  31.19200 3.95300 33.84400
C  31.14400 5.24400 34.59700
O  31.28300 6.36000 34.08400
O  31.02900 5.09900 35.96700
C  30.98600 6.32300 36.77400
H  38.11900 2.89100 33.58000
H  37.56100 1.93800 27.32100
H  31.32700 3.44700 27.47100
H  33.81400 4.31700 35.47900
H  36.26700 2.86200 35.41900
H  36.62100 4.75600 36.34600
H  35.45000 5.69800 35.46000
H  37.18700 5.28300 34.80800
H  34.59900 1.55000 35.91600
H  33.00300 1.54400 35.26400
H  33.18600 1.70600 37.88200
H  32.10500 2.75000 37.03600
H  40.42000 1.54500 32.50800
H  40.09900 3.35500 32.75000
H  41.14100 2.66000 31.57700
H  41.15900 0.69100 30.23000
H  41.91000 2.13800 29.48800
H  41.64700 0.51300 28.56900
H  35.35600 1.49400 25.80300
H  33.15700 3.30500 25.55800
H  35.65500 4.55900 25.54100
H  35.18300 3.45400 24.26600
H  36.73500 3.28800 25.24100
H  32.38700 0.86400 27.10600
H  33.48700 0.54900 25.92100
H  30.67000 1.77900 25.53200
H  31.34500 0.30400 24.87100
H  31.88900 1.79500 24.16500
H  28.64000 2.86300 29.65400
H  29.41000 3.98300 28.40800
H  28.73400 4.68700 29.73300
H  31.05600 3.13600 34.55300
H  30.31700 7.04400 36.30600
H  31.95900 6.81500 36.81200
H  30.52800 5.94200 37.68700
Mg 49.85100 46.42600 43.09600
C  47.27200 48.67900 42.24700
C  47.95400 43.89400 41.84400
C  52.66200 44.70600 43.00500
C  51.64600 49.33900 43.95900
N  47.86800 46.36900 42.22500
C  46.99800 47.35400 41.85100
C  45.80900 46.77900 41.16100
C  45.83300 45.28200 41.67700
C  47.33600 45.16200 41.86800
C  45.14300 44.93500 42.95700
C  45.80300 46.86700 39.60600
C  44.40100 46.68900 38.93200
H  44.46700 45.55700 37.92400
N  50.24300 44.55200 42.55200
C  49.37500 43.69100 42.01300
C  49.98200 42.46400 41.84100
C  51.32900 42.60000 42.17900
C  51.53300 43.99900 42.60500
C  49.34900 41.11200 41.42100
C  52.44500 41.60400 41.87600
O  52.22100 40.51900 41.39400
C  53.93900 41.93000 42.19300
N  51.90300 46.99400 43.32500
C  52.87400 45.99500 43.32200
C  54.18200 46.48100 43.95300
C  53.91700 48.00100 43.81600
C  52.36700 48.16000 43.66500
C  54.64600 45.94000 45.34700
C  54.68600 48.76300 42.75800
C  56.19400 49.11600 43.01200
N  49.53700 48.51500 43.37000
C  50.28600 49.51700 43.80400
C  49.53100 50.80100 43.84000
C  48.39700 50.55600 43.12600
C  48.42700 49.12600 42.87100
C  50.22700 52.09700 44.27700
C  47.19600 51.14900 42.64300
O  46.74800 52.27700 42.77600
C  46.41000 49.96000 41.99100
C  45.11600 49.79500 42.66100
O  45.00400 49.28500 43.70700
O  44.10200 49.91900 41.73300
C  42.78000 49.54500 42.29100
H  47.31800 43.13300 41.38800
H  53.63300 44.24400 43.19300
H  52.22100 50.21300 44.27200
H  44.90100 47.24900 41.53900
H  45.55900 44.57600 40.89400
H  44.27500 44.31000 42.75000
H  44.77500 45.86900 43.38100
H  45.79000 44.43800 43.67900
H  46.44000 46.01600 39.36800
H  46.12500 47.82700 39.20200
H  44.14600 47.61300 38.41200
H  43.60100 46.33500 39.58200
H  48.26000 41.15900 41.43600
H  49.64600 40.41800 42.20800
H  49.79200 40.84800 40.46100
H  53.94000 42.14700 43.26100
H  54.06500 42.92800 41.77100
H  54.64700 41.20800 41.78700
H  54.99700 46.24600 43.26800
H  54.24200 48.51100 44.72300
H  55.72700 46.02200 45.46100
H  54.40300 44.88400 45.46400
H  54.31600 46.62000 46.13300
H  54.08400 49.61000 42.42900
H  54.73900 48.09300 41.90000
H  56.18700 50.20500 42.98200
H  56.86600 48.60000 42.32700
H  56.46800 48.92000 44.04800
H  51.20100 52.16800 43.79200
H  50.49100 52.11000 45.33400
H  49.62900 52.99300 44.11100
H  46.33100 50.21000 40.93300
H  42.68000 48.46800 42.42900
H  41.98000 49.89600 41.64000
H  42.73200 50.14100 43.20200

