158

Mg 5.76200 53.86400 41.26800
C  5.49800 50.44700 40.60200
C  8.99400 53.76700 40.24500
C  5.74900 57.14600 41.45600
C  2.32800 53.86800 42.05700
N  6.99400 52.32000 40.30500
C  6.72700 50.98900 40.18900
C  7.92300 50.31400 39.55300
C  9.11800 51.25700 39.89900
C  8.35000 52.52600 40.11000
C  10.11100 50.79300 40.98700
C  7.96500 49.94000 38.04200
C  7.18000 50.83800 37.05400
H  6.26400 50.12300 36.03200
N  7.13700 55.27000 40.63800
C  8.42400 55.00700 40.41100
C  9.15800 56.28200 40.21800
C  8.25500 57.27800 40.61500
C  6.96700 56.57900 40.91400
C  10.64700 56.36900 39.91200
C  8.55500 58.73400 40.73500
O  9.70200 59.11100 40.57600
C  7.52900 59.86100 41.21500
N  4.22700 55.25500 41.56000
C  4.55900 56.55200 41.79600
C  3.39200 57.29600 42.44200
C  2.24100 56.34700 42.03000
C  3.00300 55.05100 41.95600
C  3.54200 57.65700 43.93900
C  1.56200 56.62300 40.68300
C  -0.02100 56.84100 40.70000
N  4.22300 52.43600 41.44000
C  2.90400 52.60200 41.91500
C  2.29200 51.32100 41.93700
C  3.25500 50.44700 41.45100
C  4.38100 51.18000 41.11200
C  0.89400 50.92000 42.54600
C  3.52400 49.02200 41.22400
O  2.82600 48.04800 41.43700
C  4.98300 48.95800 40.75100
C  5.14700 47.96700 39.70400
O  4.67000 48.01700 38.61400
O  5.66600 46.80700 40.27000
C  5.60100 45.61200 39.38400
H  10.04700 53.59000 40.01700
H  5.75100 58.20200 41.73300
H  1.25300 53.90400 42.24000
H  7.93800 49.42600 40.18500
H  9.82900 51.46300 39.09900
H  9.70800 49.84100 41.33300
H  10.19300 51.38700 41.89700
H  11.07400 50.78100 40.47600
H  7.55600 48.92900 38.03000
H  8.96800 49.95500 37.61700
H  7.96800 51.22900 36.41000
H  6.76500 51.75700 37.46800
H  10.78100 57.21300 39.23500
H  11.02600 55.45400 39.45700
H  11.18600 56.53700 40.84400
H  6.87000 60.05800 40.36900
H  8.09800 60.75100 41.48400
H  7.01000 59.59700 42.13600
H  3.23100 58.26500 41.96800
H  1.46500 56.28500 42.79300
H  3.62500 58.73600 44.06900
H  4.51200 57.38100 44.35200
H  2.71200 57.19000 44.47000
H  1.58900 55.69400 40.11400
H  1.95200 57.49100 40.15200
H  -0.48900 55.87600 40.50700
H  -0.25300 57.46200 39.83500
H  -0.33300 57.37700 41.59700
H  0.51300 51.90300 42.82300
H  0.93800 50.14000 43.30600
H  0.21900 50.61800 41.74500
H  5.52000 48.54800 41.60600
H  6.10400 45.84200 38.44500
H  4.54400 45.40800 39.21200
H  6.15100 44.78900 39.84000
Mg 1.03200 42.71100 26.27300
C  3.40300 42.63300 28.98500
C  -1.51700 42.22800 28.48100
C  -1.07500 42.59100 23.58600
C  3.75100 42.85700 24.13400
N  1.05700 42.55700 28.47700
C  2.01000 42.55700 29.37500
C  1.39400 42.47500 30.80000
C  -0.10700 42.11900 30.60900
C  -0.21600 42.23900 29.08200
C  -0.76300 40.84600 31.19900
C  1.68900 43.78100 31.53700
C  1.24400 43.79500 33.06400
H  0.90900 42.44400 33.63000
N  -1.01200 42.44100 26.13800
C  -1.90200 42.41300 27.12100
C  -3.25000 42.36600 26.57400
C  -3.17000 42.40500 25.18400
C  -1.69000 42.49900 24.89500
C  -4.44000 42.31900 27.39400
C  -4.30000 42.57000 24.15700
O  -4.07600 42.94600 23.01900
C  -5.67700 42.35500 24.62600
N  1.33800 42.68500 24.22300
C  0.30200 42.56600 23.32600
C  0.71800 42.69600 21.89600
C  2.25000 42.72800 22.05400
C  2.48600 42.76900 23.54900
C  0.36300 41.44400 21.04800
C  2.86500 43.89000 21.30600
C  3.28900 45.14600 22.08200
N  3.25000 42.81700 26.48800
C  4.13000 42.85600 25.50300
C  5.52800 42.88800 26.06900
C  5.26200 42.77600 27.49800
C  3.86500 42.76300 27.62300
C  6.77800 43.04400 25.31700
C  5.86300 42.69100 28.78800
O  7.01700 42.59400 29.06300
C  4.65800 42.65200 29.84900
C  4.88800 41.53600 30.75200
O  4.85200 40.39100 30.31000
O  5.14000 41.98000 32.02300
C  5.41200 40.87800 32.93800
H  -2.35400 42.10900 29.17300
H  -1.73600 42.54600 22.71800
H  4.47200 43.03600 23.33400
H  1.89600 41.58500 31.17800
H  -0.71700 42.88500 31.08800
H  -1.17700 40.34700 30.32300
H  -1.54700 41.05700 31.92700
H  -0.02500 40.23800 31.72200
H  1.09200 44.57600 31.09000
H  2.75600 43.99300 31.46200
H  0.35500 44.41700 33.17100
H  2.10200 44.11400 33.65500
H  -5.12200 41.49900 27.16700
H  -5.07100 43.16900 27.13300
H  -4.38200 42.53200 28.46200
H  -6.23700 42.39000 23.69200
H  -6.07700 43.11800 25.29500
H  -5.82100 41.35900 25.04700
H  0.30300 43.62500 21.50600
H  2.58500 41.71900 21.81200
H  -0.13000 40.72500 21.70300
H  1.17100 40.94000 20.51800
H  -0.44200 41.78500 20.39700
H  2.14800 44.25500 20.57000
H  3.71900 43.44900 20.79300
H  2.77600 45.27600 23.03500
H  3.07900 46.01000 21.45200
H  4.37400 45.24500 22.11900
H  6.68100 43.97200 24.75300
H  6.88500 42.24500 24.58400
H  7.63700 43.02800 25.98800
H  4.61100 43.57000 30.43500
H  4.94800 41.07400 33.90400
H  6.49200 40.77200 33.04300
H  5.09000 39.90000 32.58200

