158

Mg -12.37500 39.73700 42.40300
C  -10.86300 36.82100 41.27200
C  -9.79400 41.56400 40.91000
C  -14.26800 42.58500 42.92200
C  -15.23900 37.93400 43.30800
N  -10.62300 39.23100 40.95300
C  -10.08700 37.96300 40.86800
C  -8.68900 37.99900 40.31300
C  -8.34400 39.58700 40.24100
C  -9.66400 40.15200 40.84200
C  -7.00600 39.95400 40.95000
C  -8.65400 37.22300 38.94100
C  -7.41400 36.32700 39.02200
H  -7.02600 35.66300 37.75900
N  -12.04900 41.77200 41.98500
C  -10.91100 42.34600 41.40500
C  -11.05400 43.82400 41.43800
C  -12.27100 44.09100 42.16800
C  -12.98000 42.76900 42.36500
C  -10.08800 44.81100 40.79600
C  -12.83700 45.52700 42.61800
O  -12.20400 46.56100 42.36900
C  -14.13800 45.68800 43.37800
N  -14.57000 40.18900 42.87600
C  -14.97900 41.40000 43.21100
C  -16.39300 41.38400 43.82200
C  -16.76700 39.90700 43.66100
C  -15.40200 39.31100 43.34600
C  -16.45400 41.82800 45.34300
C  -17.80600 39.54300 42.57200
C  -18.83500 38.48900 43.00200
N  -12.94400 37.72700 42.41000
C  -14.11400 37.20700 42.82400
C  -14.00100 35.73800 42.62700
C  -12.68200 35.54400 42.14000
C  -12.15400 36.81100 41.89100
C  -15.09200 34.79300 43.11500
C  -11.68200 34.56100 41.78600
O  -11.61300 33.38600 41.99100
C  -10.44100 35.37300 41.24000
C  -9.28900 35.06400 42.08900
O  -9.08600 35.45700 43.22800
O  -8.49800 34.11700 41.40500
C  -7.33900 33.59800 42.18500
H  -8.92300 42.18700 40.69700
H  -14.95500 43.36800 43.24800
H  -16.02400 37.35300 43.79500
H  -8.06700 37.51800 41.06800
H  -8.12800 39.88100 39.21500
H  -6.50800 40.68000 40.30700
H  -6.38000 39.07400 41.10000
H  -7.23000 40.41400 41.91300
H  -8.53100 37.90100 38.09600
H  -9.53500 36.59800 38.79500
H  -7.63100 35.57100 39.77600
H  -6.59900 36.95300 39.38600
H  -10.32200 45.00900 39.75000
H  -9.04700 44.49100 40.76700
H  -10.17300 45.81500 41.21100
H  -14.19200 44.93500 44.16500
H  -14.92500 45.43000 42.66900
H  -14.28600 46.65500 43.85800
H  -17.09200 42.03400 43.29600
H  -17.16100 39.46700 44.57700
H  -16.32900 41.07700 46.12300
H  -17.42200 42.26500 45.58900
H  -15.75200 42.57600 45.71200
H  -17.33800 39.12000 41.68300
H  -18.22700 40.42500 42.09100
H  -18.44600 37.47900 42.87700
H  -19.79200 38.58700 42.48900
H  -18.98600 38.41800 44.07900
H  -14.78100 34.30800 44.04000
H  -15.11500 33.97500 42.39400
H  -16.08500 35.18000 43.34300
H  -10.33000 35.03600 40.20900
H  -6.60900 33.31700 41.42600
H  -7.62900 32.71300 42.75200
H  -6.88800 34.47400 42.65000
Mg -2.32800 34.91100 25.62000
C  -3.69900 33.12200 28.24800
C  -0.85600 37.11900 27.99400
C  -1.77000 37.13400 23.32900
C  -4.35300 33.07500 23.47900
N  -2.25900 35.17000 27.88100
C  -2.79400 34.11800 28.68100
C  -2.47100 34.41000 30.21000
C  -1.50000 35.64500 30.13700
C  -1.54900 36.08000 28.59600
C  -1.71200 36.79100 31.11800
C  -1.80300 33.12000 30.87700
C  -2.34700 32.68100 32.23300
H  -1.52000 32.84800 33.52400
N  -1.32900 36.72800 25.63700
C  -0.71200 37.44300 26.66200
C  0.06200 38.49800 26.13200
C  -0.05300 38.45900 24.72200
C  -1.10700 37.47100 24.49700
C  0.84100 39.45100 27.05900
C  0.61100 39.35500 23.68400
O  0.22600 39.45200 22.51500
C  1.80600 40.20600 24.13700
N  -2.92700 35.05000 23.70700
C  -2.61300 36.09000 22.94000
C  -3.21500 36.07400 21.50100
C  -3.75800 34.60300 21.45800
C  -3.60600 34.17900 22.93500
C  -4.30300 37.12500 21.30200
C  -3.02400 33.75100 20.42600
C  -1.61700 33.26000 20.79500
N  -3.72700 33.38600 25.76500
C  -4.40400 32.67400 24.79300
C  -5.22400 31.63800 25.41900
C  -4.96300 31.74500 26.80900
C  -4.08400 32.85100 26.96900
C  -6.19300 30.71300 24.74400
C  -5.33600 31.21000 28.10400
O  -6.07700 30.29600 28.45800
C  -4.52500 32.14900 29.08000
C  -5.49300 32.82800 29.91400
O  -6.17300 33.82300 29.65500
O  -5.51100 32.03200 31.06500
C  -6.27500 32.56000 32.23700
H  -0.32400 37.66000 28.77900
H  -1.66600 37.89900 22.55600
H  -5.13400 32.62800 22.86100
H  -3.39500 34.79100 30.64600
H  -0.49900 35.27700 30.35900
H  -2.36000 36.43300 31.91800
H  -2.02200 37.66600 30.54700
H  -0.73200 37.12700 31.45700
H  -0.74000 33.29500 31.03900
H  -1.72100 32.24100 30.23800
H  -2.61100 31.62500 32.16300
H  -3.24600 33.23100 32.51200
H  0.67600 40.46900 26.70600
H  1.88400 39.14700 27.15500
H  0.36400 39.38900 28.03700
H  1.44800 41.13700 24.57700
H  2.28900 40.51700 23.21000
H  2.48600 39.66300 24.79300
H  -2.48800 36.36200 20.74200
H  -4.80200 34.53700 21.15200
H  -4.60600 37.61300 22.22800
H  -5.01100 36.66000 20.61600
H  -3.84300 37.87500 20.65900
H  -2.88000 34.41700 19.57500
H  -3.67900 32.92900 20.13700
H  -1.24300 33.53300 21.78100
H  -0.94200 33.81700 20.14400
H  -1.49100 32.18400 20.67200
H  -6.08100 29.74400 25.23100
H  -5.99100 30.56400 23.68400
H  -7.18600 31.09600 24.97800
H  -3.84300 31.42900 29.53300
H  -6.58400 33.57400 31.98300
H  -5.87200 32.46600 33.24500
H  -7.20400 31.98900 32.22500

