158

Mg 0.39100 7.93000 25.65400
C  1.17100 9.53100 28.65600
C  0.06000 4.93100 27.45700
C  0.42700 6.16800 22.78600
C  1.41000 10.74200 23.84100
N  0.73200 7.30600 27.80000
C  0.84800 8.18200 28.88500
C  0.76000 7.47600 30.24100
C  0.63100 6.01600 29.72700
C  0.39700 6.08600 28.22500
C  1.79600 5.10900 30.14000
C  -0.46600 7.83800 31.17300
C  -0.45600 7.41000 32.67900
H  0.76900 6.69600 33.30100
N  0.08400 5.88100 25.18500
C  -0.00300 4.80300 26.06600
C  -0.24400 3.60600 25.33000
C  -0.09300 3.90700 23.94300
C  0.18200 5.38100 23.94200
C  -0.49200 2.33400 26.11900
C  -0.22100 2.97000 22.73200
O  0.03000 3.32400 21.58300
C  -0.45500 1.46200 23.00600
N  0.90000 8.43400 23.60800
C  0.67700 7.49800 22.60300
C  0.92500 8.09700 21.20500
C  1.22500 9.57800 21.52500
C  1.10900 9.65700 23.10200
C  2.10000 7.27900 20.50500
C  0.13800 10.55700 20.89200
C  -1.23600 10.87100 21.56200
N  1.17900 9.78800 26.11700
C  1.47200 10.87100 25.27000
C  1.81800 12.01100 26.17100
C  1.72400 11.54900 27.46900
C  1.32400 10.18900 27.38300
C  2.04500 13.46900 25.75900
C  1.78000 11.93900 28.82200
O  2.22000 13.01100 29.23200
C  1.44800 10.65200 29.69100
C  2.55000 10.34600 30.58800
O  3.49800 9.62000 30.29200
O  2.37900 10.88200 31.81300
C  3.55800 10.65200 32.71100
H  -0.14200 4.00400 27.99800
H  0.22800 5.69200 21.82300
H  1.54300 11.71400 23.36100
H  1.63500 7.63000 30.87200
H  -0.22300 5.53400 30.20200
H  1.43700 4.15100 30.51500
H  2.38000 5.57700 30.93200
H  2.45900 5.06000 29.27700
H  -1.38200 7.48900 30.69700
H  -0.58800 8.92100 31.18100
H  -1.37600 6.84900 32.84000
H  -0.51400 8.28200 33.33000
H  -1.01200 2.54700 27.05300
H  0.45300 1.82100 26.29900
H  -1.07100 1.60900 25.54900
H  -0.65200 0.87100 22.11100
H  -1.38400 1.42600 23.57400
H  0.45400 1.10000 23.48600
H  0.02300 7.99000 20.60300
H  2.18800 9.94400 21.16900
H  2.63200 6.77700 21.31300
H  2.81900 7.99200 20.09900
H  1.70900 6.56600 19.77800
H  -0.08200 10.04800 19.95300
H  0.63800 11.47600 20.58600
H  -1.17900 11.80500 22.12100
H  -1.55800 10.14600 22.30900
H  -2.08200 10.99900 20.88600
H  1.42300 13.55800 24.86900
H  3.08300 13.61500 25.45700
H  1.68700 14.13800 26.54200
H  0.53800 10.92200 30.22800
H  4.49700 10.73300 32.16400
H  3.50200 9.62800 33.08000
H  3.47700 11.36000 33.53600
Mg 49.08100 35.17900 27.45300
C  47.33900 33.61300 30.01200
C  49.78000 37.77700 29.88800
C  50.14700 36.97100 25.06300
C  48.03500 32.68600 25.23700
N  48.51500 35.68500 29.66100
C  47.96000 34.75000 30.49800
C  47.90000 35.19400 31.98900
C  48.55300 36.62000 31.89700
C  48.96900 36.77400 30.40800
C  47.55100 37.70400 32.28500
C  48.93200 34.32200 32.77900
C  48.61100 34.09600 34.29100
H  47.57700 35.00300 35.03300
N  49.99700 37.03400 27.48200
C  50.27500 37.92800 28.53800
C  51.07600 38.99300 28.02200
C  51.09300 38.75600 26.62400
C  50.37100 37.55300 26.35200
C  51.71000 40.03400 28.92700
C  51.71400 39.65200 25.56300
O  51.71700 39.27100 24.35600
C  52.37600 40.91800 26.01900
N  48.94200 34.92600 25.39200
C  49.53500 35.83100 24.59700
C  49.40800 35.36500 23.16900
C  48.83400 33.87100 23.27000
C  48.65300 33.85700 24.73900
C  48.64500 36.27700 22.30200
C  49.83300 32.74000 22.71300
C  49.18300 31.59400 21.78200
N  47.99500 33.44900 27.54600
C  47.64400 32.58800 26.57100
C  46.87600 31.53500 27.08700
C  46.60200 31.99800 28.39100
C  47.41100 33.12300 28.68500
C  46.39100 30.30300 26.40900
C  45.79700 31.71100 29.58700
O  44.93100 30.88000 29.84300
C  46.27400 32.68300 30.65300
C  46.70100 31.89400 31.85500
O  47.59000 31.10500 31.94300
O  45.77400 32.13100 32.83300
C  45.83900 31.28800 34.02000
H  50.03200 38.55100 30.61600
H  50.52900 37.44900 24.15800
H  47.68900 31.88000 24.58600
H  46.85100 35.20600 32.28500
H  49.49600 36.82600 32.40400
H  46.89600 37.29600 33.05400
H  47.06700 38.15000 31.41600
H  48.17100 38.53900 32.61000
H  49.92900 34.76100 32.81500
H  48.90200 33.35100 32.28500
H  49.53200 34.01900 34.86900
H  48.40400 33.02600 34.30800
H  52.79400 39.93000 28.87200
H  51.44900 39.86600 29.97200
H  51.42700 41.05900 28.68600
H  51.61300 41.49400 26.54300
H  52.85700 41.58100 25.29900
H  53.08700 40.50000 26.73200
H  50.42400 35.25500 22.78900
H  47.85500 33.78100 22.79800
H  47.62500 35.89100 22.28300
H  49.08600 36.37500 21.31000
H  48.62900 37.22800 22.83400
H  50.23400 32.24300 23.59600
H  50.71400 33.15200 22.22000
H  49.77500 31.54200 20.86900
H  48.15100 31.80900 21.50300
H  49.26700 30.67100 22.35600
H  45.62300 29.90900 27.07400
H  47.11700 29.50000 26.53400
H  46.21700 30.44300 25.34200
H  45.45500 33.39900 30.72400
H  45.26500 30.37500 33.86500
H  45.60300 31.81800 34.94300
H  46.83400 30.90900 34.25200

