158

Mg 2.63000 -1.50900 44.06200
C  5.98700 -0.77600 43.69100
C  1.91000 1.57400 42.54500
C  -0.65500 -2.42300 43.77100
C  3.39400 -4.65000 45.29200
N  3.77500 0.18500 43.24700
C  5.11100 0.25800 43.20500
C  5.72500 1.40900 42.41600
C  4.43800 2.33200 42.30400
C  3.28200 1.31800 42.72000
C  4.58900 3.55300 43.32000
C  6.45300 1.12500 41.08000
C  7.58900 2.13700 40.76700
H  7.33300 3.09400 39.59600
N  0.85700 -0.54000 43.37100
C  0.80000 0.73900 42.76300
C  -0.52400 1.07700 42.55700
C  -1.39000 -0.02800 42.92000
C  -0.42100 -1.09000 43.40000
C  -0.94400 2.47200 42.13500
C  -2.97900 -0.04100 42.82400
O  -3.56700 0.91100 42.32300
C  -3.73300 -1.22400 43.17700
N  1.45100 -3.28900 44.56400
C  0.19500 -3.48800 44.20600
C  -0.26900 -4.92100 44.39700
C  1.07100 -5.59600 44.91600
C  2.05500 -4.43800 44.98600
C  -1.49400 -5.18200 45.32000
C  1.46200 -6.70600 43.76100
C  0.60700 -7.95200 43.86300
N  4.37200 -2.57500 44.44400
C  4.52600 -3.82800 44.97700
C  5.99900 -4.07900 45.09600
C  6.60300 -2.89500 44.61800
C  5.59000 -2.03200 44.24200
C  6.62000 -5.22300 45.69700
C  7.87700 -2.25000 44.44400
O  9.02800 -2.60900 44.68200
C  7.48600 -0.83900 43.75700
C  8.05900 0.17100 44.68800
O  7.96600 0.21300 45.88700
O  8.66100 1.16000 43.94600
C  9.02400 2.45800 44.60600
H  1.60700 2.56300 42.19600
H  -1.66800 -2.75900 43.53800
H  3.66700 -5.64700 45.64500
H  6.42800 1.91400 43.07900
H  4.05100 2.67200 41.34300
H  3.62600 3.98000 43.60200
H  5.15000 4.39200 42.91100
H  5.05100 3.21300 44.24700
H  5.69600 1.17900 40.29800
H  6.89400 0.13600 40.95100
H  8.44900 1.52100 40.50500
H  7.80500 2.77300 41.62600
H  -1.97200 2.69700 42.41900
H  -0.80200 2.56700 41.05900
H  -0.38900 3.24100 42.67200
H  -4.81800 -1.15800 43.10200
H  -3.32600 -1.77100 44.02700
H  -3.49800 -1.92500 42.37500
H  -0.56900 -5.30400 43.42200
H  0.99800 -5.92200 45.95300
H  -2.13400 -5.98800 44.96200
H  -1.98400 -4.21000 45.25600
H  -1.22500 -5.43700 46.34500
H  2.38500 -7.16800 44.11000
H  1.46700 -6.32000 42.74100
H  0.41800 -8.19900 42.81800
H  -0.35000 -7.74500 44.34300
H  1.17800 -8.75700 44.32600
H  7.07800 -5.88600 44.96300
H  5.98800 -5.86000 46.31600
H  7.51100 -4.90200 46.23600
H  7.94000 -0.84500 42.76700
H  8.89300 2.50400 45.68700
H  8.39400 3.21000 44.13100
H  10.01100 2.59400 44.16300
Mg 41.34200 8.35600 29.83500
C  43.21200 9.67400 32.48500
C  38.87800 7.37800 32.04900
C  39.69800 6.93900 27.24400
C  43.95200 9.19000 27.65200
N  41.13900 8.54400 32.06000
C  41.98300 9.20200 32.95200
C  41.31400 9.21000 34.29000
C  40.06300 8.19200 34.15900
C  40.00600 7.97000 32.63700
C  40.12200 6.89500 35.08300
C  40.89000 10.61800 34.82600
C  40.70000 10.88200 36.30500
H  41.23800 12.25000 36.87000
N  39.55800 7.27500 29.71100
C  38.63000 7.01300 30.71900
C  37.46100 6.31200 30.18500
C  37.73700 6.16800 28.82200
C  39.06400 6.79900 28.51100
C  36.32300 5.86800 31.04700
C  36.73000 5.68500 27.69700
O  37.00100 5.74500 26.51400
C  35.43600 5.18700 28.18200
N  41.71000 8.22300 27.70300
C  40.90400 7.51000 26.84500
C  41.42800 7.63400 25.32900
C  42.67300 8.57800 25.57000
C  42.84100 8.62000 27.06100
C  41.71400 6.25900 24.60100
C  42.56500 9.99500 24.95300
C  43.77300 10.68000 24.31500
N  43.21600 9.32300 29.98700
C  44.17600 9.53700 29.01000
C  45.26900 10.22100 29.63100
C  45.05200 10.18300 30.97900
C  43.80000 9.63400 31.15800
C  46.41400 10.79300 28.94500
C  45.55600 10.49100 32.29700
O  46.63500 10.95700 32.62200
C  44.41200 10.15800 33.31900
C  44.94800 9.18600 34.18500
O  45.20200 7.98200 33.87200
O  45.31200 9.74000 35.35900
C  46.18200 8.92100 36.27900
H  38.05400 7.27900 32.75900
H  39.13900 6.47900 26.42700
H  44.67600 9.52500 26.90600
H  41.93800 8.82200 35.09600
H  39.14300 8.70200 34.44400
H  40.13200 5.94300 34.55200
H  39.41800 6.90700 35.91600
H  41.01400 6.87300 35.70800
H  39.92000 10.80500 34.36500
H  41.75600 11.22100 34.55200
H  41.24200 10.08000 36.80500
H  39.63400 10.74600 36.48800
H  36.48100 5.97300 32.12000
H  36.05000 4.81300 31.00500
H  35.45700 6.43100 30.69800
H  35.52500 4.21600 28.66700
H  34.77000 4.94800 27.35300
H  34.84100 5.87100 28.78900
H  40.65200 8.18700 24.80000
H  43.56000 8.14100 25.11100
H  42.72800 6.27000 24.20200
H  41.01000 5.91900 23.84100
H  41.73100 5.48600 25.36900
H  42.15200 10.68000 25.69400
H  41.74000 9.92300 24.24400
H  44.17300 11.52700 24.87200
H  43.41500 10.98300 23.33100
H  44.49800 9.87600 24.18700
H  46.54200 11.87200 29.03200
H  46.38800 10.65900 27.86300
H  47.32800 10.43800 29.42100
H  44.25800 11.03500 33.94800
H  46.60800 9.55700 37.05500
H  46.93700 8.30700 35.78800
H  45.46400 8.27500 36.78400

