158

Mg 26.21100 0.76000 29.05200
C  28.20400 0.44100 31.74900
C  23.49600 1.26900 31.17700
C  24.22000 0.64100 26.34200
C  28.91600 -0.33800 26.95900
N  25.92600 0.70100 31.30000
C  26.92800 0.81300 32.08800
C  26.50600 1.02300 33.53800
C  24.91300 1.20100 33.39500
C  24.75500 1.13500 31.86300
C  24.05200 0.25900 34.26800
C  27.23800 2.20700 34.19200
C  26.67100 2.92500 35.45000
H  27.46500 2.78400 36.72900
N  24.13800 0.95300 28.77200
C  23.20100 1.01000 29.82600
C  21.95200 0.81100 29.23600
C  22.06200 0.73000 27.82300
C  23.50500 0.87200 27.57100
C  20.64000 0.98000 29.96000
C  21.00600 0.60800 26.80200
O  21.27400 0.67100 25.62000
C  19.62700 0.29000 27.16300
N  26.51700 0.12900 26.90600
C  25.55700 0.39300 26.02200
C  25.99500 0.13500 24.58400
C  27.53200 -0.07200 24.73000
C  27.69800 -0.12800 26.29700
C  25.35300 -1.10300 23.91100
C  28.42100 1.02700 23.92200
C  28.33300 0.84700 22.43800
N  28.10000 0.21100 29.28300
C  29.09500 -0.22500 28.38200
C  30.32400 -0.49600 29.09700
C  30.03200 -0.21500 30.40200
C  28.66600 0.16200 30.50300
C  31.64900 -1.04200 28.49200
C  30.59700 -0.10300 31.74100
O  31.71700 -0.46800 32.19600
C  29.44200 0.33700 32.68500
C  29.25900 -0.64200 33.80300
O  28.82300 -1.76800 33.64700
O  29.70300 -0.23800 35.02700
C  29.76700 -1.25300 36.08600
H  22.61600 1.45300 31.79700
H  23.55900 0.51200 25.48200
H  29.72700 -0.69600 26.32200
H  26.74800 0.13900 34.12700
H  24.48400 2.19000 33.55200
H  23.70600 -0.64600 33.76700
H  23.17100 0.87100 34.46100
H  24.53300 0.07100 35.22800
H  27.58700 2.92900 33.45400
H  28.10200 1.71000 34.63500
H  25.62300 2.66500 35.60300
H  26.67000 3.96800 35.13200
H  20.07500 1.76200 29.45300
H  20.74200 1.20400 31.02200
H  19.98500 0.11400 29.87200
H  19.07300 1.19100 27.42800
H  19.71600 -0.43300 27.97400
H  19.12000 -0.17400 26.31700
H  25.76100 1.08900 24.11100
H  27.77800 -1.08700 24.41800
H  24.66700 -1.61400 24.58700
H  26.01500 -1.81900 23.42400
H  24.71000 -0.72200 23.11800
H  29.45000 0.78900 24.19200
H  28.18100 2.04600 24.22300
H  28.35500 1.74600 21.82200
H  27.48500 0.24900 22.10300
H  29.23400 0.32200 22.12300
H  31.55100 -2.12600 28.42100
H  32.45600 -0.87100 29.20500
H  31.85800 -0.72600 27.47000
H  29.62200 1.27400 33.21300
H  30.80400 -1.27600 36.42100
H  29.39900 -2.23200 35.77900
H  29.02100 -0.99300 36.83600
Mg 30.14300 57.94800 41.52000
C  27.28900 56.25600 40.30200
C  32.03800 55.37900 40.22800
C  32.90000 59.91000 41.89100
C  28.00400 60.57000 42.17100
N  29.65100 56.02800 40.38600
C  28.45400 55.56700 40.03200
C  28.61700 54.22400 39.26100
C  30.04200 53.85700 39.70500
C  30.62200 55.18200 40.13900
C  30.00900 52.69200 40.76600
C  28.42900 54.53500 37.74500
C  27.07300 53.95900 37.15300
H  26.39400 54.60400 35.84500
N  32.10300 57.69200 41.19000
C  32.68300 56.55200 40.62400
C  34.08300 56.72000 40.41600
C  34.41600 58.05800 40.84300
C  33.11800 58.62600 41.32400
C  35.01700 55.60200 39.98500
C  35.76900 58.68600 40.81000
O  36.72500 57.99800 40.46300
C  35.97900 60.04900 41.20300
N  30.40400 59.98700 41.74800
C  31.66100 60.55400 42.00500
C  31.48700 62.10700 42.35200
C  29.96400 62.16600 42.65000
C  29.38400 60.78900 42.11900
C  32.36900 62.68000 43.46800
C  29.19000 63.37200 42.00300
C  28.32000 64.06300 42.99600
N  27.99600 58.34600 41.50900
C  27.33900 59.47900 41.69900
C  25.88800 59.26500 41.53900
C  25.83200 58.00000 40.98300
C  27.13300 57.51700 40.98500
C  24.80700 60.20100 41.87700
C  24.89500 56.96200 40.46800
O  23.68100 56.83700 40.37600
C  25.87400 55.88800 39.95000
C  25.44400 54.60000 40.64300
O  25.84300 54.12000 41.66400
O  24.43500 54.03800 39.90400
C  23.78700 52.81700 40.46200
H  32.62400 54.49900 39.95400
H  33.67500 60.52500 42.35300
H  27.34000 61.42600 42.30700
H  27.84000 53.51200 39.54100
H  30.60000 53.55700 38.81800
H  29.14300 52.03400 40.69900
H  30.27600 53.08700 41.74700
H  30.88600 52.07600 40.56900
H  29.27100 54.35200 37.07700
H  28.20300 55.59400 37.62100
H  26.32700 53.95600 37.94900
H  27.22900 52.92600 36.84200
H  35.69600 55.44500 40.82300
H  35.48000 55.98500 39.07500
H  34.70400 54.63500 39.59100
H  35.67700 60.13600 42.24700
H  35.31900 60.66700 40.59500
H  37.02100 60.35600 41.11200
H  31.82600 62.71700 41.51400
H  29.80300 62.10400 43.72700
H  33.15800 63.38000 43.19000
H  32.81100 61.83200 43.99000
H  31.76600 63.23100 44.19000
H  28.65100 62.98800 41.13700
H  29.91200 64.12800 41.69200
H  28.49900 65.13900 43.00300
H  28.55500 63.92000 44.05100
H  27.27100 63.91400 42.74100
H  24.70900 60.75100 40.94100
H  25.10300 60.98700 42.57100
H  23.81300 59.83700 42.13900
H  25.79800 55.80300 38.86600
H  22.73500 52.90000 40.18900
H  23.88500 52.75300 41.54500
H  24.13400 51.89100 40.00300

