158

Mg 34.53400 2.89500 29.24000
C  32.29900 3.91600 31.79500
C  36.91400 2.53900 31.67100
C  36.67700 2.37700 26.68100
C  32.02200 3.53300 26.93800
N  34.62400 3.49400 31.47800
C  33.58100 3.75800 32.34700
C  34.03000 3.75100 33.81700
C  35.58600 3.33600 33.73000
C  35.71600 3.03300 32.20500
C  36.54500 4.45800 34.15300
C  33.17700 2.75300 34.61600
C  32.72500 3.11500 36.01100
H  33.39200 4.18200 36.92000
N  36.46500 2.36300 29.23900
C  37.28900 2.21900 30.33800
C  38.65600 1.82400 29.93500
C  38.58300 1.89000 28.50900
C  37.19500 2.17900 28.06200
C  39.70400 1.47900 30.97500
C  39.74400 1.55700 27.44900
O  39.49100 1.50600 26.28900
C  41.20800 1.32400 27.93700
N  34.35700 2.82400 27.09900
C  35.36900 2.60800 26.20100
C  34.92500 2.92400 24.72700
C  33.35900 2.79200 24.92600
C  33.22400 3.21900 26.40600
C  35.52900 4.23100 24.04100
C  32.70600 1.42700 24.59400
C  31.53200 1.49400 23.70100
N  32.59100 3.58900 29.30500
C  31.72000 3.76600 28.23800
C  30.44200 4.13300 28.75500
C  30.57000 4.24100 30.14000
C  31.94100 3.96100 30.43800
C  29.18300 4.38100 27.92600
C  29.87000 4.40600 31.45700
O  28.71900 4.77600 31.63000
C  30.92800 4.24900 32.54300
C  31.14600 5.59500 33.23300
O  31.75900 6.51800 32.73800
O  30.58600 5.47900 34.46300
C  30.51700 6.68900 35.27700
H  37.67500 2.48800 32.45200
H  37.41200 2.36500 25.87300
H  31.15100 3.50900 26.28000
H  33.95900 4.75500 34.23600
H  35.72700 2.45600 34.35700
H  37.11900 4.79800 33.29100
H  37.26600 4.13800 34.90500
H  36.02800 5.35900 34.48100
H  33.70500 1.79900 34.60600
H  32.24000 2.51100 34.11500
H  32.67300 2.19400 36.59200
H  31.70700 3.49600 35.93100
H  40.65700 1.93300 30.70300
H  39.87000 0.40900 30.85200
H  39.44900 1.73400 32.00300
H  41.19700 0.67500 28.81300
H  41.53600 2.35400 28.07700
H  41.78100 0.91700 27.10400
H  35.20000 2.06200 24.12000
H  32.90100 3.61500 24.37700
H  36.04300 4.82500 24.79700
H  34.75900 4.72600 23.44800
H  36.30200 4.00900 23.30700
H  32.42000 1.02000 25.56400
H  33.48700 0.88700 24.05700
H  30.66400 1.01200 24.15000
H  31.79600 1.01100 22.76000
H  31.25300 2.49700 23.38000
H  28.82900 3.36900 27.72900
H  29.51800 4.87500 27.01400
H  28.49600 5.02100 28.48000
H  30.61000 3.45700 33.22100
H  30.22500 7.54100 34.66400
H  31.49200 6.69100 35.76300
H  29.79300 6.45600 36.05800
Mg 36.48900 50.03400 24.67100
C  36.61600 48.21100 27.75900
C  34.55600 52.44900 26.45500
C  35.62300 51.45900 21.77900
C  37.87400 47.27500 23.05600
N  35.64500 50.21400 26.91700
C  35.89100 49.43800 27.97200
C  35.44300 49.92100 29.30500
C  34.56900 51.23200 28.87800
C  34.89900 51.31200 27.30800
C  33.07700 51.46000 29.16100
C  36.59500 50.28600 30.33400
C  36.65100 49.65600 31.70900
H  35.25500 49.45100 32.26900
N  35.37400 51.77500 24.21400
C  34.67200 52.63300 25.07300
C  34.23900 53.75900 24.26400
C  34.52900 53.52900 22.86800
C  35.14500 52.16500 22.87400
C  33.65600 54.90800 24.94800
C  34.25800 54.38300 21.62300
O  34.59400 54.06900 20.46600
C  33.60500 55.81800 21.74800
N  36.76200 49.46000 22.68300
C  36.44100 50.31100 21.67200
C  36.98400 49.66900 20.34200
C  37.93200 48.49200 20.79500
C  37.56800 48.36800 22.26500
C  35.73800 49.32200 19.44300
C  39.47200 48.58600 20.28200
C  40.50800 49.03300 21.38000
N  37.18100 48.12400 25.24100
C  37.70400 47.14200 24.46600
C  38.10000 46.03600 25.23000
C  37.72000 46.38800 26.54900
C  37.13000 47.69200 26.50200
C  38.67700 44.71600 24.78700
C  37.72000 45.85700 27.91200
O  38.09700 44.76200 28.40000
C  37.05300 47.08200 28.78900
C  36.02100 46.65800 29.73900
O  34.83000 46.72300 29.56000
O  36.63400 45.92500 30.74500
C  35.75300 45.31900 31.80000
H  34.13200 53.25900 27.05300
H  35.42200 51.91300 20.80600
H  38.40700 46.43100 22.61400
H  34.70700 49.22800 29.71200
H  35.03200 52.04700 29.43500
H  32.79300 50.54300 29.67600
H  32.50200 51.54200 28.23900
H  32.91300 52.29600 29.84100
H  36.60000 51.35900 30.52600
H  37.56000 50.09800 29.86400
H  37.28800 50.14200 32.44800
H  37.12500 48.67400 31.68200
H  34.09300 55.86500 24.66300
H  33.98800 54.92800 25.98600
H  32.57200 54.84800 24.85700
H  34.26400 56.42700 22.36700
H  32.61600 55.74600 22.19900
H  33.49900 56.28200 20.76700
H  37.62900 50.37100 19.81400
H  37.43100 47.57600 20.48200
H  34.78000 49.38000 19.96100
H  35.80800 48.26700 19.18000
H  35.66600 49.87700 18.50800
H  39.57400 49.38700 19.54900
H  39.80100 47.65600 19.81900
H  41.40000 48.47000 21.10300
H  40.20100 48.86600 22.41200
H  40.73500 50.09100 21.24800
H  38.41200 43.88400 25.44000
H  39.74300 44.86500 24.61600
H  38.31900 44.32700 23.83400
H  37.88700 47.37300 29.42700
H  35.46700 44.33000 31.44200
H  34.87700 45.92400 32.03600
H  36.41300 45.33200 32.66800

