158

Mg 1.48500 -1.84400 43.42800
C  4.82400 -0.79700 43.18800
C  0.66700 0.83000 41.50200
C  -1.62500 -3.04600 43.24100
C  2.57500 -4.80800 44.93800
N  2.65800 -0.10100 42.59400
C  3.98500 0.14100 42.59100
C  4.29000 1.37500 41.67000
C  2.87200 2.05300 41.59200
C  1.99400 0.80900 41.92000
C  2.63100 3.15600 42.65600
C  5.03300 1.13800 40.33900
C  6.18500 2.11600 40.15700
H  6.19000 2.86400 38.87300
N  -0.27400 -1.09900 42.48900
C  -0.43100 0.01800 41.73200
C  -1.84400 0.29000 41.45100
C  -2.51800 -0.88300 42.00100
C  -1.49400 -1.74600 42.64300
C  -2.41800 1.49100 40.74200
C  -3.92400 -1.02200 41.93900
O  -4.70900 -0.19200 41.48400
C  -4.58200 -2.16000 42.48900
N  0.60600 -3.67400 43.96500
C  -0.72100 -3.90300 43.88600
C  -1.14100 -5.27900 44.54200
C  0.14300 -5.80000 45.14400
C  1.18900 -4.70400 44.68700
C  -2.28400 -5.01400 45.56600
C  0.65300 -7.26500 44.70300
C  0.49100 -8.41300 45.79300
N  3.28100 -2.72900 43.84800
C  3.60600 -3.92500 44.48000
C  5.06400 -4.01700 44.76000
C  5.57400 -2.86500 44.13900
C  4.42600 -2.08700 43.76800
C  5.85900 -5.17500 45.35000
C  6.78200 -2.20900 43.81600
O  7.96500 -2.56200 43.94500
C  6.35800 -0.80400 43.16600
C  7.02700 0.35700 43.83700
O  6.99200 0.50700 45.04300
O  7.79400 1.05900 42.92600
C  8.55300 2.17200 43.54400
H  0.28900 1.67100 40.91600
H  -2.64200 -3.44600 43.23100
H  2.85000 -5.65400 45.57200
H  4.87700 2.06200 42.28000
H  2.70900 2.46600 40.59700
H  3.55200 3.58800 43.04600
H  2.15900 2.80700 43.57500
H  2.01200 3.86900 42.11100
H  4.36600 1.23600 39.48300
H  5.38900 0.11100 40.41700
H  7.17700 1.66300 40.15800
H  6.28200 2.83900 40.96600
H  -2.80700 2.16700 41.50300
H  -3.28300 1.20800 40.14100
H  -1.68900 2.04000 40.14700
H  -5.63800 -2.05200 42.24400
H  -4.38500 -2.25500 43.55700
H  -4.25100 -3.01000 41.89000
H  -1.46900 -5.94900 43.74800
H  0.16700 -5.74300 46.23200
H  -2.19400 -3.98600 45.91800
H  -2.09000 -5.70100 46.38900
H  -3.24800 -5.27200 45.12700
H  1.71400 -7.23800 44.45600
H  0.19700 -7.61200 43.77600
H  -0.35700 -8.97200 45.39700
H  0.16100 -7.97800 46.73700
H  1.40600 -8.99800 45.87700
H  6.78300 -5.38700 44.81400
H  5.26400 -6.08000 45.23000
H  6.06100 -5.06800 46.41600
H  6.68200 -0.82100 42.12500
H  7.95900 3.08500 43.51300
H  9.37100 2.23300 42.82600
H  8.95400 2.13100 44.55700
Mg -5.17200 24.85900 27.03500
C  -3.80800 26.52400 29.74400
C  -6.50800 22.65300 29.29100
C  -6.15100 23.05600 24.42100
C  -3.31200 26.93000 24.89100
N  -4.93000 24.49600 29.23600
C  -4.50400 25.39600 30.13400
C  -4.95300 25.09300 31.60000
C  -5.45100 23.63700 31.42700
C  -5.69400 23.57500 29.89000
C  -4.45400 22.59000 31.88400
C  -5.98100 26.11700 32.06800
C  -6.10000 26.35000 33.57000
H  -5.76100 25.10700 34.45100
N  -6.18300 23.12300 26.92700
C  -6.72600 22.44900 27.93000
C  -7.69000 21.46900 27.36000
C  -7.67200 21.66400 25.94600
C  -6.61300 22.61500 25.65900
C  -8.51100 20.52000 28.15400
C  -8.52000 21.05300 24.80900
O  -8.42300 21.43400 23.66700
C  -9.56600 20.12200 25.08300
N  -4.63200 24.85000 24.90000
C  -5.32800 24.02300 24.02800
C  -4.89100 24.42400 22.61800
C  -4.09900 25.70800 22.75700
C  -3.96400 25.86900 24.22800
C  -4.21500 23.21500 21.92200
C  -4.87800 26.95000 22.23000
C  -4.17100 27.72100 21.17800
N  -3.75600 26.45000 27.24000
C  -3.08800 27.26000 26.28500
C  -2.22600 28.20100 26.97400
C  -2.46300 27.88700 28.31400
C  -3.40700 26.87100 28.40100
C  -1.20500 29.14300 26.36300
C  -2.09600 28.33800 29.64400
O  -1.38700 29.24700 30.07900
C  -3.07300 27.52400 30.61400
C  -2.30200 26.96600 31.84600
O  -1.42200 26.10600 31.75000
O  -2.77500 27.55500 32.97500
C  -2.26900 27.03400 34.19600
H  -7.09800 22.04400 29.98000
H  -6.56000 22.54700 23.54600
H  -2.77400 27.65900 24.28300
H  -4.06400 25.11200 32.23200
H  -6.36400 23.50100 32.00600
H  -4.28200 21.82000 31.13200
H  -4.91300 22.11400 32.75100
H  -3.51400 23.08200 32.13300
H  -6.96200 25.78900 31.72300
H  -5.85300 27.11300 31.64500
H  -7.05000 26.80800 33.84300
H  -5.26200 26.98600 33.85400
H  -9.50000 20.92200 28.37300
H  -8.01400 20.37000 29.11300
H  -8.63700 19.63000 27.53800
H  -9.13300 19.12800 25.20100
H  -10.15700 20.03500 24.17100
H  -10.18900 20.59300 25.84200
H  -5.75900 24.56800 21.97500
H  -3.11100 25.53700 22.33000
H  -4.03500 22.42500 22.65100
H  -3.32800 23.58000 21.40400
H  -4.82400 22.74600 21.15000
H  -5.13500 27.69300 22.98500
H  -5.78700 26.52100 21.80900
H  -3.31500 27.15800 20.80900
H  -3.76300 28.63500 21.61100
H  -4.77500 28.05100 20.33300
H  -0.82300 28.67400 25.45700
H  -0.40800 29.48600 27.02300
H  -1.67200 30.06500 26.01600
H  -3.76000 28.28300 30.98700
H  -1.45100 27.58400 34.66000
H  -1.83300 26.05500 33.99500
H  -3.08700 26.92300 34.90800

