158

Mg 25.93900 0.12000 29.56300
C  27.65000 0.06300 32.61200
C  23.04500 0.66500 31.15800
C  24.55000 0.29800 26.62900
C  29.09300 -0.56300 27.93300
N  25.48800 0.29100 31.64000
C  26.31000 0.39100 32.74100
C  25.48400 0.38900 34.04000
C  23.97600 0.22600 33.55800
C  24.13200 0.50100 32.02000
C  23.37300 -1.20200 33.81000
C  25.80500 1.52800 35.03500
C  25.94300 1.09400 36.53400
H  25.29000 2.00900 37.57900
N  24.04700 0.35900 28.99600
C  22.98200 0.59500 29.75800
C  21.78200 0.79900 28.97900
C  22.25700 0.75300 27.58300
C  23.70900 0.55100 27.68600
C  20.47200 1.08700 29.69700
C  21.46000 0.86600 26.26200
O  22.00500 0.70700 25.16700
C  19.90800 1.14200 26.27000
N  26.76600 -0.12600 27.57600
C  25.89200 0.02700 26.48900
C  26.54100 -0.19600 25.11600
C  28.06200 -0.26400 25.56600
C  27.98700 -0.33900 27.09300
C  26.22300 -1.50200 24.31400
C  28.89800 1.03300 25.19600
C  30.33200 0.70700 24.75900
N  28.01400 -0.21700 30.08000
C  29.13300 -0.46700 29.34200
C  30.25700 -0.57300 30.24200
C  29.76200 -0.40000 31.55400
C  28.34700 -0.20800 31.44000
C  31.70300 -0.75700 29.82100
C  30.08100 -0.30900 32.92700
O  31.14800 -0.28600 33.43800
C  28.76200 0.04600 33.67100
C  28.65300 -0.97900 34.69900
O  28.24000 -2.13700 34.53400
O  29.14600 -0.53900 35.92800
C  28.83800 -1.36700 37.05500
H  22.17400 0.97900 31.73700
H  24.24800 0.37200 25.58200
H  29.93000 -0.79300 27.27100
H  25.74600 -0.57900 34.46700
H  23.36300 0.88700 34.17000
H  22.83600 -1.59900 32.94900
H  22.70200 -1.21200 34.66900
H  24.16100 -1.88400 34.12900
H  25.08100 2.34100 35.08200
H  26.76400 1.91300 34.68600
H  26.96500 0.93300 36.87700
H  25.46800 0.12100 36.66000
H  19.77500 1.72100 29.15000
H  20.53700 1.40000 30.73900
H  20.05300 0.08100 29.66700
H  19.41300 0.30900 26.76900
H  19.46300 1.19400 25.27600
H  19.73600 2.06100 26.83100
H  26.37900 0.65200 24.45000
H  28.63300 -1.14600 25.27500
H  26.96800 -1.65100 23.53300
H  25.21400 -1.34600 23.93400
H  26.13100 -2.37900 24.95500
H  29.09300 1.68200 26.05000
H  28.48800 1.67400 24.41600
H  30.39600 -0.27400 24.29000
H  30.91500 0.82000 25.67300
H  30.68400 1.41600 24.01000
H  31.92900 -1.81800 29.93600
H  32.37400 -0.45600 30.62500
H  31.93500 -0.31500 28.85200
H  28.91000 1.05400 34.05800
H  27.78100 -1.21700 37.27400
H  29.42000 -1.10800 37.94000
H  29.04200 -2.38700 36.72800
Mg 9.50200 48.07400 25.94400
C  7.37500 48.10300 28.70600
C  12.00500 49.24300 27.98900
C  11.60500 48.05100 23.33600
C  6.77200 47.47600 23.85100
N  9.72100 48.58000 28.10900
C  8.67100 48.52200 29.07400
C  9.19400 48.87800 30.40900
C  10.44800 49.77300 30.11500
C  10.75900 49.20900 28.68000
C  10.37200 51.30300 30.33000
C  9.45600 47.66500 31.40200
C  9.68200 47.94700 32.91100
H  9.34300 46.87200 33.98600
N  11.55300 48.52300 25.71600
C  12.47400 48.90000 26.70100
C  13.82200 48.92500 26.08200
C  13.69600 48.51500 24.70200
C  12.26200 48.32200 24.57700
C  15.07100 49.25900 26.91900
C  14.78200 48.19600 23.68000
O  14.56900 48.00300 22.54200
C  16.20000 48.23400 24.13900
N  9.26200 47.89200 23.90100
C  10.27400 47.93000 23.01200
C  9.91200 47.36600 21.62500
C  8.39700 47.16200 21.81000
C  8.11800 47.47900 23.29100
C  10.38400 48.14500 20.32500
C  7.72100 45.88500 21.20300
C  6.79700 46.13800 19.96500
N  7.46100 47.85000 26.22800
C  6.45900 47.62300 25.24100
C  5.18900 47.45400 25.82100
C  5.50000 47.70200 27.23100
C  6.89100 47.88100 27.40900
C  3.90800 47.23200 25.16700
C  4.97600 47.71400 28.56100
O  3.88900 47.36000 28.89100
C  6.17100 48.14000 29.55300
C  6.12300 47.07700 30.57300
O  6.53700 45.96400 30.44200
O  5.49400 47.60000 31.66900
C  5.45900 46.72700 32.78700
H  12.74600 49.69900 28.64900
H  12.28400 47.88800 22.49700
H  5.91600 47.27000 23.20400
H  8.52400 49.42600 31.07000
H  11.25400 49.56200 30.81800
H  11.13900 51.63900 31.02900
H  9.45700 51.64300 30.81500
H  10.47600 51.72000 29.32800
H  10.50600 47.42700 31.23300
H  8.90700 46.75900 31.14400
H  9.03100 48.75600 33.24300
H  10.61800 48.49400 33.02100
H  14.92700 49.49400 27.97300
H  15.48400 50.16100 26.46800
H  15.78400 48.43500 26.94600
H  16.13800 47.51100 24.95200
H  16.48800 49.27100 24.31400
H  16.95100 47.87800 23.43400
H  10.32300 46.35700 21.57800
H  7.91400 48.04700 21.39500
H  9.64300 48.93000 20.17400
H  10.28100 47.45100 19.49100
H  11.44200 48.37000 20.45600
H  7.04600 45.37000 21.88600
H  8.51200 45.20500 20.88600
H  7.18600 45.48800 19.18200
H  6.83700 47.18500 19.66300
H  5.77400 45.84500 20.20000
H  3.41000 46.45800 25.75200
H  3.92900 46.99600 24.10300
H  3.41500 48.19500 25.29700
H  6.07700 49.14100 29.97500
H  6.06700 45.82300 32.75500
H  4.42100 46.47900 33.01100
H  5.90100 47.33700 33.57500

