158

Mg -1.96900 18.12500 26.94100
C  -2.56700 16.11900 29.57900
C  -2.56600 20.86800 28.95200
C  -2.08000 20.02600 24.17200
C  -2.00900 15.24600 24.74000
N  -2.49700 18.39800 28.99800
C  -2.59000 17.44100 29.94700
C  -2.73100 18.02600 31.41000
C  -3.18600 19.50800 30.99300
C  -2.67600 19.59300 29.55700
C  -4.65400 19.82400 31.29000
C  -1.42500 17.94500 32.24200
C  -1.70900 17.25300 33.58200
H  -0.52900 17.05700 34.53800
N  -2.14000 20.17500 26.63500
C  -2.28400 21.17600 27.58500
C  -2.35600 22.45600 26.94800
C  -2.12900 22.19700 25.49200
C  -2.07300 20.76000 25.37100
C  -2.80700 23.67200 27.69900
C  -2.01200 23.30700 24.35500
O  -1.88200 22.98800 23.20900
C  -1.71100 24.67600 24.70700
N  -2.08700 17.66000 24.81700
C  -2.04600 18.65600 23.90000
C  -1.88800 18.18200 22.42400
C  -1.76300 16.62900 22.65600
C  -1.94400 16.50900 24.14000
C  -2.95100 18.70300 21.47100
C  -0.46300 16.10700 21.90700
C  0.88500 16.56000 22.44500
N  -2.16800 16.04300 27.10400
C  -2.10900 15.01400 26.15700
C  -2.19600 13.72600 26.88100
C  -2.40000 14.19900 28.24900
C  -2.41500 15.56400 28.31900
C  -2.31500 12.31700 26.28700
C  -2.65600 13.77000 29.55500
O  -2.74700 12.62100 29.95400
C  -2.57900 14.95100 30.51400
C  -1.26900 14.76900 31.30900
O  -0.18300 14.96900 30.85300
O  -1.54100 14.06000 32.46300
C  -0.38500 13.56800 33.26000
H  -2.78400 21.70100 29.62300
H  -1.87100 20.70900 23.34600
H  -1.89600 14.45100 24.00000
H  -3.57500 17.51100 31.86800
H  -2.63100 20.25200 31.56400
H  -5.03400 19.79900 30.26800
H  -4.83300 20.82500 31.68300
H  -5.17400 19.07300 31.88500
H  -1.20100 18.95600 32.58200
H  -0.62100 17.51700 31.64400
H  -2.20400 16.31600 33.32900
H  -2.42800 17.83400 34.16000
H  -3.62600 23.30300 28.31700
H  -3.21800 24.49800 27.11900
H  -2.09000 23.97200 28.46300
H  -1.47800 25.24600 23.80800
H  -0.93400 24.63900 25.47100
H  -2.54500 25.14800 25.22800
H  -0.94500 18.58500 22.05500
H  -2.58500 16.04200 22.24500
H  -2.47400 19.29100 20.68600
H  -3.71800 19.23800 22.03100
H  -3.32300 17.84800 20.90700
H  -0.58800 16.42500 20.87200
H  -0.56100 15.02300 21.95700
H  0.79100 17.32700 23.21300
H  1.43900 17.03700 21.63700
H  1.44800 15.71700 22.84600
H  -1.81900 11.65300 26.99500
H  -1.77900 12.14400 25.35400
H  -3.38900 12.21500 26.13200
H  -3.45200 15.05000 31.16100
H  -0.25100 14.02200 34.24200
H  0.51500 13.79400 32.68800
H  -0.62000 12.51200 33.38700
Mg 49.88400 45.11700 42.29100
C  46.66300 45.78600 40.98100
C  49.46000 41.83200 41.16800
C  53.27800 44.74000 42.24600
C  50.38800 48.62300 42.55100
N  48.20200 43.97600 41.33200
C  46.99200 44.43800 40.83000
C  46.24000 43.30900 40.08600
C  47.03700 42.06300 40.54300
C  48.28700 42.61700 41.11700
C  46.36000 41.21200 41.61300
C  46.30300 43.57700 38.53100
C  45.11500 43.00100 37.76600
H  44.82200 43.41700 36.36400
N  51.15300 43.52200 41.98000
C  50.79500 42.24700 41.55700
C  51.96900 41.34900 41.70400
C  53.08000 42.22600 42.06600
C  52.48900 43.58000 42.11300
C  51.77000 39.89600 41.67400
C  54.54200 41.71600 42.35200
O  54.78400 40.55900 42.19100
C  55.56000 42.60800 43.00800
N  51.61700 46.44900 42.68100
C  52.85200 46.05000 42.51700
C  53.86200 47.19800 42.55200
C  52.94800 48.47800 42.57800
C  51.54300 47.84100 42.62200
C  54.91900 47.03500 43.73400
C  53.19600 49.39300 41.32200
C  52.62800 48.92100 39.93000
N  48.78500 46.86300 41.97500
C  49.14500 48.18900 42.08700
C  47.99000 49.03000 41.66000
C  46.96600 48.15300 41.32400
C  47.52400 46.83800 41.51700
C  47.95200 50.50100 41.55100
C  45.66300 48.08500 40.73100
O  44.82200 48.94900 40.46500
C  45.49500 46.54100 40.38100
C  44.06300 46.21200 40.70600
O  43.16300 46.19200 39.86900
O  43.96900 45.78300 42.00000
C  42.58600 45.60200 42.51300
H  49.35500 40.78300 40.88300
H  54.36700 44.67500 42.20500
H  50.58800 49.69700 42.56200
H  45.20000 43.31700 40.41400
H  47.12500 41.44400 39.65000
H  45.34800 41.56300 41.81400
H  46.93300 41.20000 42.54000
H  46.39100 40.16700 41.30400
H  47.23800 43.11900 38.20800
H  46.59800 44.59600 38.27900
H  44.19300 43.08300 38.34100
H  45.16900 41.91400 37.70400
H  52.72200 39.42000 41.90700
H  51.35700 39.45900 40.76400
H  51.15600 39.76400 42.56500
H  55.03500 43.18700 43.76700
H  55.95100 43.18600 42.17100
H  56.24000 41.87100 43.43800
H  54.51800 47.24700 41.68300
H  53.09700 48.93900 43.55500
H  55.23500 46.01800 43.96400
H  54.52900 47.49100 44.64400
H  55.77000 47.59900 43.35300
H  54.27300 49.54300 41.25900
H  52.74300 50.36000 41.54000
H  51.77000 49.54600 39.68400
H  52.34300 47.87000 39.96400
H  53.34000 49.01700 39.11100
H  47.14200 50.82900 40.89900
H  48.84700 50.98600 41.16100
H  47.88900 51.04900 42.49100
H  45.60900 46.44800 39.30100
H  41.83900 45.17600 41.84300
H  42.15100 46.49900 42.95300
H  42.81900 45.03300 43.41300

