158

Mg 40.79100 9.64400 29.43000
C  42.80000 10.76600 32.18700
C  38.61300 8.23500 31.47900
C  39.16400 8.50500 26.69200
C  43.46600 10.54500 27.37900
N  40.87300 9.37200 31.64300
C  41.66900 10.01500 32.54800
C  41.01600 9.92400 33.93900
C  39.81400 8.90200 33.68600
C  39.70000 8.85300 32.15700
C  39.90400 7.52200 34.36500
C  40.48000 11.28900 34.54800
C  40.07500 11.30100 36.05800
H  40.99200 12.09300 37.07200
N  39.14700 8.51900 29.09800
C  38.27800 8.05600 30.12700
C  37.11700 7.44800 29.57900
C  37.25500 7.67600 28.20700
C  38.53000 8.21800 27.95200
C  36.05700 6.70800 30.46000
C  36.17300 7.40200 27.12900
O  36.35100 7.47200 25.86800
C  34.85100 7.08900 27.58600
N  41.31600 9.41400 27.42500
C  40.40500 9.07900 26.45400
C  41.05200 9.03300 25.04500
C  42.25700 10.03900 25.27300
C  42.41000 9.91300 26.80600
C  41.33400 7.59400 24.60100
C  42.07100 11.56100 24.80700
C  40.68200 12.21100 25.18500
N  42.62500 10.66400 29.67500
C  43.60500 10.99200 28.69500
C  44.70000 11.79800 29.33600
C  44.40700 11.61700 30.73900
C  43.19100 10.93300 30.86900
C  45.98100 12.24200 28.70800
C  44.90300 11.92400 32.09300
O  45.97100 12.47800 32.37600
C  43.81800 11.41600 33.09400
C  44.31900 10.61900 34.20900
O  44.78000 9.50800 34.06000
O  43.97400 11.22200 35.41900
C  44.26500 10.27600 36.54100
H  37.74200 7.99200 32.09000
H  38.58600 8.41600 25.77000
H  44.10300 11.02000 26.63100
H  41.78700 9.47200 34.56200
H  38.86700 9.28800 34.06100
H  39.94200 6.82100 33.53100
H  39.00200 7.27600 34.92600
H  40.77200 7.47300 35.02100
H  39.69300 11.79900 33.99200
H  41.39400 11.88000 34.48700
H  40.02000 10.29700 36.47900
H  39.10200 11.78700 35.99000
H  36.51300 6.30400 31.36400
H  35.66100 5.84500 29.92400
H  35.28500 7.41000 30.77300
H  34.63900 7.78500 28.39800
H  34.89000 6.09400 28.02800
H  34.15800 7.17200 26.74900
H  40.48100 9.51200 24.25000
H  43.18200 9.59400 24.90600
H  40.90300 6.91200 25.33300
H  42.42100 7.51400 24.59800
H  40.93900 7.30000 23.62800
H  42.45000 11.66100 23.79000
H  42.82500 12.12500 25.35600
H  40.38400 12.67800 24.24600
H  40.90800 13.01300 25.88700
H  39.95000 11.49000 25.55000
H  45.96100 13.24700 28.28600
H  46.24900 11.48000 27.97600
H  46.66900 12.12300 29.54400
H  43.43500 12.29800 33.60700
H  43.85000 10.61400 37.49000
H  45.33400 10.17300 36.72600
H  43.78000 9.32300 36.32700
Mg 49.52900 45.95300 43.20300
C  46.22500 46.82000 42.34400
C  49.04700 43.00000 41.35300
C  52.79000 45.47000 43.41200
C  50.01700 49.35200 44.08700
N  47.78500 45.06900 41.86600
C  46.57900 45.57700 41.77700
C  45.73500 44.71600 40.87300
C  46.63800 43.40400 40.65100
C  47.87300 43.80900 41.33100
C  46.07300 42.10300 41.20100
C  45.17700 45.34700 39.60700
C  43.70200 45.17000 39.24100
H  43.31800 44.90400 37.76800
N  50.73100 44.36800 42.56900
C  50.34300 43.19600 41.93000
C  51.55100 42.34500 41.69900
C  52.60300 42.99600 42.38300
C  52.10000 44.36100 42.79200
C  51.47500 41.05100 40.90600
C  53.99000 42.41800 42.74700
O  54.15700 41.22100 42.49800
C  55.01300 43.19000 43.27700
N  51.18900 47.30700 43.65200
C  52.41000 46.76800 43.85500
C  53.33400 47.92600 44.41200
C  52.33200 49.12300 44.56300
C  51.10900 48.56700 43.96400
C  54.08300 47.61600 45.73000
C  52.81300 50.51200 43.96200
C  53.36100 51.63200 44.92200
N  48.34800 47.70900 43.29500
C  48.65200 48.96500 43.75100
C  47.45900 49.75600 43.84000
C  46.47400 48.96300 43.25800
C  47.07300 47.75400 42.89700
C  47.38300 51.02600 44.50700
C  45.02600 48.86800 42.92100
O  44.11600 49.69200 43.02500
C  44.82800 47.47600 42.20800
C  43.83100 46.71900 42.96700
O  43.82200 46.56600 44.17900
O  42.93300 46.09600 42.14800
C  42.07400 45.11800 42.80200
H  48.88800 41.96500 41.04400
H  53.87600 45.35800 43.38200
H  50.17900 50.36500 44.46000
H  44.91300 44.33700 41.48000
H  46.84300 43.30600 39.58500
H  44.98500 42.10000 41.26000
H  46.43000 41.92900 42.21600
H  46.35500 41.29500 40.52600
H  45.82600 45.13900 38.75600
H  45.34000 46.42000 39.70100
H  43.07400 46.00900 39.54000
H  43.37600 44.26100 39.74800
H  52.16000 40.28100 41.26000
H  51.55800 41.33100 39.85600
H  50.47600 40.64300 41.05600
H  54.86200 43.65400 44.25100
H  55.32400 43.97700 42.59100
H  55.89300 42.55100 43.35200
H  54.08600 48.26500 43.70000
H  52.13400 49.32700 45.61500
H  53.88900 46.54600 45.81100
H  53.60100 48.13800 46.55600
H  55.14700 47.84800 45.68300
H  52.04800 50.97600 43.33900
H  53.57900 50.28800 43.22000
H  53.19400 51.22100 45.91700
H  52.74500 52.51800 44.76500
H  54.38900 51.90800 44.68600
H  48.06400 51.78400 44.11800
H  47.62200 50.96300 45.56900
H  46.37100 51.42400 44.42700
H  44.53000 47.67300 41.17800
H  41.24700 45.66400 43.25700
H  42.61900 44.45500 43.47300
H  41.50500 44.60800 42.02400

