158

Mg 2.17100 -1.43800 43.30300
C  5.52100 -1.20200 43.34900
C  1.91300 1.35300 41.49600
C  -1.13000 -2.22600 42.62400
C  2.56100 -4.79700 44.38000
N  3.51700 -0.06900 42.63900
C  4.87300 -0.13200 42.74900
C  5.64500 1.02400 42.06800
C  4.40700 1.84400 41.55100
C  3.20300 0.98100 41.92600
C  4.36100 3.33900 42.05600
C  6.56700 0.63800 40.80600
C  7.03400 1.92500 40.05600
H  6.49000 2.26900 38.66200
N  0.63300 -0.45500 42.29100
C  0.65200 0.71100 41.63200
C  -0.66900 1.16300 41.32000
C  -1.55700 0.16700 41.61400
C  -0.67000 -0.87800 42.23700
C  -1.14000 2.44300 40.63400
C  -3.05500 0.21800 41.51900
O  -3.56900 1.17600 40.94700
C  -4.03000 -0.96900 41.95600
N  0.95800 -3.31800 43.33500
C  -0.43800 -3.27300 43.17700
C  -1.10300 -4.62300 43.54600
C  0.11900 -5.45100 44.01100
C  1.31300 -4.48300 43.84200
C  -2.23700 -4.46800 44.54600
C  0.35500 -6.73800 43.11900
C  -0.78200 -7.86900 42.99300
N  3.68900 -2.66100 44.06400
C  3.69400 -3.98700 44.47100
C  5.04600 -4.43900 44.74900
C  5.77900 -3.30700 44.46100
C  4.91000 -2.31200 43.93500
C  5.49000 -5.77300 45.12400
C  7.09900 -2.82300 44.37000
O  8.19500 -3.34300 44.63800
C  6.98400 -1.42300 43.58800
C  7.43700 -0.34200 44.46200
O  6.93100 0.04400 45.50200
O  8.47000 0.26100 43.80000
C  8.88300 1.57700 44.29500
H  1.91000 2.31000 40.97000
H  -2.19800 -2.41800 42.50300
H  2.56100 -5.81900 44.76400
H  6.24000 1.46400 42.86900
H  4.31500 1.94800 40.47000
H  3.42600 3.50600 42.59200
H  4.41800 3.97600 41.17300
H  5.26200 3.43800 42.66000
H  5.86600 0.09900 40.16800
H  7.43200 0.03700 41.08300
H  8.09600 1.79200 39.85000
H  6.88200 2.86800 40.58000
H  -0.22100 2.97300 40.38300
H  -1.77700 3.02600 41.29900
H  -1.60800 2.05900 39.72700
H  -5.08500 -0.74100 42.10700
H  -3.68900 -1.24800 42.95300
H  -3.92500 -1.82200 41.28500
H  -1.37600 -5.05100 42.58100
H  0.16600 -5.70500 45.07000
H  -3.16900 -4.85400 44.13300
H  -2.37600 -3.39400 44.66700
H  -2.10900 -4.90300 45.53800
H  1.27300 -7.22800 43.44300
H  0.41700 -6.20400 42.17100
H  -1.32600 -7.91300 42.04900
H  -1.64000 -7.76800 43.65800
H  -0.38000 -8.81800 43.34700
H  6.01800 -6.16800 44.25600
H  4.60200 -6.33200 45.41800
H  6.14000 -5.53100 45.96400
H  7.67000 -1.57600 42.75500
H  8.06900 2.30300 44.31500
H  9.55600 2.05500 43.58300
H  9.34300 1.54900 45.28300
Mg 47.55800 33.78500 25.87100
C  45.67700 32.38900 28.69400
C  48.30800 36.32900 27.93000
C  48.87900 35.21600 23.27100
C  46.58300 30.95600 24.07500
N  46.99400 34.25700 28.07900
C  46.31700 33.58800 29.03500
C  46.53500 34.21600 30.39800
C  47.12100 35.56100 30.00100
C  47.55300 35.35000 28.57800
C  46.21800 36.91900 30.20200
C  47.60000 33.39900 31.25000
C  47.59000 33.57100 32.79300
H  46.77800 34.67400 33.49500
N  48.54300 35.55600 25.61200
C  48.74800 36.42800 26.62500
C  49.44000 37.58500 26.07900
C  49.61400 37.35900 24.65300
C  48.98500 36.03500 24.45400
C  50.04400 38.72700 26.86700
C  50.36700 38.16000 23.57900
O  50.32200 37.81800 22.38800
C  50.96500 39.52200 23.96300
N  47.44300 33.36100 23.86400
C  48.19600 34.04600 22.97700
C  48.33200 33.33700 21.67500
C  47.80200 31.86600 22.00800
C  47.25000 32.04800 23.37400
C  47.44800 33.96400 20.52500
C  48.99300 30.84800 21.98700
C  49.34700 30.13900 20.72100
N  46.28500 32.13800 26.20600
C  46.02900 31.04500 25.37500
C  45.33400 30.01000 26.09300
C  45.08200 30.49400 27.34700
C  45.74700 31.79300 27.36900
C  45.12100 28.63600 25.56600
C  44.49400 30.23400 28.68100
O  43.93500 29.27100 29.14900
C  44.70900 31.52300 29.54600
C  45.05600 31.24600 30.96500
O  45.88200 30.47000 31.37400
O  44.14000 31.92500 31.73600
C  44.05400 31.55200 33.21300
H  48.75700 36.98200 28.68200
H  49.37200 35.59900 22.37500
H  46.68900 30.00800 23.54300
H  45.56500 34.30000 30.88900
H  48.02600 35.84100 30.54000
H  46.81800 37.76800 30.53100
H  45.46200 36.79500 30.97700
H  45.81500 37.14500 29.21400
H  48.59500 33.73400 30.95800
H  47.50600 32.33000 31.05800
H  48.64800 33.71600 33.01400
H  47.28500 32.62600 33.24200
H  51.10300 38.78000 26.61400
H  50.03400 38.56800 27.94500
H  49.48500 39.65100 26.71800
H  50.24100 40.11700 24.52000
H  51.26100 40.00600 23.03100
H  51.89200 39.41500 24.52600
H  49.35600 33.46100 21.32200
H  47.03200 31.64400 21.26800
H  48.07700 34.22500 19.67400
H  46.84800 34.81900 20.83600
H  46.60500 33.38100 20.15500
H  48.65200 30.04200 22.63600
H  49.94200 31.13000 22.44400
H  49.37600 29.05100 20.76500
H  50.30000 30.53100 20.36700
H  48.51400 30.37900 20.06000
H  46.00500 28.21800 25.08300
H  44.31500 28.65800 24.83300
H  44.83700 28.02800 26.42500
H  43.90100 32.25400 29.50600
H  44.63300 30.71600 33.60500
H  43.00900 31.34400 33.44400
H  44.42800 32.51400 33.56500

