158

Mg 53.56500 24.85800 44.33200
C  51.15400 27.26300 43.40900
C  51.37900 22.53100 43.02900
C  56.12800 22.73900 44.03400
C  55.78400 27.47600 45.11300
N  51.60400 24.93700 43.12400
C  50.74100 25.99000 43.03800
C  49.39300 25.61000 42.43300
C  49.31300 24.04000 42.61700
C  50.83800 23.80500 42.86400
C  48.32700 23.49400 43.65600
C  49.35400 26.08600 40.98900
C  47.91100 26.09300 40.48600
H  47.77200 25.17000 39.25500
N  53.71400 22.84600 43.80000
C  52.70600 22.05900 43.29600
C  53.21200 20.73200 43.02300
C  54.60800 20.65200 43.41300
C  54.87600 22.12000 43.75600
C  52.32800 19.58200 42.54100
C  55.50500 19.50000 43.31300
O  55.16900 18.44800 42.84400
C  56.87300 19.58600 43.93300
N  55.65700 25.17200 44.37500
C  56.48700 24.11300 44.30700
C  57.94300 24.47500 44.63100
C  57.89300 25.99000 44.76700
C  56.40100 26.25200 44.90400
C  58.47200 23.66100 45.84900
C  58.56900 26.75700 43.56200
C  60.04400 27.27600 43.65300
N  53.49100 26.91800 44.46900
C  54.40700 27.80900 44.89100
C  53.74600 29.10900 45.10200
C  52.50500 28.95900 44.47900
C  52.33600 27.60400 44.09100
C  54.30100 30.32000 45.74900
C  51.27900 29.68000 44.15000
O  50.92500 30.82200 44.41300
C  50.41600 28.65400 43.38700
C  50.22700 29.27400 42.03100
O  51.14200 29.60400 41.27400
O  48.91300 29.43000 41.76300
C  48.49600 29.84800 40.46800
H  50.68700 21.82400 42.56600
H  57.01300 22.10000 43.99700
H  56.36900 28.27400 45.57500
H  48.59800 26.08700 43.00600
H  48.98300 23.55900 41.69600
H  47.50200 22.88000 43.29500
H  47.99200 24.39500 44.17000
H  48.96400 23.01800 44.40100
H  49.88400 25.30400 40.44500
H  49.84200 27.02200 40.71900
H  47.57300 27.07000 40.13900
H  47.16200 25.79800 41.22000
H  52.34200 19.42300 41.46200
H  51.29800 19.77600 42.84100
H  52.64300 18.62100 42.94700
H  57.62000 19.95700 43.23100
H  57.13900 18.53600 44.05900
H  56.76500 20.07000 44.90300
H  58.60400 24.20800 43.80700
H  58.33500 26.39900 45.67500
H  58.96000 22.74200 45.52300
H  57.68900 23.34700 46.53900
H  59.19700 24.28500 46.37200
H  57.87400 27.54100 43.26300
H  58.55300 26.03600 42.74400
H  60.30900 27.29600 44.71000
H  60.02300 28.23900 43.14300
H  60.67700 26.71000 42.97100
H  54.24000 31.11600 45.00700
H  55.26500 30.10800 46.21200
H  53.53400 30.48000 46.50600
H  49.47400 28.51300 43.91800
H  49.17400 29.49200 39.69200
H  48.47800 30.93700 40.45900
H  47.50900 29.61200 40.07000
Mg 6.27300 54.43700 40.21100
C  5.44800 51.00600 39.94200
C  9.42200 53.68300 39.11000
C  7.00400 57.72200 39.75100
C  2.89200 55.14400 40.74800
N  7.32700 52.56200 39.39300
C  6.85600 51.26300 39.45400
C  7.77800 50.28400 38.75200
C  9.11800 51.04600 38.94500
C  8.62100 52.52900 39.12500
C  10.01500 50.70200 40.08900
C  7.30400 50.09500 37.23400
C  7.56200 48.71400 36.57000
H  6.51600 48.10500 35.67000
N  8.05600 55.53800 39.68100
C  9.30500 55.01800 39.40400
C  10.29900 56.10400 39.36800
C  9.58500 57.31800 39.52400
C  8.13800 56.86600 39.61600
C  11.81000 55.90100 39.25100
C  10.20200 58.76200 39.45600
O  11.42900 58.92500 39.28900
C  9.42200 60.00500 39.86300
N  5.07000 56.14100 40.20000
C  5.63900 57.40200 40.05200
C  4.54100 58.48500 40.23900
C  3.24000 57.63700 40.44600
C  3.70400 56.21300 40.50000
C  4.83000 59.60500 41.32300
C  2.10200 57.81500 39.30500
C  0.71600 57.93200 39.89800
N  4.57500 53.38700 40.37800
C  3.28800 53.73100 40.75500
C  2.46200 52.56000 40.99300
C  3.24100 51.45800 40.73000
C  4.51700 52.02800 40.37200
C  1.02900 52.64900 41.32300
C  3.26100 50.06100 40.58300
O  2.32400 49.24700 40.63800
C  4.76800 49.66200 40.14500
C  4.66200 48.70700 39.03600
O  4.16600 48.83100 37.91600
O  5.02400 47.47500 39.57800
C  4.85200 46.24000 38.80900
H  10.46200 53.47800 38.84600
H  7.21700 58.79300 39.77300
H  1.82200 55.28200 40.91700
H  7.84100 49.34100 39.29500
H  9.69200 50.92700 38.02600
H  9.49200 50.25000 40.93200
H  10.48600 51.61000 40.46500
H  10.84800 50.09600 39.73300
H  7.88700 50.69900 36.54000
H  6.31000 50.44900 36.96200
H  7.78000 48.04700 37.40400
H  8.52800 48.90200 36.10200
H  12.01800 54.98900 38.69200
H  12.31500 55.67500 40.19000
H  12.35600 56.73900 38.81900
H  8.63600 60.41900 39.23100
H  10.15700 60.80600 39.93200
H  9.11800 59.86100 40.90000
H  4.52500 59.00600 39.28100
H  2.78900 57.84000 41.41700
H  4.08200 59.63200 42.11500
H  4.86400 60.54800 40.77800
H  5.84000 59.41800 41.68700
H  2.15700 56.96400 38.62700
H  2.30100 58.65500 38.63900
H  0.07800 57.19200 39.41400
H  0.36700 58.96000 39.99300
H  0.81000 57.65300 40.94700
H  0.57500 53.03700 40.41100
H  0.78700 53.20700 42.22800
H  0.58500 51.67000 41.50500
H  5.08600 49.04200 40.98300
H  3.89200 45.74600 38.95800
H  5.65300 45.50800 38.92200
H  4.83300 46.47300 37.74400

