158

Mg 44.17300 4.47900 48.17800
C  42.02500 7.14500 47.71600
C  41.65800 2.36200 47.62400
C  46.50400 2.08800 47.73600
C  46.87300 6.91800 48.00800
N  42.09500 4.77200 47.76700
C  41.44000 5.90800 47.67000
C  40.02600 5.65100 47.29400
C  39.87300 4.16500 47.59100
C  41.31400 3.69100 47.70300
C  39.23400 3.86100 49.01500
C  39.65300 6.00300 45.78400
C  38.30900 6.69500 45.53000
H  37.71200 6.71100 44.11200
N  44.08300 2.48100 47.75600
C  42.93500 1.73900 47.45400
C  43.29300 0.35200 47.22500
C  44.72900 0.28500 47.29700
C  45.19300 1.65500 47.57900
C  42.32800 -0.69500 46.96100
C  45.44800 -0.98200 47.11700
O  44.83000 -1.96200 46.61900
C  46.89000 -1.14300 47.19800
N  46.33500 4.48600 47.87800
C  47.03900 3.33600 47.79000
C  48.57200 3.50000 47.86100
C  48.72500 5.07400 47.96000
C  47.20000 5.55500 47.96500
C  49.41400 2.66700 48.79700
C  49.48900 5.82300 46.83400
C  50.81900 6.50900 47.16800
N  44.45600 6.61900 48.10800
C  45.56300 7.47200 47.97900
C  45.14600 8.86300 47.83100
C  43.74700 8.73400 47.80900
C  43.37700 7.42800 47.91400
C  45.97000 10.08900 47.67100
C  42.57800 9.52300 47.54000
O  42.34800 10.77200 47.35700
C  41.40900 8.48200 47.64600
C  40.50600 8.76300 48.79400
O  40.84800 8.92500 49.93100
O  39.20400 8.68700 48.38100
C  38.13900 8.77500 49.42200
H  40.83500 1.65100 47.72600
H  47.23900 1.28500 47.82700
H  47.83100 7.43400 48.10600
H  39.33100 6.28200 47.84900
H  39.34900 3.57800 46.83700
H  38.87200 4.77000 49.49400
H  40.09600 3.49400 49.57200
H  38.49000 3.06400 48.98500
H  39.73900 5.09900 45.18100
H  40.37100 6.70400 45.35900
H  38.30000 7.73800 45.84800
H  37.56000 6.18700 46.13600
H  42.45200 -1.26000 46.03700
H  41.28000 -0.39900 47.00700
H  42.44000 -1.45000 47.73900
H  47.12300 -0.80100 48.20700
H  47.35800 -0.54500 46.41600
H  47.14100 -2.19800 47.08400
H  48.92700 3.22300 46.86800
H  49.03500 5.25900 48.98900
H  50.10300 3.30500 49.35100
H  50.04100 2.08400 48.12300
H  48.87100 1.97200 49.43800
H  48.82800 6.64600 46.56100
H  49.58300 5.16300 45.97200
H  50.78400 6.73100 48.23500
H  51.03200 7.43000 46.62500
H  51.60100 5.77800 46.96500
H  46.25500 10.25000 48.71100
H  45.40000 10.94700 47.31300
H  46.76400 9.80000 46.98300
H  40.77000 8.64100 46.77700
H  38.18700 9.75100 49.90700
H  38.19900 8.01200 50.19800
H  37.16500 8.65200 48.95000
Mg 6.68400 53.95400 42.39200
C  6.43300 50.27000 41.98700
C  9.57100 53.88700 40.86200
C  6.38500 57.20300 42.05100
C  3.19000 53.72400 43.45300
N  7.79900 52.22900 41.32700
C  7.55500 50.91100 41.38600
C  8.89800 50.18700 41.08900
C  10.05500 51.32600 40.98200
C  9.13000 52.58300 41.13400
C  11.08900 51.47600 42.16200
C  8.88600 49.25100 39.84800
C  8.07500 49.77300 38.66400
H  8.80700 49.94600 37.32100
N  7.90000 55.35600 41.58100
C  9.01700 55.14900 41.02900
C  9.64500 56.40000 40.77200
C  8.77700 57.42500 41.14500
C  7.62900 56.73500 41.60600
C  11.11900 56.56300 40.56000
C  9.05900 58.87200 41.09900
O  10.08400 59.34400 40.69500
C  8.09400 59.83000 41.69400
N  5.02100 55.22900 42.76800
C  5.23500 56.55700 42.49800
C  4.06400 57.39200 43.06200
C  2.89800 56.28100 43.17900
C  3.75100 55.01400 43.15900
C  4.44100 58.12600 44.38000
C  1.71200 56.35200 42.05400
C  0.35000 56.12100 42.63500
N  5.12200 52.33100 42.72300
C  3.85100 52.40500 43.25700
C  3.35200 51.06500 43.53300
C  4.34500 50.19100 43.11500
C  5.40200 51.00700 42.59400
C  1.96800 50.67700 43.94400
C  4.70200 48.82600 42.84600
O  4.21600 47.78200 43.15700
C  6.11500 48.80600 42.08900
C  5.95200 48.14600 40.76500
O  5.21200 48.40400 39.86500
O  6.52100 46.87600 40.94400
C  6.13300 45.86100 39.95400
H  10.62700 53.86400 40.58300
H  6.25600 58.27800 41.90800
H  2.14200 53.78200 43.75600
H  8.98400 49.63300 42.02400
H  10.56700 51.25900 40.02200
H  11.05300 52.42800 42.69000
H  12.10200 51.24500 41.83400
H  10.96000 50.67200 42.88700
H  8.63700 48.23100 40.13800
H  9.86400 49.21100 39.36900
H  7.55100 50.68200 38.95900
H  7.30000 49.06900 38.36200
H  11.33600 56.95900 39.56800
H  11.58800 55.57900 40.53500
H  11.62200 57.12900 41.34300
H  8.53000 60.82700 41.75300
H  7.78400 59.50700 42.68700
H  7.15500 59.76800 41.14400
H  3.75900 58.20300 42.40000
H  2.43200 56.37400 44.16000
H  4.35100 57.35900 45.15000
H  3.80600 58.95000 44.70400
H  5.49900 58.37100 44.47800
H  1.94300 55.71900 41.19700
H  1.72100 57.33800 41.59000
H  0.22000 56.16800 43.71600
H  0.15900 55.06700 42.43500
H  -0.36200 56.74600 42.09600
H  1.27700 50.77500 43.10700
H  1.67700 51.06600 44.92000
H  2.05800 49.63500 44.24900
H  6.80600 48.30900 42.77000
H  5.06000 45.96700 39.79200
H  6.26400 44.85100 40.34300
H  6.64300 45.86700 38.99100

