158

Mg 17.39000 -0.96200 27.81000
C  16.77400 1.13300 30.64100
C  19.40900 -2.96200 29.83700
C  18.39000 -2.62300 25.09500
C  15.73800 1.46800 25.76900
N  17.89600 -0.96500 29.93600
C  17.54500 -0.06500 30.94100
C  18.06800 -0.35400 32.33000
C  19.12000 -1.53300 31.96600
C  18.81600 -1.84500 30.44900
C  20.66400 -1.16900 32.11900
C  16.94500 -0.63400 33.31500
C  17.10700 -0.12400 34.76700
H  18.49500 0.20200 35.24200
N  18.63700 -2.67200 27.55100
C  19.34300 -3.38600 28.44000
C  19.94400 -4.61500 27.89400
C  19.61600 -4.48600 26.50000
C  18.85800 -3.22700 26.29800
C  20.60100 -5.65400 28.69400
C  19.96100 -5.49300 25.43400
O  19.74400 -5.28400 24.26100
C  20.67500 -6.75900 25.64900
N  17.23800 -0.50900 25.66300
C  17.64700 -1.49900 24.77000
C  17.34000 -1.03700 23.31300
C  16.37300 0.20200 23.63700
C  16.43200 0.39600 25.10400
C  18.53700 -0.62600 22.43500
C  14.97800 0.07400 23.02800
C  13.88900 -0.93600 23.44100
N  16.33900 0.87200 28.12100
C  15.73000 1.72800 27.17900
C  15.05800 2.75500 28.01700
C  15.53000 2.60000 29.31200
C  16.26400 1.40400 29.31400
C  14.21700 3.95400 27.45700
C  15.42600 3.19300 30.66100
O  14.84200 4.17100 31.09200
C  16.11200 2.18100 31.60200
C  17.02300 2.88400 32.55400
O  18.10400 3.39600 32.40400
O  16.24600 3.09500 33.70400
C  16.79300 4.32500 34.39800
H  19.93600 -3.59600 30.55400
H  18.73300 -3.09100 24.17000
H  15.01300 1.94600 25.10700
H  18.69700 0.46700 32.67400
H  18.86500 -2.40900 32.56200
H  21.20300 -2.03600 32.50000
H  20.70000 -0.38300 32.87400
H  21.06100 -0.93100 31.13200
H  16.85100 -1.72000 33.33400
H  15.95400 -0.32400 32.98200
H  16.74600 -0.92400 35.41300
H  16.46800 0.75800 34.80900
H  21.61000 -5.34700 28.96800
H  20.55300 -6.70000 28.39100
H  20.03400 -5.66700 29.62400
H  21.65700 -6.66300 26.11100
H  20.76600 -7.27000 24.69000
H  20.14600 -7.41600 26.33900
H  16.77200 -1.74200 22.70600
H  16.92100 1.04800 23.22100
H  18.51400 -1.16000 21.48500
H  19.42700 -0.94800 22.97400
H  18.63100 0.45800 22.37000
H  15.22300 -0.14200 21.98800
H  14.44300 1.02100 23.09600
H  12.92200 -0.43600 23.39500
H  14.10300 -1.35600 24.42400
H  13.91500 -1.69300 22.65700
H  14.39200 4.17400 26.40400
H  14.52500 4.81600 28.04900
H  13.15700 3.75300 27.61300
H  15.31400 1.71700 32.18200
H  17.67900 3.90200 34.87200
H  16.09400 4.58600 35.19300
H  17.07600 5.16200 33.76100
Mg 45.30500 3.92000 47.45700
C  43.15300 6.43200 46.74500
C  42.73800 1.72400 47.25900
C  47.58500 1.48000 47.61100
C  47.99500 6.25000 47.40400
N  43.22600 4.06600 47.09100
C  42.54300 5.20000 46.73800
C  41.01300 4.91700 46.71000
C  40.90800 3.45200 46.98700
C  42.40500 3.05000 47.11400
C  40.00400 2.99900 48.14100
C  40.33600 5.31900 45.33900
C  39.25700 6.43000 45.42700
H  39.27700 7.53300 44.29200
N  45.17700 1.84400 47.41000
C  44.03600 1.10100 47.30500
C  44.31900 -0.30600 47.29100
C  45.71000 -0.41800 47.45200
C  46.21400 1.00100 47.47200
C  43.28000 -1.47400 47.18400
C  46.40700 -1.68200 47.61100
O  45.84400 -2.76100 47.55800
C  47.78900 -1.74300 48.02000
N  47.51300 3.86100 47.57200
C  48.17900 2.73100 47.71400
C  49.69800 2.89100 47.43000
C  49.84200 4.42100 47.58500
C  48.40500 4.90000 47.40600
C  50.67700 2.13200 48.44800
C  50.89800 5.07500 46.67000
C  51.72100 6.22400 47.21600
N  45.57000 5.98800 47.09400
C  46.68700 6.75500 47.25300
C  46.25800 8.17100 47.09700
C  44.86300 8.07700 46.97400
C  44.52600 6.78200 46.97700
C  47.14800 9.47900 47.05100
C  43.60400 8.81600 46.84000
O  43.43400 10.02800 46.85200
C  42.45900 7.75500 46.72200
C  41.48800 7.97200 47.83100
O  41.45300 7.40300 48.92300
O  40.66700 8.96700 47.55000
C  39.74300 9.62700 48.44300
H  41.92100 1.03700 47.02700
H  48.31800 0.67300 47.56000
H  48.88000 6.88500 47.33000
H  40.41100 5.37200 47.49600
H  40.71900 2.88300 46.07600
H  39.19700 3.71000 48.31900
H  40.66100 2.92800 49.00800
H  39.53000 2.05700 47.86500
H  39.89000 4.51400 44.75500
H  41.15400 5.71700 44.73900
H  39.29100 6.93300 46.39300
H  38.32600 5.86700 45.36300
H  43.61400 -2.11000 46.36400
H  42.28900 -1.06300 46.99400
H  43.24400 -2.05300 48.10600
H  48.06800 -2.74800 48.33400
H  48.08400 -1.10500 48.85400
H  48.42100 -1.57700 47.14800
H  49.85300 2.63900 46.38100
H  49.92400 4.74500 48.62300
H  51.54600 2.70700 48.76800
H  50.98600 1.17100 48.03800
H  50.01200 2.03900 49.30600
H  50.35300 5.59700 45.88300
H  51.56600 4.35200 46.20200
H  51.39300 7.19100 46.83500
H  52.74700 6.00200 46.92300
H  51.70700 6.25800 48.30600
H  46.93000 9.98600 46.11100
H  48.21500 9.28200 47.14800
H  46.81300 10.15700 47.83600
H  41.86200 7.74700 45.80900
H  39.67300 10.70100 48.27100
H  40.08700 9.39500 49.45100
H  38.73000 9.27400 48.24900

