158

Mg 49.71800 45.37700 43.16400
C  46.46900 45.97600 41.96000
C  49.72100 42.38200 41.37800
C  53.08600 45.17500 43.64200
C  49.80800 48.78300 44.16200
N  48.29000 44.42500 41.74900
C  47.02200 44.77300 41.54400
C  46.42700 43.90500 40.48200
C  47.18300 42.56100 40.71400
C  48.49200 43.12500 41.29400
C  46.42900 41.54100 41.58300
C  46.63900 44.61300 39.08000
C  45.38400 45.04100 38.22700
H  45.17100 44.19200 36.99100
N  51.20100 43.92300 42.67600
C  50.94700 42.73500 41.97800
C  52.19900 41.96800 41.85600
C  53.13800 42.74500 42.54600
C  52.54100 44.03200 42.93700
C  52.37100 40.73200 41.13500
C  54.48600 42.28100 42.84500
O  54.81600 41.10900 42.57500
C  55.53100 43.07600 43.64500
N  51.27000 46.75600 43.89200
C  52.55500 46.41200 44.06700
C  53.43600 47.64800 44.46900
C  52.31900 48.64700 44.80800
C  51.05800 48.05900 44.19100
C  54.43400 47.40000 45.68100
C  52.57000 50.07700 44.23700
C  52.29500 51.28400 45.09400
N  48.35500 47.07300 43.21800
C  48.54300 48.38800 43.67600
C  47.35600 49.12000 43.42400
C  46.47700 48.23300 42.81300
C  47.16900 46.99500 42.66000
C  47.35700 50.57700 43.70600
C  45.10500 48.10500 42.30400
O  44.19200 48.88700 42.21900
C  45.12200 46.65600 41.58500
C  43.87400 45.98700 42.12300
O  43.84100 45.30900 43.17900
O  42.77800 46.08700 41.25900
C  41.49900 45.43600 41.56200
H  49.68200 41.42300 40.85600
H  54.11700 45.15700 44.00200
H  49.80400 49.84300 44.42500
H  45.37000 43.76800 40.70700
H  47.51500 42.06800 39.80000
H  46.25500 40.62900 41.01200
H  45.47700 41.84700 42.01700
H  47.10100 41.25900 42.39300
H  47.32400 43.98500 38.50900
H  47.12600 45.58600 39.14100
H  45.42400 46.06600 37.85900
H  44.52800 44.87200 38.88100
H  52.15300 39.94800 41.86000
H  53.37900 40.59800 40.74200
H  51.63400 40.52200 40.36000
H  56.45200 42.49500 43.68800
H  55.03500 43.12200 44.61400
H  55.78500 44.04200 43.20900
H  54.00400 47.96100 43.59200
H  52.11400 48.71300 45.87700
H  55.36000 47.97100 45.75400
H  54.62300 46.33000 45.76300
H  54.03800 47.62000 46.67200
H  51.92000 50.16500 43.36600
H  53.58200 50.16300 43.84200
H  51.44200 51.87500 44.76000
H  53.08000 52.03700 45.16200
H  52.00000 51.04900 46.11700
H  47.62000 50.81700 44.73700
H  46.36500 50.90500 43.39500
H  48.01500 51.03400 42.96700
H  44.98100 46.82900 40.51800
H  40.82400 46.20500 41.93800
H  41.49100 44.66100 42.32800
H  41.06700 44.98100 40.67000
Mg -12.64400 17.00100 42.32200
C  -9.72700 15.14200 41.83600
C  -10.95800 19.62900 40.98900
C  -15.65900 18.62700 41.88600
C  -14.27700 13.99400 43.08300
N  -10.60400 17.22700 41.26400
C  -9.60600 16.36800 41.26400
C  -8.28900 17.06000 40.71800
C  -8.62300 18.60700 40.80400
C  -10.11900 18.49300 40.99800
C  -7.88000 19.42300 41.85400
C  -7.85800 16.54500 39.32700
C  -6.47900 15.86900 39.41400
H  -6.02500 14.82200 38.40200
N  -13.23900 18.87100 41.75500
C  -12.32300 19.83000 41.26000
C  -13.07900 20.98200 40.97700
C  -14.47600 20.72300 41.15500
C  -14.53500 19.37000 41.64500
C  -12.41300 22.25500 40.41900
C  -15.55900 21.72800 40.76900
O  -15.32300 22.83700 40.44600
C  -17.03400 21.43100 41.01700
N  -14.71400 16.38500 42.25200
C  -15.73100 17.23500 42.21300
C  -17.01900 16.51500 42.59800
C  -16.53700 15.13700 43.12400
C  -15.05800 15.12900 42.81400
C  -17.95000 17.34300 43.50000
C  -17.32800 13.86500 42.60800
C  -17.91100 12.80800 43.65900
N  -12.18000 14.96600 42.46400
C  -12.84500 13.84500 42.91300
C  -12.03500 12.72400 43.13500
C  -10.78400 13.14400 42.72600
C  -10.89700 14.51500 42.30400
C  -12.50600 11.41000 43.61500
C  -9.48800 12.71500 42.57900
O  -9.03200 11.60300 42.79600
C  -8.63900 14.03100 41.99600
C  -7.60400 14.40800 42.99500
O  -7.85700 14.70600 44.18700
O  -6.37500 14.23800 42.49000
C  -5.28700 14.66300 43.41400
H  -10.48700 20.51100 40.54900
H  -16.64200 19.10100 41.91000
H  -14.86300 13.16600 43.48700
H  -7.43500 16.87200 41.36900
H  -8.31500 19.06400 39.86400
H  -7.27300 18.75600 42.46600
H  -8.50500 19.96100 42.56700
H  -7.23100 20.16400 41.38800
H  -7.83300 17.31300 38.55400
H  -8.68000 15.91600 38.98400
H  -6.26200 15.37900 40.36300
H  -5.83800 16.74900 39.36800
H  -13.05100 23.12900 40.54600
H  -11.90600 22.16900 39.45800
H  -11.55000 22.34100 41.07800
H  -17.17200 21.30600 42.09100
H  -17.23400 20.50000 40.48600
H  -17.72800 22.17900 40.63200
H  -17.64300 16.22200 41.75500
H  -16.49000 14.97900 44.20200
H  -17.41200 18.19300 43.92000
H  -18.41700 16.70200 44.24700
H  -18.65500 17.81500 42.81500
H  -16.60800 13.34300 41.97800
H  -18.11100 14.17600 41.91800
H  -17.91700 13.13100 44.70000
H  -17.28900 11.94300 43.43100
H  -18.92800 12.54600 43.36600
H  -13.18400 11.57700 44.45200
H  -11.56100 10.97700 43.94300
H  -12.95200 10.84000 42.79900
H  -8.21100 13.84600 41.01100
H  -4.35100 14.14100 43.21400
H  -5.44400 14.37500 44.45300
H  -5.18600 15.74800 43.42100

