158

Mg 25.23400 -0.42000 29.15700
C  27.30400 -0.40700 32.17100
C  22.53700 -0.33700 31.05800
C  23.70100 -0.72800 26.28400
C  28.48900 -1.10200 27.53200
N  25.00100 -0.36100 31.34700
C  25.90100 -0.26200 32.36800
C  25.19000 -0.05300 33.74600
C  23.69200 -0.39300 33.36500
C  23.73100 -0.41700 31.82800
C  22.88300 -1.54200 34.16500
C  25.49400 1.29200 34.47100
C  26.22300 1.24000 35.84300
H  25.86000 2.22100 36.95800
N  23.37800 -0.31700 28.67700
C  22.35000 -0.38900 29.62500
C  21.09100 -0.37500 28.84100
C  21.38800 -0.34300 27.40900
C  22.86700 -0.42100 27.39100
C  19.73900 -0.28100 29.58100
C  20.37100 -0.20800 26.17500
O  20.78200 -0.20900 25.05800
C  18.87700 -0.25700 26.47700
N  26.03500 -0.87800 27.20200
C  25.10200 -0.87400 26.14400
C  25.76300 -0.84100 24.78400
C  27.27900 -0.94600 25.21200
C  27.31500 -0.94100 26.73600
C  25.29500 -1.92500 23.77900
C  27.97200 0.36300 24.70700
C  27.73700 1.74400 25.47000
N  27.43300 -0.68000 29.72400
C  28.56300 -0.89500 28.92900
C  29.77500 -0.90800 29.76900
C  29.27400 -0.74400 31.01500
C  27.95100 -0.55300 30.94300
C  31.16800 -1.03400 29.26200
C  29.70800 -0.66100 32.44800
O  30.80200 -0.95000 32.95200
C  28.35200 -0.44000 33.26500
C  28.15600 -1.66100 34.16900
O  27.89300 -2.79100 33.80200
O  28.35800 -1.22200 35.47100
C  28.40500 -2.18400 36.57400
H  21.63100 -0.36300 31.66700
H  23.03400 -0.85700 25.42900
H  29.36800 -1.36000 26.93800
H  25.55100 -0.86000 34.38400
H  23.19100 0.56100 33.52900
H  22.27300 -2.19500 33.54000
H  22.11700 -1.08400 34.79000
H  23.61700 -2.05100 34.79000
H  24.50100 1.73100 34.56700
H  26.13500 1.90000 33.83300
H  27.20700 1.57700 35.51700
H  26.26800 0.24600 36.28700
H  19.36100 0.73300 29.45300
H  19.88300 -0.48800 30.64200
H  19.10700 -1.08100 29.19600
H  18.65400 -1.24500 26.88100
H  18.46200 -0.07200 25.48600
H  18.56300 0.57000 27.11400
H  25.48600 0.13100 24.37600
H  27.78400 -1.81800 24.79800
H  25.94000 -2.74500 23.46400
H  24.98400 -1.49000 22.82900
H  24.41500 -2.45500 24.14400
H  27.62900 0.55900 23.69100
H  29.05300 0.22900 24.66800
H  27.56400 1.53900 26.52600
H  26.93900 2.31000 24.98800
H  28.68100 2.27400 25.59700
H  31.19100 -2.02900 28.81700
H  31.83700 -0.82800 30.09700
H  31.44700 -0.29500 28.51100
H  28.41200 0.52700 33.76500
H  29.27800 -1.89400 37.15900
H  28.47000 -3.18500 36.14700
H  27.51800 -2.09700 37.20100
Mg 9.09500 47.29900 27.71400
C  7.37900 46.83500 30.71500
C  11.92800 47.87000 29.58200
C  10.70000 48.07500 24.86000
C  6.02900 47.68200 26.05500
N  9.56300 47.43200 29.84500
C  8.69200 47.13400 30.87700
C  9.34500 47.43800 32.24600
C  10.73500 47.92300 31.88700
C  10.77200 47.75200 30.36900
C  10.99100 49.40600 32.42300
C  9.40800 46.18800 33.22100
C  9.18800 46.49300 34.70400
H  9.67700 45.39700 35.64600
N  11.08300 47.65800 27.29500
C  12.15000 47.78500 28.16100
C  13.34200 48.02100 27.39300
C  12.99700 47.95000 26.02100
C  11.50800 47.89400 25.99000
C  14.62200 48.26100 27.96800
C  13.83500 47.80200 24.77900
O  13.36300 47.80500 23.65200
C  15.30700 47.64900 24.94900
N  8.44500 47.86800 25.74300
C  9.34300 48.08300 24.75600
C  8.69900 48.53200 23.41500
C  7.15600 48.29300 23.76800
C  7.17300 47.87200 25.23400
C  8.95900 49.99900 23.11300
C  6.54200 47.28400 22.78600
C  6.63000 47.57000 21.26000
N  7.07600 47.18300 28.22500
C  5.95100 47.35200 27.44700
C  4.72200 47.09700 28.30900
C  5.23900 46.91000 29.59300
C  6.69900 46.90700 29.49800
C  3.30300 47.10600 27.89600
C  4.92500 46.63800 30.95900
O  3.81300 46.50200 31.42700
C  6.28600 46.63600 31.76200
C  6.34300 45.28800 32.33700
O  6.76300 44.24900 31.82000
O  5.97600 45.45200 33.66300
C  6.33300 44.25000 34.52600
H  12.78100 47.99100 30.25300
H  11.10600 48.27800 23.86700
H  5.07900 47.91200 25.56700
H  8.79700 48.27700 32.67300
H  11.56800 47.31300 32.23700
H  10.22300 50.08300 32.04900
H  11.96900 49.64900 32.00800
H  10.95900 49.39900 33.51300
H  10.40000 45.74500 33.30400
H  8.93500 45.32800 32.74600
H  8.16900 46.72100 35.01600
H  9.65800 47.46500 34.85300
H  15.20000 47.33700 27.93300
H  14.32200 48.54100 28.97800
H  15.03800 49.09400 27.40100
H  15.82500 48.58300 25.16900
H  15.71000 47.12300 24.08300
H  15.37100 46.92300 25.75900
H  8.96800 47.91600 22.55700
H  6.60200 49.23100 23.79800
H  9.61800 50.09400 22.25000
H  9.37200 50.50700 23.98400
H  8.06700 50.55500 22.82300
H  5.47800 47.26900 23.02200
H  7.03700 46.34700 23.04100
H  5.67700 47.57800 20.73300
H  7.30300 46.84400 20.80500
H  7.01100 48.59200 21.26100
H  2.62300 47.53700 28.63200
H  2.92200 46.08800 27.81900
H  3.10700 47.65100 26.97200
H  6.29000 47.43100 32.50900
H  6.36000 44.53800 35.57700
H  7.34800 43.93100 34.29200
H  5.67600 43.39900 34.34700

