158

Mg 0.22400 43.40900 25.74800
C  1.71400 43.53000 28.89000
C  -2.81900 42.68800 27.16900
C  -1.14100 42.75100 22.60300
C  3.41900 43.96800 24.24500
N  -0.39900 43.05900 27.79500
C  0.32000 43.28500 28.94800
C  -0.50900 43.05600 30.24300
C  -1.92100 42.71900 29.56500
C  -1.75000 42.82100 28.07500
C  -2.68200 41.47300 30.13000
C  -0.46400 44.34600 31.09600
C  -0.07200 44.02000 32.56300
H  -0.14800 42.51000 33.00100
N  -1.70500 42.87800 24.99900
C  -2.81300 42.74000 25.82300
C  -3.96200 42.57100 24.97600
C  -3.51900 42.53300 23.60700
C  -2.06600 42.69300 23.68100
C  -5.39200 42.35300 25.55500
C  -4.41900 42.46200 22.35600
O  -3.91600 42.28200 21.25100
C  -5.94600 42.53300 22.45300
N  1.08000 43.18200 23.78500
C  0.28200 42.95400 22.66900
C  1.13400 42.99100 21.41300
C  2.44200 43.76900 21.86400
C  2.36200 43.63300 23.39900
C  1.42700 41.59500 20.76500
C  2.67200 45.28000 21.57100
C  1.38500 46.09000 21.66800
N  2.15400 43.55200 26.37600
C  3.34900 43.81800 25.67700
C  4.38200 44.08700 26.68400
C  3.86700 43.91500 27.93800
C  2.46700 43.69100 27.73500
C  5.81900 44.54100 26.34600
C  4.14400 43.95000 29.34100
O  5.18700 44.16200 29.90200
C  2.82700 43.65200 29.98500
C  3.08200 42.30300 30.59100
O  2.73900 41.22500 30.15200
O  3.68900 42.54500 31.75100
C  4.21000 41.32000 32.44700
H  -3.78300 42.52100 27.65500
H  -1.53000 42.84100 21.58700
H  4.37200 44.24700 23.79200
H  -0.02100 42.16900 30.64800
H  -2.55300 43.57100 29.81200
H  -2.00300 40.93300 30.79000
H  -2.93500 40.81200 29.30100
H  -3.66200 41.78700 30.48900
H  -1.45400 44.80100 31.13400
H  0.27000 44.97700 30.59500
H  -0.48600 44.63800 33.36000
H  0.96800 44.34000 32.48800
H  -5.97200 43.17200 25.13000
H  -5.47000 42.69800 26.58600
H  -5.71500 41.35500 25.25700
H  -6.37600 41.64300 22.91400
H  -6.27700 42.69900 21.42800
H  -6.14900 43.46900 22.97300
H  0.52300 43.59900 20.74500
H  3.28500 43.32700 21.33200
H  2.38700 41.31400 20.33000
H  0.59300 41.54900 20.06500
H  1.17000 40.75700 21.41300
H  3.14900 45.38700 20.59700
H  3.30400 45.80800 22.28600
H  1.06000 46.27300 20.64400
H  1.59100 47.04700 22.14700
H  0.67000 45.58100 22.31500
H  6.40100 43.74500 25.88100
H  6.37800 44.66600 27.27300
H  5.79500 45.37500 25.64400
H  2.65500 44.45100 30.70600
H  4.65400 40.65000 31.71000
H  3.41900 40.77300 32.95900
H  4.95200 41.59400 33.19700
Mg -10.45800 16.80800 41.44600
C  -7.00200 16.88000 41.56000
C  -10.49300 20.25800 40.85400
C  -13.87300 16.74300 40.86500
C  -10.38000 13.35100 41.57300
N  -8.87400 18.32900 41.00500
C  -7.50700 18.20200 41.15700
C  -6.81500 19.56900 40.94700
C  -7.97000 20.51700 41.35500
C  -9.22300 19.67300 41.02100
C  -8.05800 20.95100 42.85200
C  -6.18200 19.95000 39.58000
C  -4.80900 19.31700 39.25000
H  -4.71500 18.29200 38.15800
N  -11.99500 18.29900 40.84300
C  -11.76900 19.61800 40.79100
C  -13.02100 20.27600 40.51100
C  -14.01200 19.34000 40.72700
C  -13.33900 18.05900 40.80400
C  -13.08700 21.75700 40.14000
C  -15.41600 19.51900 40.72400
O  -15.84200 20.63900 40.70300
C  -16.45500 18.45700 40.91500
N  -11.83600 15.28200 41.09200
C  -13.15700 15.51000 40.91900
C  -13.98800 14.14600 40.96200
C  -12.93400 13.14100 41.37100
C  -11.63400 13.93400 41.25200
C  -15.42000 14.01000 41.58900
C  -13.02800 11.77700 40.57400
C  -13.25900 10.43500 41.27200
N  -9.02400 15.38400 41.68100
C  -9.10500 14.01900 41.60700
C  -7.81700 13.43100 42.05000
C  -6.94200 14.51200 41.91700
C  -7.74100 15.67800 41.69800
C  -7.50800 11.99200 42.16000
C  -5.50200 14.94800 42.02400
O  -4.48200 14.29700 42.36600
C  -5.49800 16.46700 41.78900
C  -4.88500 17.10200 43.00000
O  -3.66400 17.30700 43.19700
O  -5.84800 17.51300 43.88500
C  -5.61000 18.10800 45.20700
H  -10.40900 21.34600 40.88600
H  -14.92500 16.69400 40.57600
H  -10.40300 12.26300 41.67300
H  -6.01800 19.70300 41.67800
H  -7.86800 21.37100 40.68400
H  -8.38300 21.97400 42.66400
H  -7.04800 20.95800 43.26100
H  -8.69500 20.22000 43.35000
H  -6.19400 21.03600 39.48600
H  -6.94200 19.75300 38.82300
H  -4.43200 18.94300 40.20200
H  -4.06900 20.08200 39.01700
H  -12.49500 22.36100 40.82700
H  -14.10700 22.13500 40.07400
H  -12.80100 21.90300 39.09900
H  -17.35900 18.89800 41.33500
H  -16.10400 17.85400 41.75300
H  -16.58700 17.95300 39.95800
H  -14.15900 13.98100 39.89800
H  -13.02000 12.79300 42.40000
H  -15.50800 13.00300 41.99500
H  -16.22100 14.16800 40.86700
H  -15.59200 14.74900 42.37200
H  -12.16300 11.65400 39.92200
H  -13.80900 11.92800 39.82800
H  -14.28400 10.29600 41.61800
H  -12.79800 10.48500 42.25800
H  -12.94800 9.50000 40.80700
H  -6.48700 11.86500 42.52100
H  -7.55800 11.69100 41.11300
H  -8.21600 11.43500 42.77300
H  -4.91200 16.68900 40.89700
H  -4.62600 17.76500 45.52600
H  -6.37500 17.89800 45.95400
H  -5.42100 19.17800 45.12400

