158

Mg 1.36000 -2.16600 43.90100
C  4.61400 -0.86100 43.58000
C  0.19600 0.78900 42.42100
C  -1.73200 -3.44400 44.05800
C  2.84600 -5.23400 45.04500
N  2.34900 -0.34400 42.95200
C  3.68800 -0.01400 42.92600
C  3.86700 1.42800 42.32600
C  2.41200 2.01300 42.44200
C  1.59200 0.75500 42.53500
C  2.30500 3.07100 43.58800
C  4.53000 1.44400 40.93800
C  5.79600 2.36600 40.82200
H  6.95300 1.49900 40.45800
N  -0.55600 -1.38400 43.35200
C  -0.75500 -0.20100 42.72400
C  -2.17800 -0.11100 42.43500
C  -2.78800 -1.26900 42.86300
C  -1.70000 -2.12600 43.47700
C  -2.61700 1.08000 41.72700
C  -4.27100 -1.56500 42.70200
O  -4.98200 -0.80200 42.07800
C  -4.88100 -2.79000 43.49900
N  0.69200 -4.18600 44.20200
C  -0.69100 -4.32000 44.41100
C  -0.95400 -5.62200 45.09700
C  0.46600 -6.18300 45.48800
C  1.41700 -5.17500 44.85800
C  -1.75300 -5.44700 46.36600
C  0.66900 -7.65700 45.12100
C  1.23600 -8.63800 46.18600
N  3.32000 -2.92800 44.30000
C  3.69500 -4.10600 44.85700
C  5.09700 -4.07500 45.03300
C  5.53000 -2.79300 44.57800
C  4.38700 -2.14800 44.13900
C  6.02500 -5.19900 45.41100
C  6.66800 -1.89900 44.41400
O  7.81200 -2.07400 44.71600
C  6.13400 -0.60800 43.76000
C  6.33500 0.59700 44.66500
O  6.07600 0.63400 45.86700
O  6.89700 1.63200 44.01000
C  7.46000 2.73600 44.71900
H  -0.09900 1.77900 42.06800
H  -2.72200 -3.82700 44.31600
H  3.23500 -6.12500 45.54100
H  4.53100 1.95600 43.01000
H  2.13500 2.52700 41.52200
H  1.44100 2.74700 44.16700
H  1.96100 4.01500 43.16400
H  3.15600 3.23900 44.24900
H  3.77400 1.83300 40.25700
H  4.67600 0.42000 40.59200
H  6.11600 2.74900 41.79100
H  5.48500 3.10200 40.08100
H  -2.16200 1.17500 40.74100
H  -2.44600 2.08600 42.11000
H  -3.63400 0.94100 41.36100
H  -4.35700 -3.66600 43.11600
H  -5.92900 -2.83600 43.20300
H  -4.84100 -2.70900 44.58500
H  -1.46200 -6.28200 44.39500
H  0.70800 -6.09100 46.54600
H  -2.81900 -5.36200 46.15400
H  -1.46600 -4.58900 46.97300
H  -1.53300 -6.31300 46.99000
H  1.25600 -7.59200 44.20400
H  -0.23600 -8.06100 44.66900
H  0.78400 -9.61500 46.01600
H  1.02400 -8.32200 47.20800
H  2.31100 -8.78500 46.07300
H  6.85000 -4.75200 45.96600
H  6.35500 -5.68700 44.49300
H  5.52900 -5.91000 46.07000
H  6.69800 -0.42400 42.84600
H  7.71900 2.43800 45.73500
H  6.74700 3.55300 44.82600
H  8.33200 2.98300 44.11300
Mg 49.53000 35.18900 27.86500
C  47.14800 34.03000 30.32100
C  49.90700 37.99000 29.74300
C  51.29700 36.31000 25.34300
C  48.70600 32.30900 25.93600
N  48.63000 35.89200 29.94200
C  47.87200 35.20300 30.80400
C  48.00700 35.83700 32.18000
C  48.46900 37.35400 31.87500
C  49.09400 37.04100 30.44600
C  47.41200 38.50100 31.85500
C  49.12400 35.13200 33.07600
C  48.92400 35.17400 34.55400
H  48.10100 36.36500 35.20900
N  50.38700 36.90500 27.56200
C  50.52200 37.92500 28.43800
C  51.39300 38.95200 27.92100
C  51.83900 38.52300 26.64000
C  51.16700 37.21800 26.42200
C  51.47600 40.27400 28.66000
C  52.90900 39.17300 25.75900
O  53.30500 38.77700 24.62800
C  53.65900 40.31600 26.41700
N  49.87000 34.35800 25.83600
C  50.79300 35.05900 25.09900
C  51.29900 34.13800 23.96500
C  50.58700 32.74900 24.20400
C  49.63200 33.12200 25.31800
C  51.18800 34.83300 22.56600
C  51.60000 31.61900 24.65900
C  51.29700 30.27300 24.04700
N  48.22200 33.51400 28.00100
C  48.00600 32.43900 27.16600
C  47.08900 31.47500 27.82600
C  46.70700 32.04300 29.03500
C  47.39900 33.29300 29.09500
C  46.74600 30.09900 27.26100
C  45.82300 31.94200 30.24500
O  45.02200 31.03300 30.53500
C  46.03900 33.18000 31.17200
C  46.40300 32.80400 32.54800
O  47.30100 32.05400 32.84700
O  45.56900 33.42100 33.39200
C  45.61600 33.20400 34.80700
H  50.20500 38.83100 30.37300
H  52.13800 36.57500 24.69900
H  48.54600 31.44300 25.29000
H  47.03700 35.78500 32.67500
H  49.28900 37.73300 32.48500
H  47.30900 38.68300 30.78600
H  47.63900 39.38400 32.45300
H  46.50000 38.07900 32.27700
H  50.02700 35.59800 32.68100
H  49.04100 34.06800 32.85500
H  49.81700 35.19900 35.17800
H  48.52000 34.18300 34.75900
H  51.68300 41.09300 27.97100
H  52.15800 40.27900 29.51000
H  50.56200 40.61100 29.14900
H  53.15000 41.23400 26.12400
H  54.57500 40.33800 25.82700
H  53.79400 40.10700 27.47800
H  52.35800 34.13600 24.21900
H  49.91000 32.38700 23.43000
H  52.18800 34.94400 22.14500
H  50.68900 35.80000 22.62100
H  50.74700 34.22700 21.77500
H  51.74700 31.50800 25.73400
H  52.54600 31.93000 24.21700
H  51.26200 29.56400 24.87400
H  52.11200 30.01000 23.37300
H  50.36800 30.29300 23.47600
H  47.16500 29.87200 26.28100
H  45.66300 29.98300 27.22100
H  47.21900 29.46100 28.00800
H  45.13100 33.78200 31.21200
H  46.62800 33.51700 35.06600
H  45.44900 32.13700 34.95600
H  44.90000 33.80300 35.36900

