158

Mg 54.05900 25.06600 45.78200
C  51.44100 27.02300 44.56800
C  52.37000 22.23200 44.42000
C  56.87300 23.20500 45.76900
C  55.84300 27.96400 46.26000
N  52.15800 24.72200 44.66500
C  51.22800 25.65100 44.28100
C  50.10200 24.95900 43.50400
C  50.24200 23.47600 43.92500
C  51.70600 23.44300 44.31700
C  49.32000 23.03400 45.04900
C  50.25600 25.11200 41.93300
C  49.07000 25.23700 40.96900
H  49.20700 25.89900 39.62000
N  54.51900 22.91500 45.38100
C  53.69800 21.94800 44.73900
C  54.29500 20.66000 44.84800
C  55.65000 20.90300 45.21500
C  55.76700 22.36500 45.43700
C  53.53100 19.33400 44.52200
C  56.69000 19.84500 45.31600
O  56.43200 18.67900 45.02600
C  58.15800 20.11300 45.74000
N  56.12900 25.49700 45.85600
C  57.07600 24.57000 45.94100
C  58.41800 25.16200 46.38700
C  58.11500 26.71000 46.56700
C  56.61100 26.76600 46.26000
C  58.98500 24.38000 47.63700
C  59.07400 27.53300 45.70100
C  58.89200 27.47200 44.13900
N  53.66300 27.08900 45.72900
C  54.49800 28.17500 46.01000
C  53.69200 29.42600 46.00000
C  52.47400 29.03300 45.41200
C  52.55600 27.63000 45.21400
C  54.06900 30.81200 46.43600
C  51.14300 29.42900 44.88500
O  50.62300 30.52700 44.86800
C  50.47300 28.13300 44.28200
C  50.34500 28.42700 42.88500
O  51.31300 28.63300 42.16800
O  49.09800 28.82000 42.61600
C  48.79500 29.15300 41.14000
H  51.89900 21.36000 43.96100
H  57.83100 22.77300 46.06500
H  56.39100 28.89400 46.42600
H  49.12400 25.33100 43.81000
H  50.06800 22.77800 43.10600
H  48.53300 23.77500 45.18200
H  49.84900 23.08400 46.00100
H  49.04200 21.99800 44.85400
H  50.96600 24.33200 41.66000
H  50.90700 25.97500 41.79300
H  48.33400 25.89300 41.43400
H  48.63500 24.25200 40.80200
H  53.55300 19.04600 43.47100
H  52.50300 19.52100 44.83000
H  53.89400 18.56900 45.20900
H  58.70400 19.17500 45.84800
H  58.16000 20.70800 46.65300
H  58.48900 20.67000 44.86400
H  59.08400 24.98000 45.54300
H  58.32200 27.03900 47.58600
H  58.35300 23.59700 48.05700
H  59.24400 25.16400 48.34900
H  59.91300 23.90100 47.32600
H  60.09100 27.21700 45.93000
H  58.91700 28.59100 45.91100
H  57.89700 27.86100 43.91900
H  59.10900 26.46700 43.77800
H  59.49600 28.25300 43.67900
H  55.01700 30.75500 46.97100
H  53.38900 31.16400 47.21200
H  53.90500 31.58300 45.68400
H  49.49700 27.88400 44.69900
H  48.41900 30.17600 41.16200
H  48.07600 28.40100 40.81500
H  49.59700 28.97800 40.42300
Mg 17.04400 52.28800 26.13500
C  18.85900 50.89800 28.69000
C  14.55800 53.13800 28.29800
C  15.03700 53.25200 23.50600
C  19.28100 50.87400 23.78700
N  16.73600 51.97800 28.21900
C  17.69900 51.59500 29.12300
C  17.30900 52.00300 30.50300
C  15.73700 52.05800 30.29400
C  15.62700 52.51500 28.84600
C  15.04000 50.67900 30.39600
C  18.09800 53.29400 31.05000
C  18.27400 53.34600 32.57300
H  17.42800 52.40400 33.41400
N  15.08700 53.21700 25.93100
C  14.24400 53.47400 26.96200
C  13.07500 54.10500 26.41700
C  13.19700 54.17300 25.01400
C  14.49100 53.56500 24.73200
C  11.84900 54.51300 27.25400
C  12.26500 54.76000 23.97200
O  12.44900 54.69700 22.75600
C  11.08100 55.50100 24.38900
N  17.07500 51.93700 23.88300
C  16.21200 52.61400 23.06000
C  16.56300 52.38500 21.57700
C  18.01800 51.75400 21.68900
C  18.14200 51.48100 23.19300
C  15.50500 51.42900 20.86700
C  19.10400 52.70500 21.20300
C  19.15600 54.11100 21.88300
N  18.69200 51.10200 26.14500
C  19.46000 50.55500 25.11700
C  20.58500 49.87400 25.78000
C  20.41200 49.94100 27.16700
C  19.24000 50.69800 27.33100
C  21.79500 49.29100 25.13700
C  20.91800 49.61700 28.52600
O  21.89300 49.03600 28.85600
C  19.86300 50.25600 29.56600
C  19.51700 49.11800 30.52400
O  19.03300 48.06100 30.12400
O  19.83300 49.41500 31.84700
C  19.50900 48.40300 32.77400
H  13.73200 53.26400 29.00000
H  14.60900 53.74200 22.62900
H  20.10400 50.57100 23.13600
H  17.43300 51.11800 31.12700
H  15.13500 52.72300 30.91300
H  14.16100 50.81100 31.02700
H  15.67900 49.91500 30.83900
H  14.72800 50.29000 29.42700
H  17.53400 54.20900 30.86900
H  19.04200 53.36700 30.51000
H  18.05100 54.32500 32.99700
H  19.30800 53.08900 32.80500
H  11.67500 55.58500 27.16500
H  11.97000 54.36600 28.32700
H  10.93500 54.00200 26.94900
H  10.46900 55.92100 23.59100
H  11.47300 56.37200 24.91500
H  10.52800 54.78900 25.00200
H  16.58500 53.29300 20.97400
H  17.99500 50.75100 21.26100
H  14.77200 51.02500 21.56600
H  16.05300 50.57100 20.47800
H  14.93700 51.99300 20.12800
H  18.81500 52.93400 20.17800
H  20.06400 52.18900 21.23000
H  19.83200 54.82400 21.41100
H  19.78000 53.92100 22.75600
H  18.19000 54.57700 22.07400
H  21.70000 48.20900 25.04800
H  22.57300 49.57200 25.84600
H  21.91000 49.77800 24.16900
H  20.46100 50.96400 30.14000
H  18.49100 48.05600 32.59200
H  19.63700 48.76300 33.79400
H  20.26700 47.62000 32.79200

