158

Mg 24.60300 -6.97500 48.27500
C  27.18000 -4.60700 47.27700
C  22.71600 -5.64100 45.64100
C  22.62800 -9.62000 48.49300
C  26.88900 -8.29900 50.51900
N  24.91800 -5.34100 46.57800
C  25.98500 -4.44500 46.54000
C  25.77400 -3.37900 45.46300
C  24.19900 -3.58400 45.12800
C  23.91100 -4.94100 45.83000
C  23.24900 -2.47300 45.60000
C  26.64700 -3.52700 44.26300
C  27.25400 -2.33900 43.49400
H  26.94400 -1.89700 42.12300
N  22.77100 -7.54600 47.22300
C  22.21300 -6.89000 46.17900
C  21.05000 -7.62100 45.71800
C  21.03500 -8.86000 46.50300
C  22.18700 -8.74300 47.45000
C  20.05400 -7.26900 44.70700
C  19.90900 -9.91000 46.45900
O  18.94900 -9.74400 45.71300
C  19.84200 -11.15400 47.29500
N  24.65600 -8.72100 49.39200
C  23.68600 -9.63200 49.40800
C  23.96900 -10.79700 50.40300
C  25.32900 -10.39200 51.02200
C  25.66000 -9.01000 50.31000
C  22.82000 -10.97500 51.46100
C  26.45200 -11.52500 50.68100
C  27.33400 -12.22300 51.80600
N  26.58600 -6.59000 48.84800
C  27.38100 -7.21400 49.83100
C  28.61000 -6.52400 50.02300
C  28.63800 -5.55800 48.98300
C  27.35900 -5.60100 48.27700
C  29.64400 -6.90800 50.98300
C  29.40000 -4.51700 48.32500
O  30.50400 -4.08200 48.57500
C  28.42900 -3.81600 47.28300
C  28.21000 -2.37900 47.70300
O  27.89300 -2.01800 48.85900
O  28.39000 -1.59700 46.61500
C  28.30400 -0.07700 46.82500
H  21.96600 -5.28900 44.93000
H  22.02100 -10.52700 48.54500
H  27.54800 -8.68300 51.30100
H  25.91500 -2.39300 45.90600
H  24.02800 -3.70000 44.05800
H  22.29100 -2.76300 45.16900
H  23.54000 -1.50500 45.19200
H  23.17800 -2.39800 46.68500
H  26.03500 -3.97600 43.48200
H  27.37400 -4.27200 44.58800
H  28.34100 -2.40400 43.54600
H  26.92200 -1.51900 44.13000
H  20.53400 -6.66800 43.93500
H  19.22500 -6.66900 45.08500
H  19.62100 -8.10700 44.16200
H  19.29000 -11.05100 48.22900
H  20.85800 -11.54100 47.38500
H  19.38800 -12.02000 46.81300
H  24.10200 -11.75600 49.90300
H  25.20200 -10.19000 52.08500
H  22.03000 -10.30700 51.11900
H  23.11000 -10.59400 52.44000
H  22.40400 -11.98200 51.50800
H  27.22100 -10.99300 50.12200
H  25.99400 -12.31300 50.08200
H  27.14600 -11.79400 52.79000
H  28.39500 -12.06500 51.61600
H  27.01600 -13.26400 51.87600
H  29.80300 -7.98100 50.88500
H  29.51400 -6.72100 52.04900
H  30.64500 -6.73900 50.58500
H  28.82500 -3.82800 46.26700
H  29.24500 0.16900 47.31700
H  27.45600 0.25200 47.42600
H  28.15600 0.43400 45.87400
Mg 6.84500 53.24100 41.61200
C  6.37000 49.74600 41.05400
C  9.99300 52.94300 40.54700
C  7.02600 56.73500 41.40300
C  3.48500 53.49300 42.42300
N  7.99400 51.49000 40.81200
C  7.71800 50.18100 40.71800
C  8.98100 49.36800 40.50100
C  10.15000 50.40000 40.62600
C  9.36200 51.69800 40.73100
C  11.01400 50.24600 41.95700
C  9.00000 48.71500 39.07300
C  8.78600 49.64900 37.79300
H  7.72000 49.24400 36.73800
N  8.24200 54.61000 40.95400
C  9.47100 54.27100 40.65600
C  10.29700 55.52400 40.50600
C  9.48100 56.63400 40.76300
C  8.17900 55.97700 41.06300
C  11.67900 55.53500 40.12200
C  10.01900 58.13700 40.69500
O  11.20300 58.39900 40.43500
C  9.20300 59.24900 41.10100
N  5.42300 54.88100 41.82700
C  5.74800 56.20700 41.68400
C  4.51900 57.05500 42.12700
C  3.43200 56.02200 42.43800
C  4.10000 54.69300 42.08000
C  4.85900 58.04300 43.28700
C  2.09500 56.26100 41.63800
C  2.06700 55.68200 40.16100
N  5.24600 51.92100 41.79500
C  3.94000 52.19100 42.12800
C  3.08600 50.96400 42.11200
C  4.02800 49.98200 41.76500
C  5.31500 50.58800 41.54300
C  1.59000 50.90600 42.57500
C  4.23900 48.59300 41.51200
O  3.50300 47.60100 41.51900
C  5.77300 48.32900 41.02500
C  5.61600 47.80500 39.64300
O  5.47000 48.39700 38.57300
O  5.77100 46.45500 39.63500
C  5.55400 45.79400 38.37600
H  11.08400 52.88600 40.51800
H  7.14000 57.80600 41.58000
H  2.52400 53.64200 42.91900
H  8.99600 48.65300 41.32400
H  10.82500 50.57600 39.78800
H  12.05600 50.46800 41.72500
H  10.97100 49.23100 42.35200
H  10.66700 50.95800 42.70500
H  8.23500 47.93900 39.02900
H  9.94900 48.18400 38.99700
H  9.71700 49.72200 37.23000
H  8.53000 50.66800 38.08300
H  12.09600 54.57600 39.81200
H  12.28900 55.87700 40.95900
H  11.84300 56.25600 39.32200
H  8.35300 59.37200 40.43100
H  9.78400 60.17200 41.11000
H  8.79200 59.08600 42.09700
H  4.00700 57.72100 41.43300
H  3.07600 55.81900 43.44800
H  5.89300 57.89800 43.59900
H  4.21200 58.01500 44.16300
H  4.75900 59.08900 42.99500
H  1.95300 57.32200 41.43500
H  1.31100 55.81700 42.25200
H  1.51100 56.29900 39.45400
H  1.73000 54.64800 40.22300
H  3.09200 55.50300 39.83700
H  0.92600 50.91400 41.71100
H  1.41600 51.89000 43.01000
H  1.45200 50.06200 43.25100
H  6.32400 47.62600 41.64900
H  5.53500 44.71400 38.52100
H  6.38700 46.10400 37.74500
H  4.65200 46.05500 37.82200

