158

Mg 42.70600 4.83400 47.71800
C  41.00000 7.94000 47.29900
C  39.78900 3.19200 47.43900
C  44.51000 2.02700 47.16400
C  45.79800 6.76200 47.37600
N  40.59000 5.49000 47.39000
C  40.12600 6.73500 47.30700
C  38.54000 6.80400 47.52600
C  38.18100 5.29700 47.75200
C  39.59200 4.59500 47.50500
C  37.52000 4.84600 49.07300
C  37.74700 7.55800 46.39000
C  38.09200 7.05100 44.91800
H  38.50400 8.08900 43.92400
N  42.25200 2.83500 47.52300
C  40.96200 2.33300 47.46700
C  40.98400 0.91200 47.47500
C  42.35600 0.54200 47.22000
C  43.15500 1.78200 47.28800
C  39.66700 0.12300 47.60500
C  42.73000 -0.83600 47.01900
O  41.95300 -1.78600 46.96200
C  44.11600 -1.12000 46.84700
N  44.81700 4.48100 47.17100
C  45.25500 3.17400 47.15100
C  46.79400 3.13400 47.13100
C  47.18500 4.65800 47.08300
C  45.85500 5.41200 47.16600
C  47.42400 2.34900 48.33700
C  48.06900 5.05400 45.82300
C  49.51300 5.11200 45.97600
N  43.34500 6.92100 47.46900
C  44.63600 7.53300 47.34500
C  44.41300 9.02700 47.26800
C  43.02200 9.20000 47.34400
C  42.45700 7.89400 47.33100
C  45.44400 9.93500 47.11500
C  41.97200 10.21100 47.24300
O  41.98700 11.40700 47.12100
C  40.63300 9.37800 47.31700
C  39.91800 9.84800 48.55700
O  40.16300 9.47000 49.67300
O  38.95800 10.78800 48.17600
C  38.10700 11.42300 49.18300
H  38.86200 2.62000 47.35300
H  45.25700 1.23200 47.20400
H  46.71200 7.35300 47.29500
H  38.43200 7.37600 48.44800
H  37.56500 4.92300 46.93500
H  37.10400 5.60700 49.73300
H  38.27800 4.27200 49.60500
H  36.74500 4.10300 48.88600
H  38.05000 8.60400 46.44200
H  36.68200 7.39200 46.55000
H  37.22200 6.56800 44.47300
H  38.86500 6.28800 45.00500
H  39.14400 0.21300 46.65300
H  39.00700 0.47800 48.39800
H  39.57100 -0.95500 47.73400
H  44.66600 -0.66800 47.67200
H  44.54500 -0.74800 45.91700
H  44.26400 -2.19100 46.98200
H  47.13600 2.65700 46.21300
H  47.77700 4.82600 47.98200
H  46.71300 2.15600 49.14000
H  48.27600 2.91700 48.71200
H  47.72800 1.35600 48.00300
H  47.69200 6.03900 45.55000
H  47.81300 4.33600 45.04400
H  49.80700 4.97300 47.01700
H  49.99500 6.05700 45.72600
H  50.10000 4.44600 45.34300
H  46.03000 9.97100 48.03400
H  45.09100 10.91600 46.79700
H  46.07000 9.61300 46.28200
H  39.93200 9.66500 46.53400
H  37.83600 12.46000 48.98100
H  38.56500 11.33300 50.16800
H  37.20300 10.87100 49.43800
Mg 30.97800 58.30500 40.63100
C  28.18700 56.42700 39.39000
C  33.01800 55.75800 39.48500
C  33.48400 60.44600 40.61800
C  28.65000 60.88700 41.34300
N  30.63000 56.38500 39.34700
C  29.39200 55.81400 39.05600
C  29.74200 54.47100 38.50500
C  31.11900 54.04000 39.17900
C  31.62500 55.45600 39.42600
C  31.04400 53.06600 40.44000
C  29.81300 54.56400 36.94900
C  28.56800 54.17300 36.17800
H  28.21900 54.63900 34.76500
N  33.03000 58.13500 40.28600
C  33.64800 57.04700 39.71700
C  35.04400 57.31100 39.67500
C  35.26100 58.67500 39.94700
C  33.90100 59.17500 40.34100
C  36.00700 56.24100 39.18500
C  36.50700 59.42600 39.75700
O  37.53500 58.85900 39.48200
C  36.50300 60.92800 39.85700
N  31.06400 60.35800 40.87800
C  32.24700 60.97400 40.90200
C  32.11700 62.48400 41.21600
C  30.53800 62.71400 41.32800
C  30.03900 61.20300 41.26700
C  32.96000 63.06500 42.41900
C  29.97400 63.68400 40.16800
C  29.65100 65.11600 40.67400
N  28.83900 58.64300 40.40700
C  28.05500 59.68300 40.84000
C  26.61300 59.38500 40.65500
C  26.66700 58.10100 40.18900
C  28.01300 57.67600 39.96400
C  25.38300 60.27200 40.82700
C  25.78800 56.99900 39.84300
O  24.55500 56.78700 39.93200
C  26.72900 55.87600 39.17300
C  26.58100 54.62900 39.92700
O  26.73400 54.49900 41.14600
O  26.12600 53.54000 39.08200
C  25.67700 52.31200 39.80900
H  33.58300 54.83300 39.35400
H  34.23900 61.23400 40.57500
H  27.99100 61.70300 41.64700
H  29.04100 53.68800 38.79600
H  31.76600 53.59600 38.42200
H  31.03900 53.61400 41.38200
H  31.95300 52.46500 40.40500
H  30.20500 52.37100 40.39600
H  30.70500 54.02700 36.62600
H  29.93000 55.62200 36.71500
H  27.80200 54.47500 36.89300
H  28.59200 53.08900 36.06500
H  35.68000 55.31000 39.64700
H  37.06500 56.40500 39.39300
H  35.93300 56.01300 38.12100
H  36.31800 61.18100 40.90100
H  35.71400 61.26700 39.18600
H  37.48000 61.30100 39.55000
H  32.53500 62.97500 40.33700
H  30.33400 63.06400 42.34000
H  32.35200 63.79800 42.95000
H  33.78200 63.64800 42.00400
H  33.36400 62.28800 43.06800
H  29.00600 63.40700 39.75000
H  30.70400 63.59400 39.36500
H  28.56900 65.08300 40.80500
H  29.96400 65.82600 39.90900
H  30.15500 65.34500 41.61300
H  24.58600 59.60100 41.14900
H  25.03700 60.63500 39.85900
H  25.50100 61.13300 41.48600
H  26.41600 55.75900 38.13600
H  26.54500 51.65800 39.88200
H  24.95700 51.73200 39.23200
H  25.24800 52.46500 40.79900

