158

Mg 48.05600 44.60500 43.60800
C  44.61700 43.75000 43.37700
C  48.82200 41.28800 42.49900
C  51.07600 45.54200 42.76200
C  46.96900 48.02100 43.66700
N  46.88200 42.75500 42.99300
C  45.45800 42.70600 42.96600
C  45.02600 41.30300 42.72500
C  46.33800 40.41700 42.60400
C  47.38300 41.54300 42.71200
C  46.46200 39.28200 43.68900
C  43.94100 41.00300 41.64100
C  44.04500 41.86200 40.44300
H  43.70500 41.29000 39.04800
N  49.78900 43.54000 42.98800
C  49.90600 42.25200 42.61000
C  51.26200 41.96600 42.35500
C  52.01500 43.12600 42.35200
C  51.01200 44.14800 42.77200
C  51.74700 40.59400 42.08400
C  53.47500 43.39100 41.93700
O  54.10600 42.38600 41.63800
C  54.17500 44.70200 41.84200
N  48.89300 46.53800 43.39200
C  50.20500 46.61300 42.91200
C  50.65600 48.06700 42.71100
C  49.29800 48.86000 43.00100
C  48.29800 47.74100 43.32200
C  51.90400 48.60400 43.47700
C  48.92700 49.78000 41.77400
C  48.43700 51.11600 42.13800
N  46.22100 45.70000 43.67200
C  45.96000 47.01000 43.85900
C  44.51000 47.21500 44.01800
C  44.00600 45.91700 43.96600
C  45.04700 45.06500 43.67200
C  43.77800 48.53900 44.22600
C  42.73500 45.10200 44.02600
O  41.58300 45.43200 44.32400
C  43.11800 43.68400 43.58500
C  42.64600 42.83300 44.65000
O  41.81700 41.90200 44.49600
O  43.27900 43.12900 45.78500
C  43.03900 42.29400 46.95300
H  49.03200 40.27000 42.16400
H  52.05700 45.92400 42.47000
H  46.67100 49.07100 43.69400
H  44.46800 40.97700 43.60200
H  46.46100 39.95000 41.62700
H  47.10300 39.57000 44.52200
H  46.94500 38.40000 43.26600
H  45.55200 38.93400 44.17600
H  42.90900 41.03600 41.99200
H  44.17900 39.98800 41.32400
H  45.00700 42.37100 40.39500
H  43.35000 42.69500 40.54800
H  52.38600 40.47000 41.20900
H  50.96000 39.84000 42.09800
H  52.41000 40.30900 42.90100
H  53.50700 45.29800 41.21900
H  55.06300 44.46300 41.25800
H  54.35200 45.19900 42.79600
H  50.83500 48.32400 41.66700
H  49.45700 49.52100 43.85300
H  52.32900 47.75800 44.01700
H  51.66300 49.35100 44.23300
H  52.64100 48.98900 42.77300
H  48.04800 49.29700 41.34900
H  49.66700 49.91000 40.98400
H  49.05800 51.88700 41.68200
H  48.60000 51.44900 43.16300
H  47.39900 51.24700 41.83100
H  43.78300 48.89400 45.25700
H  42.75600 48.40200 43.87500
H  44.31800 49.31000 43.67600
H  42.51300 43.56200 42.68600
H  44.02000 42.07400 47.37500
H  42.62200 41.32700 46.67300
H  42.38400 42.80900 47.65500
Mg -6.13300 25.35300 25.05000
C  -4.59500 26.62800 28.05600
C  -7.91200 23.16100 27.08500
C  -7.52400 24.07400 22.24100
C  -4.13500 27.59700 23.23300
N  -6.24700 24.92000 27.32600
C  -5.62600 25.67100 28.29400
C  -6.08500 25.26200 29.64500
C  -6.95400 23.94400 29.27900
C  -6.94400 23.89000 27.79800
C  -6.40600 22.68400 29.92600
C  -6.88500 26.34600 30.44800
C  -6.72100 26.44300 31.94700
H  -6.02300 25.37300 32.76600
N  -7.54400 23.82900 24.73700
C  -8.12300 23.03400 25.71800
C  -8.95300 22.03400 25.05300
C  -8.90000 22.25200 23.65500
C  -7.95400 23.42600 23.46700
C  -9.75100 21.02000 25.92600
C  -9.69600 21.66700 22.54600
O  -9.57600 22.08300 21.36000
C  -10.52600 20.53200 22.76100
N  -5.77500 25.69600 23.03800
C  -6.56200 25.07000 22.07400
C  -6.17500 25.68000 20.66100
C  -5.17800 26.83800 20.97300
C  -4.94700 26.69800 22.50400
C  -5.42200 24.65600 19.75000
C  -5.75700 28.33500 20.71700
C  -4.94200 29.14100 19.69700
N  -4.70500 26.81100 25.47600
C  -3.92300 27.59000 24.62500
C  -3.07900 28.37500 25.36500
C  -3.38100 28.09900 26.69800
C  -4.30000 27.10000 26.74700
C  -2.01500 29.22600 24.74300
C  -3.01700 28.45400 28.09900
O  -2.23600 29.29900 28.51000
C  -3.82600 27.48000 29.00700
C  -2.78800 26.81100 29.80500
O  -1.91000 26.04100 29.43300
O  -2.93900 27.15600 31.10800
C  -1.96500 26.67700 32.07400
H  -8.36900 22.51200 27.83500
H  -7.93400 23.73100 21.28900
H  -3.59400 28.31700 22.61500
H  -5.22900 25.08200 30.29500
H  -7.98000 24.05400 29.63100
H  -5.41300 22.82700 30.35200
H  -6.35000 21.85600 29.21900
H  -7.16300 22.34300 30.63200
H  -7.95900 26.24600 30.28900
H  -6.59600 27.31800 30.04900
H  -7.69300 26.47200 32.44000
H  -6.20400 27.37500 32.17500
H  -9.56700 19.98900 25.62600
H  -10.82200 21.05700 25.72700
H  -9.72700 21.17100 27.00500
H  -11.22700 20.72000 23.57500
H  -9.90900 19.68900 23.07200
H  -11.19800 20.21600 21.96300
H  -7.00200 25.95100 20.00500
H  -4.19200 26.69800 20.53000
H  -6.09100 23.89300 19.35200
H  -4.77500 24.12000 20.44400
H  -4.80000 25.24500 19.07600
H  -5.99600 28.92900 21.59900
H  -6.70500 28.15500 20.21100
H  -5.57900 29.31200 18.82900
H  -4.07600 28.57600 19.35000
H  -4.66400 30.11700 20.09400
H  -1.39000 29.57600 25.56400
H  -2.46200 30.15000 24.37400
H  -1.34100 28.73500 24.04100
H  -4.45400 28.09700 29.65000
H  -1.50100 25.73200 31.79100
H  -2.53000 26.44500 32.97700
H  -1.14100 27.38000 32.19600

