158

Mg 0.75800 -1.69400 43.78100
C  4.24800 -1.51200 42.90300
C  0.32700 1.29200 42.12500
C  -2.32900 -2.34500 43.88200
C  1.58600 -4.96300 45.07600
N  2.16800 -0.22600 42.74400
C  3.46800 -0.44900 42.41100
C  3.99400 0.70700 41.46200
C  2.83600 1.75600 41.55600
C  1.72100 0.90400 42.16100
C  3.14700 3.07300 42.33600
C  4.18200 0.13200 40.01800
C  5.36300 0.73500 39.27900
H  5.24600 1.41000 37.89000
N  -0.81300 -0.71900 43.03400
C  -0.80400 0.48700 42.45000
C  -2.20000 0.94800 42.26200
C  -2.97900 -0.16000 42.60100
C  -2.02400 -1.13700 43.18200
C  -2.63400 2.33500 41.80800
C  -4.48200 -0.19200 42.48200
O  -5.14200 0.85900 42.34800
C  -5.32300 -1.46100 42.55200
N  -0.24600 -3.36300 44.56000
C  -1.60500 -3.35600 44.49100
C  -2.22200 -4.61200 45.05900
C  -0.96300 -5.47400 45.40000
C  0.20800 -4.60500 44.89600
C  -3.36200 -4.62500 46.13100
C  -0.95200 -6.91900 44.75300
C  -0.03200 -7.94400 45.38700
N  2.52200 -2.93000 44.24200
C  2.70400 -4.17700 44.78500
C  4.09800 -4.47000 44.86300
C  4.77900 -3.53800 44.11300
C  3.75100 -2.60500 43.71000
C  4.75700 -5.77200 45.36500
C  6.08900 -3.13600 43.62800
O  7.24700 -3.60600 43.57100
C  5.71300 -1.87200 42.73300
C  6.62400 -0.65400 42.94600
O  6.63800 0.13500 43.83500
O  7.55200 -0.57400 41.91200
C  8.45000 0.60800 41.98500
H  0.11800 2.25200 41.65000
H  -3.39300 -2.50400 44.07400
H  1.86000 -5.96400 45.41600
H  4.86700 1.15600 41.93500
H  2.62300 2.03800 40.52500
H  3.26300 3.86000 41.59200
H  4.08500 2.87000 42.85300
H  2.35000 3.23500 43.06200
H  3.25000 0.29800 39.47800
H  4.19000 -0.95800 40.01000
H  6.18400 0.01900 39.26700
H  5.64200 1.60100 39.88000
H  -3.68600 2.57300 41.96400
H  -2.45300 2.60100 40.76700
H  -2.05600 3.02300 42.42500
H  -6.18900 -1.28800 41.91200
H  -5.77300 -1.55100 43.54100
H  -4.77500 -2.33700 42.20300
H  -2.56500 -5.02400 44.10900
H  -0.87100 -5.69700 46.46300
H  -4.30800 -4.86000 45.64300
H  -3.43400 -3.64000 46.59300
H  -3.26400 -5.25700 47.01400
H  -0.47000 -6.85700 43.77700
H  -1.93700 -7.38300 44.71000
H  -0.62300 -8.84100 45.57500
H  0.24400 -7.65600 46.40100
H  0.88400 -8.11200 44.82100
H  4.53600 -6.48800 44.57300
H  4.28600 -6.02000 46.31700
H  5.81900 -5.78100 45.61000
H  5.72200 -2.13500 41.67500
H  8.41000 0.95800 40.95400
H  9.48200 0.31700 42.18100
H  8.18500 1.47000 42.59800
Mg 17.28000 -1.74200 29.52700
C  15.82400 0.75500 31.45500
C  18.83600 -3.05400 32.24900
C  18.66500 -4.13700 27.52900
C  15.71700 -0.19100 26.77300
N  17.28900 -1.21300 31.55600
C  16.60600 -0.19700 32.15100
C  16.77300 -0.25000 33.71700
C  17.96800 -1.22200 33.92100
C  18.08200 -1.88400 32.52900
C  19.28700 -0.45600 34.38100
C  15.46300 -0.83400 34.35700
C  15.32300 -0.62800 35.94000
H  16.49400 0.07300 36.75100
N  18.49300 -3.37800 29.88300
C  19.02300 -3.76100 31.09700
C  19.83400 -4.96000 30.94500
C  19.81000 -5.27200 29.55300
C  19.03500 -4.25900 28.93000
C  20.54400 -5.66000 32.22500
C  20.41400 -6.47900 28.87800
O  20.29300 -6.76500 27.69100
C  21.23100 -7.40400 29.73300
N  17.15600 -2.11100 27.45400
C  17.79500 -3.24700 26.86500
C  17.50100 -3.29200 25.38400
C  16.36100 -2.17100 25.26900
C  16.47800 -1.40200 26.58000
C  18.74000 -3.12700 24.43800
C  14.99600 -2.64400 24.96000
C  14.30800 -1.69700 23.91300
N  16.05300 -0.02900 29.09400
C  15.52900 0.49200 27.97500
C  14.70700 1.62700 28.19400
C  14.82300 1.81600 29.60200
C  15.63000 0.76400 30.07800
C  13.97100 2.48000 27.22400
C  14.37700 2.58300 30.71300
O  13.69500 3.60400 30.80000
C  14.95500 1.82700 31.98800
C  15.75000 2.91000 32.75000
O  16.62900 3.54800 32.25200
O  15.26800 3.07300 34.00100
C  15.90600 4.06300 34.90100
H  19.08800 -3.47500 33.22500
H  19.13200 -4.82000 26.81700
H  15.37800 0.20400 25.81300
H  17.06900 0.73900 34.06800
H  17.60100 -1.95900 34.63600
H  19.12200 0.62200 34.36300
H  20.07400 -0.72600 33.67700
H  19.51900 -0.83100 35.37800
H  15.50000 -1.90700 34.16700
H  14.52600 -0.39500 34.01400
H  15.15500 -1.63000 36.33700
H  14.51100 0.07200 36.13600
H  20.27000 -6.71300 32.28700
H  20.28400 -5.20400 33.18100
H  21.60900 -5.43400 32.17000
H  22.08200 -6.94700 30.23900
H  21.73500 -8.10000 29.06300
H  20.65100 -7.95200 30.47500
H  17.00100 -4.24600 25.21100
H  16.76700 -1.49900 24.51200
H  19.57700 -3.14000 25.13500
H  18.70300 -2.17400 23.91100
H  18.73700 -3.91500 23.68500
H  14.30400 -2.71900 25.79800
H  14.95000 -3.64100 24.52100
H  13.67900 -0.91600 24.34100
H  13.68500 -2.20200 23.17500
H  15.10300 -1.16100 23.39400
H  13.75100 1.92200 26.31400
H  14.63400 3.34300 27.15400
H  13.05400 2.78900 27.72400
H  14.14100 1.40100 32.57400
H  15.47400 5.06300 34.93900
H  16.99200 4.10800 34.83000
H  15.69800 3.70700 35.91000

