158

Mg 40.58500 8.44700 28.92700
C  42.14900 9.42500 31.93200
C  38.21100 6.79300 30.80100
C  39.28800 7.41300 26.14000
C  43.39500 9.75100 27.19200
N  40.27100 8.12200 31.14000
C  40.90200 8.75300 32.17300
C  40.37300 8.34600 33.50700
C  39.29600 7.30800 33.17300
C  39.29000 7.28500 31.60100
C  39.47100 5.89600 33.87900
C  39.89300 9.41500 34.48000
C  40.32800 9.24100 35.98200
H  40.47600 10.58500 36.83000
N  38.90800 7.39900 28.54600
C  37.98800 6.82800 29.42900
C  36.88300 6.25200 28.63800
C  37.13500 6.55900 27.28100
C  38.46300 7.18400 27.25600
C  35.70200 5.55200 29.36600
C  36.31800 6.31800 26.00500
O  36.75100 6.74800 24.90600
C  34.96300 5.66800 25.99400
N  41.24800 8.53200 26.96900
C  40.47800 8.10300 25.97500
C  41.01700 8.34200 24.61800
C  42.39300 9.16500 24.83100
C  42.40300 9.10200 26.39100
C  41.26200 7.01400 23.85500
C  42.45400 10.53900 24.20500
C  41.24700 11.43100 24.36700
N  42.36300 9.43200 29.37800
C  43.39400 9.89100 28.59600
C  44.34800 10.59500 29.42700
C  43.90200 10.40300 30.71200
C  42.70400 9.65600 30.64700
C  45.49100 11.41400 28.92400
C  44.21100 10.76200 32.13800
O  45.11400 11.41700 32.68700
C  43.08700 10.15900 32.92800
C  43.74000 9.27200 33.97500
O  44.36400 8.28400 33.74700
O  43.62700 9.88300 35.19000
C  44.33600 9.25600 36.30100
H  37.54600 6.17100 31.40300
H  38.93400 7.08300 25.16100
H  44.23800 10.20100 26.66400
H  41.18700 7.87200 34.05600
H  38.32700 7.70100 33.47900
H  40.37200 5.87900 34.49200
H  39.48000 5.05600 33.18500
H  38.73300 5.86400 34.68100
H  38.80400 9.41200 34.52800
H  40.06900 10.43400 34.13600
H  41.24000 8.64500 35.98200
H  39.57300 8.69800 36.55100
H  34.76500 6.10400 29.44300
H  35.94200 5.48500 30.42700
H  35.67200 4.58300 28.86900
H  34.48500 5.74400 26.97100
H  35.12200 4.61200 25.77700
H  34.28800 6.15000 25.28700
H  40.40200 9.00700 24.01200
H  43.34000 8.63000 24.76300
H  40.71200 6.97400 22.91400
H  41.08100 6.14900 24.49300
H  42.32900 6.96600 23.63700
H  42.51800 10.19300 23.17300
H  43.39400 11.02800 24.45900
H  41.55700 12.43800 24.64400
H  40.57100 11.06000 25.13800
H  40.62800 11.42900 23.47000
H  45.08900 11.90400 28.03800
H  46.18900 10.69000 28.50400
H  46.03400 11.99400 29.67100
H  42.53500 10.96500 33.41000
H  45.42400 9.23800 36.24700
H  44.04600 8.20500 36.27200
H  44.04500 9.64200 37.27800
Mg 5.44500 54.39100 39.99500
C  5.99500 50.85200 40.01800
C  8.83100 54.70600 39.29000
C  4.92400 57.58700 39.27800
C  2.17800 53.87100 40.61900
N  7.17000 52.91100 39.68400
C  7.13600 51.55500 39.68600
C  8.49200 50.96600 39.48300
C  9.42000 52.23600 39.73200
C  8.44800 53.36500 39.51700
C  10.25700 52.22800 41.06900
C  8.74100 50.27400 38.06200
C  8.70800 51.17000 36.80300
H  7.63900 50.98100 35.73200
N  6.67000 55.89500 39.28200
C  8.03800 55.86800 39.15300
C  8.55000 57.16100 38.79600
C  7.41600 58.02100 38.73400
C  6.28200 57.18100 39.05100
C  9.97700 57.59100 38.60100
C  7.43500 59.50300 38.33000
O  8.51300 59.97600 37.97400
C  6.24100 60.38200 38.17000
N  3.70700 55.49800 39.57900
C  3.78100 56.83400 39.52100
C  2.42000 57.52100 39.86500
C  1.52700 56.22300 40.15600
C  2.55200 55.12200 40.14600
C  2.43000 58.54500 41.04300
C  0.47900 55.96600 39.05200
C  -0.95700 56.36900 39.29100
N  4.26800 52.75900 40.25000
C  2.93000 52.67100 40.57900
C  2.54800 51.29400 40.95000
C  3.69800 50.55500 40.71500
C  4.71900 51.45300 40.24800
C  1.24300 50.80400 41.60400
C  4.27500 49.19000 40.83800
O  3.80800 48.12600 41.21300
C  5.74000 49.33500 40.23500
C  5.72100 48.51100 38.98900
O  5.15100 48.79500 37.92700
O  6.37100 47.27900 39.22300
C  6.66400 46.46900 38.01100
H  9.90500 54.78000 39.10500
H  4.63600 58.64000 39.26600
H  1.16800 53.72000 41.00700
H  8.74200 50.14200 40.15000
H  10.20000 52.41400 38.99100
H  11.32400 52.43100 40.97600
H  10.21800 51.23900 41.52700
H  9.71000 52.94300 41.68300
H  7.98000 49.52600 37.83800
H  9.70600 49.77100 38.12100
H  9.72200 51.07000 36.41500
H  8.61600 52.21100 37.11000
H  10.72300 56.81100 38.75400
H  10.20700 58.30300 39.39300
H  10.04100 58.09000 37.63400
H  6.49400 61.26000 37.57400
H  5.97600 60.64300 39.19400
H  5.45100 59.86900 37.62200
H  1.98200 58.05200 39.02000
H  0.95900 56.21400 41.08600
H  2.93500 59.48500 40.82000
H  2.84300 58.02700 41.90800
H  1.39900 58.79300 41.29400
H  0.54200 54.93100 38.71700
H  0.79000 56.43700 38.11900
H  -1.51800 55.64700 38.69700
H  -1.11800 57.34800 38.84000
H  -1.20400 56.30600 40.35100
H  0.83900 51.67900 42.11300
H  1.37000 50.04000 42.37100
H  0.49100 50.49300 40.87900
H  6.42300 48.85400 40.93600
H  5.87700 46.33100 37.27000
H  7.10900 45.50300 38.25200
H  7.44800 47.02400 37.49500

