158

Mg 34.42400 3.15100 29.81500
C  32.27500 4.17600 32.41100
C  36.91700 3.24400 32.22100
C  36.53700 3.02000 27.26500
C  31.74700 3.56300 27.52200
N  34.64200 3.91000 32.05800
C  33.54200 4.11100 32.89700
C  33.93400 4.04100 34.36500
C  35.51400 4.23900 34.28200
C  35.72400 3.61700 32.79700
C  36.16900 5.69900 34.51900
C  33.53900 2.74800 35.10100
C  33.32300 2.92600 36.60000
H  33.94900 4.12700 37.34900
N  36.44900 2.98600 29.75100
C  37.32100 3.02000 30.83400
C  38.66100 2.87300 30.42100
C  38.57100 2.80900 28.96700
C  37.14900 2.86100 28.58200
C  39.84700 2.82300 31.34400
C  39.69100 2.65700 27.98400
O  39.54700 2.64900 26.77000
C  41.09300 2.42600 28.42800
N  34.21400 3.51800 27.74100
C  35.24900 3.28300 26.84300
C  34.70100 3.22300 25.33700
C  33.15900 3.21200 25.48900
C  33.02600 3.42900 26.98500
C  35.29400 4.33600 24.52000
C  32.44000 2.05800 24.88400
C  32.30100 0.70500 25.61300
N  32.46900 3.72200 29.90400
C  31.50900 3.76800 28.91500
C  30.25400 4.13900 29.52100
C  30.46600 4.20600 30.82900
C  31.87000 4.02500 31.03500
C  29.00300 4.44000 28.73900
C  29.83400 4.39400 32.11400
O  28.63100 4.62000 32.44700
C  30.95400 4.41100 33.16500
C  30.92800 5.69300 33.97900
O  31.34600 6.78500 33.64200
O  30.33000 5.47500 35.24200
C  30.47600 6.48800 36.31800
H  37.64600 3.07200 33.01500
H  37.20500 2.86500 26.41500
H  30.89600 3.44100 26.84800
H  33.41300 4.84600 34.88400
H  35.98400 3.52700 34.96200
H  36.65500 5.74300 35.49400
H  35.25300 6.22600 34.78900
H  36.65300 6.21500 33.69000
H  34.05400 1.81800 34.86000
H  32.50100 2.57900 34.81500
H  33.68600 2.01000 37.06500
H  32.28000 2.81500 36.89600
H  39.62300 2.74400 32.40800
H  40.47800 3.68900 31.14300
H  40.41100 1.90800 31.15800
H  41.35800 3.17900 29.17000
H  41.77600 2.62200 27.60200
H  41.08900 1.41600 28.83900
H  35.03100 2.25500 24.95800
H  32.70700 4.13300 25.12200
H  35.74300 4.97000 25.28400
H  34.59500 4.96200 23.96400
H  36.12000 4.03500 23.87600
H  32.91100 1.67800 23.97700
H  31.50000 2.48000 24.52700
H  31.22800 0.77500 25.79300
H  32.87100 0.83800 26.53200
H  32.50800 -0.17200 24.99900
H  28.32100 5.10400 29.27000
H  28.51400 3.53100 28.38800
H  29.25500 4.99400 27.83500
H  30.80600 3.52700 33.78600
H  29.90200 7.35700 35.99700
H  31.50600 6.66400 36.62800
H  30.00600 6.09700 37.22000
Mg 49.75100 35.58700 26.52700
C  47.68800 34.34500 29.27500
C  50.39600 38.39100 28.34800
C  51.62100 36.55000 23.93100
C  48.66000 32.74100 24.68400
N  49.02500 36.31300 28.60600
C  48.30600 35.60900 29.59200
C  48.40900 36.29100 30.92400
C  48.86700 37.79300 30.44400
C  49.46100 37.48500 29.06000
C  47.78800 38.84100 30.33200
C  49.44900 35.64700 31.77800
C  49.07300 35.49000 33.24000
H  48.02500 36.36300 33.87300
N  50.90000 37.25200 26.18000
C  51.08700 38.33500 27.04900
C  52.03600 39.23600 26.42800
C  52.49000 38.64500 25.18500
C  51.65700 37.42200 25.05100
C  52.37000 40.59900 27.08400
C  53.42200 39.34600 24.19900
O  53.68200 38.81400 23.09500
C  54.18800 40.64500 24.54200
N  50.00900 34.82100 24.54700
C  50.86200 35.37900 23.75100
C  51.07500 34.51900 22.44800
C  50.31400 33.28900 22.78200
C  49.60100 33.62700 24.05800
C  50.88700 35.13900 21.04900
C  51.22500 32.07200 23.08800
C  50.68800 30.68200 22.92900
N  48.37800 33.96100 26.81200
C  48.12300 32.86300 25.99900
C  47.33100 31.88400 26.72400
C  47.06900 32.47400 27.96000
C  47.79400 33.70800 28.01900
C  46.69700 30.68800 26.12000
C  46.37300 32.21100 29.19500
O  45.70400 31.28400 29.56900
C  46.64600 33.47800 30.07100
C  47.01100 32.98900 31.48700
O  48.13500 32.57000 31.78300
O  45.92200 32.84200 32.27900
C  46.20500 32.19700 33.60800
H  50.64400 39.16600 29.07600
H  52.28100 36.88400 23.12800
H  48.40500 31.84800 24.11000
H  47.40300 36.27500 31.34300
H  49.55000 38.28500 31.13600
H  48.14600 39.72000 30.86900
H  46.95400 38.41300 30.88800
H  47.52300 39.13100 29.31600
H  50.35000 36.25300 31.68400
H  49.53900 34.60400 31.47500
H  49.92500 35.38900 33.91200
H  48.70300 34.46500 33.24200
H  51.50800 40.84300 27.70600
H  52.37700 41.42500 26.37300
H  53.34900 40.62700 27.56200
H  53.76500 41.63200 24.35900
H  55.01200 40.60700 23.83000
H  54.44400 40.50800 25.59300
H  52.14500 34.31700 22.48600
H  49.55700 32.99400 22.05600
H  50.13200 34.58800 20.48800
H  51.81900 35.17900 20.48700
H  50.56700 36.16900 21.21000
H  51.74800 32.12100 24.04400
H  51.95300 32.06400 22.27700
H  51.14900 30.04700 23.68600
H  51.02700 30.30900 21.96200
H  49.61100 30.52000 22.95700
H  47.28700 30.19800 25.34600
H  45.71300 30.95500 25.73400
H  46.69900 29.97300 26.94300
H  45.65700 33.93600 30.06600
H  47.11200 31.59600 33.67800
H  45.36600 31.50500 33.68900
H  46.06900 32.86400 34.45900

