158

Mg 25.06400 -8.05600 47.35300
C  27.43000 -5.80600 46.06100
C  22.90600 -7.11200 44.90000
C  23.36900 -10.83600 48.01100
C  27.92400 -9.56700 49.18500
N  25.29700 -6.80300 45.34200
C  26.23600 -5.75900 45.26100
C  25.84200 -4.75400 44.16200
C  24.34300 -5.13600 43.97600
C  24.15900 -6.43700 44.75900
C  23.32400 -4.01100 44.36300
C  26.63900 -4.87900 42.82700
C  27.73200 -3.78300 42.64900
H  27.83400 -3.21200 41.23400
N  23.25100 -8.77200 46.79600
C  22.52100 -8.19500 45.79400
C  21.27900 -8.85500 45.77600
C  21.37000 -9.90700 46.76000
C  22.73600 -9.86700 47.27200
C  20.09500 -8.37400 44.88400
C  20.37400 -10.89100 47.16300
O  19.33100 -10.93300 46.53300
C  20.37500 -11.75200 48.46300
N  25.59000 -9.93000 48.47500
C  24.64200 -10.88500 48.58400
C  25.20500 -12.22000 49.24500
C  26.48900 -11.63700 49.86400
C  26.69000 -10.26100 49.19000
C  24.30600 -12.92900 50.25600
C  27.70100 -12.54900 49.82600
C  28.53900 -12.68700 51.19000
N  27.16600 -7.80600 47.69600
C  28.18100 -8.37400 48.50600
C  29.44300 -7.58900 48.38500
C  29.12400 -6.61100 47.44800
C  27.77700 -6.77000 47.07500
C  30.71400 -7.80600 49.29100
C  29.77600 -5.48000 46.85400
O  30.85600 -4.99400 47.10300
C  28.65000 -4.81000 46.02200
C  28.30800 -3.43200 46.61800
O  27.54300 -3.27900 47.58500
O  28.95800 -2.43000 45.90800
C  28.44700 -1.04100 46.04700
H  22.25800 -6.71900 44.11300
H  22.80400 -11.75400 48.18400
H  28.78000 -10.02700 49.68300
H  25.98900 -3.77800 44.62500
H  24.19200 -5.36900 42.92200
H  22.41600 -4.03200 43.76000
H  23.93200 -3.10800 44.29500
H  23.01900 -4.10000 45.40500
H  25.99100 -4.92600 41.95200
H  27.07200 -5.87100 42.95100
H  28.69600 -4.23600 42.87900
H  27.58800 -2.91900 43.29800
H  20.13200 -7.30400 44.67800
H  19.17100 -8.57800 45.42500
H  20.04200 -8.96600 43.97100
H  20.88900 -12.68800 48.24400
H  19.32200 -11.81400 48.74000
H  20.99100 -11.20600 49.17800
H  25.52100 -12.86600 48.42600
H  26.20500 -11.37600 50.88400
H  24.46800 -12.58500 51.27800
H  24.33700 -14.01700 50.18800
H  23.27100 -12.66600 50.03700
H  28.35300 -12.31100 48.98500
H  27.32900 -13.54200 49.57300
H  29.46600 -12.12000 51.10000
H  28.70300 -13.74600 51.39000
H  27.90000 -12.27000 51.96800
H  30.48400 -8.34600 50.20900
H  31.13500 -6.84800 49.59500
H  31.49700 -8.26700 48.68800
H  28.91500 -4.50000 45.01100
H  28.79200 -0.50900 46.93300
H  27.35800 -1.01900 46.09300
H  28.79500 -0.52100 45.15400
Mg 26.50900 51.98800 26.74200
C  24.25200 52.90800 29.31100
C  28.77800 51.24500 29.14800
C  28.71200 51.74300 24.33500
C  24.10500 53.14400 24.46200
N  26.48600 52.17700 29.02500
C  25.46200 52.39200 29.85700
C  25.90000 52.16200 31.35500
C  27.35900 51.72800 31.19100
C  27.56300 51.69400 29.66200
C  28.39400 52.66200 31.93900
C  25.00200 51.11400 32.15000
C  25.42200 50.86100 33.59600
H  24.56300 51.26600 34.76300
N  28.52500 51.46900 26.80900
C  29.23100 51.17500 27.85400
C  30.54000 50.79900 27.34900
C  30.51800 50.97200 25.94300
C  29.20900 51.41300 25.61800
C  31.66600 50.22900 28.23400
C  31.75600 50.83500 25.05500
O  31.63300 51.14200 23.89300
C  33.08200 50.43700 25.52000
N  26.37900 52.32700 24.71100
C  27.39000 52.02600 23.93300
C  27.05100 52.27500 22.38400
C  25.57500 52.54900 22.45500
C  25.31600 52.83400 23.92100
C  27.89000 53.32300 21.73500
C  24.63600 51.43200 21.80000
C  23.75200 51.96700 20.64700
N  24.58300 52.95700 26.83800
C  23.75100 53.23300 25.83400
C  22.51400 53.75300 26.32900
C  22.65700 53.57500 27.71500
C  23.93500 53.13900 27.99800
C  21.36900 54.37900 25.63400
C  21.97500 53.70800 29.05500
O  20.88700 54.15000 29.41500
C  23.00200 53.33200 30.07400
C  23.20700 54.51700 30.96500
O  23.68900 55.60000 30.63100
O  22.79100 54.17300 32.22800
C  22.56400 55.26500 33.17400
H  29.43800 50.90700 29.95000
H  29.37600 51.74800 23.46900
H  23.27600 53.58400 23.90500
H  25.77900 53.11100 31.87700
H  27.47200 50.74100 31.64100
H  29.23000 52.88800 31.27700
H  28.82100 52.07500 32.75200
H  28.08100 53.63400 32.32000
H  25.14600 50.22200 31.54000
H  23.95200 51.38500 32.03900
H  26.40400 51.32900 33.66500
H  25.49900 49.77800 33.70000
H  31.93800 49.20300 27.98600
H  31.40600 50.27500 29.29200
H  32.50000 50.92700 28.15500
H  33.31000 51.16500 26.29900
H  33.85100 50.51900 24.75300
H  33.07100 49.41700 25.90300
H  27.33200 51.29200 22.00700
H  25.42800 53.55400 22.05900
H  27.27900 54.09700 21.27100
H  28.46600 52.85400 20.93700
H  28.52100 53.70300 22.53800
H  23.93900 51.03700 22.54000
H  25.24300 50.58300 21.48700
H  23.85500 51.30700 19.78600
H  24.01500 52.99200 20.38500
H  22.70000 51.88400 20.91900
H  21.80800 55.16200 25.01500
H  20.80900 54.72100 26.50500
H  20.87100 53.60600 25.05000
H  22.64600 52.48100 30.65600
H  23.51100 55.79500 33.26900
H  22.33400 54.82700 34.14500
H  21.73800 55.90400 32.86200

