158

Mg 16.56700 -1.40900 28.18900
C  15.46300 0.46300 30.93800
C  18.64500 -3.08500 30.27600
C  17.56400 -3.06600 25.62000
C  14.65000 0.72800 26.21600
N  17.05600 -1.24400 30.38800
C  16.38900 -0.48400 31.33300
C  16.83500 -0.82200 32.79500
C  18.17700 -1.66400 32.52900
C  18.05600 -2.00100 30.96900
C  19.54600 -0.84800 32.89900
C  15.72700 -1.67200 33.42700
C  15.39900 -1.34300 34.87900
H  16.43900 -0.63200 35.72800
N  17.81500 -3.00400 27.99500
C  18.53000 -3.63800 28.98700
C  19.18400 -4.87300 28.41100
C  18.88700 -4.78300 27.03700
C  18.02500 -3.61100 26.83800
C  20.13900 -5.73800 29.24700
C  19.50700 -5.56700 25.91800
O  19.12100 -5.45500 24.76000
C  20.48300 -6.55500 26.19000
N  16.12100 -1.17700 26.14800
C  16.75900 -1.99900 25.24600
C  16.36000 -1.59600 23.81600
C  15.39400 -0.35500 24.13000
C  15.31700 -0.29000 25.57700
C  17.63800 -1.32900 22.92500
C  13.99500 -0.47300 23.49000
C  12.85300 -1.24100 24.10700
N  15.33100 0.26200 28.46100
C  14.56700 1.04200 27.59000
C  13.83700 2.08400 28.25400
C  14.10400 1.84500 29.57200
C  15.07200 0.81700 29.60700
C  12.83100 3.00900 27.70900
C  13.61700 2.16200 30.94500
O  12.75100 2.95800 31.30000
C  14.67300 1.39000 31.93200
C  15.32300 2.56200 32.63000
O  16.03700 3.33800 32.03400
O  15.11800 2.63600 33.98700
C  15.65200 3.69400 34.86000
H  19.20100 -3.73700 30.95200
H  17.76600 -3.73900 24.78400
H  14.08700 1.44500 25.61500
H  16.99600 0.07400 33.39400
H  18.22700 -2.56600 33.13800
H  19.33300 0.16700 33.23400
H  20.10200 -0.91500 31.96400
H  20.03400 -1.49400 33.63000
H  15.93400 -2.74100 33.45100
H  14.82500 -1.50600 32.83800
H  15.18800 -2.29300 35.37000
H  14.51200 -0.71500 34.96100
H  19.94500 -5.55600 30.30400
H  21.20900 -5.53600 29.22300
H  19.93600 -6.76000 28.92500
H  20.21100 -7.55700 26.52100
H  21.24700 -6.03300 26.76600
H  20.96500 -6.76400 25.23500
H  15.67700 -2.39300 23.52200
H  15.89700 0.55100 23.79400
H  18.28500 -0.58400 23.38800
H  17.15100 -0.80900 22.10000
H  18.16500 -2.20500 22.54500
H  14.12800 -0.85300 22.47800
H  13.70000 0.56900 23.36700
H  12.50200 -1.89800 23.31100
H  12.05700 -0.52900 24.32600
H  13.14700 -1.93100 24.89800
H  13.27500 4.00500 27.72700
H  11.96000 3.15900 28.34700
H  12.51300 2.74400 26.70000
H  14.20500 0.83800 32.74700
H  16.09500 3.03700 35.60900
H  14.90200 4.16300 35.49700
H  16.24600 4.50600 34.44200
Mg -5.52800 25.14500 26.30900
C  -3.88500 26.72800 29.14500
C  -7.35500 23.32800 28.49400
C  -6.96700 23.73100 23.73700
C  -3.54300 27.24400 24.28300
N  -5.62600 25.12000 28.59400
C  -4.96900 25.88900 29.51300
C  -5.50000 25.46100 30.85800
C  -6.27800 24.12800 30.63900
C  -6.42100 24.18000 29.18600
C  -5.50900 22.88100 31.15700
C  -6.34000 26.53500 31.52000
C  -6.22100 26.58500 33.05000
H  -5.71500 25.36300 33.84600
N  -6.96700 23.79400 26.13500
C  -7.67800 23.22300 27.13900
C  -8.69700 22.33700 26.65700
C  -8.51900 22.35000 25.25900
C  -7.42800 23.27900 24.98500
C  -9.80500 21.75600 27.51800
C  -9.26800 21.66600 24.15900
O  -9.03900 21.96200 23.00100
C  -10.37200 20.60800 24.50100
N  -5.32300 25.53700 24.31300
C  -6.00400 24.76300 23.38600
C  -5.50600 25.02400 21.92700
C  -4.66500 26.29600 22.17300
C  -4.52200 26.43400 23.70100
C  -4.57300 23.90400 21.40600
C  -5.24600 27.58500 21.54800
C  -4.54900 28.01200 20.18500
N  -3.86900 26.40800 26.59500
C  -3.19000 27.20800 25.67100
C  -2.27200 28.08200 26.34900
C  -2.48200 27.83800 27.66500
C  -3.51800 26.88200 27.78800
C  -1.19000 28.97900 25.74100
C  -2.06400 28.31200 28.98600
O  -1.18400 29.04600 29.35000
C  -2.99000 27.59300 29.98500
C  -2.15400 26.75500 30.93200
O  -1.44500 25.77500 30.63000
O  -2.29400 27.34400 32.19300
C  -1.41600 26.64700 33.15400
H  -7.79000 22.62000 29.20300
H  -7.36500 23.29800 22.81700
H  -2.85500 27.81800 23.65800
H  -4.67000 25.29600 31.54500
H  -7.26200 24.10200 31.10500
H  -5.23200 22.11100 30.43800
H  -6.16600 22.39600 31.88000
H  -4.54700 23.04100 31.64300
H  -7.37800 26.48600 31.19200
H  -6.09000 27.55500 31.23000
H  -7.24200 26.75000 33.39400
H  -5.57400 27.42500 33.30600
H  -10.75100 22.27500 27.36500
H  -9.58500 21.87200 28.57900
H  -9.94400 20.70400 27.26600
H  -10.63100 20.16500 23.53900
H  -11.24000 21.06700 24.97500
H  -10.03800 19.74600 25.07800
H  -6.34000 25.17800 21.24200
H  -3.61000 26.28200 21.90000
H  -4.61400 23.95900 20.31800
H  -4.79100 22.91000 21.79700
H  -3.55900 23.97600 21.80000
H  -5.24500 28.45300 22.20700
H  -6.29300 27.46200 21.27100
H  -3.91700 27.17600 19.88300
H  -3.91200 28.89600 20.16000
H  -5.20200 28.07700 19.31500
H  -1.72700 29.66900 25.09000
H  -0.58100 28.38900 25.05600
H  -0.57900 29.50400 26.47600
H  -3.56100 28.26400 30.62600
H  -0.39400 27.01500 33.06300
H  -1.47800 25.57700 32.95400
H  -1.88100 26.83000 34.12300

