158

Mg 8.71500 2.98900 27.77900
C  10.12100 1.59100 30.71200
C  6.91200 5.22800 29.90800
C  7.29400 4.44500 25.14400
C  10.18300 0.55600 25.83200
N  8.42000 3.27000 30.07500
C  9.13700 2.60500 31.08200
C  8.83300 3.14500 32.48300
C  7.90800 4.32400 32.16700
C  7.60600 4.27500 30.60400
C  6.62500 4.36500 33.06900
C  10.15300 3.63000 33.10300
C  10.07500 4.28500 34.47100
H  10.35600 3.41900 35.69500
N  7.30300 4.61700 27.51400
C  6.71300 5.34100 28.51900
C  5.91400 6.38900 27.90800
C  6.19600 6.38200 26.48600
C  6.95400 5.13800 26.28400
C  5.18900 7.52100 28.70700
C  5.85100 7.33300 25.38400
O  6.10600 7.12600 24.21100
C  5.21900 8.60800 25.74500
N  8.75100 2.59100 25.73700
C  8.02400 3.32100 24.83300
C  8.19200 2.74800 23.46800
C  9.33500 1.64600 23.63600
C  9.39500 1.52000 25.16000
C  6.89100 2.17200 22.72400
C  10.68900 1.91400 22.96800
C  11.48900 0.85200 22.31900
N  9.87100 1.35800 28.11500
C  10.40700 0.46100 27.25800
C  11.28000 -0.49400 27.92300
C  11.15600 -0.09200 29.29600
C  10.35700 1.06300 29.34900
C  12.00100 -1.66500 27.32200
C  11.56900 -0.45300 30.61200
O  12.20900 -1.42900 30.99600
C  10.94700 0.63400 31.61600
C  10.12200 0.10300 32.68900
O  9.02400 -0.41900 32.56900
O  10.89600 0.02000 33.87100
C  10.22200 -0.66000 34.99600
H  6.44400 6.06300 30.43400
H  6.88400 4.94100 24.26200
H  10.83800 -0.07300 25.22600
H  8.41200 2.36900 33.12300
H  8.47700 5.23900 32.32800
H  5.95600 5.01100 32.50000
H  6.76100 4.68700 34.10100
H  6.30000 3.32700 32.99200
H  10.68600 4.20700 32.34800
H  10.88000 2.82000 33.15800
H  9.00600 4.33400 34.67400
H  10.62500 5.22600 34.48200
H  5.79000 8.43000 28.67400
H  5.05400 7.32100 29.77000
H  4.32500 7.79100 28.10000
H  5.20700 9.25700 24.87000
H  5.64200 9.07700 26.63300
H  4.22500 8.31600 26.08400
H  8.66400 3.63100 23.03800
H  8.95200 0.72200 23.20100
H  6.86200 1.11600 22.45400
H  6.66700 2.70300 21.79900
H  6.00800 2.28100 23.35400
H  11.33600 2.21600 23.79100
H  10.62800 2.71700 22.23400
H  11.01200 -0.12800 22.35800
H  12.47500 0.80700 22.78100
H  11.71500 1.10400 21.28200
H  11.83300 -1.65000 26.24500
H  11.57700 -2.60700 27.67000
H  13.07400 -1.66900 27.51300
H  11.74100 1.24200 32.05100
H  10.04200 -1.69100 34.69100
H  9.22700 -0.29000 35.24000
H  10.81600 -0.59400 35.90700
Mg 47.06900 15.99100 27.82400
C  45.25400 15.27800 30.78200
C  48.97000 18.10700 29.83500
C  48.97200 16.67600 25.17600
C  44.99800 14.01000 25.95500
N  47.14600 16.51300 30.12600
C  46.33800 16.12600 31.13700
C  46.77300 16.67400 32.47100
C  47.75200 17.77000 32.10300
C  47.98900 17.47500 30.58200
C  47.39100 19.20000 32.51400
C  47.31500 15.60000 33.41500
C  47.10800 15.70800 34.92200
H  48.34400 15.58300 35.80500
N  48.64800 17.22000 27.53900
C  49.26400 18.00600 28.51700
C  50.45000 18.62900 27.92200
C  50.48800 18.30800 26.51500
C  49.26700 17.43200 26.33000
C  51.47200 19.46200 28.70800
C  51.37100 18.82800 25.41000
O  51.26100 18.47200 24.26200
C  52.55700 19.73400 25.73400
N  46.98000 15.46400 25.83000
C  47.96500 15.77000 24.93400
C  47.77800 14.96100 23.66100
C  46.45700 14.28500 23.82000
C  46.09500 14.52800 25.29400
C  47.81800 15.74900 22.34800
C  46.49800 12.75300 23.39800
C  45.99800 12.48200 21.89400
N  45.40300 14.92100 28.22700
C  44.61800 14.20300 27.30300
C  43.53200 13.63000 28.01300
C  43.71100 13.97000 29.38900
C  44.89200 14.83100 29.46700
C  42.43300 12.89000 27.25300
C  43.31700 13.75800 30.78700
O  42.44200 13.06400 31.31800
C  44.24700 14.63400 31.72600
C  43.41900 15.59500 32.44800
O  42.63500 16.33000 31.98600
O  43.74300 15.55100 33.77900
C  42.97600 16.34300 34.63500
H  49.53400 18.79900 30.46300
H  49.57900 16.80100 24.27700
H  44.32800 13.44500 25.30300
H  45.92500 17.15900 32.95300
H  48.64900 17.58000 32.69300
H  46.85000 19.37100 33.44500
H  46.99600 19.57000 31.56800
H  48.33200 19.73000 32.66000
H  48.36200 15.47900 33.13800
H  46.86300 14.65400 33.11600
H  46.39800 14.89900 35.09400
H  46.59400 16.62200 35.21900
H  51.71100 20.36500 28.14700
H  52.38800 18.96600 29.02800
H  51.07200 19.82100 29.65600
H  52.14300 20.71600 25.96400
H  53.24500 19.88300 24.90200
H  53.06300 19.35300 26.62100
H  48.59900 14.24400 23.66000
H  45.61600 14.69300 23.25800
H  48.62400 15.38300 21.71200
H  48.03600 16.79700 22.55500
H  46.91000 15.70000 21.74800
H  45.99600 12.08900 24.10200
H  47.55300 12.51300 23.52500
H  46.75600 11.83100 21.45700
H  45.87000 13.36000 21.26100
H  45.07500 11.90400 21.94900
H  42.13800 13.13000 26.23200
H  41.54800 13.33200 27.71100
H  42.38800 11.82900 27.49900
H  44.71400 13.98800 32.47000
H  43.34500 16.18600 35.64900
H  41.95300 15.99900 34.48100
H  43.04500 17.38600 34.32700

