158

Mg 48.65900 13.60600 27.44600
C  46.49500 14.37000 30.30600
C  51.03500 15.55700 28.97700
C  50.42300 13.05200 24.72500
C  45.76100 12.17400 26.02300
N  48.72700 14.74600 29.52400
C  47.83800 14.81900 30.54100
C  48.46400 15.57800 31.71000
C  49.86600 16.00600 31.19600
C  49.87400 15.40900 29.79000
C  50.00300 17.53400 31.12400
C  48.51700 14.53600 32.97500
C  48.03400 15.11300 34.27300
H  49.07100 14.90100 35.43700
N  50.46200 14.13800 26.97900
C  51.28100 14.98000 27.71800
C  52.44100 15.25200 26.92800
C  52.31900 14.60700 25.63500
C  51.05200 13.84100 25.69900
C  53.58300 16.18000 27.46000
C  53.32200 14.67000 24.47100
O  53.01800 14.13200 23.42400
C  54.71500 15.24800 24.51700
N  48.20300 12.67800 25.71200
C  49.08700 12.56700 24.71400
C  48.50000 11.77600 23.47900
C  47.12200 11.30200 24.07300
C  47.00400 12.09800 25.35800
C  48.28800 12.65600 22.20600
C  47.05400 9.77300 24.24000
C  47.98500 9.15600 25.29800
N  46.53900 13.40900 27.98300
C  45.54900 12.76200 27.27400
C  44.36800 12.73100 28.04900
C  44.72600 13.33700 29.27800
C  46.04200 13.68000 29.13100
C  43.17600 12.01100 27.68300
C  44.20500 13.64600 30.57900
O  43.11900 13.45100 31.10500
C  45.33100 14.40600 31.32700
C  44.90000 15.75700 31.77500
O  44.74600 16.67200 31.04900
O  44.81400 15.81000 33.14400
C  44.45500 17.08400 33.72800
H  51.74800 16.17000 29.53300
H  50.90800 12.89100 23.76000
H  44.93900 11.71900 25.46600
H  47.80500 16.39700 31.99600
H  50.63100 15.56400 31.83500
H  50.77200 17.83400 31.83500
H  49.15400 18.15800 31.40400
H  50.41300 17.82300 30.15600
H  49.55600 14.21000 33.02300
H  47.94200 13.64600 32.71900
H  47.16900 14.47200 34.44200
H  47.62200 16.12300 34.26000
H  53.25900 16.86400 28.24400
H  54.05600 16.77100 26.67600
H  54.32700 15.54300 27.93800
H  55.47300 14.82300 25.17500
H  54.52300 16.28000 24.81000
H  55.19800 15.21900 23.54000
H  49.03900 10.86800 23.20900
H  46.30100 11.50600 23.38500
H  49.18400 12.63400 21.58600
H  48.04900 13.67300 22.51700
H  47.43200 12.27600 21.64700
H  47.36000 9.34800 23.28400
H  46.02000 9.54000 24.49400
H  48.35900 9.83200 26.06800
H  48.84800 8.71600 24.79800
H  47.56000 8.35700 25.90500
H  43.35100 10.93700 27.74600
H  42.79600 12.35800 26.72200
H  42.48700 12.20700 28.50400
H  45.56100 13.76700 32.18000
H  43.38900 17.10700 33.95200
H  44.63300 18.02100 33.20000
H  44.96400 17.20300 34.68500
Mg 47.82000 45.32400 42.74500
C  44.50400 44.25800 42.72500
C  48.71900 41.85400 42.60000
C  50.92600 46.13200 41.90700
C  46.73200 48.64500 42.60100
N  46.78300 43.33700 42.73200
C  45.43200 43.18000 42.71900
C  45.09700 41.68500 42.76500
C  46.41300 40.87800 42.91400
C  47.36100 42.07100 42.76500
C  46.58800 40.07400 44.30000
C  44.13300 41.04100 41.68400
C  44.74000 41.13900 40.19900
H  43.76900 41.00300 38.94400
N  49.60500 44.20200 42.39400
C  49.77200 42.80500 42.38400
C  51.23500 42.49100 42.24300
C  51.83600 43.71700 42.00100
C  50.85500 44.74900 42.08200
C  51.76900 41.10500 42.05400
C  53.29000 43.88700 41.62000
O  54.00200 42.89200 41.49900
C  53.91000 45.18900 41.41600
N  48.61800 47.03800 42.34000
C  49.97000 47.19000 42.05200
C  50.39100 48.66100 41.97900
C  49.20700 49.39500 42.52700
C  48.08500 48.30400 42.47500
C  51.68100 49.12900 42.67800
C  48.87000 50.68500 41.71600
C  48.55200 51.92200 42.54600
N  46.04000 46.26000 42.91100
C  45.68500 47.66800 42.65900
C  44.29700 47.79800 42.56800
C  43.74800 46.46500 42.69600
C  44.85700 45.59900 42.83600
C  43.49200 49.00400 42.16900
C  42.53400 45.71200 42.70900
O  41.34100 46.03800 42.61400
C  42.95900 44.18900 42.85200
C  42.37500 43.67900 44.15100
O  41.40500 42.90300 44.27200
O  42.89300 44.48400 45.12900
C  42.35200 44.43700 46.43600
H  49.03500 40.81300 42.69400
H  51.86500 46.60600 41.61400
H  46.44400 49.69400 42.69600
H  44.58300 41.61000 43.72400
H  46.66700 40.11600 42.17600
H  45.57400 40.01700 44.69400
H  47.15300 40.74700 44.94500
H  47.11700 39.12200 44.34000
H  43.08500 41.30700 41.82600
H  44.03900 39.98900 41.95500
H  45.37200 40.25300 40.26400
H  45.30300 42.05900 40.04700
H  52.24400 40.97400 41.08100
H  51.02100 40.34800 42.28800
H  52.63000 40.95800 42.70500
H  53.67800 45.64500 40.45300
H  54.98700 45.03800 41.48800
H  53.52700 45.80000 42.23400
H  50.49500 48.69900 40.89500
H  49.40500 49.65600 43.56700
H  51.63500 50.20200 42.86600
H  52.58900 48.86000 42.13700
H  51.76000 48.59700 43.62600
H  48.10900 50.40000 40.99000
H  49.71500 50.94300 41.07600
H  47.52800 52.27200 42.41800
H  49.10000 52.77900 42.15600
H  48.84900 51.73900 43.57900
H  42.61200 48.72700 41.58800
H  44.11900 49.69700 41.60800
H  43.25800 49.53800 43.08900
H  42.44500 43.67700 42.03900
H  41.52000 43.73700 46.51900
H  41.98600 45.38200 46.83600
H  43.21000 44.12700 47.03200

