158

Mg 8.54200 3.52300 27.48400
C  9.57900 1.96400 30.41700
C  6.48100 5.61300 29.33200
C  7.32800 4.81000 24.55500
C  9.97900 0.91200 25.58100
N  7.99700 3.76900 29.62200
C  8.65600 2.99900 30.61900
C  8.40300 3.56300 32.02500
C  7.33100 4.68400 31.66200
C  7.22200 4.70400 30.09700
C  6.01700 4.53800 32.41000
C  9.62000 4.22000 32.69700
C  9.59100 4.29200 34.25400
H  10.70200 3.53100 35.02100
N  7.16400 5.16800 27.00000
C  6.44700 5.88500 27.90200
C  5.80400 6.95900 27.15400
C  5.96300 6.75600 25.77000
C  6.87300 5.53200 25.72300
C  5.06300 8.05300 27.85900
C  5.39600 7.46100 24.59200
O  5.57100 7.17400 23.39100
C  4.50000 8.62500 24.85500
N  8.63400 2.85400 25.32700
C  8.03400 3.60800 24.37900
C  8.34500 2.99200 22.97600
C  9.40500 1.92300 23.36400
C  9.25800 1.81600 24.82800
C  7.10100 2.43600 22.23300
C  10.82500 2.21700 22.94500
C  11.45400 1.08800 22.07800
N  9.63700 1.87500 27.86200
C  10.09700 0.89500 27.00200
C  10.86100 -0.09700 27.81200
C  10.73500 0.38400 29.12900
C  9.93700 1.49300 29.16400
C  11.67300 -1.27300 27.36200
C  11.13800 0.12900 30.49300
O  11.90200 -0.68900 30.97700
C  10.31100 1.08500 31.40800
C  9.40600 0.16700 32.25100
O  8.59600 -0.65300 31.84600
O  9.66200 0.41300 33.56600
C  9.12300 -0.58700 34.49800
H  6.04400 6.43900 29.89600
H  6.99400 5.25400 23.61500
H  10.43400 0.04200 25.10300
H  7.94000 2.84600 32.70300
H  7.75200 5.66300 31.88700
H  5.23000 4.71700 31.67700
H  5.87300 5.29800 33.17800
H  6.01800 3.59700 32.96100
H  9.74300 5.25700 32.38400
H  10.45200 3.61400 32.33900
H  8.58200 4.10100 34.61900
H  9.79600 5.32100 34.54800
H  5.35000 9.09400 27.70900
H  5.12000 7.90200 28.93700
H  4.01100 7.98700 27.58100
H  3.50800 8.34100 25.20500
H  4.52100 9.29400 23.99500
H  4.89600 9.28400 25.62800
H  8.82300 3.69300 22.29000
H  9.15700 0.93600 22.97300
H  6.26800 2.66000 22.89900
H  7.13100 1.37700 21.97700
H  6.93900 3.04900 21.34700
H  11.40700 2.40300 23.84700
H  11.05000 3.13500 22.40200
H  10.94300 0.12500 22.10100
H  12.42400 0.72600 22.41800
H  11.45800 1.36600 21.02400
H  11.59200 -1.51000 26.30100
H  11.55200 -2.13500 28.01700
H  12.72700 -1.00100 27.42200
H  11.01900 1.59400 32.06300
H  9.95400 -1.22600 34.79500
H  8.35300 -1.22400 34.06400
H  8.68200 -0.17900 35.40700
Mg 40.55000 41.49200 27.13200
C  39.98000 43.60600 29.75700
C  41.54500 39.13000 29.33800
C  41.49100 39.63200 24.53000
C  39.76600 44.02800 24.93500
N  40.59600 41.36300 29.27000
C  40.18800 42.33800 30.18300
C  40.11900 41.85500 31.63800
C  40.80200 40.37700 31.43900
C  41.00300 40.30500 29.90300
C  42.09900 40.16800 32.31800
C  38.61700 41.96500 32.14300
C  38.38600 41.17900 33.35600
H  37.62400 41.87500 34.50600
N  41.42400 39.64700 26.98600
C  41.79700 38.81000 28.02200
C  42.30600 37.58700 27.49200
C  42.29400 37.66400 26.08500
C  41.76300 39.03700 25.78500
C  42.73500 36.42300 28.34800
C  42.69500 36.68400 25.01500
O  42.56800 36.94600 23.82600
C  43.37200 35.49600 25.41000
N  40.57500 41.70600 25.01200
C  40.91900 40.77000 24.13000
C  40.75600 41.16900 22.66600
C  39.95200 42.58000 22.84600
C  40.10400 42.79700 24.35900
C  42.16800 41.46300 21.91200
C  38.42100 42.38600 22.41100
C  37.68200 41.19200 22.98400
N  40.02700 43.39600 27.24100
C  39.73100 44.36300 26.29200
C  39.46800 45.65900 26.91100
C  39.57100 45.36000 28.23400
C  39.96100 44.05100 28.40900
C  39.08500 46.89100 26.14700
C  39.49400 45.91500 29.54300
O  39.19500 47.02000 29.92100
C  39.73900 44.77800 30.61100
C  40.90600 45.16300 31.52000
O  41.89900 45.74900 31.13900
O  40.63400 44.75500 32.81300
C  41.72700 44.93600 33.75100
H  41.89500 38.44300 30.11200
H  41.67600 39.00000 23.65900
H  39.58800 44.77900 24.16400
H  40.77800 42.42600 32.29300
H  40.11900 39.55100 31.64100
H  42.84200 39.65700 31.70500
H  41.76400 39.48400 33.09700
H  42.61100 41.05400 32.69500
H  38.03700 41.48500 31.35500
H  38.25700 42.99200 32.19900
H  39.30100 40.76800 33.78200
H  37.76500 40.33100 33.06900
H  42.03700 35.60200 28.18600
H  42.81300 36.67700 29.40500
H  43.74200 36.23400 27.97500
H  42.70300 34.82900 25.95400
H  44.25600 35.71700 26.00700
H  43.83400 34.92400 24.60500
H  40.26900 40.39900 22.06800
H  40.36100 43.45700 22.34400
H  43.05900 41.11000 22.43100
H  42.31800 42.52400 21.70900
H  42.19900 41.10200 20.88400
H  38.47600 42.23200 21.33400
H  37.84700 43.30800 22.50800
H  38.25000 40.57500 23.68000
H  37.36400 40.54200 22.16900
H  36.77800 41.53800 23.48500
H  38.45500 46.73800 25.27000
H  39.99400 47.38700 25.80700
H  38.45300 47.46700 26.82400
H  38.86300 44.87400 31.25300
H  42.73900 45.11500 33.38800
H  41.71100 44.06000 34.39900
H  41.46400 45.77700 34.39200

