158

Mg 41.83600 40.50700 26.15700
C  41.51600 43.10300 28.51900
C  42.56600 38.33600 28.89500
C  42.50700 38.17500 24.04800
C  41.25000 42.84200 23.64300
N  42.07500 40.76000 28.42900
C  41.79600 41.92800 29.14800
C  41.75400 41.64800 30.63700
C  42.35300 40.20800 30.74500
C  42.27700 39.71300 29.28100
C  43.77500 40.03700 31.36700
C  40.31500 41.71500 31.27400
C  40.25600 41.48500 32.82600
H  39.62000 42.66400 33.68800
N  42.58000 38.58800 26.40100
C  42.78000 37.91200 27.59500
C  43.16900 36.59000 27.22500
C  43.07300 36.45000 25.82000
C  42.72800 37.73800 25.39000
C  43.69800 35.52500 28.23700
C  43.37200 35.16600 24.97600
O  43.48200 35.25800 23.76500
C  43.48000 33.77800 25.65400
N  41.96800 40.58000 24.16500
C  42.22400 39.43200 23.42300
C  41.88500 39.56700 21.96100
C  41.23500 41.04700 21.97800
C  41.56600 41.55300 23.32100
C  43.07800 39.19400 20.91600
C  39.77600 41.28000 21.54600
C  38.75200 40.75000 22.48600
N  41.47100 42.62200 26.02700
C  41.33100 43.45800 24.94100
C  41.20300 44.87600 25.36200
C  41.19000 44.80700 26.77800
C  41.43300 43.39800 27.12700
C  41.07300 46.13000 24.45200
C  41.03100 45.50200 27.98700
O  40.88800 46.68100 28.21500
C  41.10500 44.45900 29.12400
C  42.21600 44.95800 30.04700
O  43.38600 45.02400 29.76900
O  41.75400 45.01700 31.37800
C  42.81800 45.29400 32.40500
H  42.89500 37.68900 29.71100
H  42.45900 37.37900 23.30100
H  40.98800 43.33200 22.70300
H  42.43400 42.32900 31.14800
H  41.63700 39.61400 31.31400
H  44.18300 41.03700 31.51700
H  44.42500 39.45300 30.71500
H  43.75900 39.41700 32.26300
H  39.79200 40.87300 30.81900
H  39.69500 42.58700 31.06500
H  41.30300 41.40200 33.11500
H  39.83000 40.51500 33.08300
H  43.71700 35.88400 29.26700
H  44.69500 35.31300 27.85200
H  43.11100 34.63700 28.00100
H  42.49800 33.47600 26.01800
H  44.34300 33.81900 26.31800
H  43.74100 33.02900 24.90600
H  41.03900 38.87900 21.95800
H  41.78800 41.56900 21.19800
H  43.29500 40.00600 20.22100
H  42.90600 38.34100 20.26000
H  44.03700 39.09000 21.42400
H  39.62100 40.68800 20.64400
H  39.48400 42.30600 21.32400
H  39.18800 40.63500 23.47800
H  38.35600 39.76400 22.24400
H  37.92400 41.43900 22.65100
H  41.37000 47.11000 24.82500
H  40.02000 46.24900 24.19400
H  41.65700 46.13000 23.53200
H  40.23800 44.58700 29.77200
H  43.80600 45.46000 31.97600
H  42.86700 44.39200 33.01500
H  42.47700 46.18100 32.93800
Mg 36.97900 49.01700 24.99800
C  36.84300 47.18600 28.07800
C  36.22900 51.83800 26.74900
C  36.80500 50.70000 22.12200
C  37.41900 46.00200 23.29300
N  36.44200 49.41200 27.16600
C  36.53800 48.58500 28.19900
C  36.21600 49.26800 29.57000
C  35.73200 50.72800 29.11100
C  36.23800 50.69300 27.56500
C  34.21500 50.91800 29.18400
C  37.36700 49.31900 30.47600
C  37.02900 49.56600 31.98600
H  35.60500 49.63100 32.41200
N  36.57800 51.04500 24.56200
C  36.40000 52.09300 25.41800
C  36.40500 53.33400 24.71900
C  36.59100 52.99900 23.35100
C  36.66300 51.51200 23.28600
C  36.24800 54.67500 25.39500
C  36.56800 53.86100 22.12100
O  36.78600 53.54400 20.99100
C  36.36900 55.31400 22.25200
N  36.81900 48.40900 22.98700
C  36.89700 49.26300 21.95600
C  37.15200 48.64900 20.56400
C  37.42000 47.15300 21.07900
C  37.18300 47.16300 22.55700
C  36.02400 48.69300 19.50100
C  38.90100 46.68800 20.80300
C  39.10800 45.20700 20.32000
N  37.15800 47.03300 25.55300
C  37.32300 45.92600 24.70900
C  37.44700 44.76800 25.52400
C  37.28700 45.26700 26.86300
C  37.08700 46.60700 26.79200
C  37.62300 43.35100 25.04800
C  37.32500 44.84400 28.23800
O  37.47400 43.76400 28.77000
C  37.10500 46.08100 29.11700
C  35.99400 45.99800 30.18900
O  34.83800 45.80800 29.94700
O  36.48200 45.78700 31.50600
C  35.51600 45.24500 32.46000
H  35.95800 52.68200 27.38600
H  36.86800 51.15300 21.13100
H  37.43400 45.04000 22.77800
H  35.38800 48.64300 29.90300
H  36.19900 51.55900 29.64100
H  33.91000 51.79300 29.75700
H  33.68100 50.01400 29.47700
H  33.93900 50.93700 28.13000
H  37.97100 50.17400 30.17100
H  37.97700 48.44900 30.23400
H  37.51300 50.46500 32.36900
H  37.48700 48.74500 32.53800
H  36.26200 54.48700 26.46800
H  35.36500 55.24800 25.11000
H  37.10300 55.29600 25.13100
H  36.96600 55.69800 23.07900
H  35.32700 55.52900 22.49100
H  36.57800 55.79800 21.29800
H  38.10200 48.97500 20.14000
H  36.78700 46.32600 20.75700
H  36.36000 48.99200 18.50800
H  35.31400 49.45400 19.82700
H  35.43200 47.77800 19.52200
H  39.57100 46.83800 21.65000
H  39.24200 47.32300 19.98600
H  38.19900 44.68900 20.01400
H  39.53200 44.62500 21.13800
H  39.83600 45.19500 19.50900
H  37.72100 42.73300 25.94100
H  38.41500 43.33900 24.29800
H  36.64300 43.13900 24.62200
H  38.09900 46.02400 29.56300
H  35.13900 46.09100 33.03500
H  36.11000 44.60200 33.10900
H  34.66100 44.72800 32.02400

