158

Mg 47.17500 25.33500 27.96000
C  47.94000 27.52300 30.48100
C  46.80600 22.85200 30.14000
C  46.34000 23.19400 25.33400
C  47.90600 27.77900 25.59500
N  47.46700 25.16800 30.12000
C  47.64600 26.23800 30.96300
C  47.55900 25.77900 32.42100
C  47.17900 24.27300 32.28500
C  47.15600 24.02900 30.75700
C  48.04300 23.23600 32.95100
C  46.42800 26.59700 33.19700
C  46.86200 26.86200 34.63100
H  45.78100 27.40600 35.63400
N  46.50300 23.30500 27.82300
C  46.44300 22.47800 28.83400
C  46.01000 21.18800 28.36900
C  45.85600 21.27800 26.97400
C  46.26300 22.64400 26.63400
C  45.66900 20.02300 29.24000
C  45.29100 20.22600 26.03100
O  45.00900 20.53200 24.84700
C  44.94800 18.80000 26.43800
N  47.09000 25.45500 25.73200
C  46.73700 24.44400 24.87800
C  46.68900 25.04100 23.39200
C  46.86000 26.55600 23.57900
C  47.30700 26.66100 25.07900
C  47.58900 24.30200 22.30800
C  45.55600 27.40600 23.15900
C  45.40400 27.79600 21.69200
N  47.95900 27.09100 27.97800
C  48.22800 27.98700 26.93700
C  48.59200 29.33600 27.43600
C  48.55300 29.12300 28.82300
C  48.11600 27.77000 29.10300
C  48.83800 30.54200 26.63500
C  48.69700 29.81000 30.14100
O  49.05300 30.94700 30.23600
C  48.30700 28.83200 31.26200
C  49.32000 28.78600 32.40200
O  50.26100 28.00700 32.49400
O  48.91300 29.70200 33.39200
C  49.85800 29.73200 34.53300
H  46.74000 22.00700 30.82800
H  46.09300 22.46800 24.55700
H  48.02900 28.60000 24.88600
H  48.55000 25.90600 32.85500
H  46.15000 24.08500 32.59400
H  48.59300 23.75600 33.73500
H  48.77000 22.76800 32.28700
H  47.45400 22.43900 33.40500
H  45.46700 26.08300 33.22200
H  46.27400 27.59800 32.79400
H  47.59100 27.67100 34.57800
H  47.16000 25.86500 34.95400
H  44.60500 19.79100 29.19900
H  45.87500 20.28500 30.27800
H  46.17900 19.11100 28.93100
H  44.67300 18.36700 25.47700
H  44.07000 18.76100 27.08300
H  45.83400 18.30500 26.83600
H  45.66100 24.78700 23.13200
H  47.64100 26.83700 22.87200
H  47.06900 24.24600 21.35100
H  47.77500 23.27600 22.62400
H  48.56400 24.76100 22.14000
H  45.43900 28.30300 23.76700
H  44.71400 26.75200 23.38400
H  44.54200 27.32800 21.21600
H  46.32700 27.51300 21.18700
H  45.32600 28.87800 21.58500
H  49.02700 31.33400 27.36000
H  47.99800 30.69200 25.95800
H  49.69800 30.34700 25.99400
H  47.42100 29.31500 31.67300
H  49.65100 28.91600 35.22600
H  49.86600 30.66100 35.10300
H  50.89700 29.53000 34.27500
Mg -10.57600 39.94300 39.81100
C  -9.59400 36.83700 39.00400
C  -7.62200 41.23600 38.76600
C  -11.91600 43.06100 39.99100
C  -13.86700 38.61700 40.11300
N  -8.83000 39.14600 38.99000
C  -8.62200 37.77900 38.76500
C  -7.24700 37.56900 38.13500
C  -6.48400 38.93900 38.48900
C  -7.71200 39.82500 38.82800
C  -5.45700 38.84400 39.66300
C  -7.48800 37.48200 36.54100
C  -6.98800 36.15800 35.89100
H  -8.00100 35.62200 34.77400
N  -9.87000 41.87500 39.50800
C  -8.58400 42.19800 39.10400
C  -8.43600 43.66100 39.13700
C  -9.68400 44.22900 39.45000
C  -10.56200 43.04900 39.72200
C  -7.00600 44.29000 38.71000
C  -9.90400 45.66900 39.48300
O  -9.01700 46.50800 39.32800
C  -11.34300 46.33400 39.64900
N  -12.70200 40.70600 39.82500
C  -12.94300 42.09300 40.01800
C  -14.48000 42.40100 40.23500
C  -15.06800 40.92600 40.24000
C  -13.76800 40.01400 40.08200
C  -14.80000 43.25300 41.49500
C  -16.29200 40.50200 39.31000
C  -17.48100 39.83000 40.02300
N  -11.50200 38.08300 39.90200
C  -12.81800 37.74600 40.05400
C  -12.96900 36.35400 39.78600
C  -11.68000 35.91400 39.42900
C  -10.86000 37.03500 39.51400
C  -14.21100 35.54800 39.68300
C  -10.88000 34.77300 38.93000
O  -11.29600 33.64200 38.71900
C  -9.47700 35.29900 38.74800
C  -8.45000 34.40900 39.49700
O  -8.47400 34.23900 40.72800
O  -7.48500 33.87900 38.65200
C  -6.40400 33.16800 39.35200
H  -6.66500 41.66500 38.46400
H  -12.31900 44.06300 40.15000
H  -14.85600 38.16000 40.18200
H  -6.71600 36.65500 38.40100
H  -6.02600 39.37700 37.60200
H  -5.27100 37.79000 39.86700
H  -6.05500 39.23900 40.48500
H  -4.53400 39.34700 39.37400
H  -7.09800 38.33400 35.98300
H  -8.54600 37.60000 36.30700
H  -6.86100 35.40000 36.66500
H  -5.96700 36.22300 35.51400
H  -6.90100 45.26000 39.19600
H  -6.82600 44.25500 37.63500
H  -6.27900 43.70700 39.27600
H  -11.32100 47.42300 39.63300
H  -11.73700 46.01600 40.61400
H  -11.91500 45.99200 38.78600
H  -14.76400 43.00600 39.37400
H  -15.28200 40.62500 41.26500
H  -13.88800 43.69800 41.89200
H  -15.26700 42.64800 42.27200
H  -15.43100 44.10300 41.23600
H  -16.07100 39.91800 38.41700
H  -16.73600 41.46300 39.05000
H  -18.04000 39.09700 39.44200
H  -18.24800 40.53800 40.33800
H  -17.08700 39.43100 40.95700
H  -13.96200 34.48700 39.66100
H  -14.86500 35.68700 38.82200
H  -14.79200 35.73300 40.58700
H  -9.11900 35.20300 37.72300
H  -6.67500 32.24700 39.86900
H  -5.89100 33.87300 40.00600
H  -5.63400 32.77200 38.69000

