158

Mg 47.80400 25.03700 28.04900
C  48.76800 27.29800 30.56600
C  46.69400 22.85900 30.47200
C  46.86300 23.09000 25.58800
C  48.94500 27.52000 25.73400
N  47.66100 25.12000 30.21900
C  48.16400 26.09100 31.01100
C  47.86100 25.85000 32.48700
C  47.32700 24.33400 32.47100
C  47.22200 24.06600 30.96700
C  48.21800 23.32900 33.24500
C  46.83200 26.83500 33.16900
C  47.12300 27.20500 34.58300
H  45.90700 27.16500 35.54800
N  46.96500 23.12800 28.00500
C  46.59400 22.34600 29.10000
C  45.95300 21.14200 28.62500
C  46.00100 21.19100 27.17600
C  46.59000 22.53000 26.83200
C  45.38400 20.11300 29.55100
C  45.45300 20.12900 26.22300
O  45.54900 20.19700 24.98100
C  45.01800 18.77200 26.79000
N  47.82000 25.29700 25.92200
C  47.39700 24.31300 25.14400
C  47.70400 24.60700 23.68400
C  48.15900 26.15100 23.73600
C  48.31500 26.34400 25.23100
C  48.78400 23.63900 23.09400
C  47.20500 27.20700 23.07500
C  47.70500 27.82000 21.74200
N  48.70900 26.97600 28.09700
C  49.10700 27.85000 27.11700
C  49.72900 29.01400 27.65900
C  49.55900 28.82700 29.02500
C  48.93800 27.64800 29.22600
C  50.31200 30.21500 26.91600
C  49.81200 29.54800 30.28300
O  50.36000 30.60900 30.59800
C  49.18400 28.54200 31.28700
C  50.09900 28.38300 32.47600
O  51.10900 27.69000 32.48100
O  49.61100 29.18200 33.53700
C  50.35200 29.10300 34.82100
H  46.53600 22.13200 31.27100
H  46.58400 22.35700 24.82900
H  49.27200 28.22900 24.97000
H  48.84100 25.95000 32.95600
H  46.34100 24.18300 32.91100
H  47.80500 22.46700 33.76900
H  48.57200 23.96100 34.05900
H  49.12600 23.09700 32.69000
H  45.85100 26.36000 33.16600
H  46.58500 27.64200 32.47900
H  47.49300 28.22900 34.52900
H  47.92200 26.57700 34.97700
H  44.33500 20.08200 29.25800
H  45.54700 20.49500 30.55900
H  45.96900 19.20100 29.43200
H  45.77500 18.18500 27.31100
H  44.55700 18.17200 26.00500
H  44.19300 19.11300 27.41500
H  46.82600 24.59800 23.03800
H  49.13200 26.35900 23.29100
H  48.45600 22.97400 22.29500
H  49.27100 23.01800 23.84600
H  49.60100 24.24000 22.69300
H  46.95900 27.90200 23.87800
H  46.29000 26.64300 22.89100
H  48.71800 27.43700 21.61700
H  47.71600 28.91000 21.76200
H  46.96200 27.51500 21.00600
H  51.04500 30.70100 27.56100
H  49.49900 30.94000 26.88400
H  50.60400 29.95900 25.89800
H  48.26400 28.96400 31.69000
H  50.03200 28.25800 35.43000
H  50.12600 30.00700 35.38600
H  51.43700 28.99800 34.81000
Mg 27.07000 51.01000 25.37200
C  25.31100 52.20700 28.19200
C  29.66400 50.03600 27.56000
C  28.87800 49.91900 22.61100
C  24.81300 52.56700 23.30400
N  27.45100 51.10800 27.59600
C  26.50000 51.51800 28.59100
C  27.09500 51.28200 29.96500
C  28.50400 50.65000 29.72000
C  28.58400 50.66400 28.20700
C  29.75700 51.24400 30.61400
C  26.27400 50.50300 31.01000
C  26.08600 51.28700 32.37000
H  25.37800 50.50800 33.43500
N  28.92700 50.04100 25.13700
C  29.82400 49.67100 26.20700
C  30.99300 48.97300 25.61200
C  30.67200 48.92500 24.23400
C  29.45600 49.66900 23.94400
C  32.11800 48.44900 26.51300
C  31.35000 48.08400 23.28300
O  30.94600 47.85300 22.14000
C  32.48500 47.29700 23.71100
N  26.92400 51.34400 23.21000
C  27.67000 50.66200 22.29400
C  27.14200 50.87300 20.84600
C  25.76700 51.51500 21.08700
C  25.78900 51.86800 22.61700
C  28.19900 51.53400 19.94600
C  24.50400 50.81600 20.62200
C  23.40200 51.71400 20.06600
N  25.46800 52.27200 25.61200
C  24.67000 52.85300 24.65500
C  23.57200 53.53800 25.23800
C  23.78000 53.32400 26.69000
C  24.92300 52.46700 26.83200
C  22.47600 54.31200 24.55900
C  23.25000 53.58500 28.05400
O  22.28100 54.16700 28.41600
C  24.28500 52.91400 29.07000
C  24.76200 53.87200 30.04200
O  25.80400 54.54900 29.96000
O  23.86700 53.88800 31.03600
C  24.25400 54.76700 32.21900
H  30.32300 49.57200 28.29700
H  29.34500 49.52100 21.70700
H  24.03200 52.93300 22.63400
H  27.15400 52.30300 30.34100
H  28.45400 49.63000 30.10000
H  30.32100 51.83500 29.89200
H  30.42300 50.54400 31.11800
H  29.35800 51.92500 31.36500
H  26.70700 49.51300 31.15000
H  25.31400 50.29500 30.53800
H  25.60700 52.24200 32.15100
H  27.10800 51.44700 32.71300
H  32.19100 47.36200 26.50100
H  32.05400 48.81700 27.53700
H  33.07800 48.85400 26.19200
H  33.27600 48.00100 23.96800
H  32.78200 46.60300 22.92500
H  32.16700 46.65300 24.53100
H  26.97100 49.89500 20.39600
H  25.80600 52.46800 20.56100
H  28.86300 52.12900 20.57300
H  27.74300 52.22200 19.23500
H  28.69600 50.80700 19.30300
H  24.17400 50.34000 21.54500
H  24.71100 50.06500 19.85900
H  23.76200 52.74000 19.98300
H  22.52200 51.67500 20.70700
H  22.99800 51.39700 19.10400
H  22.76100 54.78800 23.62000
H  21.94400 54.98600 25.23000
H  21.80000 53.49600 24.30700
H  23.75800 52.14100 29.62900
H  24.92900 54.15800 32.82000
H  23.35100 54.96300 32.79700
H  24.76900 55.70800 32.02500

