158

Mg 23.76700 -7.81600 47.05200
C  26.24100 -5.79600 45.68300
C  21.49500 -6.43600 44.71300
C  21.55000 -10.33500 47.86300
C  26.23500 -9.46300 48.98600
N  23.90500 -6.24300 45.48800
C  25.04000 -5.51800 45.10200
C  24.71400 -4.49900 44.07400
C  23.11300 -4.59000 43.94500
C  22.81600 -5.87800 44.74300
C  22.28600 -3.40100 44.47500
C  25.50600 -4.70900 42.77700
C  26.04300 -3.48400 42.05700
H  25.60600 -3.05600 40.71000
N  21.81300 -8.35100 46.35600
C  21.02500 -7.60500 45.48200
C  19.64800 -8.26500 45.41900
C  19.68800 -9.40400 46.32200
C  21.06700 -9.40000 46.97600
C  18.61300 -7.86000 44.46600
C  18.46300 -10.32500 46.52600
O  17.46100 -10.13500 45.91400
C  18.29600 -11.42600 47.54700
N  23.87700 -9.64900 48.21200
C  22.81000 -10.50700 48.43100
C  23.27000 -11.74000 49.29900
C  24.66900 -11.32900 49.77300
C  24.98400 -10.03700 48.97400
C  22.29500 -12.02100 50.50500
C  25.82700 -12.41800 49.46800
C  26.85500 -12.73700 50.55900
N  25.77800 -7.66800 47.37200
C  26.67200 -8.35400 48.21800
C  27.93500 -7.71900 48.14400
C  27.84500 -6.74900 47.14100
C  26.50100 -6.75700 46.70500
C  29.11700 -8.12700 48.87900
C  28.56200 -5.72800 46.44000
O  29.75800 -5.44200 46.43100
C  27.55100 -5.07400 45.43700
C  27.42100 -3.58100 45.83600
O  27.06700 -3.14700 46.95100
O  27.68000 -2.74400 44.74100
C  27.41300 -1.29600 45.02600
H  20.84000 -5.82600 44.08700
H  20.82800 -11.12100 48.09500
H  26.85300 -9.92100 49.76200
H  25.00300 -3.54200 44.51000
H  22.87000 -4.82000 42.90800
H  21.63900 -3.48100 45.34900
H  21.63700 -3.38300 43.59900
H  22.91800 -2.51700 44.56100
H  24.73400 -5.07200 42.09800
H  26.25400 -5.49500 42.88200
H  27.13000 -3.57200 42.06100
H  25.79800 -2.62500 42.68200
H  18.72700 -8.67900 43.75500
H  18.82400 -6.92300 43.95200
H  17.58000 -7.84700 44.81300
H  18.14600 -10.88800 48.48300
H  19.00400 -12.25400 47.58400
H  17.30300 -11.86900 47.48600
H  23.27300 -12.67400 48.73700
H  24.67400 -11.00800 50.81400
H  22.86100 -12.10400 51.43300
H  21.79700 -12.98100 50.37100
H  21.59700 -11.18300 50.51800
H  26.35900 -12.24300 48.53300
H  25.36900 -13.40100 49.35500
H  26.64800 -12.31200 51.54100
H  27.88800 -12.50300 50.30300
H  26.88800 -13.82000 50.68100
H  29.09800 -7.74100 49.89800
H  30.00500 -7.77400 48.35500
H  29.09000 -9.21700 48.88100
H  27.91500 -5.21500 44.42000
H  26.34000 -1.10800 44.99800
H  27.81000 -0.78400 44.15000
H  27.81100 -0.97800 45.99000
Mg 25.41200 50.04200 26.18500
C  23.34700 51.22800 28.81400
C  27.70000 49.37200 28.57400
C  27.61100 49.41300 23.76700
C  23.23100 51.26700 23.93400
N  25.38800 50.06100 28.52300
C  24.48300 50.70200 29.36400
C  24.82600 50.39100 30.82000
C  26.33300 50.09600 30.68500
C  26.53300 49.79200 29.18200
C  27.38400 51.18300 31.21400
C  23.97100 49.24100 31.35300
C  23.61900 49.31700 32.92600
H  24.37300 50.24500 33.84400
N  27.39300 49.37900 26.22000
C  28.14100 49.21100 27.30300
C  29.44900 48.74400 26.93800
C  29.47000 48.71200 25.51300
C  28.13800 49.10400 25.07700
C  30.58700 48.35700 27.88900
C  30.60500 48.43000 24.53900
O  30.54400 48.68700 23.32200
C  31.94900 47.91700 25.03500
N  25.40900 50.27400 24.15500
C  26.44500 49.94700 23.34400
C  25.99600 50.01500 21.85300
C  24.54300 50.52300 21.85000
C  24.36900 50.70200 23.40900
C  26.98200 50.63400 20.83300
C  23.50100 49.53000 21.31100
C  22.22400 50.10900 20.76800
N  23.65500 51.07600 26.32000
C  22.88000 51.55100 25.32000
C  21.69800 52.25800 25.84900
C  21.86700 52.11600 27.21500
C  23.07000 51.46700 27.43300
C  20.65800 52.93400 25.03800
C  21.32400 52.41800 28.50300
O  20.27100 53.02400 28.82000
C  22.21600 51.85800 29.60200
C  22.60300 53.02200 30.43900
O  23.15500 53.98400 30.03800
O  22.06600 52.88500 31.71500
C  22.43600 54.00600 32.61000
H  28.51900 49.22300 29.28100
H  28.22000 49.22300 22.88100
H  22.45500 51.55600 23.22100
H  24.67500 51.34400 31.32500
H  26.60400 49.16500 31.18100
H  26.88300 52.14400 31.32100
H  28.15000 51.39800 30.47000
H  27.83300 50.98800 32.18800
H  24.47900 48.32400 31.05400
H  23.00800 49.21300 30.84400
H  23.67500 48.28800 33.28000
H  22.56400 49.59100 32.92500
H  30.47500 48.78800 28.88400
H  31.58400 48.61100 27.52800
H  30.61000 47.27000 27.96500
H  32.46300 47.52700 24.15600
H  31.80800 47.04600 25.67600
H  32.48200 48.73300 25.52200
H  25.97000 48.98900 21.48600
H  24.39800 51.44400 21.28500
H  27.89900 50.87300 21.37100
H  26.51500 51.56600 20.51500
H  27.19100 49.90500 20.05100
H  23.22400 48.76600 22.03800
H  23.99100 48.97900 20.50900
H  21.50900 50.09300 21.59100
H  21.94700 49.66000 19.81500
H  22.34800 51.18400 20.63000
H  20.34400 52.53900 24.07200
H  21.06400 53.94200 24.95600
H  19.77800 53.02900 25.67400
H  21.60600 51.10800 30.10600
H  21.65500 54.75900 32.50300
H  23.41800 54.45100 32.44700
H  22.39100 53.71700 33.66000

