158

Mg 36.13300 1.90300 30.01400
C  33.77700 3.07900 32.32600
C  38.48200 1.68300 32.35700
C  38.28000 1.08700 27.55000
C  33.59300 2.42400 27.44200
N  36.07300 2.18200 32.19900
C  34.96200 2.65900 32.91900
C  35.30200 2.69400 34.37400
C  36.92300 2.56400 34.35400
C  37.20300 2.11700 32.90700
C  37.75800 3.82700 34.60400
C  34.62400 1.57400 35.20000
C  34.09200 1.82300 36.68100
H  34.61000 3.07600 37.33200
N  38.05500 1.29600 30.02300
C  38.93100 1.31000 31.12600
C  40.20400 0.84900 30.71200
C  40.12600 0.54500 29.30000
C  38.79200 1.04200 28.84900
C  41.28800 0.60200 31.77200
C  41.13800 -0.12300 28.45100
O  40.87000 -0.51400 27.28900
C  42.47500 -0.48200 28.97500
N  35.99300 1.64200 27.76600
C  37.01200 1.35400 26.99200
C  36.66200 1.47700 25.49600
C  35.16000 1.53000 25.51600
C  34.86500 1.95800 26.97800
C  37.23900 2.85900 25.00000
C  34.46700 0.11200 25.22400
C  33.59800 0.08900 24.00400
N  34.15000 2.43300 29.94600
C  33.24700 2.58800 28.83300
C  31.99200 3.05100 29.30000
C  32.15900 3.17200 30.67300
C  33.50100 2.87700 30.97100
C  30.81200 3.38100 28.48600
C  31.44200 3.63600 31.82900
O  30.32000 4.08200 32.05400
C  32.45000 3.58900 32.99900
C  32.45200 4.89600 33.62300
O  33.12900 5.85000 33.25900
O  31.70000 4.93200 34.77600
C  32.03300 6.07600 35.70200
H  39.23100 1.64900 33.15100
H  39.07500 0.83200 26.84700
H  32.81300 2.55300 26.68900
H  35.07400 3.66900 34.80500
H  37.34200 1.75100 34.94700
H  38.75400 3.60800 34.99000
H  37.32700 4.57200 35.27200
H  37.84200 4.32200 33.63700
H  35.32100 0.73600 35.17800
H  33.84900 1.17100 34.54700
H  34.25200 1.09600 37.47700
H  33.02300 1.91100 36.48600
H  40.95600 0.65500 32.80900
H  41.97800 1.43100 31.61800
H  41.83000 -0.32300 31.57400
H  42.76900 0.28600 29.69100
H  43.13200 -0.43300 28.10600
H  42.55000 -1.52500 29.28100
H  37.05000 0.62400 24.93800
H  34.75000 2.37500 24.96200
H  38.18100 2.66800 24.48600
H  37.34200 3.68800 25.70000
H  36.66400 3.33500 24.20600
H  33.74300 -0.08000 26.01500
H  35.19100 -0.70100 25.18200
H  32.68000 -0.49100 24.09900
H  34.03900 -0.36900 23.11900
H  33.32100 1.11800 23.77500
H  31.10400 4.26800 27.92300
H  30.01900 3.68900 29.16700
H  30.65600 2.45700 27.93000
H  31.96400 2.86200 33.64900
H  31.70800 7.02500 35.27400
H  33.07200 6.05500 36.03200
H  31.46400 5.87800 36.61100
Mg 36.05200 48.27300 25.08300
C  36.26600 46.49400 28.03500
C  34.93500 50.95900 26.81600
C  35.71300 49.86200 22.08000
C  37.47400 45.64000 23.39100
N  35.57900 48.60900 27.12600
C  35.79700 47.75700 28.14200
C  35.45500 48.47800 29.51800
C  34.94000 49.87700 29.06200
C  35.18000 49.84600 27.55300
C  33.37200 50.11800 29.39000
C  36.68700 48.62900 30.41100
C  36.60800 48.20500 31.91500
H  35.28200 48.05000 32.45100
N  35.33100 50.15900 24.51200
C  34.94200 51.16500 25.36300
C  34.76600 52.31200 24.61700
C  34.80400 52.03900 23.18700
C  35.25000 50.63200 23.22800
C  34.66500 53.60900 25.29000
C  34.63300 53.02900 21.98600
O  34.86900 52.75000 20.78800
C  33.97500 54.44300 22.37000
N  36.31500 47.70500 22.92200
C  36.18300 48.54100 21.95100
C  37.01000 48.13800 20.66300
C  37.58300 46.75900 21.09000
C  37.21400 46.76500 22.59000
C  36.04900 48.16300 19.35500
C  39.07400 46.60800 20.97700
C  39.62800 45.28000 20.32000
N  36.73700 46.45700 25.50400
C  37.17700 45.41500 24.70000
C  37.51000 44.24500 25.50400
C  37.12200 44.61500 26.83300
C  36.64300 45.95000 26.78200
C  38.12100 42.99600 25.00900
C  36.96500 44.09600 28.19600
O  37.23900 43.01500 28.61900
C  36.38400 45.33800 29.04700
C  35.18100 44.98900 29.83400
O  34.03100 44.97000 29.42700
O  35.62700 44.67400 31.07900
C  34.76700 43.81300 31.89500
H  34.53800 51.83000 27.34200
H  35.59500 50.29100 21.08200
H  37.88900 44.75800 22.89800
H  34.66000 47.94200 30.03600
H  35.45000 50.72000 29.52800
H  33.21900 51.04100 29.95000
H  32.90000 49.34200 29.99300
H  32.82300 50.21900 28.45400
H  37.13000 49.62100 30.49800
H  37.47900 47.96500 30.06200
H  37.19500 48.75300 32.65200
H  37.06800 47.22000 31.83700
H  35.23300 53.51000 26.21500
H  33.61300 53.88100 25.37600
H  35.24800 54.38400 24.79200
H  33.13600 54.31500 23.05300
H  33.59800 54.85100 21.43200
H  34.70000 55.16300 22.75000
H  37.82600 48.86000 20.67800
H  37.10200 45.97200 20.50900
H  35.02200 48.14200 19.71800
H  36.10400 47.24300 18.77400
H  36.42800 49.07400 18.89100
H  39.50200 46.82100 21.95700
H  39.42600 47.41200 20.33200
H  39.04500 44.43600 20.69000
H  40.64000 45.04400 20.65000
H  39.65200 45.25500 19.23100
H  37.31300 42.32200 24.72300
H  38.66400 42.46600 25.79200
H  38.72700 43.20900 24.12800
H  37.10900 45.58600 29.82200
H  35.34400 43.53700 32.77800
H  34.33500 42.97200 31.35300
H  33.96400 44.48800 32.19000

