158

Mg 52.40000 24.55600 45.23100
C  49.71900 26.59200 44.25900
C  50.47100 21.75700 44.43700
C  55.24600 22.72400 45.19000
C  54.25600 27.43900 45.91200
N  50.42800 24.21900 44.14300
C  49.46900 25.22200 44.04200
C  48.08700 24.69000 43.70600
C  48.26000 23.16000 44.31700
C  49.83900 23.00900 44.26500
C  47.58700 22.86200 45.69300
C  47.74100 24.65600 42.19300
C  48.82600 24.17700 41.18300
H  48.94700 24.95600 39.87900
N  52.88400 22.47100 44.84500
C  51.83600 21.50800 44.63800
C  52.51000 20.22800 44.59300
C  53.93100 20.42500 44.76900
C  54.10800 21.91800 44.98200
C  51.70100 18.95400 44.14300
C  55.01900 19.33900 44.83800
O  54.75100 18.11900 44.76300
C  56.35000 19.68900 44.96000
N  54.48900 25.03900 45.48900
C  55.44800 24.06900 45.45300
C  56.79800 24.67400 45.53800
C  56.52300 26.18500 45.67300
C  54.95400 26.29800 45.65500
C  57.74200 24.04900 46.58400
C  57.40000 27.12100 44.74700
C  58.23000 28.23300 45.52900
N  52.06900 26.55100 45.30400
C  52.88600 27.59100 45.71000
C  52.11900 28.79500 45.76100
C  50.90100 28.47500 45.16000
C  50.88200 27.09800 44.87600
C  52.38400 30.11600 46.36700
C  49.66300 28.98500 44.70700
O  49.19600 30.16000 44.72600
C  48.80900 27.75000 44.22000
C  48.16800 28.14700 42.92100
O  48.80500 28.18000 41.84100
O  46.82000 28.14800 43.03600
C  45.97900 28.39800 41.91100
H  49.85600 20.85500 44.45400
H  56.18400 22.16700 45.15400
H  54.84200 28.35200 46.04200
H  47.32000 25.17100 44.31200
H  47.80700 22.48300 43.59300
H  46.99500 23.71300 46.03200
H  48.42000 22.55500 46.32500
H  46.87500 22.08000 45.42900
H  47.45600 25.66700 41.90300
H  46.83200 24.07500 42.03800
H  48.51800 23.15300 40.97000
H  49.82100 24.13600 41.62500
H  51.26600 18.48100 45.02400
H  52.37700 18.24600 43.66400
H  50.88600 19.11100 43.43800
H  56.97900 18.87200 44.60500
H  56.69400 19.87400 45.97800
H  56.64300 20.44800 44.23400
H  57.31300 24.47600 44.59800
H  56.75900 26.35300 46.72400
H  58.39400 24.81300 47.00800
H  58.43400 23.32300 46.15800
H  57.16900 23.64300 47.41800
H  56.81000 27.67500 44.01700
H  58.05000 26.37500 44.29000
H  59.26400 28.17200 45.18900
H  58.13600 28.22400 46.61500
H  57.89700 29.15900 45.06100
H  53.15200 29.91400 47.11300
H  51.50000 30.39200 46.94100
H  52.70300 30.72400 45.52000
H  47.91300 27.59200 44.82100
H  44.96500 27.99900 41.94700
H  46.40400 28.03700 40.97400
H  45.87000 29.48000 41.84100
Mg 0.47400 42.39300 26.09000
C  3.01100 42.47800 28.58500
C  -1.76000 41.45300 28.51500
C  -1.82600 42.05900 23.73400
C  2.89200 42.75300 23.62300
N  0.58600 42.16700 28.31700
C  1.72000 42.35200 29.12100
C  1.32900 42.00100 30.57500
C  -0.09700 41.33200 30.46400
C  -0.51200 41.72900 28.99500
C  -0.05200 39.80500 30.75700
C  1.50100 43.27100 31.52900
C  2.11400 42.99100 32.98600
H  1.63100 41.68700 33.63800
N  -1.57600 41.94400 26.10200
C  -2.31600 41.52700 27.24100
C  -3.59700 41.14600 26.83800
C  -3.69000 41.51700 25.42100
C  -2.33700 41.93100 25.03300
C  -4.68200 40.64400 27.82000
C  -4.91200 41.62300 24.50100
O  -4.84600 42.09100 23.44300
C  -6.23400 41.24100 25.03800
N  0.54000 42.41700 24.02900
C  -0.59200 42.26200 23.22900
C  -0.28400 42.46900 21.71200
C  1.20500 42.96700 21.80300
C  1.57000 42.68800 23.24100
C  -0.58400 41.11400 20.91200
C  1.49400 44.33700 21.22900
C  1.68400 45.51100 22.23300
N  2.49800 42.59400 26.08100
C  3.39900 42.57500 24.98700
C  4.75200 42.62100 25.41200
C  4.64400 42.51100 26.82100
C  3.29000 42.48100 27.16800
C  5.90800 42.69000 24.52700
C  5.42500 42.42400 28.05100
O  6.66300 42.32600 28.19300
C  4.36900 42.47100 29.20800
C  4.69300 41.41500 30.19900
O  4.65900 40.22700 29.93300
O  5.07300 41.94300 31.39800
C  5.32600 40.96400 32.49000
H  -2.33700 41.16600 29.39700
H  -2.53000 42.08600 22.90000
H  3.69100 43.06800 22.94700
H  2.01400 41.32700 31.08900
H  -0.75600 41.87400 31.14200
H  -0.82300 39.56700 31.48900
H  0.85500 39.61500 31.33000
H  -0.23300 39.22000 29.85500
H  0.44600 43.54300 31.55300
H  1.94200 44.13200 31.02700
H  1.83800 43.81800 33.64100
H  3.19000 42.83000 32.92800
H  -5.09500 39.75600 27.34000
H  -5.42200 41.41900 28.01700
H  -4.15900 40.35100 28.73000
H  -6.19300 40.16400 25.20100
H  -7.05300 41.59200 24.41000
H  -6.34200 41.62500 26.05300
H  -0.89500 43.25600 21.27100
H  1.82300 42.26100 21.24900
H  0.29300 40.46900 20.86600
H  -0.81500 41.48800 19.91400
H  -1.40900 40.57700 21.38100
H  0.67300 44.70700 20.61600
H  2.42400 44.27300 20.66300
H  1.17600 46.42800 21.93600
H  2.74400 45.65200 22.44700
H  1.16200 45.16400 23.12400
H  5.77900 43.59000 23.92700
H  5.95100 41.83100 23.85800
H  6.87900 42.69700 25.02300
H  4.52300 43.44600 29.67200
H  4.97600 41.33900 33.45200
H  6.40500 40.85800 32.59800
H  4.86000 39.99500 32.31200

