158

Mg 46.14900 25.05200 29.44100
C  46.96700 27.36700 31.94500
C  45.05700 22.87700 31.75000
C  45.77600 22.90000 26.98800
C  47.84400 27.26700 27.18500
N  45.89800 25.17000 31.52200
C  46.34300 26.21600 32.40300
C  46.04900 25.91100 33.86000
C  45.49000 24.44100 33.79300
C  45.44900 24.11100 32.24100
C  46.10500 23.33300 34.72500
C  44.97900 26.94000 34.48100
C  45.26000 27.54200 35.82500
H  45.74100 26.67200 36.99100
N  45.29100 23.19500 29.33500
C  44.89200 22.44000 30.39700
C  44.30500 21.25800 29.88500
C  44.35400 21.22500 28.50000
C  45.16700 22.45700 28.18500
C  43.64400 20.27400 30.83500
C  43.80300 20.16300 27.48100
O  43.98100 20.24500 26.25800
C  42.94200 18.99900 28.01600
N  46.75800 25.13900 27.38800
C  46.44600 24.05600 26.63400
C  46.93700 24.30100 25.18100
C  47.53400 25.70000 25.20500
C  47.37100 26.12600 26.66200
C  47.85800 23.20600 24.51600
C  46.81600 26.68300 24.29100
C  47.04100 26.49300 22.79600
N  47.10300 26.92600 29.44600
C  47.76400 27.63200 28.47800
C  48.32400 28.84500 28.96400
C  48.00500 28.84300 30.34900
C  47.24200 27.63200 30.60000
C  49.00400 29.86600 28.08500
C  48.23600 29.53500 31.59900
O  48.78900 30.62400 31.81600
C  47.54600 28.59100 32.64000
C  48.65100 28.41100 33.61400
O  49.73300 28.00300 33.42100
O  48.27700 28.87400 34.82400
C  49.17000 28.71000 35.97400
H  44.65100 22.23500 32.53500
H  45.61700 22.31000 26.08200
H  48.56900 27.69900 26.49200
H  47.01600 25.88200 34.36300
H  44.42100 24.51100 33.99500
H  45.34400 22.64500 35.09300
H  46.59600 23.90400 35.51400
H  46.97400 23.03300 34.14000
H  44.09000 26.31000 34.46900
H  44.72600 27.69000 33.73100
H  44.28000 27.88100 36.16100
H  45.95800 28.34900 35.60300
H  42.55400 20.29700 30.83400
H  43.97000 20.49100 31.85200
H  43.97500 19.27000 30.57200
H  43.45300 18.40900 28.77700
H  42.64200 18.34900 27.19400
H  42.01900 19.15400 28.57500
H  46.02800 24.35900 24.58200
H  48.55600 25.63700 24.82900
H  48.31300 22.52900 25.23900
H  48.69300 23.62300 23.95300
H  47.21000 22.67200 23.82100
H  47.09700 27.71300 24.50900
H  45.74800 26.52700 24.44300
H  47.77600 25.69700 22.67900
H  47.51600 27.37400 22.36400
H  46.12700 26.15300 22.30900
H  48.25600 30.28600 27.41200
H  49.91900 29.52300 27.60200
H  49.32000 30.71200 28.69500
H  46.67700 29.14300 32.99800
H  49.63600 27.73600 35.82200
H  48.56300 28.58100 36.87100
H  49.99600 29.41500 36.06200
Mg 47.54700 34.83400 27.92100
C  45.47300 33.51300 30.40600
C  48.34300 37.41900 30.08500
C  49.21400 36.27600 25.46800
C  46.50100 32.24700 25.86900
N  47.00000 35.34000 30.00600
C  46.24200 34.66800 30.85400
C  46.57100 35.04400 32.26300
C  47.00700 36.59700 32.04700
C  47.48500 36.43000 30.62500
C  45.84800 37.71900 32.04900
C  47.76900 34.19400 32.84900
C  47.97000 34.33200 34.34100
H  47.13400 35.35700 35.11000
N  48.62100 36.60900 27.78200
C  48.86100 37.53900 28.75700
C  49.71500 38.57300 28.31400
C  50.05800 38.22200 26.92100
C  49.34200 36.98400 26.68100
C  50.12300 39.75800 29.10800
C  50.91100 38.97100 25.93500
O  51.05000 38.55300 24.76300
C  51.62300 40.28800 26.29500
N  47.75700 34.39800 25.89900
C  48.53500 35.11000 25.07600
C  48.48100 34.52000 23.63400
C  47.82300 33.13900 23.84600
C  47.37400 33.21700 25.30400
C  47.77900 35.42200 22.57300
C  48.58400 31.82000 23.52500
C  50.11400 31.80600 23.63500
N  46.24900 33.26000 28.04700
C  45.93600 32.25200 27.09800
C  44.97300 31.28100 27.69300
C  44.73000 31.73700 28.96800
C  45.48500 32.96100 29.08400
C  44.37600 30.00200 26.98000
C  43.97600 31.56400 30.18600
O  43.17300 30.73000 30.54700
C  44.38000 32.70100 31.08100
C  44.71400 32.21500 32.40600
O  45.65800 31.41700 32.59700
O  43.84300 32.73700 33.31500
C  44.03600 32.32100 34.75000
H  48.57600 38.15800 30.85400
H  49.76300 36.64700 24.60100
H  46.20600 31.42500 25.21300
H  45.74000 34.88100 32.95000
H  47.76800 36.94800 32.74400
H  44.92700 37.20700 32.32900
H  45.63800 38.25400 31.12300
H  46.06100 38.43700 32.84000
H  48.68000 34.53800 32.35900
H  47.67300 33.14200 32.57800
H  49.00700 34.56100 34.58700
H  47.71500 33.35800 34.75700
H  50.70100 39.34600 29.93500
H  49.29700 40.25600 29.61400
H  50.79000 40.43900 28.58000
H  52.35300 39.99500 27.04900
H  50.96200 41.09700 26.60500
H  52.13100 40.56700 25.37200
H  49.46400 34.30200 23.21700
H  46.88500 33.02800 23.30300
H  47.65200 36.41600 23.00300
H  46.76500 35.08900 22.35300
H  48.39300 35.63100 21.69700
H  48.55600 31.75300 22.43700
H  48.15000 30.91900 23.95900
H  50.49000 31.86900 22.61400
H  50.43100 30.82400 23.98700
H  50.47800 32.49000 24.40100
H  44.83400 30.05800 25.99200
H  43.29100 29.97900 27.07400
H  44.76900 29.14100 27.52100
H  43.41800 33.21000 31.02400
H  43.16900 31.82800 35.18800
H  44.24800 33.22500 35.32100
H  44.87400 31.62500 34.76800

