158

Mg 1.34200 -1.58900 43.52400
C  4.71700 -0.92700 42.90200
C  0.56500 1.03400 41.58500
C  -1.85800 -2.63500 43.58100
C  2.30300 -4.62000 44.91700
N  2.54100 -0.24500 42.26100
C  3.92400 -0.11100 42.14200
C  4.37900 1.00800 41.17600
C  3.03000 1.77100 41.03000
C  1.92100 0.77500 41.65800
C  2.85800 3.23300 41.69400
C  4.88600 0.41400 39.87200
C  6.27200 0.88500 39.28700
H  6.42000 0.96600 37.78900
N  -0.42800 -0.81200 42.72900
C  -0.56100 0.28400 42.01300
C  -1.94200 0.54100 41.77000
C  -2.67900 -0.48500 42.28800
C  -1.67700 -1.37500 43.02400
C  -2.34400 1.70400 40.86300
C  -4.17800 -0.68100 42.13700
O  -4.88900 -0.01100 41.38500
C  -4.98700 -1.77600 42.89600
N  0.35500 -3.39100 44.14500
C  -0.95700 -3.55600 44.09700
C  -1.37700 -4.98400 44.55300
C  -0.07500 -5.64200 44.92700
C  0.91300 -4.48700 44.61900
C  -2.64200 -5.16500 45.52300
C  0.14600 -7.09800 44.52900
C  -0.67300 -8.17600 45.19200
N  3.10100 -2.54700 44.02500
C  3.34700 -3.78600 44.63900
C  4.78400 -3.99800 44.84500
C  5.36400 -2.87500 44.23800
C  4.31500 -1.99700 43.80100
C  5.47400 -5.18500 45.49200
C  6.65800 -2.20600 43.88600
O  7.79500 -2.45600 44.30700
C  6.27900 -1.00000 42.99300
C  7.10000 0.21900 43.39400
O  7.86700 0.76700 42.61700
O  7.17300 0.42400 44.82300
C  8.11800 1.50500 45.20400
H  0.37200 1.90400 40.95300
H  -2.87400 -3.01600 43.46200
H  2.57800 -5.54900 45.42200
H  5.09700 1.63600 41.70300
H  2.76200 1.87500 39.97800
H  3.61400 3.48400 42.43800
H  1.90500 3.38000 42.20100
H  3.00400 4.05000 40.98700
H  4.17500 0.54200 39.05600
H  5.00100 -0.66000 40.01300
H  7.05600 0.21600 39.64400
H  6.40200 1.91100 39.62900
H  -1.86900 1.50600 39.90200
H  -1.96100 2.61400 41.32400
H  -3.43200 1.77000 40.85400
H  -6.01800 -1.45200 43.04100
H  -4.60000 -2.02600 43.88400
H  -4.86500 -2.71900 42.36400
H  -1.77800 -5.49900 43.68000
H  -0.01300 -5.77500 46.00700
H  -2.92400 -4.15600 45.82300
H  -2.11600 -5.68900 46.32100
H  -3.45600 -5.68900 45.02100
H  1.21400 -7.23500 44.69600
H  0.05500 -7.20800 43.44800
H  -1.24000 -8.72400 44.43800
H  -1.22300 -7.88200 46.08600
H  0.12800 -8.88100 45.41300
H  6.43000 -4.95500 45.96200
H  5.55600 -5.97000 44.74000
H  4.90200 -5.59000 46.32700
H  6.67300 -1.31000 42.02500
H  7.75800 2.51200 44.99600
H  9.06400 1.48200 44.66300
H  8.34100 1.43500 46.26900
Mg 26.81500 51.64200 26.59900
C  25.13400 52.49100 29.42400
C  29.38600 50.37400 28.45700
C  28.63700 50.89400 23.67500
C  24.74300 53.56300 24.75300
N  27.19500 51.51300 28.77400
C  26.29200 51.82400 29.75600
C  26.84400 51.54800 31.13700
C  28.29800 50.86800 30.77400
C  28.35400 50.96600 29.25600
C  29.43100 51.66500 31.36200
C  25.92900 50.68100 32.08300
C  26.52300 50.28700 33.38600
H  26.19600 51.12300 34.63600
N  28.73000 50.68800 26.20100
C  29.65300 50.27800 27.04700
C  30.77300 49.71100 26.41100
C  30.45600 49.70000 25.01900
C  29.22100 50.41300 24.91100
C  32.01700 49.08100 27.13900
C  31.26300 49.14100 23.88000
O  30.90800 49.22400 22.74000
C  32.54800 48.47800 24.10900
N  26.77300 52.18900 24.50900
C  27.58800 51.75200 23.52600
C  27.18800 52.30600 22.12600
C  25.88900 53.19500 22.52800
C  25.76200 52.90600 24.02300
C  28.27900 53.16500 21.32500
C  24.62300 53.08200 21.64300
C  23.80900 51.81100 21.83200
N  25.21500 52.75400 26.97100
C  24.35700 53.39700 26.09400
C  23.25500 53.98800 26.83600
C  23.53600 53.70000 28.18700
C  24.72100 52.92600 28.19500
C  22.11100 54.74100 26.29100
C  23.02900 53.82800 29.52200
O  22.05000 54.41300 29.96800
C  24.05900 53.06100 30.38700
C  24.51300 54.06000 31.40300
O  25.26400 55.00900 31.17400
O  23.78200 53.91600 32.54700
C  23.98800 54.91300 33.61900
H  30.14200 49.92000 29.10100
H  29.11900 50.58000 22.74700
H  23.93000 53.96500 24.14600
H  26.93300 52.57500 31.49100
H  28.31100 49.82500 31.09100
H  29.17800 52.03700 32.35500
H  29.68000 52.52400 30.73900
H  30.21500 50.93600 31.56700
H  25.57800 49.83400 31.49200
H  25.11200 51.38900 32.22500
H  27.60800 50.37400 33.33200
H  26.27700 49.23100 33.49100
H  31.93900 47.99500 27.19900
H  32.00100 49.53800 28.12800
H  32.96800 49.37600 26.69400
H  33.28800 49.03900 24.68000
H  32.94100 48.30600 23.10600
H  32.49200 47.44100 24.44000
H  26.83100 51.41900 21.60300
H  26.14600 54.25300 22.58200
H  29.31500 52.99800 21.61800
H  27.97800 54.16400 21.00800
H  28.28600 52.54500 20.42800
H  25.03700 53.03300 20.63600
H  24.00700 53.96600 21.80600
H  22.83300 52.07700 22.23900
H  24.15800 51.17900 22.64900
H  23.72400 51.21700 20.92200
H  21.52400 54.11000 25.62400
H  22.53300 55.44700 25.57700
H  21.39800 55.09900 27.03400
H  23.53600 52.25000 30.89500
H  23.76800 54.40900 34.56100
H  23.19600 55.65400 33.51000
H  24.97300 55.36400 33.73400

