158

Mg 6.49000 53.12200 41.01400
C  6.15000 49.71000 41.20000
C  9.76500 52.91600 40.39400
C  6.52600 56.60200 40.89800
C  3.01800 53.46400 41.27200
N  7.74800 51.45400 40.53800
C  7.45100 50.16000 40.81400
C  8.68900 49.37200 40.55000
C  9.81700 50.42900 40.80100
C  9.12700 51.70900 40.59500
C  10.64000 50.25800 42.06200
C  8.94100 48.52100 39.22900
C  8.89900 49.28600 37.89200
H  7.88800 48.83200 36.77200
N  7.88500 54.50900 40.53700
C  9.23400 54.23800 40.26900
C  9.90500 55.46300 39.97800
C  8.93500 56.48900 40.09700
C  7.71000 55.88900 40.58400
C  11.30200 55.41300 39.46900
C  9.23200 57.93400 39.79200
O  10.34800 58.27900 39.56900
C  8.12300 58.91400 39.62400
N  4.90600 54.85200 40.99800
C  5.22600 56.14400 41.08300
C  3.97600 57.01700 41.26800
C  2.84400 55.97500 41.08100
C  3.66300 54.69600 41.08800
C  4.04600 57.77400 42.65200
C  1.98600 56.07200 39.83300
C  0.41300 55.89800 39.98200
N  4.86800 51.94100 41.34200
C  3.47700 52.21900 41.45000
C  2.80200 50.86700 41.63500
C  3.83700 49.91000 41.64400
C  5.03300 50.59600 41.42600
C  1.29200 50.58100 41.83200
C  4.10400 48.54100 41.87700
O  3.34600 47.64200 42.26800
C  5.56800 48.28300 41.49900
C  5.58500 47.43000 40.37500
O  5.03400 47.68800 39.28400
O  6.20800 46.20200 40.69600
C  5.74300 45.08700 39.81300
H  10.82800 52.76400 40.19700
H  6.59300 57.69000 40.96100
H  1.94300 53.58200 41.42600
H  8.72200 48.62400 41.34300
H  10.66600 50.33400 40.12300
H  11.68000 50.54100 41.89700
H  10.53500 49.22000 42.37800
H  10.29200 50.95400 42.82500
H  8.11300 47.81200 39.22300
H  9.77700 47.82500 39.30600
H  9.87500 49.31700 37.40800
H  8.64700 50.33100 38.06900
H  12.12200 55.51800 40.17900
H  11.46400 56.18900 38.72100
H  11.48800 54.46600 38.96300
H  7.27700 58.56300 39.03400
H  8.47600 59.62700 38.87900
H  7.78600 59.46500 40.50200
H  3.99800 57.72900 40.44200
H  2.14800 56.02200 41.91900
H  3.44000 58.67400 42.54700
H  5.08200 57.99000 42.91500
H  3.57800 57.09700 43.36700
H  2.35600 55.49200 38.98700
H  2.13000 57.10900 39.52900
H  0.01800 56.70600 39.36600
H  -0.05000 56.01200 40.96200
H  0.00800 55.02100 39.47600
H  0.92800 50.53200 40.80500
H  0.77000 51.42000 42.29200
H  1.05800 49.66800 42.37900
H  5.88200 47.74000 42.39100
H  6.23800 45.10800 38.84200
H  4.65700 45.13600 39.73100
H  5.99900 44.06800 40.10400
Mg 16.99200 52.31000 26.43500
C  18.86500 51.02900 29.10900
C  14.72300 53.47000 28.76800
C  15.34700 53.58400 23.86300
C  19.19300 50.69200 24.21400
N  16.70700 52.05500 28.67100
C  17.74700 51.69500 29.53900
C  17.30500 51.94400 31.00800
C  15.79100 52.34700 30.80600
C  15.70600 52.67900 29.32500
C  14.69800 51.32400 31.36700
C  18.17800 53.05900 31.66000
C  18.47300 53.00200 33.11500
H  17.51300 52.08900 33.87000
N  15.21800 53.32100 26.32900
C  14.41200 53.76100 27.38300
C  13.38900 54.63600 26.80400
C  13.53600 54.65900 25.44400
C  14.77600 53.87300 25.15500
C  12.36600 55.36500 27.63300
C  12.67300 55.31000 24.32100
O  12.95900 55.37900 23.09200
C  11.29900 55.87300 24.82600
N  17.12800 52.09100 24.37000
C  16.41800 52.82100 23.51200
C  16.77800 52.60100 22.08200
C  18.21500 51.94200 22.23800
C  18.18900 51.51600 23.72300
C  15.71000 51.69700 21.25000
C  19.41100 52.89300 21.86100
C  19.85100 52.85200 20.39700
N  18.74200 51.14500 26.55700
C  19.49400 50.45400 25.62300
C  20.62900 49.71700 26.26000
C  20.43300 49.96000 27.65900
C  19.24100 50.79100 27.75400
C  21.72300 49.00500 25.48100
C  21.00400 49.86400 28.96600
O  22.13800 49.49200 29.29100
C  19.98300 50.55500 30.02700
C  19.51700 49.45200 30.87100
O  18.58200 48.68700 30.58900
O  20.28600 49.33700 32.02900
C  20.00200 48.27400 32.91700
H  14.06400 53.98100 29.47400
H  14.92600 54.06900 22.97900
H  19.98800 50.18300 23.66600
H  17.32800 50.97200 31.50100
H  15.63000 53.24900 31.39800
H  14.10000 51.67100 32.21000
H  15.19500 50.40600 31.68000
H  14.03100 50.84300 30.65100
H  17.74200 54.04300 31.49200
H  19.13000 53.10300 31.13200
H  18.36900 54.00400 33.52900
H  19.48900 52.62300 33.22100
H  11.33700 55.13700 27.35300
H  12.56700 56.40400 27.37300
H  12.43400 55.12500 28.69400
H  10.84400 56.33200 23.94900
H  11.42900 56.71500 25.50700
H  10.63000 55.04100 25.04400
H  16.76900 53.54900 21.54400
H  18.18000 51.09800 21.54900
H  15.72100 51.71000 20.16000
H  14.66600 51.83200 21.53400
H  16.00400 50.67400 21.48500
H  20.26300 52.64600 22.49400
H  19.06900 53.88000 22.17300
H  20.89400 52.58200 20.55900
H  19.97700 53.83500 19.94200
H  19.36400 52.08100 19.79900
H  22.17800 49.79900 24.88900
H  21.29500 48.15000 24.95700
H  22.47800 48.72500 26.21600
H  20.35600 51.39900 30.60700
H  19.71800 47.32600 32.46000
H  19.14200 48.53400 33.53500
H  20.88300 48.14700 33.54600

