158

Mg 25.66900 -0.42600 29.45500
C  27.43900 -0.18800 32.60100
C  22.75700 0.04200 31.18400
C  24.24900 -0.92100 26.56600
C  28.91100 -0.63300 27.99000
N  25.20200 0.06200 31.60400
C  26.06700 0.15700 32.68700
C  25.22700 0.46800 33.99500
C  23.75300 0.37400 33.55800
C  23.91300 0.09700 32.01600
C  22.82200 -0.51900 34.36300
C  25.60700 1.85500 34.60200
C  26.37200 1.83700 35.98100
H  25.83800 2.83400 36.94700
N  23.82900 -0.33400 28.93400
C  22.70100 -0.29500 29.77400
C  21.51700 -0.35800 28.93200
C  21.97400 -0.62800 27.63100
C  23.40500 -0.64100 27.68900
C  20.06800 -0.04400 29.43800
C  21.18100 -0.80500 26.31100
O  21.68700 -0.87200 25.18400
C  19.69800 -1.09400 26.41000
N  26.45700 -0.73500 27.58600
C  25.67700 -0.86500 26.57400
C  26.48500 -1.01300 25.25400
C  27.91700 -0.61400 25.68500
C  27.78800 -0.73000 27.16800
C  26.45700 -2.38200 24.51700
C  28.22600 0.81600 25.30900
C  27.28800 1.84200 25.95600
N  27.77200 -0.57400 30.16400
C  28.95600 -0.57600 29.42400
C  30.05400 -0.63200 30.34200
C  29.56000 -0.44600 31.66900
C  28.14100 -0.39700 31.46200
C  31.52100 -0.66500 29.93800
C  29.88400 -0.31800 33.00100
O  30.92600 -0.27400 33.61800
C  28.49500 -0.09800 33.62500
C  28.22800 -1.03700 34.72300
O  27.62000 -2.13600 34.65500
O  28.78700 -0.61900 35.95600
C  28.79900 -1.32000 37.19800
H  21.80100 0.22700 31.67700
H  23.90500 -1.09600 25.54400
H  29.86500 -0.73900 27.47000
H  25.51300 -0.32700 34.68300
H  23.39800 1.40200 33.62900
H  21.93800 0.06800 34.61400
H  23.30000 -0.85500 35.28300
H  22.47200 -1.35200 33.75300
H  24.76300 2.53800 34.70500
H  26.30700 2.32800 33.91300
H  27.40600 2.15900 35.86000
H  26.38300 0.80800 36.34200
H  19.54000 -0.99500 29.36200
H  19.65200 0.72300 28.78500
H  20.08500 0.30200 30.47200
H  19.51200 -1.90600 27.11300
H  19.24200 -1.40300 25.46900
H  19.12500 -0.21800 26.71300
H  26.13700 -0.21800 24.59500
H  28.67600 -1.32800 25.36500
H  26.80300 -3.22300 25.11700
H  27.30400 -2.41700 23.83100
H  25.52800 -2.57000 23.97900
H  28.19500 0.93200 24.22600
H  29.23900 1.07000 25.62000
H  27.66500 2.11900 26.94100
H  26.28900 1.41000 26.01500
H  27.28800 2.71500 25.30300
H  32.10500 -0.06400 30.63500
H  31.66400 -0.32900 28.91100
H  31.70300 -1.73100 30.07600
H  28.48000 0.90400 34.05200
H  29.50700 -2.11700 36.97000
H  27.81100 -1.77300 37.28100
H  29.08200 -0.57200 37.93900
Mg 40.41900 8.06700 29.06500
C  41.98200 9.28400 32.04800
C  38.18700 6.57000 31.02800
C  39.07200 6.80800 26.23000
C  43.09200 9.21500 27.26200
N  40.09300 8.13800 31.30700
C  40.73900 8.82500 32.28900
C  39.96200 8.61900 33.62400
C  39.08000 7.35900 33.30100
C  39.07400 7.34400 31.76600
C  39.54800 6.07100 33.91000
C  39.11300 9.89600 33.96700
C  38.81700 10.04300 35.48000
H  39.47700 11.19600 36.19600
N  38.77700 6.89200 28.67000
C  37.96400 6.31800 29.63300
C  36.86300 5.62500 28.95500
C  37.12400 5.72300 27.53200
C  38.33300 6.52100 27.40700
C  35.70000 5.05600 29.70100
C  36.34300 5.05500 26.37900
O  36.69000 5.36600 25.24100
C  35.14300 4.19000 26.66400
N  41.12300 7.82800 27.00500
C  40.29100 7.47000 26.01400
C  40.83300 7.79000 24.52800
C  41.84200 8.87400 25.04300
C  42.14400 8.48200 26.50700
C  41.36600 6.51500 23.79300
C  41.40000 10.38800 24.69300
C  39.96400 10.86700 25.10000
N  42.18000 8.97400 29.45300
C  43.20400 9.37500 28.64300
C  44.29100 9.93800 29.42400
C  43.86100 9.91300 30.75800
C  42.55600 9.34700 30.77200
C  45.63300 10.28700 29.02500
C  44.25900 10.13600 32.10700
O  45.33000 10.55300 32.54800
C  43.00500 9.92200 33.02400
C  43.28700 8.98000 34.16200
O  43.42100 7.75300 34.08000
O  43.43000 9.73100 35.29100
C  43.84700 8.91800 36.54000
H  37.49100 6.02500 31.66900
H  38.57900 6.52800 25.29600
H  43.86400 9.75400 26.70900
H  40.68400 8.40300 34.41100
H  38.12300 7.71700 33.68000
H  40.58300 6.25100 34.20100
H  39.51400 5.23800 33.20900
H  38.97300 5.90700 34.82200
H  38.15800 9.86300 33.44200
H  39.67500 10.73200 33.55100
H  39.02600 9.10200 35.98900
H  37.76300 10.14900 35.73800
H  34.75900 5.46400 29.33400
H  35.91500 5.28400 30.74500
H  35.78100 3.97000 29.75400
H  35.22500 3.48300 27.49000
H  34.99400 3.78700 25.66300
H  34.28100 4.83300 26.83900
H  40.07600 8.22400 23.87500
H  42.60600 8.71800 24.28200
H  40.73000 6.28800 22.93800
H  41.39300 5.63700 24.43800
H  42.37000 6.69900 23.40900
H  41.46800 10.67300 23.64300
H  42.12300 11.02900 25.19800
H  39.39900 10.07100 25.58500
H  39.44900 11.19300 24.19700
H  39.99800 11.74900 25.73900
H  45.83700 9.67600 28.14600
H  46.34200 9.97400 29.79200
H  45.71900 11.35300 28.81200
H  42.66300 10.87900 33.41700
H  42.96600 8.44800 36.97800
H  44.45000 9.46600 37.26300
H  44.51100 8.11000 36.23300

