158

Mg -1.52300 17.38500 26.93700
C  -2.18400 15.07000 29.43400
C  -1.89900 19.90800 28.98000
C  -1.17900 19.46300 24.25600
C  -1.48100 14.64600 24.59600
N  -2.02800 17.39900 28.95800
C  -2.14500 16.36400 29.88900
C  -2.23100 16.95400 31.39200
C  -2.15500 18.57300 31.18900
C  -2.07400 18.68600 29.61400
C  -3.33100 19.31900 31.94900
C  -1.16600 16.28700 32.35300
C  -0.97500 16.89200 33.74600
H  -1.03800 15.96900 35.09600
N  -1.52000 19.43800 26.65300
C  -1.80400 20.29100 27.65800
C  -1.80000 21.61200 27.14000
C  -1.59400 21.49300 25.73400
C  -1.36700 20.09800 25.51200
C  -2.05500 22.85000 27.89200
C  -1.62300 22.63100 24.66400
O  -1.55500 22.38800 23.47400
C  -1.98500 23.99500 25.05300
N  -1.44600 17.00000 24.75600
C  -1.14200 18.08100 23.98100
C  -1.04200 17.62800 22.48700
C  -0.86500 15.99700 22.64700
C  -1.28400 15.86900 24.09600
C  -2.18800 18.08900 21.56000
C  0.59500 15.56400 22.36000
C  1.80900 16.34500 22.84100
N  -1.84000 15.22700 26.95300
C  -1.75800 14.23700 25.93600
C  -1.93700 12.95900 26.52800
C  -1.99200 13.23500 27.95100
C  -2.02000 14.65100 28.11700
C  -1.89200 11.62200 25.88600
C  -2.13500 12.57300 29.19100
O  -2.18300 11.39000 29.51900
C  -2.18000 13.69400 30.23900
C  -0.87800 13.60300 30.88800
O  0.23000 14.02800 30.51200
O  -1.07100 13.08300 32.09700
C  0.12200 12.94500 32.99300
H  -2.03300 20.61800 29.79900
H  -1.07600 20.05500 23.34400
H  -1.36700 13.86000 23.84600
H  -3.21200 16.61800 31.73000
H  -1.20400 18.77800 31.68100
H  -4.02800 19.65800 31.18300
H  -2.88900 20.19900 32.41700
H  -3.89400 18.67000 32.61900
H  -0.23400 16.18700 31.79700
H  -1.51600 15.29200 32.62700
H  -1.67500 17.71300 33.90300
H  0.01200 17.35300 33.75800
H  -1.28600 23.61100 27.76500
H  -2.02600 22.64200 28.96200
H  -2.99200 23.31700 27.58900
H  -1.90600 24.57500 24.13300
H  -1.20900 24.47300 25.65000
H  -2.95100 24.05000 25.55500
H  -0.10800 18.04500 22.11000
H  -1.58000 15.45000 22.03300
H  -2.25800 19.13300 21.25300
H  -3.10500 17.65500 21.95800
H  -2.30500 17.50400 20.64800
H  0.68800 15.69100 21.28100
H  0.81100 14.51100 22.53500
H  1.55200 17.13000 23.55200
H  2.35300 16.86000 22.04900
H  2.38700 15.75000 23.54800
H  -1.44700 11.63600 24.89200
H  -2.92600 11.27700 25.91400
H  -1.26900 10.96400 26.49200
H  -2.97900 13.56500 30.96900
H  0.62900 13.88400 33.21200
H  0.93600 12.30000 32.66000
H  -0.09800 12.41700 33.92100
Mg 53.48600 24.33000 44.68400
C  50.72700 26.26000 44.16000
C  51.55200 21.58400 43.67800
C  56.26800 22.38500 44.20600
C  55.37300 27.06600 45.23100
N  51.32400 23.91700 44.07900
C  50.44500 24.95400 43.81500
C  49.11600 24.41300 43.19500
C  49.27100 22.95600 43.61700
C  50.79300 22.80300 43.76100
C  48.40100 22.60200 44.80500
C  49.10100 24.62600 41.68500
C  47.66700 24.83500 41.19500
H  47.41500 24.47700 39.74800
N  53.85400 22.28000 44.23800
C  52.92200 21.33400 43.86100
C  53.49500 20.10000 43.74200
C  54.83600 20.16400 43.99100
C  55.05200 21.65300 44.22200
C  52.66300 18.91500 43.36100
C  55.80100 19.13500 43.99900
O  55.52600 17.98800 43.64500
C  57.10800 19.42600 44.43100
N  55.58500 24.61000 44.61700
C  56.54500 23.72400 44.38100
C  57.96400 24.43900 44.34700
C  57.63700 25.91600 44.65700
C  56.14400 25.88600 44.91200
C  58.91100 23.78800 45.43000
C  57.90500 26.84000 43.38200
C  59.00300 27.95000 43.73500
N  53.10500 26.20600 44.89500
C  53.98300 27.22600 45.21900
C  53.21600 28.39600 45.50000
C  51.84300 28.09500 45.12000
C  51.89200 26.72000 44.67800
C  53.70900 29.74100 45.94300
C  50.59900 28.63100 44.85300
O  50.08300 29.71200 45.19100
C  49.81300 27.48300 44.22200
C  49.20200 27.96900 42.90600
O  49.70700 27.97600 41.76000
O  47.93600 28.33500 43.10100
C  47.22900 28.88900 41.91600
H  50.89300 20.74800 43.43300
H  57.10500 21.75700 43.89300
H  55.96500 27.94100 45.50700
H  48.22800 24.90800 43.58700
H  48.91400 22.42300 42.73500
H  47.68300 21.80400 44.61800
H  47.92900 23.48200 45.24300
H  49.10300 22.36200 45.60300
H  49.48300 23.73000 41.19700
H  49.72600 25.45700 41.35700
H  47.38500 25.88100 41.30900
H  47.00100 24.23600 41.81500
H  52.31000 18.85600 42.33100
H  51.84900 18.99400 44.08100
H  53.18500 17.96400 43.47300
H  57.79900 19.70400 43.63500
H  57.48900 18.43500 44.67800
H  57.20200 20.07600 45.30000
H  58.45400 24.30800 43.38200
H  58.09300 26.33100 45.55700
H  59.95100 23.81100 45.10500
H  58.61100 22.80500 45.79400
H  58.86800 24.40200 46.33000
H  56.97600 27.28300 43.02200
H  58.24000 26.25500 42.52600
H  59.81500 27.61500 44.38000
H  58.62100 28.74600 44.37500
H  59.40000 28.37000 42.81100
H  53.20500 30.62700 45.55800
H  54.76100 29.82700 45.66800
H  53.43700 29.89800 46.98700
H  48.94900 27.28300 44.85500
H  46.94200 27.95800 41.42600
H  47.74200 29.47200 41.15100
H  46.39800 29.50600 42.25600

