158

Mg 46.70700 25.73800 28.75000
C  47.60900 27.86900 31.54800
C  46.13100 23.30000 31.08900
C  46.35500 23.80100 26.25400
C  47.91000 28.35200 26.62300
N  46.94400 25.63700 31.10000
C  47.23000 26.64400 31.96000
C  46.98100 26.21700 33.40300
C  46.75200 24.67000 33.28300
C  46.64800 24.49300 31.69100
C  47.84600 23.81500 33.95200
C  45.72300 26.84400 34.15300
C  46.01700 27.56300 35.51900
H  46.70800 26.73700 36.63700
N  46.15900 23.88800 28.65900
C  45.90100 23.04400 29.74300
C  45.54800 21.72900 29.21900
C  45.67800 21.83000 27.81000
C  46.04700 23.23000 27.51600
C  45.11000 20.52000 30.11500
C  45.48300 20.79000 26.77200
O  45.60100 20.94400 25.56900
C  45.32200 19.45500 27.28400
N  46.99100 26.07200 26.64000
C  46.83400 25.04000 25.81000
C  47.16900 25.41600 24.35600
C  47.44500 26.95000 24.51600
C  47.45400 27.15400 26.02000
C  48.32200 24.67300 23.65800
C  46.42000 27.90200 23.81900
C  46.64600 27.98000 22.32800
N  47.56200 27.73300 28.96600
C  47.99700 28.62100 28.00800
C  48.58100 29.70100 28.69200
C  48.39700 29.53700 30.09000
C  47.76200 28.29100 30.20000
C  49.20400 30.94200 28.12800
C  48.61000 30.11700 31.45900
O  48.99100 31.23600 31.74300
C  48.09300 29.00700 32.43600
C  49.19800 28.74900 33.37200
O  50.31500 28.32600 33.03500
O  48.90800 29.07600 34.67100
C  49.77800 28.85400 35.81800
H  46.11900 22.41400 31.72800
H  46.43100 23.11400 25.40900
H  48.06300 29.11600 25.85800
H  47.92800 26.53500 33.84000
H  45.86500 24.31100 33.80500
H  47.59400 23.38800 34.92300
H  48.73600 24.44500 33.92700
H  48.16300 23.11300 33.18100
H  44.92600 26.15300 34.43000
H  45.16900 27.52700 33.50900
H  44.97000 27.76400 35.74300
H  46.43200 28.54500 35.29500
H  44.12400 20.17000 29.81000
H  45.13000 20.79900 31.16800
H  45.83000 19.71600 29.96300
H  46.24600 19.34700 27.85200
H  45.32000 18.73000 26.47100
H  44.35700 19.49700 27.78900
H  46.29800 25.34000 23.70500
H  48.44400 27.20500 24.16200
H  48.68100 23.99800 24.43500
H  49.14300 25.32600 23.36300
H  47.93000 24.09300 22.82300
H  46.48100 28.90700 24.23700
H  45.40300 27.53600 23.96100
H  47.53000 27.46500 21.95200
H  46.68500 29.04100 22.08200
H  45.77700 27.60500 21.78700
H  50.28200 30.82900 28.01200
H  48.95400 31.74700 28.81900
H  48.70600 31.11900 27.17500
H  47.32000 29.42300 33.08200
H  49.40700 29.54300 36.57800
H  50.80500 28.96900 35.47000
H  49.72500 27.79600 36.07400
Mg -12.09900 16.96300 40.63000
C  -8.92400 15.51700 39.96800
C  -10.79500 19.91700 39.59400
C  -15.19600 18.22400 40.72700
C  -13.28700 13.71900 41.27500
N  -10.10100 17.65800 39.82700
C  -8.96500 16.90200 39.68000
C  -7.79200 17.72500 39.11900
C  -8.34600 19.17600 39.24100
C  -9.82100 18.91800 39.64400
C  -7.49100 20.15800 40.06500
C  -7.45900 17.26500 37.65000
C  -6.05300 17.52200 37.08400
H  -6.11200 17.85800 35.57200
N  -12.91000 18.79100 40.14400
C  -12.14900 19.91300 39.78400
C  -13.08300 21.02500 39.66900
C  -14.39200 20.58900 40.05800
C  -14.19600 19.15500 40.31700
C  -12.53000 22.42600 39.25700
C  -15.65400 21.48400 40.09100
O  -15.60700 22.68100 39.84200
C  -16.92900 20.95800 40.58900
N  -13.97800 16.09000 40.81400
C  -15.13000 16.88000 40.96800
C  -16.32000 15.92200 41.37700
C  -15.63400 14.63600 41.89900
C  -14.24600 14.77600 41.29000
C  -17.44900 16.46200 42.37300
C  -16.36600 13.24200 41.53300
C  -16.66700 12.16400 42.57700
N  -11.28000 14.99800 40.63200
C  -11.89300 13.77800 40.97500
C  -10.90700 12.70800 40.96000
C  -9.71600 13.30800 40.48500
C  -9.99900 14.68700 40.39200
C  -11.19500 11.35100 41.24800
C  -8.34900 13.09200 40.11700
O  -7.81000 11.99300 39.90800
C  -7.78500 14.45900 39.83900
C  -6.71000 14.73900 40.75700
O  -6.84300 15.00500 41.93000
O  -5.48500 14.49400 40.18200
C  -4.23600 14.72500 40.83300
H  -10.34700 20.90100 39.44500
H  -16.23000 18.54500 40.87400
H  -13.70900 12.81000 41.70800
H  -6.83300 17.55900 39.61000
H  -8.53800 19.58900 38.25100
H  -6.63000 19.64400 40.49200
H  -8.06000 20.57100 40.89900
H  -7.11000 20.94600 39.41600
H  -8.17300 17.85600 37.07700
H  -7.68100 16.20900 37.49500
H  -5.36600 16.67900 37.16600
H  -5.73700 18.49600 37.45700
H  -12.09300 22.28300 38.26900
H  -11.65000 22.79100 39.78600
H  -13.28600 23.21200 39.22200
H  -17.68400 21.71800 40.78700
H  -16.72800 20.42300 41.51700
H  -17.24600 20.17400 39.90100
H  -16.90000 15.70600 40.47900
H  -15.46800 14.80000 42.96400
H  -17.41500 17.53900 42.53900
H  -17.61700 15.90500 43.29500
H  -18.39500 16.25300 41.87300
H  -15.85500 12.77700 40.69000
H  -17.25600 13.58400 41.00500
H  -17.30600 11.52100 41.97100
H  -17.19300 12.68100 43.38000
H  -15.71400 11.71200 42.85400
H  -11.53200 10.80600 40.36600
H  -11.85800 11.23400 42.10500
H  -10.23700 10.89400 41.49600
H  -7.47700 14.42900 38.79400
H  -3.79400 13.82500 41.26100
H  -4.39200 15.45400 41.62800
H  -3.48700 15.28300 40.27000

