158

Mg 43.86900 43.04600 26.81000
C  42.54600 44.88200 29.46500
C  45.37200 40.99000 28.87300
C  45.08100 41.43700 23.96500
C  42.42500 45.56400 24.61200
N  43.90500 43.00000 28.88300
C  43.25500 43.77700 29.84600
C  43.67900 43.20900 31.27300
C  44.76700 42.12800 31.02600
C  44.68900 42.08300 29.43300
C  46.17800 42.37400 31.63100
C  42.38100 42.65000 32.07000
C  42.31100 43.15200 33.48900
H  41.02400 42.84000 34.29200
N  45.12500 41.44400 26.52300
C  45.61600 40.66300 27.48700
C  46.32400 39.50300 26.96400
C  46.17600 39.63900 25.49900
C  45.49300 40.87000 25.25300
C  47.11500 38.60800 27.88700
C  46.48800 38.68900 24.45500
O  46.11900 38.81100 23.30500
C  47.20900 37.41700 24.85500
N  43.82500 43.45500 24.65600
C  44.31200 42.59200 23.72100
C  44.02100 43.07000 22.29500
C  42.88100 44.13300 22.50200
C  42.98400 44.45200 24.04800
C  45.16000 43.67800 21.50600
C  41.43200 43.68100 22.02100
C  40.82800 42.56600 22.84200
N  42.84100 44.92100 27.01000
C  42.26900 45.78100 26.02100
C  41.64600 46.89600 26.69500
C  41.64600 46.52900 28.02900
C  42.36100 45.32100 28.14500
C  40.97500 48.04500 25.97700
C  41.28600 46.97800 29.35200
O  40.66600 47.97200 29.68700
C  41.79500 45.93200 30.32400
C  42.61500 46.61300 31.37300
O  43.77500 46.84300 31.30700
O  41.82900 46.96100 32.44000
C  42.49700 47.59000 33.60000
H  45.71000 40.27900 29.63000
H  45.41000 41.01000 23.01500
H  41.92000 46.29100 23.97200
H  44.07600 44.07200 31.80900
H  44.42000 41.15700 31.38000
H  46.94000 42.40700 30.85100
H  46.27000 41.52700 32.31100
H  46.19200 43.28700 32.22600
H  42.30200 41.56300 32.07900
H  41.49200 43.08300 31.61100
H  42.45400 44.23200 33.43600
H  43.13400 42.58500 33.92400
H  46.47200 38.19900 28.66700
H  47.73600 39.36200 28.37000
H  47.67400 37.80000 27.41600
H  46.73800 36.80900 25.62700
H  48.15400 37.87500 25.14400
H  47.27700 36.72400 24.01700
H  43.47000 42.29200 21.76600
H  43.04200 45.00500 21.86800
H  46.07800 43.15900 21.78300
H  45.27700 44.76000 21.57200
H  44.97900 43.39900 20.46900
H  41.49500 43.33800 20.98800
H  40.84800 44.58700 22.17800
H  41.43200 42.24500 23.69100
H  40.66100 41.77700 22.10900
H  39.88800 42.81800 23.33400
H  40.74000 47.88400 24.92500
H  41.58600 48.93900 26.09900
H  40.01300 48.36600 26.37800
H  41.04800 45.39100 30.90500
H  42.22100 46.84200 34.34400
H  42.18600 48.61400 33.80800
H  43.57200 47.74700 33.51700
Mg -5.84000 24.80800 25.98400
C  -4.49900 26.33300 28.64300
C  -8.00000 23.07500 28.26700
C  -7.10400 23.07100 23.47900
C  -3.56600 26.44900 23.86300
N  -5.99300 24.41900 28.18100
C  -5.48000 25.38700 29.02200
C  -5.97700 25.17400 30.47100
C  -6.96800 23.99100 30.33400
C  -7.03600 23.84000 28.82600
C  -6.60800 22.64700 30.91700
C  -6.65500 26.43900 31.10500
C  -6.65300 26.52700 32.59500
H  -5.98700 25.47800 33.49400
N  -7.36500 23.25400 25.88600
C  -8.12300 22.75000 26.91000
C  -9.20300 21.97400 26.33000
C  -8.98600 21.91500 24.93500
C  -7.80800 22.77400 24.71300
C  -10.37200 21.48400 27.09500
C  -9.72700 21.16100 23.93000
O  -9.45600 21.16000 22.74800
C  -10.74100 20.08700 24.43300
N  -5.28200 24.66200 23.97900
C  -5.93900 23.83900 23.14500
C  -5.38900 23.88600 21.63200
C  -4.51600 25.20300 21.73900
C  -4.45700 25.51700 23.27200
C  -4.63200 22.56900 21.21100
C  -5.07700 26.46600 21.05900
C  -4.50100 26.96900 19.67000
N  -4.21700 26.05200 26.12600
C  -3.43400 26.72500 25.25000
C  -2.54600 27.72500 25.95500
C  -2.93800 27.47400 27.31900
C  -3.91700 26.50800 27.33700
C  -1.61700 28.72800 25.31600
C  -2.76600 28.04200 28.56800
O  -2.05400 28.93100 28.89000
C  -3.71200 27.28100 29.48900
C  -2.83300 26.55000 30.39100
O  -2.60700 25.38300 30.47000
O  -2.47100 27.42100 31.39200
C  -1.75200 26.97900 32.59900
H  -8.59800 22.53100 29.00100
H  -7.45200 22.43900 22.65900
H  -2.89600 27.00900 23.20800
H  -5.19100 24.84400 31.15000
H  -7.94600 24.19900 30.76600
H  -7.20200 22.53900 31.82400
H  -5.55500 22.56700 31.18700
H  -6.69800 21.71800 30.35400
H  -7.71200 26.53900 30.85900
H  -6.31300 27.35500 30.62400
H  -7.71500 26.60500 32.82900
H  -6.20000 27.49900 32.79300
H  -10.31200 21.88200 28.10800
H  -10.28800 20.39800 27.05800
H  -11.28200 21.94800 26.71600
H  -11.53100 20.66400 24.91400
H  -10.18000 19.37000 25.03300
H  -11.17200 19.51000 23.61500
H  -6.19900 24.00300 20.91200
H  -3.53400 25.01000 21.30700
H  -3.57900 22.78200 21.02500
H  -5.11400 22.07600 20.36700
H  -4.59200 21.84400 22.02400
H  -5.00000 27.30100 21.75600
H  -6.14800 26.28800 20.96400
H  -4.08000 27.95800 19.84800
H  -5.27000 26.93700 18.89800
H  -3.67300 26.35900 19.30800
H  -1.91700 29.75300 25.53700
H  -1.64600 28.80800 24.22900
H  -0.56400 28.50000 25.48100
H  -4.37600 27.98700 29.98700
H  -1.11300 26.11700 32.40400
H  -2.34000 26.74000 33.48500
H  -1.05600 27.78600 32.82500

