158

Mg -1.32800 16.88000 26.48000
C  -1.79000 14.77400 29.23500
C  -1.90700 19.61000 28.51000
C  -1.49400 18.91900 23.73400
C  -1.33000 14.10100 24.39800
N  -1.68100 17.11100 28.68400
C  -1.73700 16.11000 29.60100
C  -2.04000 16.72800 30.99000
C  -2.29500 18.22800 30.74700
C  -1.89600 18.38100 29.18800
C  -3.77900 18.64500 31.03000
C  -0.97000 16.42100 32.05300
C  -0.95400 17.12400 33.40700
H  -0.74800 16.23500 34.68900
N  -1.64400 18.94300 26.20000
C  -1.66600 19.91100 27.19000
C  -1.59200 21.21300 26.61800
C  -1.51400 21.08100 25.21100
C  -1.61000 19.60600 24.98700
C  -1.53300 22.48600 27.53800
C  -1.35600 22.14000 24.13600
O  -1.35500 21.93400 22.91500
C  -0.94800 23.48600 24.58600
N  -1.69200 16.53800 24.28200
C  -1.51300 17.59300 23.40000
C  -1.29700 17.08100 21.98300
C  -1.19300 15.48800 22.24100
C  -1.37100 15.35900 23.74800
C  -2.55000 17.33000 21.08100
C  0.12600 14.83400 21.62600
C  1.35500 14.88900 22.56600
N  -1.50500 14.88900 26.70700
C  -1.51900 13.85300 25.73300
C  -1.56200 12.55700 26.43700
C  -1.79700 12.91200 27.78500
C  -1.74100 14.31600 27.87800
C  -1.37700 11.28600 25.74100
C  -1.92700 12.31400 29.06600
O  -1.97800 11.13600 29.47100
C  -2.14300 13.46400 30.04500
C  -1.25900 13.16600 31.15200
O  -0.02800 13.18600 31.10600
O  -2.05900 12.82600 32.23800
C  -1.40400 12.21000 33.46100
H  -2.00500 20.42100 29.23400
H  -1.25700 19.52900 22.86000
H  -1.19700 13.22900 23.75300
H  -2.96700 16.22900 31.27300
H  -1.63700 18.87900 31.32200
H  -4.20200 18.74200 30.03000
H  -3.87700 19.55600 31.62000
H  -4.40400 17.96800 31.61300
H  0.00600 16.39100 31.56800
H  -1.10700 15.42400 32.47300
H  -1.79900 17.79500 33.56400
H  -0.10800 17.78500 33.22000
H  -1.71500 22.36600 28.60600
H  -2.36800 23.13100 27.26300
H  -0.56800 22.97200 27.40000
H  -1.75400 23.93000 25.17100
H  -0.75000 24.08000 23.69300
H  0.05100 23.43000 25.01900
H  -0.33800 17.31700 21.52100
H  -2.06300 15.10300 21.70800
H  -3.19000 16.45900 20.94400
H  -2.15900 17.61600 20.10500
H  -3.14900 18.20000 21.35100
H  0.32700 15.38700 20.70900
H  -0.14100 13.81400 21.35200
H  1.50100 13.86000 22.89500
H  1.22900 15.50400 23.45700
H  2.27400 15.16500 22.04900
H  -0.64700 10.69900 26.29900
H  -0.95700 11.33900 24.73700
H  -2.31400 10.78200 25.97500
H  -3.20200 13.53100 30.29300
H  -1.39200 13.04800 34.15700
H  -0.34300 11.98100 33.36700
H  -2.05300 11.48900 33.95900
Mg 8.86600 48.45100 27.14100
C  7.18900 48.16200 30.26800
C  11.82100 49.01700 29.04300
C  10.44900 49.28400 24.30700
C  5.76500 48.55300 25.49200
N  9.38400 48.63000 29.49700
C  8.54200 48.37700 30.55200
C  9.24000 48.50000 31.90700
C  10.73200 49.01700 31.44300
C  10.63400 48.94900 29.93900
C  11.19100 50.38000 31.99600
C  9.35700 47.15800 32.65900
C  10.16100 47.18800 33.97700
H  9.83700 46.26900 35.14400
N  10.83900 48.84900 26.69000
C  11.90000 49.07700 27.57500
C  13.14500 49.38900 26.81100
C  12.78100 49.32100 25.45600
C  11.29600 49.14200 25.40600
C  14.48600 49.63400 27.52600
C  13.68500 49.43000 24.26000
O  13.21800 49.22800 23.11000
C  15.16300 49.56600 24.38400
N  8.23100 48.76300 25.16700
C  9.05800 49.16900 24.19000
C  8.42100 49.47100 22.85200
C  6.89700 49.03600 23.24400
C  6.91900 48.70500 24.74400
C  8.59700 50.89700 22.38200
C  6.31800 47.89600 22.26600
C  5.80400 48.45600 20.89500
N  6.86800 48.29300 27.69300
C  5.71100 48.27900 26.87900
C  4.57400 47.94800 27.74500
C  5.13800 47.90200 29.02900
C  6.50200 48.18000 28.98100
C  3.14200 47.67800 27.25900
C  4.81200 47.64700 30.46400
O  3.71400 47.55100 30.99000
C  6.08400 47.73800 31.30000
C  6.29400 46.40200 31.85500
O  6.85000 45.39500 31.30200
O  5.74000 46.39200 33.13700
C  5.86500 45.16500 33.84300
H  12.79700 49.05900 29.53000
H  10.95600 49.60600 23.39500
H  4.82200 48.26000 25.02500
H  8.65600 49.22700 32.47100
H  11.48900 48.28600 31.72400
H  11.11500 50.25000 33.07500
H  10.51100 51.19100 31.73400
H  12.11600 50.74000 31.54600
H  9.71500 46.44000 31.92200
H  8.37100 46.87900 33.03000
H  10.26500 48.23300 34.26800
H  11.12600 46.77400 33.68500
H  15.18200 48.85400 27.21500
H  14.55500 49.78200 28.60300
H  14.88700 50.58700 27.18000
H  15.66900 48.87000 25.05400
H  15.50400 50.59200 24.52200
H  15.54600 49.25400 23.41300
H  8.87900 48.89300 22.04900
H  6.19600 49.86900 23.18700
H  9.19000 50.86100 21.46800
H  9.15500 51.42400 23.15600
H  7.67800 51.44500 22.17900
H  5.57400 47.31500 22.81000
H  7.10800 47.21100 21.95700
H  5.54100 49.51100 20.81200
H  4.86300 47.91900 20.78000
H  6.35900 48.10400 20.02600
H  2.46100 47.44400 28.07700
H  3.08900 46.93700 26.46000
H  2.65600 48.50600 26.74200
H  6.19600 48.36700 32.18400
H  5.13200 44.40900 33.56000
H  5.69700 45.19200 34.91900
H  6.87500 44.78300 33.69000

