158

Mg 0.49700 7.65900 26.45300
C  1.39000 9.93300 29.09000
C  0.89000 5.13900 28.63200
C  0.37500 5.49100 23.83700
C  1.11500 10.32700 24.24500
N  0.90200 7.61100 28.70800
C  1.17200 8.60700 29.55300
C  1.33900 8.06000 30.95500
C  1.33900 6.50900 30.70400
C  1.07000 6.37000 29.22400
C  2.70400 5.77300 31.09400
C  0.34700 8.67600 32.03100
C  0.96000 9.18000 33.33500
H  2.15900 8.53400 33.86000
N  0.35400 5.65200 26.27700
C  0.51500 4.75100 27.31700
C  0.44600 3.44800 26.79600
C  0.33500 3.50500 25.38500
C  0.36900 4.92400 25.06700
C  0.33700 2.29600 27.81600
C  0.22200 2.41700 24.31800
O  -0.01000 2.64300 23.11100
C  0.50100 0.98900 24.69200
N  0.78000 7.87500 24.41400
C  0.57400 6.82100 23.52500
C  0.61900 7.34100 22.09600
C  0.54700 8.87800 22.25300
C  0.85800 9.05300 23.71900
C  1.97100 6.90100 21.42000
C  -0.85700 9.37400 21.84700
C  -0.78100 10.64600 20.97200
N  1.19000 9.71300 26.58700
C  1.38400 10.65900 25.59900
C  1.81200 11.95200 26.22500
C  1.79000 11.64800 27.55900
C  1.45700 10.29400 27.76500
C  1.82400 13.22100 25.51100
C  1.86400 12.32200 28.85000
O  2.18700 13.46600 29.00600
C  1.65700 11.15700 29.91100
C  2.95500 11.21500 30.75900
O  3.92500 10.49600 30.51100
O  2.72300 12.07500 31.84500
C  3.87500 12.28100 32.76200
H  1.08200 4.22700 29.20000
H  0.35200 4.79000 23.00100
H  1.24200 11.18600 23.58200
H  2.33400 8.38700 31.25700
H  0.57900 5.96400 31.26200
H  3.42400 6.37500 31.64800
H  3.22100 5.28200 30.27000
H  2.38300 4.96900 31.75600
H  -0.43100 7.95900 32.29700
H  -0.26000 9.39200 31.47600
H  0.19300 9.03400 34.09600
H  1.14200 10.24800 33.21600
H  0.14700 1.35500 27.30100
H  -0.47400 2.46800 28.52300
H  1.29300 2.24000 28.33700
H  -0.47400 0.63400 25.02800
H  1.28700 1.06500 25.44200
H  0.73800 0.39300 23.81000
H  -0.23400 6.90600 21.57600
H  1.33800 9.40600 21.72000
H  2.62300 7.74400 21.19200
H  1.77200 6.40100 20.47300
H  2.47200 6.20000 22.08800
H  -1.35900 9.67100 22.76800
H  -1.49600 8.64700 21.34600
H  -1.68800 10.84200 20.40000
H  0.09000 10.75500 20.32600
H  -0.69800 11.51200 21.62800
H  0.92800 13.43800 24.93000
H  2.61400 13.29100 24.76300
H  1.94600 14.01300 26.25000
H  0.77500 11.37500 30.51300
H  3.51800 12.89600 33.58800
H  4.65100 12.82200 32.21900
H  4.19400 11.35900 33.24700
Mg 41.12400 8.44600 29.89100
C  42.23200 9.92700 32.82000
C  38.44600 7.13200 31.75100
C  40.20100 6.77000 27.25900
C  44.00600 9.72000 28.25700
N  40.45300 8.46000 32.10800
C  41.01500 9.24400 33.00900
C  40.16000 9.40800 34.27700
C  39.04400 8.29000 34.04400
C  39.30600 7.89400 32.53600
C  39.21600 7.07300 35.11100
C  39.64500 10.84800 34.58100
C  39.36900 11.08100 36.07000
H  40.34800 11.87300 36.84600
N  39.48900 7.18800 29.53800
C  38.52500 6.78000 30.36700
C  37.63600 5.83300 29.64300
C  38.09200 5.80900 28.28600
C  39.29800 6.56700 28.28200
C  36.42700 5.19100 30.34700
C  37.55600 5.02700 27.10400
O  38.05400 5.11200 26.01500
C  36.32100 4.17000 27.27200
N  42.04300 8.18800 28.06100
C  41.43200 7.44100 27.08600
C  42.39900 7.32900 25.87600
C  43.50400 8.37800 26.17000
C  43.11800 8.88900 27.54700
C  42.88500 5.85000 25.66300
C  43.62700 9.40100 25.08200
C  42.63500 10.54200 25.05600
N  42.77700 9.54200 30.39800
C  43.81500 10.03800 29.59300
C  44.67600 10.97900 30.37900
C  44.12100 10.85900 31.64300
C  42.94100 10.03500 31.63100
C  45.88300 11.78500 29.90600
C  44.29600 11.29800 33.05500
O  45.11400 12.01800 33.52700
C  43.07700 10.70300 33.85300
C  43.60400 9.85900 34.93100
O  43.83900 8.66400 34.72600
O  43.63800 10.44400 36.16100
C  43.76800 9.44200 37.23200
H  37.51100 6.78500 32.19300
H  39.97400 6.18400 26.36600
H  44.74000 10.29300 27.68700
H  40.80300 9.06100 35.08600
H  38.02700 8.67900 34.02000
H  38.24200 6.76700 35.49400
H  39.87500 7.19800 35.97000
H  39.49700 6.13700 34.62700
H  38.67800 10.97300 34.09400
H  40.24800 11.55800 34.01500
H  39.21600 10.10700 36.53500
H  38.39200 11.54600 36.20500
H  36.76400 4.99400 31.36500
H  36.09100 4.24500 29.92300
H  35.52400 5.78800 30.46700
H  36.01900 3.93600 26.25100
H  35.57000 4.70300 27.85500
H  36.65000 3.23800 27.73100
H  41.87500 7.64200 24.97300
H  44.49800 7.95800 26.32300
H  42.50100 5.26600 26.50000
H  43.95900 5.72700 25.53100
H  42.38100 5.48200 24.76900
H  43.69300 8.83600 24.15200
H  44.59300 9.90300 25.12600
H  42.22200 10.71700 26.04900
H  41.83300 10.50500 24.31900
H  43.06600 11.50400 24.77800
H  45.63600 12.49200 29.11400
H  46.66900 11.17400 29.46200
H  46.35400 12.23700 30.77900
H  42.46400 11.49300 34.28500
H  42.96000 8.71700 37.33000
H  43.80500 10.04500 38.14000
H  44.76700 9.02000 37.12500

