158

Mg 44.05000 3.43800 47.44400
C  41.70300 6.12400 47.16700
C  41.50900 1.18100 47.19000
C  46.34900 0.96500 47.13300
C  46.54300 5.84300 46.88600
N  41.85800 3.64500 47.03100
C  41.10800 4.80600 47.08100
C  39.65300 4.48500 46.71800
C  39.56800 2.98500 47.14400
C  41.07700 2.53000 47.06700
C  39.01200 2.64900 48.60600
C  39.39600 4.75900 45.18200
C  38.44500 5.81300 44.79800
H  38.90100 6.64000 43.58300
N  44.00700 1.36700 47.32300
C  42.84800 0.68700 47.18400
C  43.15900 -0.74000 47.14100
C  44.59100 -0.92700 47.08300
C  45.05300 0.49500 47.10100
C  42.05200 -1.75900 47.20100
C  45.35200 -2.23100 46.93400
O  44.87200 -3.34600 47.05400
C  46.78300 -2.17700 46.65000
N  46.16000 3.39500 46.89800
C  46.88400 2.26500 47.06400
C  48.41200 2.51700 46.97200
C  48.50400 4.08300 46.84700
C  46.96700 4.48300 46.78800
C  49.16500 1.90600 48.15300
C  49.32900 4.51600 45.57900
C  50.78100 4.80800 45.85700
N  44.14300 5.60700 47.16900
C  45.19500 6.47000 46.94800
C  44.81300 7.82300 46.92900
C  43.39600 7.71900 47.11000
C  43.05900 6.40900 47.20600
C  45.76600 9.00000 46.86900
C  42.12200 8.54000 47.14100
O  41.96300 9.76700 47.01400
C  40.94100 7.40900 47.07400
C  40.06000 7.71100 48.21400
O  40.02700 7.18800 49.31300
O  39.26200 8.72200 47.76400
C  38.63600 9.57100 48.79900
H  40.68900 0.46500 47.28500
H  47.12700 0.19900 47.14100
H  47.24200 6.68100 46.84800
H  38.96900 5.01900 47.37800
H  39.07800 2.38500 46.37700
H  38.66400 3.58300 49.04800
H  39.78100 2.15100 49.19700
H  38.14000 2.02500 48.41000
H  39.17100 3.86500 44.60100
H  40.39300 5.05900 44.85900
H  38.35700 6.48900 45.64900
H  37.45300 5.40200 44.61200
H  42.53100 -2.69200 46.90200
H  41.30100 -1.35200 46.52400
H  41.77700 -1.81100 48.25500
H  47.11600 -1.71400 45.72100
H  47.19500 -3.18500 46.66900
H  47.28100 -1.75600 47.52300
H  48.88100 2.09700 46.08300
H  48.95400 4.57800 47.70700
H  49.51700 2.79600 48.67400
H  50.07300 1.38000 47.85900
H  48.54800 1.23300 48.74900
H  48.96700 5.45300 45.15600
H  49.29800 3.81100 44.74800
H  50.80500 5.89300 45.95000
H  51.34300 4.49100 44.97800
H  51.12400 4.32800 46.77300
H  46.29100 9.10000 45.91900
H  46.56600 8.96100 47.60700
H  45.18800 9.88200 47.14600
H  40.37200 7.62100 46.16900
H  38.96800 10.60900 48.78500
H  38.83200 9.13900 49.78000
H  37.56000 9.62000 48.63000
Mg 46.22300 16.11000 27.76300
C  44.50100 15.61200 30.82900
C  48.42000 17.98400 29.39400
C  47.82400 16.53100 24.89600
C  43.78400 14.29900 26.17000
N  46.40900 16.66900 29.86100
C  45.63600 16.39500 30.92500
C  46.13400 17.02200 32.22800
C  47.10500 18.10600 31.74200
C  47.31600 17.65400 30.25100
C  46.63100 19.60600 31.84900
C  46.87400 15.81800 33.02100
C  46.85500 16.04700 34.55400
H  48.28800 16.13400 35.18400
N  47.94400 17.09800 27.26600
C  48.78100 17.80500 28.06700
C  49.97300 18.11800 27.46400
C  49.78600 17.80700 26.09600
C  48.47200 17.11000 26.02000
C  51.08500 18.76100 28.17700
C  50.69000 18.00300 24.97300
O  50.40200 17.69800 23.78900
C  52.05300 18.50200 25.15700
N  45.89500 15.45500 25.84800
C  46.62600 15.79600 24.79800
C  46.15100 15.26900 23.52900
C  44.97900 14.32000 23.89300
C  44.86100 14.66600 25.40300
C  45.92800 16.27000 22.33400
C  45.16300 12.76400 23.58400
C  46.05700 11.99400 24.52700
N  44.43500 15.12700 28.32000
C  43.47400 14.47700 27.56800
C  42.38000 13.98400 28.38500
C  42.73500 14.45800 29.67200
C  44.00900 15.08300 29.61300
C  41.15800 13.26400 27.88000
C  42.28900 14.50100 31.00100
O  41.24800 14.03400 31.39700
C  43.44500 15.29100 31.86400
C  42.67900 16.43500 32.49300
O  42.45400 17.51100 31.97700
O  42.29700 16.03200 33.74000
C  41.50000 16.92100 34.58200
H  49.16900 18.55300 29.94900
H  48.23500 16.61100 23.88700
H  43.07000 13.74300 25.55900
H  45.30800 17.51000 32.74500
H  48.04900 18.09200 32.28700
H  46.29600 19.96700 30.87700
H  47.52400 20.17500 32.10900
H  45.76900 19.82000 32.48200
H  47.88600 15.76500 32.62100
H  46.49000 14.82400 32.79100
H  46.34000 15.22300 35.04700
H  46.33900 16.99200 34.72600
H  51.05000 19.83900 28.02100
H  52.08600 18.51200 27.82500
H  51.05800 18.60200 29.25500
H  52.00200 19.47700 25.64100
H  52.50800 18.62600 24.17400
H  52.58100 17.73800 25.72800
H  46.97400 14.59900 23.28200
H  44.03400 14.67600 23.48100
H  45.04300 16.00300 21.75600
H  46.83900 16.07000 21.77000
H  45.92200 17.31200 22.65300
H  45.62700 12.65500 22.60300
H  44.14200 12.38900 23.64200
H  45.53500 11.24700 25.12400
H  46.57400 12.57000 25.29500
H  46.79000 11.36900 24.01700
H  41.45700 12.23800 27.66400
H  40.71700 13.69800 26.98300
H  40.51300 13.20600 28.75600
H  43.95900 14.72900 32.64400
H  41.34700 16.39900 35.52600
H  40.54000 16.93600 34.06700
H  42.03200 17.85500 34.76600

