158

Mg 47.83500 16.22800 27.72900
C  46.09100 16.35200 30.74900
C  50.37100 17.96300 29.21900
C  49.31900 16.60700 24.80200
C  45.01300 14.95200 26.19400
N  48.12000 17.04600 29.68500
C  47.28900 16.93600 30.78400
C  47.92300 17.63100 32.01700
C  49.20200 18.26600 31.46900
C  49.24200 17.69300 30.03500
C  49.14500 19.80300 31.57100
C  48.18600 16.56900 33.13900
C  47.61500 16.88900 34.51600
H  47.46000 18.37900 34.82700
N  49.65600 17.08600 27.12600
C  50.55200 17.70900 27.88900
C  51.74900 17.94100 27.13000
C  51.52900 17.59300 25.81000
C  50.10300 17.06600 25.85000
C  52.94600 18.74500 27.78900
C  52.36600 17.67900 24.55800
O  51.96200 17.24500 23.49600
C  53.79800 18.18600 24.64600
N  47.14200 15.99600 25.69200
C  48.02400 16.07300 24.70200
C  47.33100 15.75400 23.35400
C  46.02800 15.08200 23.89800
C  45.99400 15.39500 25.34900
C  47.14200 17.03200 22.46200
C  45.83000 13.57600 23.65800
C  44.73700 13.25100 22.72600
N  45.89700 15.75000 28.28100
C  44.92700 15.13500 27.61200
C  43.77700 14.84900 28.49400
C  44.16600 15.33700 29.72900
C  45.47200 15.78400 29.60100
C  42.51000 14.16300 28.08900
C  43.75700 15.49300 31.11100
O  42.76700 15.21300 31.75200
C  45.02600 16.16100 31.81200
C  44.54000 17.43500 32.45600
O  44.48200 18.54700 31.94300
O  44.07700 17.16900 33.72900
C  43.44800 18.20500 34.51800
H  51.24900 18.27300 29.78900
H  49.78000 16.71300 23.81700
H  44.17100 14.36600 25.81900
H  47.17600 18.35300 32.34900
H  50.08500 17.93500 32.01600
H  50.11700 20.25600 31.77100
H  48.52800 19.88000 32.46600
H  48.58600 20.14300 30.69900
H  49.24300 16.39300 33.33600
H  47.67600 15.67800 32.77300
H  48.29000 16.34500 35.17700
H  46.67600 16.33800 34.58400
H  53.83200 18.48800 27.20700
H  53.16800 18.28500 28.75100
H  52.77500 19.82000 27.85500
H  54.34800 17.40300 25.16600
H  53.82500 19.15100 25.15300
H  54.16400 18.23700 23.62000
H  47.94400 15.02400 22.82500
H  45.23600 15.63900 23.39600
H  46.19800 16.79900 21.96900
H  47.81700 17.26500 21.63900
H  46.92400 17.88600 23.10300
H  45.59000 13.09000 24.60300
H  46.75600 13.17900 23.24100
H  44.17100 12.33900 22.91400
H  45.22700 12.92700 21.80700
H  44.13500 14.09400 22.38800
H  42.58100 13.11900 27.78600
H  41.88800 14.71400 27.38300
H  41.91600 14.13100 29.00200
H  45.37900 15.42200 32.53100
H  43.49800 17.91100 35.56700
H  42.40500 18.05700 34.23800
H  43.70800 19.21300 34.19500
Mg 17.07800 53.05400 26.73400
C  19.10300 51.35300 29.08100
C  14.84300 53.72000 29.19600
C  15.02500 54.38800 24.38100
C  19.19100 51.74700 24.17100
N  17.15600 52.78800 28.90800
C  18.00600 52.07700 29.68700
C  17.57900 52.06900 31.18600
C  16.06100 52.40400 31.09600
C  16.03100 53.02100 29.62800
C  15.02900 51.26000 31.33700
C  18.48700 53.11700 31.85100
C  18.55000 52.97900 33.36700
H  17.56100 52.07900 34.14300
N  15.21600 54.02200 26.75200
C  14.44600 54.25200 27.90700
C  13.26300 54.91800 27.56500
C  13.39900 55.28200 26.21700
C  14.55800 54.55800 25.67600
C  12.22600 55.23500 28.61800
C  12.53400 56.14100 25.28500
O  12.74100 56.34400 24.06000
C  11.44500 56.91100 25.85700
N  17.12100 53.06500 24.60200
C  16.10500 53.66000 23.87100
C  16.34800 53.47900 22.33700
C  17.68600 52.69700 22.31000
C  18.08700 52.57100 23.79800
C  15.24800 52.82100 21.41200
C  18.69900 53.30900 21.30500
C  19.82000 54.22100 21.84600
N  18.92800 51.87000 26.54500
C  19.66100 51.45200 25.46800
C  20.79200 50.66000 25.93900
C  20.67400 50.69000 27.34200
C  19.43800 51.34900 27.66100
C  21.88000 49.88000 25.04700
C  21.26100 50.20600 28.59500
O  22.27600 49.54400 28.77800
C  20.26600 50.63500 29.76600
C  19.87400 49.50000 30.68900
O  18.98800 48.70500 30.40100
O  20.66200 49.51000 31.81200
C  20.24500 48.52000 32.83300
H  14.18300 53.76000 30.06500
H  14.48400 54.81200 23.53300
H  19.85900 51.52100 23.33700
H  17.80400 51.14100 31.71100
H  15.92500 53.21600 31.81100
H  14.20300 51.36900 32.04000
H  15.58800 50.37500 31.64100
H  14.49700 50.94200 30.44100
H  18.28100 54.16200 31.61800
H  19.48200 52.76600 31.57700
H  18.26900 53.92300 33.83500
H  19.57800 52.84200 33.70400
H  12.39200 54.60500 29.49200
H  11.23300 55.17400 28.17200
H  12.33400 56.22000 29.07200
H  10.94300 57.39500 25.01900
H  11.90500 57.70400 26.44600
H  10.72800 56.36100 26.46700
H  16.58700 54.42500 21.85000
H  17.45400 51.67200 22.01900
H  14.81500 53.59100 20.77400
H  14.43400 52.43300 22.02400
H  15.54500 51.91100 20.89100
H  18.21100 54.00100 20.62000
H  19.04500 52.52600 20.63000
H  20.78700 53.73500 21.97200
H  19.46300 54.78200 22.71000
H  19.94800 54.99700 21.09100
H  22.80300 50.44900 25.15900
H  21.50100 49.92900 24.02700
H  22.08100 48.83600 25.28800
H  20.82700 51.34000 30.38000
H  19.18500 48.31900 32.99100
H  20.79200 48.75400 33.74600
H  20.63800 47.58800 32.42700

