158

Mg 9.55700 3.47000 27.11100
C  10.72900 1.79800 29.92500
C  8.29100 5.92600 29.12800
C  8.02800 4.89200 24.42200
C  10.62200 0.80600 25.13200
N  9.47500 3.75200 29.25300
C  10.05100 3.01300 30.24100
C  9.70200 3.54400 31.66900
C  8.79000 4.78200 31.31600
C  8.94800 4.89500 29.78600
C  7.35900 4.62800 31.79800
C  10.96100 3.84200 32.48100
C  10.88500 4.67500 33.74000
H  11.86400 4.44000 34.82600
N  8.29100 5.20100 26.81700
C  7.90600 6.05500 27.73600
C  7.21400 7.10900 27.17000
C  7.21700 6.89900 25.79400
C  7.84900 5.63200 25.61500
C  6.69200 8.19700 28.00000
C  6.77800 7.80400 24.72100
O  6.78900 7.44500 23.59400
C  6.21700 9.13500 25.00600
N  9.10500 2.70700 25.12300
C  8.58400 3.56100 24.18200
C  8.66500 3.00300 22.72900
C  9.49400 1.68900 22.91800
C  9.77900 1.72000 24.51000
C  7.29500 2.77300 22.04600
C  10.78200 1.49800 22.12600
C  10.86900 0.11900 21.46100
N  10.50700 1.68600 27.38500
C  10.93800 0.74000 26.48400
C  11.63900 -0.24000 27.22200
C  11.63600 0.08200 28.62200
C  10.87800 1.29800 28.63100
C  12.30600 -1.45800 26.60400
C  12.00300 -0.33800 29.92300
O  12.58800 -1.33400 30.34400
C  11.43900 0.81800 30.87300
C  10.48600 0.25600 31.94400
O  9.34200 -0.13600 31.85200
O  11.25900 0.06700 33.10700
C  10.50600 -0.47200 34.28500
H  7.86100 6.66100 29.81200
H  7.81300 5.35700 23.45700
H  10.96600 -0.05200 24.55000
H  9.24500 2.74400 32.25300
H  9.06400 5.71800 31.80300
H  6.63100 4.69200 30.98900
H  7.11100 5.43500 32.48800
H  7.15600 3.66100 32.25800
H  11.72400 4.28500 31.84200
H  11.24800 2.82500 32.74800
H  9.89800 4.85100 34.16900
H  11.16800 5.65100 33.34400
H  7.33700 9.03100 27.72200
H  6.74600 8.05600 29.07900
H  5.68300 8.48300 27.70400
H  6.91400 9.79300 25.52500
H  5.31100 8.91100 25.56900
H  5.90900 9.57700 24.05800
H  9.27700 3.75400 22.23100
H  8.95100 0.78500 22.63900
H  7.14500 3.48300 21.23300
H  6.46100 2.95900 22.72200
H  7.27800 1.74200 21.69200
H  11.59300 1.70500 22.82400
H  10.65900 2.26700 21.36300
H  10.48900 -0.60800 22.17900
H  11.91000 -0.18400 21.35200
H  10.37200 0.03600 20.49400
H  12.96000 -1.20000 25.77100
H  11.63700 -2.22500 26.21500
H  12.91700 -1.96600 27.35000
H  12.26200 1.24600 31.44500
H  10.09700 0.40400 34.78800
H  11.26000 -0.88700 34.95400
H  9.77200 -1.26700 34.15500
Mg 17.51400 -2.57400 27.44000
C  16.67600 -0.41300 30.15000
C  19.29700 -4.58800 29.75100
C  18.73600 -4.27400 24.84200
C  16.06100 -0.24700 25.30500
N  17.92400 -2.53800 29.74800
C  17.52800 -1.48200 30.56800
C  17.92400 -1.83700 32.03700
C  18.86000 -3.11700 31.87600
C  18.71600 -3.43800 30.37000
C  20.33400 -2.98400 32.42600
C  16.73600 -1.99900 33.01000
C  16.68500 -1.22500 34.29400
H  18.03000 -0.89500 35.00600
N  18.70900 -4.25900 27.30000
C  19.28000 -4.99800 28.39200
C  19.84600 -6.23400 27.83200
C  19.89000 -6.00700 26.40600
C  19.15800 -4.78400 26.13600
C  20.42600 -7.23000 28.70900
C  20.63600 -6.80500 25.35800
O  20.50000 -6.54300 24.16600
C  21.45200 -7.94800 25.77100
N  17.66500 -2.17200 25.39900
C  18.16500 -3.08800 24.51500
C  17.84700 -2.68500 23.08800
C  16.87900 -1.51800 23.26800
C  16.87100 -1.23300 24.78300
C  18.98600 -2.59400 22.16300
C  15.48900 -1.70100 22.62500
C  14.37300 -2.12600 23.58800
N  16.44300 -0.80300 27.63800
C  15.88600 0.02400 26.68000
C  15.08400 1.06100 27.32300
C  15.40000 0.90300 28.67400
C  16.25000 -0.21600 28.77900
C  14.29300 2.13800 26.75700
C  15.25600 1.53200 29.98700
O  14.61700 2.53400 30.25900
C  16.08500 0.66800 31.04100
C  16.97500 1.51700 31.78900
O  18.16300 1.70800 31.61200
O  16.27500 2.00500 32.88300
C  17.02800 3.10800 33.55500
H  19.85300 -5.20800 30.45800
H  18.85900 -4.96700 24.00700
H  15.45500 0.43500 24.70600
H  18.59400 -1.05400 32.39300
H  18.41100 -3.92800 32.45000
H  20.38600 -3.78800 33.16000
H  20.40100 -2.01200 32.91500
H  21.10300 -3.15600 31.67300
H  16.53200 -3.05600 33.18100
H  15.92000 -1.67400 32.36500
H  16.23900 -1.98100 34.94000
H  15.92200 -0.45700 34.17600
H  20.07000 -8.18900 28.33100
H  20.02800 -7.20800 29.72300
H  21.50900 -7.11100 28.73800
H  20.74600 -8.67700 26.17100
H  22.04500 -7.60200 26.61800
H  21.92200 -8.39300 24.89400
H  17.35800 -3.54600 22.63200
H  17.46400 -0.70800 22.83400
H  19.10700 -1.62800 21.67300
H  18.89800 -3.36800 21.40000
H  19.85100 -2.72800 22.81200
H  15.59800 -2.55100 21.95300
H  15.16600 -0.78700 22.12700
H  14.69500 -2.84300 24.34400
H  13.63600 -2.76400 23.10000
H  13.82100 -1.22200 23.84300
H  14.05800 1.82100 25.74100
H  15.00900 2.95200 26.64400
H  13.38700 2.31700 27.33500
H  15.31000 0.30400 31.71500
H  17.32800 3.97100 32.96200
H  17.91300 2.78200 34.10300
H  16.34900 3.37600 34.36400

