158

Mg 25.14800 -4.87500 45.75500
C  26.69600 -2.14700 44.19000
C  22.36200 -4.08500 43.63500
C  24.09500 -7.95700 46.14100
C  28.30300 -5.71900 47.18400
N  24.65200 -3.27000 44.13500
C  25.44600 -2.30800 43.59800
C  24.76700 -1.43200 42.52100
C  23.32500 -1.97500 42.52300
C  23.43200 -3.16000 43.53600
C  22.18700 -0.90600 42.65900
C  25.46400 -1.40200 41.20400
C  24.74200 -0.69500 39.98000
H  25.34500 -0.98700 38.60100
N  23.44000 -5.90700 45.00700
C  22.42300 -5.37000 44.23100
C  21.35600 -6.39400 44.22300
C  21.76000 -7.54300 44.99100
C  23.16000 -7.16900 45.41500
C  19.99400 -6.08300 43.60800
C  20.88000 -8.73700 45.18900
O  19.77400 -8.80500 44.75500
C  21.45100 -9.98000 45.99200
N  25.98300 -6.54700 46.60400
C  25.29500 -7.70000 46.74000
C  26.19400 -8.77200 47.38000
C  27.55700 -8.08900 47.63000
C  27.31600 -6.70500 47.03300
C  25.55900 -9.43100 48.63900
C  28.76500 -8.84700 46.87200
C  30.09700 -9.00000 47.64200
N  27.16400 -4.12700 45.83300
C  28.26900 -4.50600 46.50500
C  29.18600 -3.42500 46.47500
C  28.67800 -2.52600 45.50900
C  27.39100 -2.98400 45.16000
C  30.49000 -3.38200 47.24400
C  28.96200 -1.28700 44.82800
O  29.88800 -0.51500 44.90100
C  27.74100 -1.08900 43.89700
C  27.21800 0.20900 44.17300
O  26.65000 0.54700 45.18300
O  27.19500 1.03800 43.10300
C  26.65200 2.40000 43.19400
H  21.47900 -3.86500 43.03200
H  23.72400 -8.95900 46.37000
H  29.24700 -5.94900 47.68200
H  24.92200 -0.41700 42.88700
H  23.15400 -2.39000 41.53000
H  21.55600 -0.77500 41.78100
H  22.62800 0.04300 42.96700
H  21.56400 -1.26500 43.47800
H  25.56500 -2.46700 40.99600
H  26.47600 -1.00500 41.28400
H  24.88300 0.37200 40.14900
H  23.67400 -0.91300 39.94600
H  20.01000 -6.31600 42.54300
H  19.85700 -5.01300 43.76300
H  19.14000 -6.65300 43.97300
H  20.67000 -10.73600 46.07600
H  21.70400 -9.63000 46.99300
H  22.25600 -10.49500 45.46700
H  26.24500 -9.61800 46.69500
H  27.68600 -8.00000 48.70900
H  26.14800 -9.23700 49.53600
H  25.53000 -10.51200 48.50300
H  24.53100 -9.10900 48.80600
H  28.96200 -8.25100 45.98100
H  28.45800 -9.85200 46.58300
H  30.19600 -10.01400 48.03000
H  30.13400 -8.32700 48.49800
H  31.05600 -8.78100 47.17200
H  31.32700 -3.07100 46.61800
H  30.74000 -4.40300 47.53000
H  30.44700 -2.65100 48.05200
H  28.06300 -1.04100 42.85600
H  25.96500 2.58900 42.36800
H  27.45300 3.13700 43.24200
H  26.02600 2.49500 44.08100
Mg 44.00500 4.69700 47.38600
C  42.09500 7.57400 47.36700
C  41.13800 2.74500 47.17900
C  45.96100 1.89700 46.66900
C  46.85800 6.60400 47.46700
N  41.85000 5.18700 47.07500
C  41.33000 6.39900 47.32400
C  39.77900 6.30500 47.58600
C  39.54500 4.73700 47.68500
C  40.89700 4.14700 47.33000
C  38.86200 4.37900 49.06300
C  38.94400 7.00900 46.46600
C  39.23000 6.58300 45.01400
H  39.11300 7.63000 43.92900
N  43.57600 2.60000 46.98000
C  42.31100 2.05100 47.05800
C  42.40100 0.61500 46.81200
C  43.77200 0.39000 46.48200
C  44.51400 1.65300 46.64200
C  41.19200 -0.39500 47.03700
C  44.44400 -1.00600 45.98400
O  43.72200 -2.00100 45.90900
C  45.91900 -1.19300 45.48500
N  46.10400 4.25400 47.03400
C  46.69500 3.05600 46.86500
C  48.23100 3.05200 46.93600
C  48.42100 4.58500 47.25700
C  47.02300 5.23400 47.24900
C  48.93700 1.97900 47.75700
C  49.36300 5.24300 46.23200
C  50.83100 5.42400 46.65600
N  44.48600 6.68200 47.40200
C  45.65800 7.35100 47.44900
C  45.37600 8.76700 47.46700
C  44.04200 8.87800 47.47700
C  43.51800 7.60800 47.36600
C  46.40500 9.84300 47.40900
C  42.96700 9.84500 47.34800
O  42.99400 11.05800 47.13000
C  41.62500 8.94200 47.32800
C  40.89100 9.29400 48.53100
O  40.95400 8.70700 49.58200
O  40.14900 10.45700 48.33900
C  39.40400 10.95700 49.47500
H  40.20300 2.18200 47.21200
H  46.66400 1.11300 46.38000
H  47.77100 7.18500 47.61300
H  39.59500 6.77900 48.55000
H  38.90100 4.36900 46.88700
H  38.55900 5.27800 49.60000
H  39.39900 3.72100 49.74600
H  37.91900 3.92700 48.75500
H  38.90200 8.09800 46.46200
H  37.91600 6.75400 46.72400
H  38.60600 5.72200 44.77200
H  40.25100 6.21300 44.91800
H  40.21500 0.06200 47.19100
H  41.49300 -0.90800 47.95100
H  41.12100 -0.90000 46.07400
H  46.68300 -1.18300 46.26200
H  46.09500 -0.35500 44.80900
H  46.04600 -2.14100 44.96200
H  48.49200 2.93200 45.88400
H  48.83200 4.57500 48.26700
H  48.25200 1.29200 48.25300
H  49.47500 2.52500 48.53300
H  49.53300 1.32400 47.12300
H  48.98300 6.25700 46.11400
H  49.40200 4.77600 45.24800
H  51.11800 5.03400 47.63300
H  50.83800 6.49500 46.85800
H  51.52000 5.17100 45.85000
H  47.43100 9.48700 47.31500
H  46.33600 10.50000 48.27600
H  46.24400 10.39600 46.48300
H  40.95000 9.22600 46.52100
H  38.57700 11.61700 49.21200
H  40.04700 11.34100 50.26700
H  38.82600 10.11000 49.84400

