158

Mg 24.23200 -4.68900 45.62300
C  26.64000 -2.53100 43.89400
C  21.94800 -3.66900 43.25400
C  22.46400 -7.22800 46.53700
C  27.04600 -5.89900 47.56600
N  24.39500 -3.31700 43.72200
C  25.37700 -2.46000 43.36600
C  24.94900 -1.58300 42.15500
C  23.40900 -1.67600 42.16300
C  23.19700 -2.90800 43.10400
C  22.69800 -0.51100 42.74700
C  25.59200 -2.16000 40.77600
C  26.29400 -1.06300 39.94700
H  26.04800 -1.19500 38.37000
N  22.41300 -5.35600 45.03700
C  21.61600 -4.79100 44.04100
C  20.38900 -5.60300 43.84800
C  20.54400 -6.63200 44.84400
C  21.81400 -6.45100 45.53100
C  19.27300 -5.21100 42.82500
C  19.54300 -7.80400 44.98800
O  18.60000 -7.77400 44.27000
C  19.71800 -8.91000 46.05500
N  24.67100 -6.27600 47.07100
C  23.75400 -7.23200 47.15400
C  24.22400 -8.38300 48.10400
C  25.64500 -7.91900 48.52500
C  25.85700 -6.64200 47.59500
C  23.21700 -8.72500 49.27300
C  26.79500 -8.98300 48.48200
C  27.76400 -9.09200 49.67000
N  26.32700 -4.21900 45.79700
C  27.25200 -4.79500 46.67700
C  28.49800 -4.13800 46.41500
C  28.35900 -3.21900 45.30900
C  27.01600 -3.32200 44.96500
C  29.80700 -4.35400 47.21600
C  29.01000 -2.23900 44.43500
O  30.15000 -1.77200 44.41000
C  27.88500 -1.76800 43.44700
C  27.81900 -0.32500 43.66100
O  27.68300 0.26100 44.75200
O  28.10200 0.27100 42.50200
C  27.83600 1.75400 42.41300
H  21.21100 -3.46200 42.47500
H  21.95400 -8.15500 46.80300
H  27.88400 -6.33100 48.11600
H  25.26100 -0.55100 42.31000
H  23.05200 -1.85600 41.14900
H  21.62300 -0.58400 42.58000
H  23.12300 0.35000 42.23200
H  22.73300 -0.53100 43.83600
H  24.75000 -2.43500 40.14100
H  26.25000 -2.99300 41.02000
H  27.35600 -1.08600 40.18900
H  26.08200 -0.06900 40.33900
H  19.67500 -5.37000 41.82400
H  18.98100 -4.17000 42.95600
H  18.42800 -5.89900 42.85300
H  19.77500 -8.43600 47.03500
H  20.66200 -9.36200 45.74900
H  18.82700 -9.53800 46.07900
H  24.41100 -9.25700 47.47900
H  25.58100 -7.47800 49.52000
H  23.72400 -8.54800 50.22100
H  22.93600 -9.77800 49.23200
H  22.29600 -8.14300 49.23500
H  27.37400 -8.69400 47.60500
H  26.24700 -9.91300 48.33300
H  28.73000 -8.97700 49.17800
H  27.60900 -10.02800 50.20600
H  27.60000 -8.31700 50.41900
H  30.49300 -3.54600 46.96000
H  30.32000 -5.27400 46.93200
H  29.67500 -4.34300 48.29700
H  28.14000 -1.94100 42.40200
H  26.84000 1.96400 42.80400
H  27.80100 2.01300 41.35500
H  28.61800 2.19100 43.03400
Mg -10.96700 39.60900 40.82500
C  -9.82400 36.44500 39.65300
C  -7.95600 40.96800 39.85700
C  -12.42000 42.55200 41.14500
C  -14.00000 38.02000 41.88700
N  -9.17900 38.76700 39.63200
C  -8.91900 37.46700 39.46200
C  -7.44200 37.25900 39.07100
C  -6.79600 38.66000 39.48100
C  -8.03800 39.50400 39.63800
C  -5.89900 38.67500 40.74800
C  -7.08800 36.80400 37.61600
C  -8.09100 37.23200 36.54200
H  -8.66600 36.12900 35.70200
N  -10.25800 41.54600 40.71000
C  -9.04700 41.85200 40.15600
C  -8.96300 43.32400 40.06500
C  -10.29300 43.83000 40.31500
C  -11.07600 42.63000 40.74500
C  -7.68400 43.96200 39.80000
C  -10.74500 45.23200 40.05700
O  -9.88900 46.03900 39.65500
C  -12.21600 45.62000 40.07400
N  -12.86500 40.21100 41.56400
C  -13.22500 41.52000 41.57500
C  -14.68100 41.60600 42.05400
C  -15.08800 40.24100 42.53700
C  -13.91700 39.40300 41.89000
C  -15.00300 42.82800 43.02500
C  -16.48600 39.88000 41.93100
C  -17.58200 39.61900 42.98800
N  -11.77400 37.63100 40.83700
C  -13.00200 37.14100 41.33700
C  -12.97100 35.64300 41.11100
C  -11.76500 35.36300 40.40800
C  -11.08100 36.60000 40.29300
C  -14.06000 34.75900 41.59000
C  -10.93700 34.31700 39.85500
O  -11.10300 33.09400 39.82500
C  -9.57500 34.98400 39.47400
C  -8.59500 34.52500 40.44100
O  -8.49700 34.76800 41.68400
O  -7.72000 33.65900 39.76700
C  -6.80200 32.85500 40.64500
H  -6.97400 41.29900 39.51500
H  -13.02800 43.44400 41.30900
H  -14.92800 37.50700 42.14900
H  -7.01900 36.52000 39.75200
H  -6.05900 38.98400 38.74600
H  -5.65400 37.63200 40.95000
H  -6.49400 39.13200 41.53900
H  -5.02600 39.31800 40.63300
H  -6.82000 35.74800 37.59000
H  -6.09600 37.12800 37.30100
H  -7.49400 37.79100 35.82200
H  -8.96100 37.76100 36.92900
H  -7.77000 45.04200 39.91100
H  -7.25900 43.77000 38.81500
H  -7.02100 43.57000 40.57100
H  -12.70600 45.79400 41.03200
H  -12.71500 44.85700 39.47600
H  -12.25500 46.60200 39.60100
H  -15.13600 41.79000 41.08100
H  -14.92200 40.21400 43.61400
H  -15.10500 43.73400 42.42700
H  -14.13600 42.99300 43.66500
H  -15.85300 42.59000 43.66500
H  -16.36700 38.93100 41.41000
H  -16.76500 40.61300 41.17300
H  -17.14200 39.73300 43.97900
H  -18.04500 38.63300 43.02300
H  -18.41100 40.31300 42.85400
H  -14.74300 35.20900 42.31100
H  -13.68700 33.86100 42.08200
H  -14.84100 34.45700 40.89100
H  -9.34200 34.68800 38.45200
H  -5.77000 32.99000 40.32300
H  -6.95100 31.77600 40.59200
H  -6.65300 33.32700 41.61600

