158

Mg 24.32700 -5.58900 46.16000
C  26.90600 -3.53800 44.80800
C  22.06700 -4.07000 44.02600
C  22.18600 -8.13100 46.68600
C  26.81900 -7.47300 47.79600
N  24.58100 -4.09000 44.51900
C  25.68100 -3.36100 44.17900
C  25.31100 -2.42500 42.94200
C  23.71600 -2.36800 42.95100
C  23.40500 -3.60500 43.96200
C  23.18900 -0.94200 43.30200
C  25.90100 -2.96700 41.68200
C  26.96400 -2.14400 40.82300
H  26.93000 -2.30300 39.36300
N  22.31600 -5.89900 45.61100
C  21.56800 -5.16300 44.69600
C  20.23400 -5.70800 44.64600
C  20.26900 -6.89400 45.46400
C  21.66700 -7.03000 45.92400
C  19.05700 -5.15200 43.86700
C  19.04000 -7.70700 45.76900
O  17.93400 -7.34100 45.30000
C  19.05200 -8.95200 46.64500
N  24.47900 -7.55400 47.08700
C  23.40700 -8.37900 47.23400
C  23.73900 -9.72300 48.04100
C  25.22600 -9.37900 48.39300
C  25.54300 -8.05600 47.73200
C  22.82700 -9.95200 49.22900
C  26.13700 -10.52100 47.87900
C  26.81400 -11.30700 48.95200
N  26.43300 -5.55400 46.35200
C  27.24200 -6.24000 47.19200
C  28.53300 -5.63200 47.23500
C  28.41100 -4.54000 46.33100
C  27.14900 -4.57900 45.77100
C  29.70000 -6.04300 48.08500
C  29.17700 -3.44600 45.71900
O  30.27400 -3.01400 45.86000
C  28.18000 -2.71000 44.66500
C  27.81900 -1.35500 45.09800
O  28.04200 -0.31800 44.41800
O  27.14100 -1.37800 46.25800
C  26.24100 -0.17200 46.59100
H  21.31600 -3.48500 43.49000
H  21.46100 -8.81200 47.13800
H  27.62700 -7.97600 48.33200
H  25.70100 -1.41700 43.07700
H  23.26600 -2.48700 41.96500
H  22.23300 -1.01200 42.78400
H  23.70100 -0.18300 42.71000
H  23.24500 -0.74400 44.37200
H  25.07200 -3.15400 41.00000
H  26.35900 -3.94400 41.83900
H  27.94900 -2.25900 41.27500
H  26.69900 -1.12800 41.11300
H  19.34000 -4.34000 43.19700
H  18.26300 -4.80500 44.52800
H  18.69100 -5.98000 43.25900
H  19.46500 -9.80800 46.11200
H  17.98200 -9.00000 46.84800
H  19.56800 -8.70300 47.57200
H  23.64200 -10.49600 47.27800
H  25.36400 -9.16300 49.45200
H  21.78700 -9.80400 48.93700
H  23.11400 -9.27400 50.03200
H  22.83500 -10.99500 49.54700
H  26.97000 -10.12500 47.29700
H  25.71500 -11.30400 47.24800
H  26.19700 -12.17600 49.17900
H  26.81700 -10.73200 49.87800
H  27.82000 -11.51700 48.58900
H  29.58200 -6.02400 49.16900
H  30.54400 -5.37200 47.92800
H  30.03800 -7.01300 47.72000
H  28.56500 -2.64100 43.64800
H  25.41000 0.02200 45.91300
H  26.77800 0.77500 46.63600
H  25.69400 -0.38600 47.50900
Mg 55.67000 24.94500 43.94800
C  52.85900 26.83100 42.89100
C  54.50500 22.27700 42.22500
C  58.69400 23.43900 44.32600
C  56.89500 27.91400 45.40100
N  54.02200 24.75400 42.62700
C  52.98900 25.58200 42.34800
C  52.13500 24.94200 41.28200
C  52.34100 23.44700 41.60200
C  53.70800 23.45800 42.18600
C  51.22100 22.80900 42.48100
C  52.40700 25.38600 39.85200
C  51.06100 25.46000 39.00500
H  51.23500 25.85100 37.46600
N  56.44300 23.03900 43.44500
C  55.74400 22.02600 42.77000
C  56.58100 20.77400 42.71800
C  57.76100 21.06400 43.44900
C  57.71000 22.55400 43.78700
C  56.20900 19.56500 41.97100
C  58.88000 20.08000 43.73300
O  58.78100 18.89400 43.40800
C  60.23100 20.58100 44.31000
N  57.61500 25.66300 44.61200
C  58.66800 24.80500 44.76400
C  59.86000 25.59800 45.27500
C  59.29600 27.04500 45.65600
C  57.84700 26.92400 45.12300
C  60.62400 24.90000 46.41600
C  60.18000 28.30100 45.12500
C  60.72700 29.32400 46.21400
N  55.02000 26.95800 44.25000
C  55.57600 28.04100 44.87500
C  54.60400 29.14900 44.94500
C  53.50100 28.66700 44.23800
C  53.82600 27.39000 43.77500
C  54.81600 30.43300 45.67300
C  52.22200 29.02500 43.76900
O  51.59100 29.99900 44.04300
C  51.63000 27.80700 42.97500
C  50.97400 28.26000 41.66000
O  51.57600 28.76800 40.72500
O  49.64100 27.99600 41.73100
C  48.80700 28.27200 40.54100
H  54.05800 21.41700 41.72100
H  59.69600 23.05900 44.53800
H  57.14600 28.83400 45.93200
H  51.10800 25.15800 41.57800
H  52.37000 22.82400 40.70800
H  51.32400 23.11600 43.52200
H  51.28000 21.72300 42.42200
H  50.23500 23.12700 42.14400
H  52.97600 24.60700 39.34500
H  52.95400 26.32100 39.97400
H  50.22100 26.05800 39.35900
H  50.71500 24.45400 38.76900
H  55.47200 19.80200 41.20400
H  55.62400 18.90100 42.60700
H  57.01200 19.06800 41.42600
H  60.10400 20.98300 45.31600
H  60.63400 21.28700 43.58400
H  60.82100 19.66500 44.29800
H  60.48700 25.85700 44.42200
H  59.24500 27.17700 46.73700
H  60.00300 24.20300 46.97800
H  61.00600 25.53300 47.21700
H  61.33400 24.24400 45.91100
H  59.47000 28.88900 44.54300
H  61.08600 27.99600 44.60000
H  61.80600 29.17300 46.22600
H  60.16200 29.28200 47.14600
H  60.64000 30.29900 45.73300
H  54.31200 30.40000 46.63900
H  54.47500 31.23200 45.01400
H  55.86300 30.52200 45.96100
H  50.79600 27.39600 43.54400
H  49.06900 27.74700 39.62200
H  48.85600 29.35500 40.43100
H  47.78200 28.00700 40.80100

