158

Mg 25.97700 0.16900 29.79300
C  27.82300 -0.09200 32.73600
C  23.13100 0.65600 31.54300
C  24.29100 -0.06300 26.92100
C  28.97300 -0.73100 27.93300
N  25.55900 0.08300 31.92600
C  26.47200 0.14900 33.01600
C  25.78300 0.38600 34.35000
C  24.23700 0.50600 33.98800
C  24.30000 0.45000 32.36100
C  23.44300 -0.67300 34.57600
C  26.42200 1.62300 35.13500
C  26.85200 1.29100 36.55500
H  26.76400 2.34700 37.56900
N  23.99700 0.20600 29.31300
C  22.95600 0.44500 30.14700
C  21.69500 0.39700 29.42600
C  22.06300 0.26400 28.02600
C  23.52200 0.11200 28.06100
C  20.34900 0.79300 30.00600
C  21.13300 0.26200 26.81500
O  21.52900 0.30200 25.62800
C  19.61800 0.36100 27.00100
N  26.48000 -0.41700 27.72900
C  25.66000 -0.20400 26.74600
C  26.20500 -0.32300 25.35100
C  27.73100 -0.42400 25.66900
C  27.75000 -0.53000 27.16800
C  25.67800 -1.60700 24.61200
C  28.49400 0.80900 25.10900
C  29.84200 0.59700 24.43900
N  28.05000 -0.20100 30.15600
C  29.08400 -0.55700 29.33100
C  30.22900 -0.74700 30.19800
C  29.82300 -0.49500 31.47700
C  28.47400 -0.22500 31.45300
C  31.64100 -1.25900 29.89200
C  30.34100 -0.38200 32.87100
O  31.45800 -0.57100 33.33700
C  29.01100 -0.13900 33.75200
C  28.78300 -1.27000 34.71700
O  27.87900 -2.12200 34.62000
O  29.60100 -1.12600 35.82600
C  29.19100 -2.02200 37.02400
H  22.21300 0.84900 32.10200
H  23.72600 -0.04200 25.98700
H  29.95000 -0.90100 27.47700
H  25.77700 -0.53900 34.92700
H  23.84300 1.46400 34.33000
H  23.45700 -1.47700 33.84000
H  22.41300 -0.33300 34.68500
H  23.83900 -1.11800 35.48800
H  25.67100 2.41200 35.15000
H  27.24400 2.00100 34.52700
H  27.91300 1.04300 36.51700
H  26.45900 0.35700 36.95700
H  20.08700 1.69200 29.45000
H  20.27700 0.98700 31.07600
H  19.64800 -0.00700 29.76500
H  19.05700 0.29900 26.06900
H  19.35900 1.25600 27.56700
H  19.26800 -0.47500 27.60800
H  25.91100 0.62700 24.90600
H  28.11700 -1.37000 25.28900
H  25.03000 -2.18100 25.27500
H  26.46300 -2.29500 24.29900
H  25.22000 -1.40000 23.64500
H  28.53400 1.59400 25.86300
H  27.83000 1.23100 24.35400
H  30.54000 1.38000 24.73300
H  29.63800 0.58300 23.36900
H  30.21100 -0.39500 24.69900
H  32.35500 -0.50800 29.55400
H  31.51700 -1.97300 29.07800
H  31.99300 -1.78300 30.78100
H  29.17600 0.70400 34.42300
H  28.61700 -2.92500 36.81300
H  28.65500 -1.46100 37.79000
H  30.11200 -2.25700 37.55800
Mg 46.74400 24.93300 28.20400
C  47.72700 27.25300 30.68000
C  45.61000 22.82300 30.62000
C  46.34200 22.61800 25.72200
C  48.35100 27.03600 25.83500
N  46.64900 25.12700 30.41600
C  46.96300 26.21800 31.24600
C  46.52900 25.92100 32.73100
C  45.98600 24.45900 32.63600
C  46.06000 24.12600 31.10800
C  46.63700 23.36100 33.46500
C  45.47700 26.97300 33.27700
C  44.64200 26.75400 34.55400
H  45.49500 26.57600 35.89300
N  45.91700 23.05900 28.13600
C  45.60600 22.34100 29.27300
C  45.07600 21.01600 28.81700
C  45.24500 20.96800 27.41700
C  45.85200 22.26700 26.98100
C  44.51600 20.07700 29.83300
C  44.72400 19.95800 26.36500
O  45.01200 19.98000 25.16300
C  43.79600 18.99400 26.89100
N  47.18100 24.94400 26.06300
C  46.98800 23.80200 25.28600
C  47.68600 23.92700 23.87700
C  48.21000 25.37200 23.93600
C  47.85000 25.83800 25.37100
C  48.60900 22.74300 23.50000
C  47.85600 26.38900 22.74100
C  48.94100 27.38500 22.32600
N  47.69000 26.82700 28.19300
C  48.37400 27.51200 27.17100
C  49.03600 28.73300 27.66000
C  48.69300 28.68600 29.05700
C  47.93800 27.49400 29.35700
C  49.83000 29.75000 26.93000
C  48.77500 29.53500 30.27500
O  49.07600 30.71700 30.44000
C  48.17000 28.50000 31.43000
C  49.30700 28.16200 32.33500
O  50.39700 27.73100 32.01400
O  48.99100 28.60400 33.60900
C  50.17700 28.80300 34.41000
H  45.23100 22.07200 31.31600
H  46.30100 21.83100 24.96600
H  48.80400 27.70100 25.09600
H  47.40400 26.06900 33.36500
H  44.92700 24.44600 32.89400
H  47.41700 23.78600 34.09600
H  47.18900 22.66400 32.83500
H  45.96700 22.77500 34.09300
H  44.89500 27.21400 32.38700
H  45.95800 27.92100 33.52000
H  44.03400 25.85800 34.42500
H  43.98300 27.61300 34.68200
H  45.13900 19.18600 29.75700
H  43.49900 19.81300 29.54300
H  44.53000 20.40500 30.87200
H  43.32300 18.45900 26.06700
H  42.94000 19.51100 27.32300
H  44.36900 18.31300 27.52100
H  46.91700 23.88500 23.10500
H  49.29700 25.31100 23.90400
H  49.14800 22.31200 24.34400
H  49.17600 22.97800 22.60000
H  47.99000 21.87400 23.27300
H  46.98500 27.00700 22.95700
H  47.63700 25.75200 21.88400
H  49.65800 27.54600 23.13200
H  48.46100 28.36300 22.29200
H  49.42700 27.15600 21.37800
H  50.31900 29.54600 25.97800
H  50.52600 30.11800 27.68400
H  49.00300 30.44300 26.77500
H  47.29500 28.97600 31.87400
H  49.90300 28.89100 35.46100
H  50.60600 29.77800 34.17900
H  51.04400 28.16200 34.25300

