158

Mg 0.34500 8.62200 26.55800
C  1.06100 10.68200 29.48400
C  0.82700 5.89000 28.55700
C  0.14500 6.74900 23.80200
C  0.86500 11.44800 24.64400
N  0.85700 8.33100 28.86100
C  0.99200 9.29300 29.81800
C  1.11000 8.56700 31.18600
C  1.25900 7.02800 30.88000
C  0.97900 7.05500 29.35000
C  2.62200 6.39500 31.27400
C  -0.17600 9.02900 31.94100
C  -0.09400 8.94400 33.49500
H  1.23100 8.41800 34.14800
N  0.34400 6.66700 26.26800
C  0.50300 5.68300 27.21500
C  0.19900 4.37700 26.60700
C  0.09300 4.56300 25.16800
C  0.13700 6.08200 25.03800
C  0.19600 3.08200 27.38200
C  0.09400 3.55000 24.01600
O  0.19000 3.87100 22.84700
C  0.07400 2.10900 24.20800
N  0.48100 9.01000 24.53100
C  0.37300 8.08200 23.57600
C  0.53400 8.67500 22.17700
C  0.33800 10.17100 22.50900
C  0.62100 10.21400 23.96900
C  1.94300 8.24700 21.56200
C  -1.16600 10.72300 22.26900
C  -1.44300 11.98700 21.62500
N  0.92000 10.61800 26.90600
C  1.08000 11.70100 26.02100
C  1.38100 12.87600 26.72900
C  1.38400 12.51200 28.09600
C  1.01400 11.15500 28.20600
C  1.63500 14.22700 26.15500
C  1.60400 13.05700 29.35500
O  2.02500 14.18500 29.60600
C  1.30900 11.88300 30.40600
C  2.43800 11.72100 31.31300
O  3.67200 11.64000 31.06100
O  1.92200 11.77500 32.55700
C  2.88900 12.31600 33.51400
H  0.95700 5.01300 29.19400
H  0.14000 6.13400 22.89900
H  1.05400 12.36200 24.07800
H  1.99600 9.01400 31.63500
H  0.53600 6.35600 31.34400
H  2.53500 5.55800 31.96700
H  3.20900 7.18800 31.73600
H  3.14400 6.01400 30.39600
H  -1.01500 8.37500 31.70400
H  -0.53900 9.99500 31.58900
H  -0.85500 8.23800 33.82700
H  -0.26500 9.95000 33.88000
H  -0.08400 3.38300 28.39200
H  1.17300 2.60500 27.30500
H  -0.49900 2.42800 26.85700
H  -0.76800 1.65700 24.73100
H  0.98800 1.82700 24.73200
H  0.08000 1.64000 23.22400
H  -0.25300 8.17700 21.61100
H  1.03900 10.77100 21.92900
H  1.82500 7.44100 20.83700
H  2.76200 8.09600 22.26500
H  2.37900 9.02000 20.93000
H  -1.58800 10.79400 23.27100
H  -1.71500 9.93000 21.76000
H  -0.99900 12.12500 20.64000
H  -1.17200 12.74700 22.35800
H  -2.46500 11.99100 21.24500
H  0.71700 14.80400 26.26800
H  1.82900 14.18800 25.08300
H  2.42500 14.81700 26.61900
H  0.41600 12.23800 30.92000
H  3.14200 11.46500 34.14700
H  2.42300 12.99000 34.23300
H  3.79600 12.73100 33.07700
Mg 24.39700 -5.08700 45.73500
C  26.92100 -2.92600 44.70200
C  22.24700 -3.57500 43.53700
C  22.18100 -7.65400 46.23800
C  26.85100 -6.97900 47.34100
N  24.63200 -3.65100 44.04900
C  25.76300 -2.86400 43.91700
C  25.50000 -1.85000 42.79300
C  23.99900 -1.72600 42.76200
C  23.54500 -3.03000 43.42900
C  23.55900 -0.47200 43.52300
C  26.04700 -2.32200 41.44200
C  26.21800 -1.30200 40.45600
H  25.50400 -1.50100 39.07200
N  22.41200 -5.50300 45.10800
C  21.73100 -4.72700 44.22200
C  20.39100 -5.21900 44.01800
C  20.38300 -6.49000 44.72100
C  21.65600 -6.60900 45.48800
C  19.34100 -4.45000 43.30200
C  19.24200 -7.39400 44.56200
O  18.21000 -7.13100 44.04100
C  19.30500 -8.76900 45.19700
N  24.54800 -7.09400 46.62400
C  23.48900 -7.90500 46.78800
C  23.85200 -9.25800 47.40700
C  25.32500 -9.07900 47.82800
C  25.60300 -7.61100 47.20700
C  22.87700 -9.72000 48.60300
C  26.27900 -10.14300 47.14800
C  27.51900 -10.49300 47.95700
N  26.39300 -4.87100 46.20200
C  27.26800 -5.67500 46.96700
C  28.48200 -4.95500 47.15000
C  28.41000 -3.91300 46.21600
C  27.12300 -3.88700 45.68200
C  29.51700 -5.53600 48.05300
C  29.11900 -2.74200 45.59500
O  30.24800 -2.32500 45.82400
C  28.17800 -2.12700 44.52600
C  27.90300 -0.68300 44.84700
O  27.46400 -0.22400 45.88500
O  28.34700 0.11700 43.84200
C  28.06800 1.53700 43.93600
H  21.67100 -2.83600 42.97600
H  21.47200 -8.45700 46.45000
H  27.62200 -7.57400 47.83500
H  26.03400 -0.93300 43.03900
H  23.68400 -1.60300 41.72600
H  22.81100 0.15700 43.04000
H  24.39300 0.20200 43.71900
H  23.04800 -0.75400 44.44300
H  25.36700 -3.06400 41.02400
H  26.96000 -2.85800 41.70200
H  27.26400 -1.32100 40.15300
H  26.08900 -0.28100 40.81800
H  18.84700 -5.06000 42.54600
H  19.89000 -3.76100 42.66000
H  18.64300 -3.85000 43.88700
H  19.27100 -8.66900 46.28200
H  20.25700 -9.22600 44.92700
H  18.59200 -9.51400 44.84500
H  23.70700 -10.03900 46.66100
H  25.53600 -8.94700 48.89000
H  21.98700 -9.09300 48.54200
H  23.41900 -9.66500 49.54700
H  22.75400 -10.80200 48.65600
H  26.59800 -9.76600 46.17600
H  25.80300 -11.10100 46.94000
H  28.17200 -11.10700 47.33700
H  27.17900 -11.17000 48.74100
H  27.95600 -9.70700 48.57300
H  30.32900 -4.85400 48.30700
H  29.98400 -6.41200 47.60200
H  29.10000 -5.76700 49.03300
H  28.70400 -2.18900 43.57400
H  28.94900 2.01000 44.37100
H  27.29500 1.79900 44.65700
H  27.70800 1.78800 42.93800

