158

Mg 40.64400 9.66500 30.05300
C  42.54600 10.85200 32.72300
C  38.39100 8.22700 32.40200
C  39.11300 8.10400 27.64300
C  43.12300 10.76700 27.86100
N  40.65100 9.41300 32.30700
C  41.42100 10.13400 33.21200
C  40.84300 10.18700 34.55600
C  39.58200 9.27000 34.48600
C  39.49500 8.96800 32.93500
C  39.49200 8.01600 35.39700
C  40.58200 11.59700 35.16000
C  41.12500 11.96200 36.52500
H  40.23100 12.31200 37.69000
N  39.04200 8.31900 30.01200
C  38.18100 7.94600 31.03600
C  37.07100 7.11300 30.48700
C  37.28600 7.08800 29.08800
C  38.50500 7.83000 28.83900
C  35.91200 6.63800 31.31900
C  36.37300 6.49600 27.93400
O  36.60100 6.55000 26.68100
C  35.08300 5.81400 28.29200
N  41.08800 9.54100 28.01100
C  40.24800 8.82100 27.23700
C  40.72800 9.02800 25.72200
C  41.84600 10.00200 25.79700
C  42.06400 10.10500 27.28600
C  41.15000 7.77400 24.84100
C  41.55400 11.39300 25.18100
C  40.69600 12.39600 25.91900
N  42.48600 10.74300 30.24700
C  43.41800 11.08800 29.25800
C  44.51500 11.80900 29.84600
C  44.16900 11.82500 31.25800
C  42.98800 11.08800 31.39800
C  45.67600 12.50800 29.22000
C  44.58500 12.30300 32.53900
O  45.53600 12.94300 32.92000
C  43.51400 11.65300 33.59200
C  44.26200 10.86600 34.65100
O  44.77200 9.70900 34.58300
O  44.27900 11.60300 35.79300
C  44.88100 10.93900 36.94700
H  37.80100 7.73000 33.17500
H  38.67900 7.60900 26.77200
H  43.83200 11.01600 27.06900
H  41.60500 9.81100 35.23900
H  38.68200 9.84100 34.71200
H  39.81900 7.14900 34.82200
H  38.52400 7.88000 35.87800
H  40.31400 8.21400 36.08500
H  39.52200 11.80200 35.31300
H  40.83200 12.32100 34.38600
H  41.71700 12.86800 36.39500
H  41.70100 11.11000 36.88800
H  36.01300 6.74400 32.39900
H  35.63600 5.58700 31.22700
H  35.05500 7.25800 31.05600
H  34.44600 5.67400 27.41900
H  34.64600 6.54800 28.96800
H  35.25600 4.88700 28.84000
H  39.89300 9.43400 25.15000
H  42.79100 9.66400 25.37300
H  40.65600 8.00800 23.89800
H  40.70900 6.88400 25.29100
H  42.23300 7.67400 24.76800
H  41.01800 11.18000 24.25600
H  42.42700 11.96100 24.85900
H  40.27500 12.02400 26.85300
H  39.85000 12.44300 25.23400
H  41.11700 13.39900 25.99300
H  46.01800 13.40500 29.73500
H  45.61300 12.82500 28.17900
H  46.53100 11.83700 29.14400
H  43.05400 12.54400 34.01800
H  44.26000 10.09100 37.23700
H  45.06200 11.62700 37.77300
H  45.87900 10.62600 36.63900
Mg 54.51700 23.61200 45.75000
C  51.98000 25.71100 44.53600
C  52.81300 20.87800 44.44900
C  57.37800 21.87400 45.75300
C  56.15200 26.41100 46.89900
N  52.70900 23.38600 44.58900
C  51.75200 24.37600 44.24300
C  50.46300 23.76200 43.66400
C  50.63200 22.22700 43.96200
C  52.15000 22.14400 44.43200
C  49.76800 21.68700 45.16100
C  50.25800 24.08600 42.16900
C  51.34700 24.18100 41.18700
H  52.37200 22.92300 41.20000
N  55.01500 21.53600 45.28300
C  54.17400 20.60600 44.70400
C  54.92300 19.37000 44.49400
C  56.28500 19.64300 44.85800
C  56.24700 21.04800 45.32800
C  54.31700 18.21600 43.84400
C  57.51100 18.70100 44.83600
O  57.36000 17.49600 44.62200
C  58.88800 19.12800 45.18600
N  56.49900 24.10600 46.12900
C  57.48100 23.19600 46.11400
C  58.86200 23.72600 46.71600
C  58.44100 25.15600 47.16000
C  56.97100 25.25400 46.70400
C  59.26100 22.80200 47.84100
C  59.45800 26.26500 46.65900
C  59.00400 27.09700 45.41500
N  54.23600 25.68500 45.73300
C  54.89200 26.70700 46.40700
C  54.03000 27.86300 46.51200
C  52.93200 27.47100 45.72500
C  53.10900 26.18800 45.25200
C  54.21800 29.07200 47.27000
C  51.65800 27.93400 45.30900
O  51.14300 29.01600 45.48500
C  51.04600 26.85000 44.43500
C  50.96000 27.41200 43.04500
O  51.91700 27.61600 42.28600
O  49.63100 27.54900 42.69300
C  49.45800 28.01300 41.33300
H  52.24700 20.02400 44.07000
H  58.32800 21.35300 45.89000
H  56.64800 27.29300 47.31100
H  49.70300 24.21100 44.30300
H  50.65500 21.41800 43.23200
H  49.95300 20.63000 45.35400
H  48.72800 21.97600 45.00900
H  50.11100 22.03800 46.13400
H  49.64400 24.97900 42.27900
H  49.57000 23.35800 41.73800
H  52.01600 25.01000 41.41900
H  50.85900 24.18500 40.21300
H  53.88900 17.63200 44.65900
H  55.08000 17.62100 43.34300
H  53.64600 18.69200 43.12800
H  59.64400 18.34500 45.24400
H  58.78900 19.60300 46.16200
H  59.23400 19.76600 44.37200
H  59.65400 23.73400 45.96700
H  58.27900 25.27400 48.23100
H  58.36700 22.24300 48.11700
H  59.60400 23.43800 48.65700
H  60.09200 22.14700 47.57700
H  60.37300 25.73300 46.39700
H  59.68600 26.78600 47.58900
H  57.99000 26.82300 45.12500
H  59.67500 26.83600 44.59700
H  59.22200 28.15000 45.59700
H  55.11800 29.57300 46.91400
H  54.26100 28.86600 48.34000
H  53.29600 29.64100 47.15000
H  50.09500 26.53000 44.85800
H  49.79800 27.21300 40.67400
H  50.09600 28.89600 41.30000
H  48.40600 28.19000 41.10900

