158

Mg 25.42300 1.28300 29.83500
C  27.56100 1.39900 32.66800
C  22.81600 1.36000 32.07700
C  23.30900 1.08900 27.28800
C  28.14900 1.01700 27.76800
N  25.18000 1.26900 32.16600
C  26.20100 1.46600 33.10800
C  25.71400 1.67500 34.53500
C  24.18700 1.54600 34.35000
C  24.01900 1.44400 32.75500
C  23.61300 0.36700 35.19400
C  26.14000 3.08600 35.03500
C  26.85800 3.22000 36.38100
H  26.27400 4.20400 37.36300
N  23.29300 1.13600 29.73200
C  22.42500 1.23300 30.74600
C  21.15900 1.23200 30.22700
C  21.19700 0.99600 28.86100
C  22.65400 1.02500 28.57000
C  19.94700 1.42100 30.98000
C  20.08500 0.85700 27.77100
O  20.39000 0.61200 26.59900
C  18.66800 0.98100 28.07800
N  25.62800 1.02000 27.81700
C  24.67300 1.12900 26.86700
C  25.17500 1.24400 25.42200
C  26.69700 1.29500 25.69500
C  26.83100 1.14000 27.20700
C  24.69900 0.28900 24.33600
C  27.30600 2.50000 25.01100
C  26.90700 3.85000 25.67400
N  27.44200 1.09000 30.12700
C  28.40600 0.92200 29.14300
C  29.67600 0.83300 29.78400
C  29.41000 1.02000 31.20200
C  28.05100 1.16800 31.34200
C  30.93400 0.61900 29.03500
C  30.03200 1.12200 32.45000
O  31.23600 1.21200 32.67200
C  28.85000 1.57600 33.49400
C  28.96200 0.51000 34.65100
O  28.74500 -0.69500 34.55700
O  29.32700 1.16500 35.79300
C  29.90800 0.45200 36.95800
H  21.95900 1.52100 32.73400
H  22.70000 1.21100 26.39000
H  29.03400 0.98500 27.12900
H  26.10100 0.90700 35.20500
H  23.57200 2.42800 34.53200
H  22.84200 -0.14500 34.61800
H  23.04900 0.81900 36.01000
H  24.34900 -0.31700 35.61700
H  25.25000 3.71400 34.99700
H  26.87700 3.46800 34.32700
H  27.79600 3.66100 36.04300
H  27.01600 2.23700 36.82500
H  19.47000 2.31600 30.58100
H  20.10100 1.57800 32.04800
H  19.30300 0.54200 30.99200
H  18.37500 0.20000 28.78000
H  18.13200 0.84500 27.13900
H  18.36400 1.93800 28.50300
H  24.94400 2.26800 25.12900
H  27.20800 0.46300 25.20900
H  24.12300 0.77500 23.54800
H  24.02300 -0.46600 24.73900
H  25.60500 -0.13700 23.90500
H  26.89900 2.50500 24.00000
H  28.39200 2.41800 25.07000
H  26.39900 3.58000 26.60000
H  26.13000 4.33800 25.08500
H  27.73800 4.54500 25.79800
H  31.07400 1.39100 28.27900
H  30.89900 -0.33100 28.50100
H  31.83200 0.64100 29.65100
H  29.16400 2.51300 33.95500
H  30.39700 -0.51900 36.88700
H  29.16100 0.41200 37.75100
H  30.69400 1.08400 37.37100
Mg 36.27000 49.20600 25.40300
C  36.30700 47.11300 28.20700
C  35.07000 51.67300 27.41500
C  35.80900 50.87100 22.63100
C  36.91900 46.26900 23.45600
N  35.55500 49.35900 27.51300
C  35.90600 48.39900 28.48700
C  35.71300 48.96300 29.90100
C  35.15100 50.38600 29.57500
C  35.34300 50.52900 28.06400
C  33.69000 50.60800 29.98800
C  36.98200 49.00500 30.82800
C  36.86800 48.39100 32.26900
H  36.87800 49.45800 33.35100
N  35.51100 51.02000 25.10300
C  35.22300 51.95200 26.02500
C  35.19600 53.24200 25.42900
C  35.23800 52.97300 23.98100
C  35.53500 51.55000 23.81700
C  34.92300 54.45400 26.32300
C  34.93600 53.87500 22.80100
O  34.85500 53.57500 21.60200
C  34.74800 55.46200 23.08000
N  36.33800 48.67900 23.28500
C  36.13000 49.54900 22.38000
C  36.23500 48.91800 20.91500
C  36.76000 47.46700 21.26100
C  36.73700 47.46000 22.79500
C  34.96400 48.89000 20.01500
C  38.05400 47.00900 20.57200
C  38.02200 46.00100 19.42800
N  36.55300 47.12600 25.68400
C  36.91700 46.10500 24.84600
C  37.20100 44.91900 25.52500
C  36.99900 45.27200 26.86000
C  36.56900 46.63600 26.92600
C  37.66700 43.62500 24.97000
C  37.02400 44.86800 28.23900
O  37.12300 43.76600 28.75500
C  36.67800 46.02100 29.13100
C  35.54400 45.67200 30.00000
O  34.34700 45.71000 29.65600
O  35.90800 45.26700 31.24600
C  34.93700 44.64500 32.11500
H  34.64500 52.44600 28.05900
H  35.72500 51.45800 21.71400
H  36.93400 45.39200 22.80600
H  34.98600 48.34500 30.42900
H  35.67100 51.18800 30.09900
H  33.50300 49.97500 30.85500
H  32.88300 50.45100 29.27300
H  33.46100 51.63500 30.27200
H  37.37600 50.01700 30.92000
H  37.73900 48.37000 30.37000
H  37.71000 47.73200 32.47800
H  35.93200 47.84300 32.37700
H  35.02600 55.36000 25.72500
H  35.65800 54.52300 27.12500
H  33.89700 54.41000 26.68800
H  33.92900 55.66600 23.77000
H  34.33700 55.73800 22.10900
H  35.64100 55.99100 23.41500
H  37.00100 49.49600 20.39800
H  35.96600 46.79400 20.93900
H  35.07800 49.81700 19.45300
H  34.20000 49.08100 20.76900
H  34.77000 48.09300 19.29700
H  38.83300 46.72100 21.27800
H  38.49200 47.93300 20.19500
H  37.04400 45.51900 19.41600
H  38.75500 45.20700 19.57300
H  38.27800 46.44100 18.46500
H  38.59800 43.27300 25.41600
H  37.72100 43.56300 23.88300
H  36.96300 42.81800 25.17300
H  37.63200 46.28000 29.59200
H  34.09700 45.23900 32.47700
H  35.46900 44.34900 33.01900
H  34.43100 43.86900 31.54100

