158

Mg 1.65700 8.18400 25.97000
C  2.15200 10.26900 28.81400
C  2.09500 5.44800 28.23300
C  1.64400 6.09000 23.32200
C  1.52600 10.92000 23.97600
N  2.12700 7.90200 28.42400
C  2.21000 8.97200 29.28000
C  2.04200 8.38900 30.69200
C  2.24600 6.83800 30.47700
C  2.06300 6.66200 28.94100
C  3.70000 6.31600 30.92100
C  0.62500 8.66600 31.36900
C  0.62200 9.01900 32.85800
H  1.63000 8.53400 33.82100
N  1.81400 6.10900 25.80600
C  1.96500 5.18600 26.83000
C  2.13800 3.88600 26.25900
C  1.98700 4.00500 24.86800
C  1.80000 5.46600 24.60100
C  2.44500 2.64100 27.13900
C  2.01900 2.78700 23.89100
O  1.93800 3.02200 22.68800
C  2.07500 1.32900 24.22600
N  1.66400 8.49100 23.93800
C  1.54000 7.46200 23.02400
C  1.17500 7.99600 21.62700
C  1.18500 9.52800 21.78800
C  1.38700 9.71800 23.34500
C  2.05200 7.46400 20.45200
C  -0.07800 10.25400 21.28000
C  0.18000 11.45400 20.33500
N  1.84100 10.19900 26.28800
C  1.78000 11.21300 25.36200
C  2.01300 12.53600 26.01400
C  2.13400 12.16300 27.33500
C  2.11700 10.72900 27.47900
C  1.88200 13.93800 25.40600
C  2.32800 12.76300 28.70600
O  2.56000 13.92200 28.98100
C  2.13000 11.51200 29.67300
C  3.30900 11.62700 30.67200
O  4.49400 11.32300 30.44100
O  2.87900 12.03400 31.86900
C  3.99900 12.14900 32.86000
H  2.17800 4.63800 28.96100
H  1.44100 5.49200 22.43200
H  1.50400 11.82800 23.37000
H  2.83300 8.80000 31.31900
H  1.54200 6.30200 31.11400
H  4.47200 7.07900 31.02600
H  4.14000 5.74000 30.10700
H  3.84100 5.60300 31.73400
H  -0.01800 7.78800 31.31100
H  0.14000 9.41000 30.73700
H  -0.24000 8.53400 33.31700
H  0.45200 10.07800 33.05400
H  3.00000 1.88900 26.57800
H  1.47000 2.26500 27.45000
H  3.12700 2.98900 27.91400
H  3.09000 1.28700 24.62000
H  2.02800 0.67400 23.35600
H  1.34000 0.88900 24.90000
H  0.18000 7.58200 21.46300
H  2.08200 9.98200 21.36700
H  1.66400 6.49200 20.14600
H  3.08100 7.38000 20.80000
H  2.09400 8.12000 19.58300
H  -0.78700 10.52800 22.06100
H  -0.58500 9.52800 20.64400
H  0.00700 11.01900 19.35000
H  1.19200 11.85000 20.42000
H  -0.56200 12.22700 20.53200
H  1.01300 14.42400 25.84900
H  1.67700 13.74200 24.35300
H  2.81500 14.48000 25.55500
H  1.11700 11.53200 30.07400
H  4.79200 12.82600 32.54400
H  4.39700 11.14700 33.02400
H  3.72800 12.49500 33.85800
Mg -8.96300 41.38800 42.62100
C  -8.56400 38.12900 41.48100
C  -6.39400 42.39300 40.59000
C  -9.97200 44.62100 42.99100
C  -12.05200 40.32400 44.08900
N  -7.53000 40.35500 41.31000
C  -7.58100 39.04600 41.00600
C  -6.48200 38.65300 39.98600
C  -5.64900 39.92400 39.97400
C  -6.58600 40.98600 40.67000
C  -4.25900 39.84700 40.60800
C  -7.13700 38.21100 38.60900
C  -6.76000 36.77100 38.16600
H  -5.67100 36.69000 37.09700
N  -8.16700 43.29400 42.03000
C  -7.11400 43.45200 41.18300
C  -6.90500 44.82000 40.99800
C  -7.97900 45.56700 41.62700
C  -8.75900 44.43200 42.31600
C  -5.69900 45.42300 40.10700
C  -8.05800 47.04800 41.77600
O  -7.28500 47.84100 41.26200
C  -9.27300 47.68600 42.45600
N  -10.62700 42.40200 43.62700
C  -10.76800 43.71900 43.73200
C  -12.13100 44.14900 44.41200
C  -12.81200 42.73000 44.69200
C  -11.75600 41.69700 44.18400
C  -12.08300 45.07100 45.69300
C  -14.22200 42.69400 43.90400
C  -15.42300 42.14500 44.73800
N  -10.10900 39.61700 42.81000
C  -11.32000 39.28600 43.47600
C  -11.61800 37.90900 43.25200
C  -10.50400 37.42200 42.50800
C  -9.63900 38.46700 42.32300
C  -12.76200 37.14000 43.82900
C  -9.89800 36.14800 42.08700
O  -10.34400 34.99000 42.19100
C  -8.56200 36.57500 41.31700
C  -7.39700 35.90700 41.89800
O  -6.90600 36.14100 43.01700
O  -6.85900 34.93100 41.06600
C  -5.61300 34.27600 41.60200
H  -5.57200 42.60800 39.90400
H  -10.47700 45.58800 43.02500
H  -12.97900 40.03700 44.58900
H  -5.88200 37.80000 40.30200
H  -5.39900 40.28600 38.97700
H  -3.45600 40.29700 40.02400
H  -4.08700 38.77800 40.73300
H  -4.23500 40.33500 41.58200
H  -6.86800 38.94600 37.85000
H  -8.22500 38.23600 38.66400
H  -7.57300 36.16800 37.76100
H  -6.31200 36.14100 38.93500
H  -5.42200 44.71100 39.32900
H  -4.78000 45.46000 40.69200
H  -5.94000 46.43500 39.78200
H  -9.22300 47.35200 43.49200
H  -10.22100 47.43700 41.97900
H  -9.19100 48.77300 42.43400
H  -12.59200 44.83800 43.70500
H  -13.03600 42.58300 45.74900
H  -11.08800 45.46200 45.90300
H  -12.45300 44.54900 46.57600
H  -12.70100 45.94900 45.50300
H  -14.08900 42.15800 42.96400
H  -14.41100 43.67800 43.47500
H  -16.27300 42.82000 44.83300
H  -15.19800 41.88800 45.77400
H  -15.84400 41.26400 44.25400
H  -12.91700 36.12100 43.47500
H  -13.66800 37.71000 43.62000
H  -12.82600 37.15900 44.91700
H  -8.73300 36.34700 40.26500
H  -5.43200 33.42600 40.94400
H  -5.64100 33.99200 42.65300
H  -4.74200 34.93000 41.55200

