158

Mg 6.75100 54.54400 41.39900
C  6.12900 50.98900 41.12500
C  9.79900 53.93500 40.04500
C  6.73800 57.73400 40.67000
C  3.46900 54.76900 42.68300
N  7.71100 52.66600 40.55700
C  7.39600 51.33300 40.63700
C  8.46600 50.39800 40.11300
C  9.71500 51.31300 40.26200
C  9.06900 52.70900 40.32000
C  10.63600 50.93800 41.44200
C  8.22400 49.82200 38.63300
C  7.54900 50.62700 37.55000
H  6.56500 49.82000 36.62300
N  8.08800 55.72000 40.46000
C  9.39900 55.31000 40.10400
C  10.09400 56.46700 39.65800
C  9.19500 57.57800 39.57800
C  7.90900 57.11400 40.22300
C  11.49400 56.47100 39.23000
C  9.42600 58.94500 39.06100
O  10.51800 59.27700 38.56700
C  8.44600 60.01100 39.13700
N  5.21400 56.02100 41.40900
C  5.56300 57.36600 41.23600
C  4.40800 58.31400 41.63900
C  3.48900 57.35800 42.45200
C  4.11400 55.97900 42.23100
C  4.75900 59.55600 42.44800
C  1.97000 57.48600 42.06800
C  1.14100 58.55100 42.86000
N  5.04900 53.20000 41.90300
C  3.84500 53.43600 42.51100
C  3.11000 52.23100 42.60800
C  3.95400 51.25900 42.12300
C  5.14900 51.86400 41.72300
C  1.75000 52.04500 43.11600
C  4.16000 49.87300 41.88900
O  3.38000 48.96200 42.06500
C  5.59100 49.63100 41.29900
C  5.46400 48.93200 40.02300
O  4.90200 49.38300 39.04500
O  6.04400 47.66500 40.12900
C  5.55800 46.68800 39.17000
H  10.79900 53.89400 39.60600
H  6.60000 58.79700 40.46200
H  2.48700 54.89400 43.14400
H  8.57800 49.47600 40.68300
H  10.36400 51.35200 39.38800
H  11.59900 50.79100 40.95200
H  10.39700 49.96800 41.87900
H  10.57600 51.55600 42.33800
H  7.74000 48.84700 38.68700
H  9.21600 49.54700 38.27400
H  8.26000 51.04400 36.83700
H  7.03500 51.51400 37.91900
H  11.55200 56.35600 38.14700
H  11.95000 55.62200 39.74000
H  11.93700 57.35700 39.68400
H  8.79800 60.87200 38.56800
H  8.41800 60.35300 40.17200
H  7.46600 59.75700 38.73500
H  4.00900 58.57800 40.65900
H  3.73500 57.46000 43.51000
H  5.60300 59.42200 43.12500
H  3.94500 59.96500 43.04700
H  5.11600 60.31200 41.75000
H  1.43400 56.54300 42.17500
H  1.80500 57.69800 41.01100
H  1.77800 59.14400 43.51600
H  0.31100 58.07100 43.37700
H  0.65900 59.25700 42.18300
H  1.14300 52.93200 42.93400
H  1.75000 51.89300 44.19600
H  1.32100 51.15700 42.65300
H  6.16800 48.95000 41.92400
H  5.85200 47.02000 38.17400
H  4.48400 46.84300 39.06700
H  5.77400 45.63600 39.35300
Mg -2.44500 35.24700 26.74100
C  -4.27000 33.62100 29.31100
C  -1.13100 37.38800 28.92500
C  -0.60700 36.53600 24.06800
C  -3.87000 32.91300 24.47300
N  -2.67500 35.42200 28.87000
C  -3.50300 34.66900 29.72600
C  -3.36700 35.22700 31.15700
C  -2.55900 36.55400 30.88200
C  -2.06300 36.42900 29.45400
C  -3.34600 37.81400 31.19700
C  -2.56000 34.32800 32.11700
C  -2.55100 34.80500 33.60800
H  -2.79900 33.79700 34.75700
N  -1.11200 36.83100 26.48100
C  -0.69100 37.63600 27.58300
C  0.21300 38.66500 27.09300
C  0.44400 38.31300 25.72000
C  -0.39400 37.14100 25.36100
C  0.87900 39.61800 28.05300
C  1.41400 38.95800 24.73500
O  1.57000 38.48600 23.63800
C  2.22800 40.25400 25.05600
N  -2.28500 34.86500 24.58900
C  -1.55200 35.60900 23.68800
C  -1.59400 35.05000 22.24500
C  -2.61300 33.85900 22.32900
C  -3.01400 33.87400 23.89800
C  -1.72900 36.18300 21.06500
C  -1.95300 32.48400 21.94300
C  -2.74300 31.39600 21.17300
N  -3.91100 33.70400 26.77600
C  -4.23800 32.73900 25.85200
C  -4.96200 31.63900 26.41100
C  -5.06900 32.01100 27.77900
C  -4.35500 33.21800 27.91300
C  -5.42700 30.34200 25.70100
C  -5.54500 31.58400 29.10700
O  -6.13100 30.53700 29.40100
C  -5.00300 32.57000 30.12700
C  -6.12900 33.01400 30.94500
O  -7.20400 33.40500 30.57000
O  -5.85100 32.76000 32.24600
C  -6.94900 32.89700 33.16100
H  -0.87900 38.12200 29.69300
H  -0.20900 37.13000 23.24100
H  -4.30300 32.22100 23.74700
H  -4.34600 35.49200 31.55700
H  -1.67900 36.56000 31.52500
H  -3.32800 38.40200 30.27900
H  -2.91700 38.25500 32.09700
H  -4.41100 37.75100 31.42300
H  -1.49200 34.27400 31.90300
H  -2.93000 33.30300 32.14700
H  -3.13900 35.71800 33.50800
H  -1.63600 35.34000 33.86300
H  1.94100 39.43500 27.88500
H  0.56700 39.43800 29.08200
H  0.76300 40.68700 27.87700
H  3.22000 39.94900 25.39000
H  1.74400 40.87300 25.81000
H  2.41800 40.84400 24.15900
H  -0.63100 34.59200 22.01800
H  -3.46100 34.09100 21.68500
H  -0.79700 36.29400 20.51000
H  -1.81800 37.16500 21.53000
H  -2.58000 36.09200 20.39100
H  -1.74300 32.10600 22.94400
H  -1.02100 32.60600 21.39200
H  -3.63800 31.79000 20.69200
H  -3.07000 30.66100 21.90800
H  -2.17000 30.75700 20.50100
H  -4.78800 30.14100 24.84100
H  -6.44600 30.55200 25.37400
H  -5.47700 29.54200 26.43900
H  -4.26000 31.99800 30.68300
H  -6.52200 33.40500 34.02500
H  -7.11500 31.85800 33.44500
H  -7.89900 33.30900 32.82100

