158

Mg 2.25700 -1.78200 43.73700
C  5.60100 -0.84600 42.91600
C  1.15700 1.15600 42.16700
C  -0.82300 -2.98800 43.96500
C  3.51300 -4.67800 45.18200
N  3.24400 -0.17200 42.45600
C  4.61500 0.07200 42.43600
C  4.93500 1.32700 41.65500
C  3.51400 2.05400 41.75100
C  2.56500 0.98200 42.13000
C  3.48500 3.24400 42.74000
C  5.49500 1.02800 40.26100
C  6.73900 1.84700 39.88600
H  6.62100 2.60900 38.52800
N  0.42400 -1.05400 43.05000
C  0.16100 0.13900 42.42500
C  -1.19800 0.23000 42.21400
C  -1.88000 -0.94200 42.70900
C  -0.73600 -1.73500 43.20200
C  -1.83800 1.46000 41.51000
C  -3.36200 -1.22900 42.60100
O  -4.07300 -0.36400 42.09300
C  -3.95200 -2.46000 43.22100
N  1.47300 -3.66600 44.35500
C  0.15000 -3.79600 44.44500
C  -0.15800 -5.06700 45.22300
C  1.19800 -5.76600 45.42000
C  2.13500 -4.62500 45.05800
C  -0.87500 -4.80800 46.56400
C  1.60800 -7.12800 44.64600
C  1.57900 -8.31500 45.62800
N  4.08400 -2.62700 43.95600
C  4.50100 -3.79300 44.61300
C  5.91100 -3.87600 44.60700
C  6.40400 -2.71500 44.07500
C  5.21100 -2.05200 43.59300
C  6.64100 -5.08500 45.11800
C  7.58000 -1.93100 43.67400
O  8.76200 -2.21300 43.80200
C  7.12200 -0.61500 43.03800
C  7.54500 0.50800 43.90900
O  7.32200 0.63900 45.06400
O  8.21600 1.45700 43.15200
C  8.45500 2.76400 43.76800
H  0.77200 2.07900 41.72900
H  -1.77100 -3.44400 44.25800
H  3.77200 -5.53800 45.80300
H  5.70500 1.86400 42.21000
H  3.29300 2.62800 40.85100
H  4.52500 3.53500 42.89000
H  2.87600 3.09700 43.63200
H  3.10200 4.08100 42.15700
H  4.72800 1.33600 39.55100
H  5.70600 -0.03800 40.18200
H  7.48600 1.05500 39.85300
H  6.93100 2.48000 40.75200
H  -1.21000 2.20300 41.01900
H  -2.37500 1.89900 42.35100
H  -2.48600 1.06000 40.73000
H  -5.02500 -2.35900 43.05800
H  -3.68100 -2.43900 44.27700
H  -3.52200 -3.26600 42.62800
H  -0.70800 -5.62100 44.46200
H  1.26400 -5.91500 46.49700
H  -0.25400 -4.26000 47.27300
H  -1.17400 -5.76700 46.98700
H  -1.79400 -4.23700 46.43600
H  2.67000 -7.16000 44.40500
H  0.96100 -7.27700 43.78100
H  1.67100 -9.27900 45.12600
H  0.71300 -8.21700 46.28200
H  2.47000 -8.33900 46.25600
H  7.64000 -4.78800 45.43800
H  6.62300 -5.86800 44.35900
H  6.11800 -5.24100 46.06100
H  7.48700 -0.39200 42.03500
H  9.12400 2.57500 44.60700
H  7.51600 3.27000 43.99000
H  9.14000 3.28400 43.09700
Mg 47.46500 15.54100 28.40600
C  45.05900 15.26700 30.98000
C  49.40500 17.23400 30.55000
C  49.44800 16.14300 25.80700
C  45.01000 14.33100 26.17500
N  47.17400 16.23800 30.48900
C  46.22700 15.89400 31.37200
C  46.61800 16.15400 32.81500
C  47.85200 17.02700 32.64400
C  48.22400 16.84300 31.17800
C  47.67400 18.48400 33.10300
C  46.83100 14.79400 33.58200
C  46.11100 14.69700 35.00200
H  46.15300 15.87500 35.95200
N  49.22600 16.44500 28.21100
C  49.89100 17.02200 29.23300
C  51.20200 17.60000 28.70000
C  51.24500 17.27200 27.26300
C  49.92900 16.65600 27.01800
C  52.14400 18.30300 29.65900
C  52.37800 17.51100 26.25400
O  52.26000 17.18900 25.05000
C  53.67500 18.07100 26.67600
N  47.14700 15.49100 26.28200
C  48.20600 15.64900 25.46600
C  47.85300 15.19200 24.04000
C  46.51800 14.50900 24.20400
C  46.17700 14.80700 25.67200
C  47.81300 16.34300 22.93300
C  46.57600 12.99300 23.84500
C  45.48700 12.62500 22.82000
N  45.47100 14.86800 28.52900
C  44.63200 14.41600 27.51600
C  43.29900 14.04400 28.12600
C  43.44700 14.23500 29.50500
C  44.73300 14.84000 29.66100
C  42.15000 13.30700 27.50600
C  42.89200 14.12700 30.78800
O  41.86200 13.55100 31.08600
C  43.78200 14.85100 31.77100
C  43.11900 16.04800 32.38700
O  43.40900 17.23000 32.17700
O  42.32700 15.61500 33.33700
C  41.77300 16.57600 34.29300
H  50.01200 17.77700 31.27700
H  50.08200 16.36300 24.94500
H  44.42400 13.85500 25.38600
H  45.81000 16.67100 33.33300
H  48.71700 16.77900 33.26000
H  46.84100 18.61400 33.79400
H  47.43900 19.12900 32.25700
H  48.59600 18.76600 33.61400
H  47.89400 14.59500 33.71500
H  46.61300 13.95500 32.92100
H  46.55100 13.89900 35.60100
H  45.08800 14.37000 34.81700
H  52.68400 19.05600 29.08600
H  52.82800 17.65900 30.21200
H  51.57100 18.94000 30.33300
H  53.66000 19.05000 27.15400
H  54.28500 18.14000 25.77500
H  54.05500 17.34900 27.39900
H  48.72700 14.62000 23.72800
H  45.72500 15.01500 23.65300
H  46.89600 16.91500 22.78800
H  48.23200 15.91400 22.02300
H  48.62400 16.96600 23.30900
H  46.62800 12.41800 24.77000
H  47.47700 12.72900 23.29100
H  44.53300 13.13600 22.95200
H  45.28600 11.55900 22.92800
H  45.84700 12.67700 21.79300
H  42.55500 12.34900 27.18000
H  41.71000 13.89900 26.70400
H  41.41200 13.13000 28.28900
H  44.03600 14.19900 32.60600
H  42.48400 17.31500 34.66400
H  41.34500 16.03800 35.13900
H  40.96000 17.16100 33.86400

