158

Mg 27.07700 50.12300 26.74500
C  24.99800 51.06700 29.51200
C  29.34700 49.07100 29.15100
C  29.05400 49.49600 24.20800
C  24.74200 51.57500 24.65700
N  27.15800 50.12300 29.12200
C  26.19900 50.60800 30.00500
C  26.65900 50.41900 31.42600
C  28.11200 49.85800 31.33700
C  28.20400 49.62000 29.81500
C  29.28600 50.80500 31.83500
C  25.74200 49.54100 32.39100
C  25.54400 50.18100 33.87700
H  25.44100 49.14600 34.99200
N  28.91400 49.39400 26.69900
C  29.69700 49.03000 27.74400
C  30.84700 48.39800 27.19100
C  30.89700 48.57900 25.79600
C  29.56300 49.12900 25.53900
C  32.04900 47.82700 28.00800
C  32.00500 48.45100 24.81700
O  31.89200 48.63200 23.65100
C  33.34700 48.05300 25.11500
N  27.02700 50.63600 24.76000
C  27.90300 50.17400 23.88500
C  27.58900 50.47200 22.50400
C  26.09400 50.96000 22.56200
C  25.93000 51.09500 24.06600
C  28.53500 51.50800 21.86900
C  25.06100 49.92500 21.93100
C  23.83200 50.38900 21.11700
N  25.23000 51.13300 26.99800
C  24.43300 51.69500 25.99100
C  23.30100 52.34200 26.64500
C  23.47300 52.09300 28.00000
C  24.60200 51.31100 28.18800
C  22.26900 53.12300 25.86700
C  22.84200 52.32400 29.25800
O  21.75700 52.81700 29.45200
C  23.84700 51.67900 30.34100
C  24.20300 52.70200 31.33200
O  25.20400 53.31600 31.36600
O  23.21000 52.72000 32.33000
C  23.52900 53.55300 33.45400
H  30.10400 48.72800 29.85800
H  29.65300 49.15700 23.36000
H  23.88500 51.74700 24.00300
H  26.69300 51.42300 31.84900
H  28.22100 48.96000 31.94600
H  29.94500 51.08800 31.01500
H  29.90400 50.32300 32.59200
H  28.98900 51.72300 32.34100
H  26.21500 48.57300 32.56100
H  24.82100 49.31000 31.85600
H  24.57500 50.67300 33.79100
H  26.12400 51.05100 34.18600
H  31.97000 47.92600 29.09100
H  32.93400 48.45200 27.89000
H  32.14700 46.76200 27.79800
H  33.27700 47.04300 25.52000
H  33.63500 48.76600 25.88700
H  33.97000 47.97400 24.22400
H  27.59700 49.59200 21.86000
H  26.00800 51.85600 21.94700
H  29.50400 51.45700 22.36400
H  28.11500 52.51400 21.88600
H  28.79700 51.13400 20.88000
H  24.67800 49.21300 22.66200
H  25.66200 49.41800 21.17400
H  23.78500 50.02000 20.09200
H  23.72400 51.47300 21.07600
H  22.92000 50.01400 21.58100
H  22.83600 53.71300 25.14700
H  21.75300 53.77800 26.56800
H  21.46500 52.52700 25.43400
H  23.30500 50.86400 30.82000
H  23.63400 54.60100 33.17400
H  24.43100 53.18200 33.94100
H  22.68000 53.60700 34.13600
Mg -11.31300 38.60500 42.24600
C  -9.61400 35.70800 41.56200
C  -8.93000 40.49200 40.96100
C  -13.36000 41.30900 42.89000
C  -14.30000 36.51500 43.03300
N  -9.61500 38.09700 41.29400
C  -9.00600 36.85200 41.18500
C  -7.65700 36.94200 40.44000
C  -7.37700 38.46800 40.46500
C  -8.74300 39.07000 40.94800
C  -6.27800 38.96700 41.47400
C  -7.65000 36.34000 39.00700
C  -6.35800 35.59100 38.52500
H  -5.58100 36.16800 37.28800
N  -11.16500 40.64500 41.95200
C  -10.04600 41.18900 41.41200
C  -10.24800 42.64400 41.47100
C  -11.48600 42.92400 42.09500
C  -12.10700 41.60400 42.39300
C  -9.25600 43.55100 40.77900
C  -12.11000 44.34700 42.37500
O  -11.64700 45.33200 41.77000
C  -13.31100 44.55300 43.40800
N  -13.55700 38.82600 42.60300
C  -14.03000 40.08100 42.96700
C  -15.49400 39.99300 43.46500
C  -15.83100 38.50300 43.46200
C  -14.50000 37.85700 42.98900
C  -15.79900 40.72300 44.76800
C  -17.10400 38.14100 42.71800
C  -17.84300 36.88900 43.35500
N  -11.82200 36.50100 42.36200
C  -13.04500 35.88600 42.58800
C  -12.78000 34.40800 42.51400
C  -11.42400 34.28100 42.15600
C  -10.92100 35.61600 42.06500
C  -13.85300 33.39300 42.81500
C  -10.32300 33.37400 41.82200
O  -10.21500 32.16400 41.70200
C  -9.08000 34.34700 41.70000
C  -8.26100 34.12400 42.89700
O  -8.08200 34.93800 43.81000
O  -7.61300 32.89500 42.73900
C  -6.62000 32.53800 43.77100
H  -8.14000 41.08900 40.50000
H  -14.04800 42.14600 43.02900
H  -15.10800 35.81300 43.25300
H  -6.93700 36.39100 41.04500
H  -7.26000 38.94600 39.49200
H  -5.56000 39.62700 40.98800
H  -5.71400 38.12200 41.87000
H  -6.72700 39.57500 42.25900
H  -7.89000 37.09600 38.25900
H  -8.58200 35.80300 38.83100
H  -6.60200 34.54600 38.33300
H  -5.65100 35.74600 39.34000
H  -9.50900 43.55200 39.71900
H  -8.23400 43.19500 40.90900
H  -9.32400 44.57700 41.14000
H  -13.21100 45.47200 43.98500
H  -13.30800 43.74800 44.14200
H  -14.28600 44.68300 42.93900
H  -16.14700 40.37100 42.67800
H  -15.74600 38.24000 44.51600
H  -16.83100 40.65000 45.11100
H  -15.56100 41.78100 44.66400
H  -15.01000 40.46600 45.47400
H  -16.85700 37.86700 41.69200
H  -17.92200 38.85800 42.78200
H  -18.21400 36.15100 42.64500
H  -18.70000 37.18400 43.96000
H  -17.18200 36.42600 44.08800
H  -14.89000 33.72200 42.75900
H  -13.69600 33.01300 43.82500
H  -13.64100 32.52200 42.19400
H  -8.52900 34.07100 40.80100
H  -5.87200 31.93600 43.25600
H  -7.12400 32.03600 44.59800
H  -6.02600 33.34900 44.19300

