158

Mg -1.79500 17.49500 25.42900
C  -2.13700 15.34800 28.35200
C  -1.90900 20.18100 27.44500
C  -1.47700 19.32300 22.74600
C  -1.67400 14.47000 23.41800
N  -1.93500 17.59900 27.66500
C  -2.05000 16.70200 28.67500
C  -2.33700 17.34100 30.03600
C  -2.61600 18.85600 29.63300
C  -2.09800 18.92000 28.18200
C  -4.13800 19.25700 29.74900
C  -1.14800 17.00900 31.02900
C  -1.19400 17.84400 32.38300
H  -1.09000 17.02900 33.73200
N  -1.56900 19.50000 25.16700
C  -1.57000 20.43400 26.12700
C  -1.30300 21.71500 25.47300
C  -1.22700 21.51600 24.08000
C  -1.42100 20.04400 23.91600
C  -1.22800 22.93600 26.20500
C  -1.11900 22.47900 22.94000
O  -1.12300 22.02300 21.81800
C  -0.91800 23.95900 23.23300
N  -1.58000 16.93600 23.33400
C  -1.61500 17.94700 22.44100
C  -1.74900 17.42500 21.00800
C  -1.39200 15.93800 21.17600
C  -1.63200 15.72700 22.70100
C  -3.17100 17.87200 20.39000
C  -0.00100 15.56700 20.67100
C  1.25000 15.62300 21.55800
N  -1.94000 15.39700 25.79100
C  -1.78900 14.29600 24.87100
C  -1.90400 13.12200 25.57300
C  -2.02300 13.43000 26.90200
C  -2.01900 14.86100 27.03800
C  -1.83000 11.73600 25.03900
C  -2.16400 12.84200 28.22900
O  -2.16400 11.67600 28.62500
C  -2.25300 14.09300 29.21600
C  -1.01600 13.74100 29.98600
O  0.09300 13.84200 29.44100
O  -1.24300 13.37000 31.31400
C  -0.09300 12.99700 32.17400
H  -1.95700 21.14400 27.95700
H  -1.69200 19.91400 21.85300
H  -1.55400 13.63200 22.72800
H  -3.21900 16.91000 30.51100
H  -2.09000 19.56500 30.27300
H  -4.25400 19.66000 30.75500
H  -4.85000 18.43100 29.72700
H  -4.54400 19.95200 29.01400
H  -0.20700 17.21500 30.52000
H  -1.27800 15.94500 31.22900
H  -2.06500 18.49900 32.41900
H  -0.40200 18.58300 32.25500
H  -0.79800 22.86200 27.20300
H  -2.24400 23.32900 26.26000
H  -0.56700 23.67300 25.74900
H  -0.86100 24.59800 22.35200
H  -0.00400 23.88200 23.82100
H  -1.78000 24.32100 23.79200
H  -1.02600 17.85000 20.31200
H  -2.12800 15.33300 20.64800
H  -3.16100 18.07800 19.32000
H  -3.59600 18.77300 20.83300
H  -3.81600 17.02300 20.61800
H  0.14300 16.01700 19.68800
H  -0.02800 14.53700 20.31500
H  1.92800 16.14600 20.88400
H  1.52800 14.61700 21.87300
H  1.05600 16.12700 22.50500
H  -2.35900 11.76100 24.08700
H  -2.32400 11.06300 25.74000
H  -0.79200 11.52000 24.78600
H  -3.16500 13.99100 29.80500
H  0.32300 13.88300 32.65300
H  0.61200 12.46900 31.53100
H  -0.44600 12.33800 32.96600
Mg -4.32800 24.82100 25.99300
C  -2.93800 26.69300 28.52400
C  -5.60600 22.56400 28.30400
C  -5.27900 22.84900 23.53300
C  -2.87800 27.02500 23.68800
N  -4.21200 24.62200 28.06600
C  -3.67900 25.58400 28.94500
C  -4.17100 25.32500 30.38500
C  -4.70200 23.81900 30.27800
C  -4.88500 23.66500 28.77500
C  -3.69600 22.80400 30.94300
C  -5.25600 26.39500 30.83100
C  -5.04600 26.92500 32.24900
H  -4.38600 25.97000 33.30100
N  -5.32800 22.97900 25.96500
C  -5.80000 22.18800 26.99800
C  -6.38900 20.98700 26.45300
C  -6.47100 21.17400 25.03900
C  -5.68100 22.36100 24.76800
C  -6.90500 19.83400 27.35000
C  -7.16500 20.27900 24.01600
O  -7.16800 20.48900 22.79700
C  -7.97000 19.08300 24.57600
N  -4.14300 24.92300 23.99700
C  -4.64400 23.99800 23.18700
C  -4.68600 24.47500 21.72600
C  -4.00400 25.83800 21.77600
C  -3.60100 25.97400 23.20800
C  -4.10400 23.46100 20.70600
C  -4.89600 27.05500 21.26600
C  -4.29000 27.89000 20.14100
N  -3.21700 26.60500 26.05200
C  -2.63400 27.32100 25.03200
C  -1.81700 28.37200 25.55900
C  -1.90200 28.19700 26.98600
C  -2.74000 27.07000 27.19500
C  -1.00100 29.47700 24.88100
C  -1.47500 28.69700 28.28400
O  -0.73600 29.61500 28.56900
C  -2.18800 27.71200 29.28700
C  -1.04400 27.16300 30.17600
O  -0.20800 26.29400 29.93800
O  -1.03900 27.88500 31.26000
C  -0.10000 27.55400 32.31200
H  -5.89500 21.88200 29.10700
H  -5.56500 22.21400 22.69200
H  -2.47600 27.78200 23.01000
H  -3.34600 25.47400 31.08100
H  -5.69800 23.91200 30.71100
H  -4.28800 22.36100 31.74500
H  -2.93300 23.44600 31.38300
H  -3.16300 22.05400 30.35900
H  -6.27700 26.02800 30.93500
H  -5.23000 27.20000 30.09700
H  -6.01500 26.98000 32.74600
H  -4.44100 27.83100 32.25800
H  -7.98300 19.72300 27.22800
H  -6.73900 19.90200 28.42500
H  -6.40300 18.95200 26.95200
H  -7.20200 18.41000 24.95700
H  -8.45600 18.70200 23.67800
H  -8.78000 19.38900 25.23900
H  -5.76600 24.55900 21.60400
H  -3.09800 25.86900 21.17100
H  -3.92400 22.47700 21.13800
H  -3.16700 23.75000 20.22900
H  -4.89700 23.08800 20.05900
H  -5.28300 27.73800 22.02200
H  -5.75000 26.60100 20.76300
H  -3.37900 27.53100 19.66200
H  -3.95600 28.85700 20.51500
H  -5.04500 28.01400 19.36500
H  -0.08100 29.04700 24.48400
H  -0.82100 30.23000 25.64800
H  -1.58200 29.88200 24.05300
H  -2.90400 28.22600 29.92900
H  0.86000 28.03000 32.10700
H  0.12800 26.48900 32.26500
H  -0.39900 27.58400 33.35900

