158

Mg 18.04900 -0.82800 27.38400
C  17.09600 1.21000 30.11400
C  20.11800 -2.55500 29.61400
C  19.13500 -2.49100 24.78900
C  16.62700 1.73800 25.20200
N  18.43800 -0.70200 29.58600
C  17.89000 0.12400 30.54500
C  18.43300 -0.20900 32.01100
C  19.55300 -1.26800 31.71400
C  19.40700 -1.53700 30.21500
C  20.95900 -0.73100 32.07600
C  17.19800 -0.77600 32.77700
C  17.05400 -0.44200 34.26100
H  18.17100 0.28000 35.03200
N  19.34100 -2.33800 27.28100
C  20.08400 -3.02000 28.28400
C  20.74200 -4.14600 27.64600
C  20.46100 -4.10000 26.24800
C  19.65800 -2.94500 26.03800
C  21.50600 -5.13500 28.48500
C  20.90800 -5.03700 25.23100
O  20.61400 -4.94900 24.06900
C  21.73600 -6.32700 25.59800
N  17.88600 -0.39900 25.34900
C  18.32900 -1.36000 24.46400
C  17.93300 -0.98300 23.07200
C  17.30700 0.42900 23.18700
C  17.22900 0.61600 24.68200
C  19.17500 -1.05100 22.15500
C  15.97000 0.61300 22.41600
C  14.72600 -0.04200 23.05800
N  16.91000 1.04700 27.63900
C  16.31000 1.85300 26.57800
C  15.47200 2.76100 27.26300
C  15.70200 2.57300 28.63500
C  16.61600 1.49800 28.80100
C  14.65100 3.88000 26.64300
C  15.37100 3.01400 29.98600
O  14.59800 3.87400 30.33100
C  16.31000 2.16200 30.93400
C  17.11500 3.04200 31.78500
O  18.35400 3.12400 31.84100
O  16.37100 3.77600 32.60400
C  16.98600 4.75200 33.54400
H  20.89900 -3.00800 30.22800
H  19.39000 -3.08000 23.90600
H  16.30300 2.42300 24.41500
H  18.66900 0.74200 32.48900
H  19.39900 -2.16500 32.31200
H  21.64200 -0.65500 31.23100
H  21.35100 -1.44800 32.79800
H  20.90100 0.25400 32.53800
H  17.11600 -1.86300 32.76600
H  16.25700 -0.45800 32.32700
H  17.02100 -1.41000 34.75900
H  16.12100 0.06600 34.50500
H  21.19700 -6.18000 28.50500
H  21.55700 -4.94700 29.55800
H  22.53700 -5.26600 28.15300
H  22.56700 -5.97700 26.21000
H  22.15700 -6.68200 24.65700
H  21.09100 -6.99700 26.16500
H  17.10900 -1.65000 22.82000
H  17.98300 1.17000 22.76100
H  19.26000 -0.20900 21.46800
H  19.09100 -1.89500 21.47100
H  20.08600 -1.02200 22.75300
H  16.13100 0.18700 21.42600
H  15.76900 1.67700 22.29200
H  13.93800 0.69200 23.23200
H  14.91200 -0.50700 24.02600
H  14.41600 -0.84600 22.39000
H  14.16000 3.49400 25.74900
H  15.32300 4.69200 26.36600
H  13.88500 4.18200 27.35700
H  15.71700 1.76700 31.75900
H  17.08000 5.69200 33.00100
H  17.90300 4.53100 34.09100
H  16.13100 4.99800 34.17400
Mg -10.57400 38.75900 40.82900
C  -9.55200 35.51700 39.96600
C  -7.66800 39.98400 39.47500
C  -11.90400 41.83900 40.50200
C  -13.66500 37.42100 41.76600
N  -8.77800 37.78100 39.89900
C  -8.55100 36.44100 39.72100
C  -7.16100 36.21600 39.17400
C  -6.55300 37.68400 39.11100
C  -7.67200 38.55800 39.59500
C  -5.30900 37.91300 39.99300
C  -7.17100 35.35200 37.89400
C  -6.75700 36.01100 36.56400
H  -7.90700 36.79100 35.77600
N  -9.80100 40.70600 40.20200
C  -8.57700 40.96700 39.72600
C  -8.36600 42.41000 39.51400
C  -9.58900 42.96700 39.95600
C  -10.59000 41.82800 40.20100
C  -7.12200 42.96300 38.97000
C  -9.83500 44.44700 40.06500
O  -8.93600 45.19100 39.73500
C  -11.12500 45.02800 40.49900
N  -12.52400 39.50300 41.01800
C  -12.86100 40.84800 40.89000
C  -14.39300 41.07000 41.12000
C  -14.84300 39.63900 41.59200
C  -13.59400 38.77600 41.41200
C  -15.04000 42.13100 41.96800
C  -16.12700 39.07700 40.86300
C  -15.84800 38.32400 39.61400
N  -11.39600 36.85800 41.15700
C  -12.64700 36.49800 41.50300
C  -12.69300 35.05900 41.57400
C  -11.53500 34.66400 40.89100
C  -10.81700 35.81700 40.62200
C  -13.86500 34.20200 42.14900
C  -10.76300 33.46100 40.46200
O  -11.00600 32.31200 40.38800
C  -9.49200 34.01500 39.77400
C  -8.28500 33.29800 40.28900
O  -7.93500 33.30600 41.46700
O  -7.61400 32.67000 39.30200
C  -6.53600 31.80300 39.72300
H  -6.63700 40.31000 39.32100
H  -12.39900 42.76300 40.19700
H  -14.61100 37.02200 42.13900
H  -6.68600 35.71400 40.01700
H  -6.42600 38.07400 38.10100
H  -5.55000 38.75100 40.64800
H  -4.40500 38.10700 39.41500
H  -5.28800 37.06900 40.68300
H  -8.10000 34.82800 37.67100
H  -6.41300 34.57700 38.00900
H  -6.45400 35.21800 35.88100
H  -5.85600 36.60400 36.72400
H  -6.64500 42.34100 38.21300
H  -6.43600 43.03600 39.81500
H  -7.32300 43.92500 38.49800
H  -11.41800 44.65800 41.48200
H  -11.85200 44.97700 39.68800
H  -10.89300 46.09200 40.54800
H  -14.76000 41.19900 40.10100
H  -14.97200 39.63200 42.67400
H  -15.92600 41.81100 42.51700
H  -15.39800 42.99900 41.41400
H  -14.25000 42.34700 42.68800
H  -16.64600 39.98300 40.55300
H  -16.79600 38.53600 41.53300
H  -16.42000 38.79700 38.81600
H  -16.03700 37.25900 39.75100
H  -14.86000 38.37500 39.15800
H  -13.60500 33.81600 43.13500
H  -14.09900 33.37600 41.47800
H  -14.77800 34.79200 42.22400
H  -9.68600 33.66400 38.76000
H  -6.16700 31.99500 40.73000
H  -5.76600 32.03800 38.98900
H  -6.78100 30.74300 39.64600

