158

Mg -11.11400 40.40700 42.43700
C  -9.51400 37.65400 41.09600
C  -8.75900 42.43500 40.85100
C  -12.89100 43.11000 43.32200
C  -13.81500 38.37900 43.24400
N  -9.38600 40.06700 40.97200
C  -8.89100 38.81700 40.62100
C  -7.70400 38.91700 39.59200
C  -7.40800 40.43000 39.71600
C  -8.56300 41.06900 40.59600
C  -5.98100 40.79100 40.30800
C  -7.84000 38.20600 38.23600
C  -7.09400 36.84000 38.05400
H  -5.94200 36.75800 37.05900
N  -10.73700 42.56900 42.34800
C  -9.72000 43.10900 41.65500
C  -9.82700 44.51800 41.81300
C  -11.04600 44.77700 42.58800
C  -11.62400 43.50500 42.75300
C  -8.85200 45.45700 41.25500
C  -11.57300 46.18200 43.02600
O  -10.88300 47.17500 42.84900
C  -12.87400 46.26500 43.91300
N  -13.10300 40.69400 43.19500
C  -13.57700 41.89700 43.49400
C  -14.88700 41.77600 44.16800
C  -15.27000 40.27500 44.01600
C  -13.98600 39.73300 43.49800
C  -14.91400 42.20700 45.64100
C  -16.48700 40.04400 43.04500
C  -17.39000 38.80700 43.37200
N  -11.61000 38.46100 42.33900
C  -12.68100 37.73000 42.82600
C  -12.41500 36.33600 42.71600
C  -11.18900 36.28300 42.06100
C  -10.73100 37.61100 41.84100
C  -13.38000 35.21800 43.06500
C  -10.18100 35.36500 41.53900
O  -10.17700 34.12900 41.67800
C  -9.00600 36.23700 40.91300
C  -7.80100 35.89100 41.70200
O  -7.37300 36.49000 42.68800
O  -7.12300 34.92600 41.03600
C  -5.71200 34.83100 41.25500
H  -7.97000 43.04000 40.39900
H  -13.68400 43.82700 43.54200
H  -14.64800 37.69900 43.43100
H  -6.98300 38.38300 40.21100
H  -7.42700 40.89700 38.73100
H  -5.46100 39.88400 40.61600
H  -6.13700 41.52900 41.09400
H  -5.32800 41.27800 39.58400
H  -7.33400 38.78300 37.46200
H  -8.91300 38.10700 38.07100
H  -7.86600 36.11900 37.78800
H  -6.60100 36.55000 38.98200
H  -9.38800 45.95900 40.44900
H  -7.90800 44.96000 41.03200
H  -8.52200 46.21300 41.96700
H  -12.96100 45.48000 44.66400
H  -13.68200 46.11300 43.19800
H  -12.92600 47.26000 44.35600
H  -15.54200 42.42500 43.58700
H  -15.61400 39.71700 44.88800
H  -15.61800 43.02400 45.79900
H  -13.92900 42.55800 45.94800
H  -15.21200 41.37200 46.27500
H  -15.90800 39.83200 42.14600
H  -16.96200 41.02500 43.01300
H  -18.45300 39.04700 43.38200
H  -17.23300 38.40100 44.37100
H  -17.13200 38.01100 42.67300
H  -13.61500 35.15200 44.12700
H  -13.19900 34.22400 42.65600
H  -14.30800 35.55100 42.60000
H  -8.85500 35.91900 39.88200
H  -5.77400 34.31500 42.21300
H  -5.24300 35.81000 41.35400
H  -5.24700 34.14700 40.54500
Mg -2.39500 34.82100 26.45600
C  -3.41100 32.89800 29.35600
C  -1.26600 37.29800 28.54700
C  -2.36900 36.95100 23.83000
C  -4.27500 32.62600 24.46400
N  -2.41700 35.11200 28.70900
C  -2.79100 34.19500 29.66800
C  -2.36800 34.72000 31.14700
C  -1.71900 36.07600 30.78700
C  -1.71900 36.11800 29.25200
C  -2.29600 37.34100 31.47400
C  -1.44400 33.73200 32.02400
C  -1.97800 33.32600 33.44400
H  -0.97900 33.29200 34.51900
N  -1.75300 36.80400 26.23700
C  -1.35100 37.64700 27.20100
C  -0.76300 38.90200 26.56300
C  -1.20200 38.71100 25.14500
C  -1.87900 37.43500 24.99200
C  0.01900 39.99300 27.32400
C  -1.06000 39.74400 24.07600
O  -1.60200 39.75500 23.01200
C  -0.13400 40.87600 24.25300
N  -3.32200 34.90100 24.37700
C  -3.01200 35.81300 23.52500
C  -3.40000 35.38400 22.10900
C  -3.81400 33.83900 22.33400
C  -3.82700 33.75000 23.83200
C  -4.40000 36.36000 21.47200
C  -2.98500 32.86900 21.41500
C  -1.58100 32.49500 22.04400
N  -3.55900 33.05300 26.75100
C  -4.18100 32.23300 25.84100
C  -4.68600 31.07300 26.57400
C  -4.41400 31.32700 27.91400
C  -3.77900 32.56700 27.98200
C  -5.57600 30.03700 26.09900
C  -4.59600 30.87700 29.25900
O  -5.14100 29.87300 29.72100
C  -3.97800 31.89600 30.27800
C  -5.06200 32.34900 31.27700
O  -6.11900 32.96500 30.97700
O  -4.81100 31.88600 32.51100
C  -5.84200 31.97700 33.54100
H  -0.77800 38.08100 29.13200
H  -2.37000 37.53400 22.90700
H  -4.83500 31.90500 23.86500
H  -3.22000 34.88200 31.80700
H  -0.68100 36.17000 31.10800
H  -2.84600 37.02600 32.36100
H  -3.09900 37.90600 31.00100
H  -1.55200 38.07400 31.78300
H  -0.44600 34.15700 32.13300
H  -1.17300 32.83000 31.47500
H  -2.31900 32.29200 33.48000
H  -2.89000 33.89000 33.63900
H  -0.60600 40.88200 27.40800
H  0.98100 40.31400 26.92300
H  0.26500 39.68500 28.34000
H  -0.56600 41.54700 24.99500
H  0.07800 41.45200 23.35200
H  0.85000 40.49600 24.52700
H  -2.53200 35.37800 21.45000
H  -4.85900 33.73300 22.04200
H  -5.09900 35.78900 20.86100
H  -3.88800 37.00200 20.75500
H  -4.98100 36.83800 22.26000
H  -2.80300 33.43900 20.50400
H  -3.51300 31.92700 21.26400
H  -0.87200 33.18600 21.58600
H  -1.33500 31.49900 21.67700
H  -1.49000 32.69800 23.11100
H  -5.30400 29.82800 25.06400
H  -6.60400 30.39300 26.16800
H  -5.54200 29.06900 26.59800
H  -3.04300 31.50700 30.68000
H  -5.63100 31.24500 34.32000
H  -6.83400 31.78800 33.13200
H  -5.81000 32.94000 34.04900

