158

Mg 8.18000 3.63900 27.31600
C  9.43600 1.98900 30.20600
C  6.50100 5.79700 29.48600
C  6.74400 4.84700 24.59200
C  9.67900 1.06400 25.31600
N  7.94000 3.76300 29.58800
C  8.62900 3.09900 30.51800
C  8.43100 3.73600 31.89900
C  7.41600 4.90200 31.62600
C  7.27800 4.79400 30.10500
C  5.99500 4.72200 32.24500
C  9.81500 4.25500 32.56200
C  10.11700 3.71100 33.93300
H  10.54200 4.67000 35.08400
N  6.91100 5.15000 27.05200
C  6.38200 5.95400 28.04000
C  5.48900 6.89000 27.42800
C  5.52600 6.58500 26.01800
C  6.38400 5.48400 25.79300
C  4.63900 7.75800 28.26500
C  4.75100 7.29900 24.89900
O  4.83100 7.03300 23.71100
C  3.82100 8.45100 25.23200
N  8.15000 3.08700 25.23500
C  7.46600 3.72900 24.29800
C  7.71100 3.19500 22.87800
C  8.65000 1.97400 23.16700
C  8.88600 2.04400 24.65200
C  6.45200 2.83800 22.04800
C  9.91300 1.95200 22.18000
C  9.64900 1.39800 20.77800
N  9.33000 1.90400 27.64300
C  9.83400 0.97700 26.78200
C  10.61000 -0.04800 27.53700
C  10.52800 0.33300 28.84300
C  9.79900 1.57100 28.89700
C  11.09900 -1.32300 27.05700
C  10.93600 -0.02100 30.16000
O  11.49900 -0.97100 30.62100
C  10.34200 1.08600 31.09600
C  9.55600 0.41400 32.14300
O  8.40700 -0.01600 31.99900
O  10.09100 0.52900 33.35900
C  9.41100 0.06200 34.57600
H  5.88200 6.43800 30.11700
H  6.14900 5.07200 23.70400
H  10.00000 0.25500 24.65600
H  7.99900 3.01400 32.59200
H  7.77700 5.90800 31.83800
H  5.23000 4.34400 31.56600
H  5.69900 5.74200 32.48900
H  6.00600 4.04300 33.09800
H  9.90400 5.34000 32.51600
H  10.56500 3.92500 31.84300
H  10.94300 3.01000 33.81300
H  9.34900 3.08000 34.38100
H  5.07700 7.96700 29.24200
H  3.63700 7.33600 28.34200
H  4.45600 8.69800 27.74500
H  3.04400 8.20700 25.95700
H  3.29400 8.72700 24.31900
H  4.38300 9.32100 25.57100
H  8.37300 3.96500 22.48000
H  8.05000 1.08900 22.95900
H  5.51900 2.96800 22.59600
H  6.44900 1.79500 21.72900
H  6.35000 3.53100 21.21400
H  10.68200 1.37100 22.68800
H  10.16100 3.00000 22.00900
H  10.32700 0.57400 20.55500
H  9.76900 2.18400 20.03200
H  8.64300 0.99400 20.67100
H  11.04400 -1.61100 26.00700
H  10.79400 -2.20800 27.61500
H  12.18100 -1.38700 27.17200
H  11.19800 1.56600 31.57000
H  8.99800 0.89900 35.14000
H  10.07800 -0.49500 35.23500
H  8.61200 -0.66700 34.43900
Mg 16.13300 -1.93300 27.42800
C  15.50500 0.13000 30.14500
C  18.50400 -3.59600 29.46400
C  17.59200 -3.35900 24.81900
C  14.76500 0.39500 25.32600
N  16.80600 -1.83900 29.66300
C  16.31900 -0.95000 30.58100
C  16.96300 -1.24400 31.95900
C  18.09900 -2.32000 31.61100
C  17.80000 -2.62600 30.14200
C  19.56900 -1.78000 31.84700
C  15.86100 -1.87400 32.86600
C  15.54700 -1.23600 34.23800
H  16.66100 -0.31700 34.90500
N  17.58600 -3.49200 27.15800
C  18.44500 -4.02900 28.13000
C  19.15700 -5.12200 27.49700
C  18.75800 -5.17800 26.13900
C  17.93600 -4.00600 25.95000
C  20.24400 -5.94600 28.17200
C  19.20200 -6.04000 24.96800
O  18.79300 -5.88300 23.84100
C  20.27600 -7.09100 25.21000
N  16.20300 -1.53400 25.39800
C  16.78400 -2.30100 24.48900
C  16.68700 -1.75300 23.09500
C  15.64400 -0.63100 23.30400
C  15.49700 -0.60100 24.76900
C  17.99300 -1.21700 22.52300
C  14.23400 -0.93800 22.69000
C  13.44400 0.28600 22.13000
N  15.19100 -0.12200 27.64400
C  14.59900 0.66500 26.70000
C  13.87900 1.79100 27.41700
C  14.17400 1.52700 28.74800
C  15.04400 0.42700 28.83900
C  13.04100 2.77700 26.72800
C  13.94700 2.02200 30.05400
O  13.26500 2.93600 30.45300
C  14.76200 1.14600 30.98700
C  15.75600 2.03600 31.70500
O  16.95200 2.20000 31.36700
O  15.12800 2.66100 32.72200
C  15.89600 3.72800 33.36100
H  19.30400 -4.11000 30.00000
H  17.87600 -3.81500 23.86800
H  14.32300 1.13200 24.65200
H  17.39300 -0.30000 32.29400
H  18.04500 -3.24900 32.17800
H  19.51700 -0.78600 32.29100
H  20.07000 -1.71400 30.88100
H  20.08900 -2.53600 32.43600
H  16.15100 -2.92200 32.94600
H  14.91800 -1.70100 32.34700
H  15.17200 -2.04400 34.86600
H  14.64900 -0.63000 34.11700
H  21.09800 -5.91700 27.49600
H  19.89200 -6.97700 28.20700
H  20.55200 -5.68000 29.18400
H  19.91700 -7.72800 26.01900
H  21.24200 -6.61900 25.38800
H  20.42000 -7.67700 24.30300
H  16.29500 -2.47500 22.37900
H  15.99400 0.30800 22.87600
H  18.09600 -0.13300 22.54800
H  18.06200 -1.51200 21.47600
H  18.94400 -1.38800 23.02700
H  13.61200 -1.36400 23.47700
H  14.22300 -1.71500 21.92500
H  13.14900 0.24600 21.08100
H  14.07200 1.14500 22.36400
H  12.57300 0.47900 22.75700
H  12.46500 2.15600 26.04200
H  13.66500 3.34400 26.03800
H  12.42500 3.34000 27.42800
H  14.14400 0.80000 31.81500
H  15.94000 4.64700 32.77700
H  16.93300 3.43900 33.53300
H  15.52900 3.90800 34.37200

