158

Mg 1.59400 -2.95900 45.00900
C  4.93300 -2.07600 44.32900
C  0.66800 -0.43000 42.97300
C  -1.49600 -4.37300 44.89100
C  2.75500 -5.82000 46.81200
N  2.79900 -1.46100 43.75800
C  4.12700 -1.34000 43.55800
C  4.34300 -0.19200 42.47800
C  2.90000 0.44100 42.30700
C  2.05200 -0.51900 43.17700
C  2.75900 1.88900 42.79600
C  4.83900 -0.69400 41.18300
C  5.98600 0.13300 40.49500
H  5.50400 0.85100 39.19800
N  -0.19900 -2.46500 44.09800
C  -0.34400 -1.34400 43.35800
C  -1.74800 -1.25800 42.92100
C  -2.40400 -2.39300 43.45500
C  -1.39200 -3.15700 44.20200
C  -2.37700 -0.14500 42.10200
C  -3.87500 -2.66000 43.31200
O  -4.57900 -1.88400 42.70700
C  -4.52700 -3.89500 44.02400
N  0.65500 -4.75200 45.79500
C  -0.62100 -5.13300 45.65600
C  -0.88700 -6.54800 46.00000
C  0.45400 -6.92600 46.89800
C  1.36700 -5.72800 46.54300
C  -2.14600 -6.85600 46.83800
C  1.10600 -8.30800 46.43000
C  1.48900 -9.21200 47.66300
N  3.40700 -3.82100 45.53300
C  3.74800 -4.92500 46.22300
C  5.19200 -4.99500 46.43700
C  5.67500 -3.87600 45.75300
C  4.54700 -3.22000 45.21200
C  5.99600 -6.07200 47.09500
C  6.93300 -3.16400 45.32200
O  8.07600 -3.43400 45.58500
C  6.47700 -2.12800 44.27100
C  6.99000 -0.85700 44.70600
O  6.95300 -0.48700 45.88100
O  7.70900 -0.26100 43.72900
C  8.45200 0.94400 44.02300
H  0.25600 0.37400 42.35800
H  -2.42300 -4.92800 44.73100
H  3.13100 -6.66800 47.38700
H  5.05500 0.51700 42.90000
H  2.63400 0.26700 41.26500
H  2.17500 2.16200 43.67500
H  2.38000 2.48300 41.96500
H  3.73200 2.21500 43.16200
H  4.06900 -0.80800 40.42100
H  5.28000 -1.66300 41.41400
H  6.81700 -0.52000 40.22700
H  6.38100 0.91700 41.14100
H  -3.12000 0.43900 42.64600
H  -2.86900 -0.61800 41.25200
H  -1.65200 0.51400 41.62500
H  -4.17700 -4.83000 43.58700
H  -5.61600 -3.91400 44.08200
H  -4.19300 -3.98100 45.05800
H  -0.74200 -7.10300 45.07300
H  0.25500 -6.87900 47.96900
H  -2.64500 -7.72700 46.41200
H  -2.76900 -5.96200 46.85300
H  -1.79000 -7.03200 47.85300
H  2.03300 -8.14800 45.87800
H  0.43300 -8.88700 45.79800
H  2.55900 -9.12100 47.84800
H  1.38300 -10.28600 47.50800
H  0.86900 -8.95400 48.52100
H  5.93300 -6.96700 46.47700
H  5.73400 -6.32700 48.12200
H  7.04400 -5.78200 47.17200
H  6.78600 -2.36000 43.25200
H  7.80400 1.80800 43.87900
H  9.28200 1.03300 43.32300
H  8.77000 0.97600 45.06600
Mg 1.97800 41.61800 25.18500
C  2.52500 42.15600 28.52500
C  -0.95000 40.01000 25.92700
C  1.46100 41.30000 21.88400
C  5.19600 42.73400 24.56900
N  0.75100 41.30200 27.05300
C  1.26300 41.56000 28.26200
C  0.26000 41.17400 29.32700
C  -0.74000 40.17200 28.58000
C  -0.36600 40.54000 27.11300
C  -0.72100 38.68900 28.98200
C  -0.49100 42.32400 29.97500
C  -0.32600 42.64700 31.46400
H  -0.86800 41.64500 32.47400
N  0.34700 40.84100 24.08400
C  -0.72300 40.18600 24.54400
C  -1.57200 39.79800 23.42900
C  -0.94200 40.26300 22.20000
C  0.32300 40.86600 22.65100
C  -2.95000 39.27600 23.69100
C  -1.57200 40.33500 20.83300
O  -1.01100 40.81400 19.83900
C  -2.88900 39.72500 20.62300
N  3.25100 41.72700 23.50300
C  2.72200 41.73100 22.28000
C  3.77200 42.17300 21.24300
C  4.92400 42.78300 22.09600
C  4.40800 42.44600 23.45800
C  4.14500 41.05800 20.28200
C  5.04400 44.34100 21.73000
C  3.72600 45.24900 21.89900
N  3.63300 42.19500 26.29600
C  4.85600 42.67000 25.86600
C  5.68400 43.00600 27.09100
C  4.73300 42.88100 28.10600
C  3.50700 42.47400 27.58500
C  7.10300 43.52900 27.08800
C  4.57900 43.09400 29.53200
O  5.32100 43.56500 30.38900
C  3.13100 42.56700 29.86000
C  3.34900 41.27500 30.61000
O  4.05400 40.39300 30.27400
O  2.66500 41.29900 31.82000
C  2.83500 40.13000 32.71400
H  -1.87200 39.47400 26.16100
H  1.27200 41.29800 20.80800
H  6.14200 43.21200 24.30400
H  0.76700 40.61900 30.11600
H  -1.75200 40.56900 28.66500
H  0.00900 38.52200 29.77400
H  -0.46800 38.02700 28.15400
H  -1.67700 38.27200 29.29900
H  -1.56600 42.25800 29.80700
H  -0.24400 43.18400 29.35300
H  -0.77800 43.62600 31.62700
H  0.74500 42.64100 31.66300
H  -3.68100 40.03500 23.40900
H  -3.10300 38.98300 24.72900
H  -3.09200 38.40900 23.04600
H  -3.64100 40.08500 21.32500
H  -2.70600 38.65300 20.69900
H  -3.17000 39.88000 19.58200
H  3.27500 42.96900 20.68800
H  5.87600 42.32000 21.83500
H  5.08500 41.08800 19.73100
H  3.35000 40.91300 19.55000
H  4.22900 40.12900 20.84500
H  5.57100 44.50300 20.79000
H  5.77200 44.70200 22.45600
H  3.88000 45.98200 22.69100
H  2.85800 44.60700 22.05000
H  3.58000 45.83100 20.98900
H  7.82800 42.71600 27.12800
H  7.10400 44.16800 27.97100
H  7.30300 44.13400 26.20400
H  2.68700 43.33400 30.49500
H  2.88000 39.14800 32.24200
H  1.95000 40.06000 33.34700
H  3.70400 40.24100 33.36300

