158

Mg 1.34300 -0.74900 43.87100
C  4.76300 -0.18800 43.23400
C  0.65100 2.13900 42.25100
C  -1.70700 -1.74100 43.57700
C  2.37200 -4.04900 44.88800
N  2.65400 0.71400 42.91000
C  4.02800 0.81500 42.78700
C  4.39600 2.12500 42.02600
C  3.07400 2.85100 41.81900
C  1.99900 1.84500 42.38900
C  2.95100 4.14000 42.68700
C  5.35300 2.00800 40.77700
C  5.09000 0.88500 39.74900
H  5.41700 1.26400 38.31200
N  -0.33000 0.12500 43.19100
C  -0.42700 1.28500 42.56600
C  -1.79900 1.63800 42.39800
C  -2.55200 0.52500 42.87500
C  -1.48500 -0.42900 43.21000
C  -2.34400 2.91300 41.78800
C  -4.04100 0.46500 43.09100
O  -4.72700 1.46800 43.04400
C  -4.94000 -0.72900 43.61800
N  0.55200 -2.65200 43.88100
C  -0.79200 -2.68100 43.92500
C  -1.24600 -4.08800 44.34800
C  -0.03900 -4.70300 45.07500
C  1.00600 -3.78300 44.52100
C  -2.59600 -4.19900 45.23100
C  0.14500 -6.24700 44.92100
C  0.37200 -7.05600 46.21200
N  3.19100 -1.86900 44.24300
C  3.42000 -3.10200 44.72500
C  4.81700 -3.28400 44.99800
C  5.36000 -2.13500 44.40000
C  4.34500 -1.32400 43.89100
C  5.55700 -4.45600 45.61300
C  6.63300 -1.53900 44.07500
O  7.79500 -1.90100 44.29300
C  6.28100 -0.28000 43.25800
C  7.03400 0.89300 43.88500
O  6.57100 1.50300 44.82600
O  8.27800 1.05100 43.41800
C  9.19100 1.85900 44.26000
H  0.35300 3.09300 41.80900
H  -2.77600 -1.95300 43.64500
H  2.64300 -4.93900 45.46100
H  5.03500 2.57000 42.78900
H  3.05800 2.98700 40.73800
H  2.16500 4.03000 43.43400
H  2.63900 4.98100 42.06900
H  3.90900 4.39900 43.13800
H  6.36700 1.84200 41.14000
H  5.31200 3.02500 40.38900
H  4.09000 0.45800 39.83200
H  5.63500 -0.01200 40.04300
H  -3.36900 2.73300 41.46400
H  -1.70800 3.24000 40.96500
H  -2.63800 3.70600 42.47500
H  -4.80700 -1.57100 42.93800
H  -5.98800 -0.44600 43.51600
H  -4.55400 -0.87800 44.62600
H  -1.47500 -4.66100 43.45000
H  -0.14000 -4.31700 46.08900
H  -2.53500 -3.32700 45.88300
H  -2.38200 -5.07300 45.84500
H  -3.59700 -4.22700 44.80100
H  1.06800 -6.49100 44.39400
H  -0.65800 -6.73300 44.36600
H  0.41000 -6.39600 47.07900
H  1.20300 -7.76000 46.25500
H  -0.52600 -7.66000 46.34100
H  5.32400 -5.31800 44.98800
H  5.04800 -4.59600 46.56700
H  6.63500 -4.30200 45.63800
H  6.68400 -0.35500 42.24800
H  9.86800 2.49600 43.69000
H  9.71800 1.09900 44.83600
H  8.74200 2.60400 44.91700
Mg 0.55200 42.86900 26.24700
C  2.95000 42.40200 28.88900
C  -1.91300 42.44000 28.55200
C  -1.49900 42.56300 23.71900
C  3.35200 42.61200 23.96200
N  0.54700 42.31600 28.44200
C  1.61000 42.31300 29.31900
C  1.14500 42.17200 30.73400
C  -0.31300 41.78500 30.50100
C  -0.61800 42.32300 29.08600
C  -0.68800 40.32100 30.76900
C  1.25900 43.39000 31.58400
C  1.17300 43.24800 33.08700
H  0.62300 41.95400 33.63500
N  -1.45900 42.69300 26.18500
C  -2.29000 42.67500 27.21600
C  -3.61700 42.95800 26.76600
C  -3.56800 42.90000 25.33900
C  -2.14000 42.70500 24.99300
C  -4.72500 43.16900 27.71200
C  -4.68800 43.00700 24.33300
O  -4.55300 42.87000 23.12400
C  -5.97900 43.36900 24.89000
N  0.86000 42.67700 24.11700
C  -0.15500 42.50900 23.31000
C  0.27700 42.50200 21.80800
C  1.80700 42.75500 21.87100
C  2.07300 42.70900 23.43200
C  -0.20100 41.36400 20.90300
C  2.33800 44.10700 21.25900
C  2.12900 45.49300 21.97400
N  2.69100 42.70400 26.36600
C  3.65900 42.61800 25.32100
C  4.97500 42.54200 25.92100
C  4.71400 42.49700 27.30500
C  3.35100 42.57400 27.53000
C  6.26900 42.46500 25.18000
C  5.34100 42.33600 28.55100
O  6.51200 42.13100 28.73600
C  4.19900 42.38900 29.68800
C  4.34400 41.11000 30.51600
O  4.24000 39.97600 30.06100
O  4.58600 41.49200 31.87500
C  4.70700 40.38100 32.80000
H  -2.63600 42.47800 29.36900
H  -2.19100 42.37700 22.89500
H  4.26200 42.50000 23.36900
H  1.69200 41.35300 31.20200
H  -0.95600 42.36500 31.16200
H  -1.65700 40.25200 31.26300
H  0.00900 39.80000 31.42500
H  -0.74500 39.84900 29.78800
H  0.43900 44.06300 31.33100
H  2.20300 43.85800 31.30500
H  0.62200 44.11300 33.45800
H  2.18400 43.27500 33.49400
H  -5.52700 43.84900 27.42300
H  -4.37400 43.60600 28.64700
H  -5.19500 42.20000 27.87800
H  -6.29800 42.59600 25.59000
H  -6.66200 43.47600 24.04700
H  -5.97900 44.35900 25.34700
H  -0.17800 43.39600 21.38000
H  2.39900 41.92300 21.48900
H  0.50700 41.33900 20.07400
H  -1.21300 41.50800 20.52200
H  -0.10100 40.39200 21.38500
H  1.96900 44.12000 20.23300
H  3.41400 43.95800 21.16600
H  1.20900 45.39900 22.55100
H  2.05200 46.27300 21.21600
H  2.96600 45.78900 22.60600
H  6.25900 43.11500 24.30500
H  6.51700 41.43900 24.90800
H  6.97900 42.91900 25.87100
H  4.24900 43.20200 30.41200
H  5.72700 40.00000 32.76200
H  4.01700 39.55600 32.62200
H  4.56900 40.74600 33.81800

