158

Mg 47.26300 15.28300 28.24600
C  45.19300 14.88600 31.11600
C  49.41900 17.08300 30.30300
C  49.11500 15.87400 25.58100
C  44.96400 13.26200 26.47000
N  47.26700 15.93900 30.40900
C  46.37300 15.54000 31.33200
C  46.70300 16.05400 32.72300
C  47.88800 17.08200 32.37300
C  48.24800 16.58700 31.00400
C  47.58500 18.60100 32.39300
C  47.00500 14.79000 33.66100
C  46.78300 14.99800 35.15900
H  46.88900 16.39200 35.73400
N  49.00800 16.27600 28.01800
C  49.74300 16.91700 28.94000
C  51.02500 17.25100 28.33300
C  51.01200 16.86800 26.95700
C  49.65200 16.38800 26.78400
C  51.97500 18.07300 29.13500
C  52.05800 17.01600 25.95500
O  51.89500 16.78000 24.75700
C  53.37200 17.50100 26.48200
N  46.97700 14.76200 26.31400
C  47.92300 15.11200 25.35300
C  47.54500 14.59700 23.93300
C  46.47200 13.51000 24.40500
C  46.08100 13.88500 25.79100
C  47.06200 15.65600 22.92500
C  47.03100 12.02200 24.57900
C  46.16700 10.83200 24.34500
N  45.40500 14.25500 28.67100
C  44.62100 13.52000 27.82400
C  43.45800 13.08300 28.63000
C  43.61100 13.66300 29.89800
C  44.83100 14.30100 29.87800
C  42.35100 12.11800 28.15100
C  43.03900 13.82100 31.25200
O  41.92400 13.49400 31.67700
C  44.07700 14.67300 32.06900
C  43.41400 15.87100 32.49400
O  42.85700 16.63300 31.76300
O  43.35700 15.94800 33.84500
C  42.60300 17.02800 34.40500
H  50.15100 17.54600 30.96900
H  49.63800 16.07400 24.64300
H  44.41000 12.61400 25.78700
H  45.90100 16.68300 33.10900
H  48.67300 16.88400 33.10300
H  46.67800 18.75200 32.97700
H  47.39100 18.99400 31.39500
H  48.40200 19.16000 32.84800
H  48.02200 14.49200 33.40600
H  46.42500 13.89800 33.42400
H  47.39300 14.26400 35.68600
H  45.73300 14.71200 35.22300
H  51.40900 18.68400 29.83800
H  52.45900 18.79600 28.47900
H  52.75100 17.44100 29.56600
H  54.19400 17.15600 25.85400
H  53.61500 17.03500 27.43600
H  53.59000 18.56900 26.45600
H  48.34800 14.02200 23.47300
H  45.55500 13.48600 23.81700
H  46.05800 15.40400 22.58300
H  47.75000 15.80100 22.09200
H  47.13200 16.54900 23.54600
H  47.38300 11.83300 25.59300
H  47.82500 11.99400 23.83400
H  45.19600 11.25000 24.08000
H  46.14000 10.19500 25.22900
H  46.41800 10.18400 23.50500
H  42.68200 11.48700 27.32600
H  41.49000 12.73000 27.88000
H  42.08100 11.47700 28.99000
H  44.35000 13.94800 32.83700
H  41.73400 17.20500 33.77200
H  43.23500 17.91400 34.33600
H  42.29800 16.74400 35.41200
Mg 25.85600 50.18000 25.68500
C  23.97800 51.18300 28.32900
C  28.19600 48.85400 27.99000
C  27.85300 49.32000 23.15700
C  23.67900 51.63700 23.41000
N  26.11800 50.13400 27.92700
C  25.13600 50.60000 28.81600
C  25.58500 50.43500 30.29600
C  26.89900 49.62600 30.09500
C  27.12400 49.54800 28.58800
C  28.03000 50.12900 30.95000
C  24.46200 49.79600 31.15200
C  24.79700 49.04000 32.44600
H  24.09100 49.56800 33.69300
N  27.70100 49.22700 25.57300
C  28.50200 48.75400 26.61600
C  29.72200 48.19300 26.06200
C  29.71200 48.54900 24.66800
C  28.35100 49.07700 24.42100
C  30.71800 47.49600 26.87500
C  30.87500 48.39200 23.67800
O  30.82000 48.74200 22.53000
C  32.19700 47.88100 24.16700
N  25.66600 50.31900 23.55400
C  26.65300 49.77900 22.70100
C  26.30000 50.10700 21.26100
C  24.81000 50.77900 21.38700
C  24.68000 50.94300 22.90100
C  27.35600 51.02700 20.53800
C  23.59500 49.91700 20.85600
C  23.57700 49.82200 19.30600
N  24.24300 51.21500 25.77900
C  23.45700 51.78700 24.82700
C  22.24500 52.32400 25.47300
C  22.43200 52.15500 26.85100
C  23.64900 51.48800 27.01800
C  21.07500 52.95500 24.74400
C  21.81100 52.34100 28.13700
O  20.73200 52.74500 28.49700
C  22.83800 51.69600 29.19300
C  23.21300 52.84100 30.10900
O  24.09400 53.66800 29.99400
O  22.30900 52.64700 31.24600
C  22.60300 53.63100 32.31100
H  28.83200 48.43900 28.77500
H  28.58500 49.01400 22.40600
H  22.91400 52.09200 22.77800
H  25.77000 51.41900 30.72700
H  26.66100 48.60200 30.38200
H  28.82500 50.32100 30.22900
H  28.44500 49.41100 31.65700
H  27.73400 51.01300 31.51400
H  23.97600 49.14700 30.42400
H  23.94600 50.69900 31.47900
H  25.85800 49.24100 32.59900
H  24.53800 47.98600 32.34500
H  30.31700 47.28800 27.86700
H  31.68800 47.99100 26.92400
H  30.84000 46.49500 26.46200
H  32.12600 46.89800 24.63300
H  32.58600 48.55800 24.92700
H  32.92000 47.96500 23.35600
H  26.16600 49.15900 20.74000
H  24.89300 51.73700 20.87200
H  28.26700 51.28900 21.07700
H  26.98000 51.94800 20.09300
H  27.75400 50.59500 19.62000
H  22.60400 50.31500 21.07400
H  23.77300 48.94600 21.32000
H  23.64000 48.80100 18.92900
H  24.32400 50.42600 18.79100
H  22.68900 50.11100 18.74500
H  20.88000 52.41200 23.81900
H  21.21400 53.96800 24.36700
H  20.09900 52.80100 25.20400
H  22.32700 50.90800 29.74700
H  22.96400 54.60400 31.98000
H  23.29400 53.24200 33.06000
H  21.74900 53.82200 32.96000

