158

Mg 35.20100 0.49200 29.46700
C  32.97500 1.37700 32.02200
C  37.74600 0.38600 31.72700
C  37.36200 -0.54700 27.04000
C  32.70200 0.76500 27.16200
N  35.26200 0.88500 31.53600
C  34.27300 1.18200 32.43600
C  34.74200 1.18600 33.81000
C  36.25500 1.04900 33.68800
C  36.44300 0.70000 32.17800
C  37.08800 2.31000 34.03200
C  34.12900 0.10200 34.72000
C  34.05800 0.31600 36.24900
H  34.93400 1.49400 36.80900
N  37.29700 -0.14100 29.45800
C  38.16500 0.02000 30.44600
C  39.49300 -0.38400 30.00500
C  39.35200 -0.66600 28.62100
C  37.93800 -0.49000 28.32900
C  40.68800 -0.27100 30.95000
C  40.41100 -1.14700 27.62900
O  40.13600 -1.21800 26.40400
C  41.71700 -1.47800 28.09700
N  34.97400 0.02400 27.36900
C  36.05800 -0.36900 26.59400
C  35.59400 -0.61200 25.15000
C  34.04700 -0.25800 25.22600
C  33.89800 0.28000 26.62200
C  36.45200 0.10300 24.09500
C  33.13700 -1.46200 24.84800
C  32.81600 -2.49600 25.94400
N  33.34900 1.18100 29.46100
C  32.40400 1.27300 28.48400
C  31.14300 1.69000 29.03300
C  31.26900 1.72600 30.39200
C  32.63300 1.39300 30.63800
C  29.84800 1.93000 28.25900
C  30.65700 1.93100 31.63600
O  29.53200 2.21100 32.02000
C  31.72600 1.71400 32.79800
C  31.79400 2.88500 33.62400
O  31.91400 4.00800 33.28000
O  31.55800 2.43300 34.94100
C  31.38500 3.51800 35.92700
H  38.55700 0.31000 32.45300
H  37.99000 -0.94700 26.24200
H  31.92200 0.88600 26.40700
H  34.51000 2.17700 34.20100
H  36.53200 0.25200 34.37800
H  36.71800 2.96700 34.81800
H  36.92500 2.81400 33.07900
H  38.13300 2.04800 34.19500
H  34.53200 -0.86900 34.43300
H  33.10300 -0.02000 34.37400
H  34.32100 -0.64200 36.69700
H  33.02500 0.55700 36.50000
H  41.60300 0.05400 30.45500
H  40.82100 -1.17700 31.54100
H  40.52600 0.47200 31.73000
H  41.61600 -2.19200 28.91400
H  42.34700 -0.59500 28.21400
H  42.24900 -1.98400 27.29100
H  35.81000 -1.67500 25.04800
H  33.80800 0.44600 24.42900
H  37.32800 -0.51900 23.91200
H  36.86600 1.06600 24.39400
H  35.80600 0.17500 23.22000
H  33.62100 -1.91300 23.98200
H  32.18700 -1.17100 24.39900
H  31.74200 -2.47200 26.12600
H  33.46300 -2.30600 26.80100
H  33.17200 -3.47500 25.62300
H  29.95500 1.61400 27.22100
H  29.68400 3.00700 28.24700
H  29.04800 1.37100 28.74300
H  31.36800 0.79700 33.26600
H  30.35900 3.74500 36.21900
H  32.02500 4.39800 35.85400
H  31.85500 3.10300 36.81900
Mg 35.22500 49.17000 25.19800
C  35.31400 47.79500 28.40900
C  33.89800 52.04100 26.63300
C  34.51500 50.21600 22.03600
C  36.29300 46.11500 23.88900
N  34.61500 49.73400 27.27600
C  34.80800 49.09100 28.45500
C  34.29800 49.89700 29.69000
C  33.89600 51.31800 29.09300
C  34.17500 51.04400 27.58300
C  32.51200 51.89100 29.50300
C  35.28300 49.94600 30.85500
C  34.78500 49.67900 32.31000
H  34.88400 50.74000 33.42600
N  34.33600 50.98200 24.45600
C  33.89600 52.05300 25.17200
C  33.41700 53.03600 24.27900
C  33.67400 52.55100 22.91500
C  34.18300 51.18500 23.09000
C  32.90400 54.37100 24.83900
C  33.55700 53.27500 21.61100
O  33.89800 52.78700 20.50500
C  33.01100 54.57000 21.56700
N  35.58400 48.39700 23.28700
C  35.15100 48.99800 22.20100
C  35.60100 48.19100 20.97100
C  36.28300 46.93600 21.51100
C  36.10300 47.15800 22.98100
C  34.43000 47.83900 20.00500
C  37.75000 46.82800 21.14200
C  38.68500 47.93400 21.72500
N  35.81300 47.31000 25.90200
C  36.17100 46.18100 25.30900
C  36.38000 45.11500 26.29000
C  36.20500 45.74800 27.46600
C  35.69600 47.07900 27.24500
C  36.74500 43.62700 26.01400
C  36.31300 45.57100 28.93400
O  36.76100 44.68000 29.65500
C  35.58100 46.83700 29.55200
C  34.34600 46.39500 30.23900
O  33.21700 46.32600 29.78600
O  34.64700 45.95300 31.48900
C  33.57200 45.24600 32.28600
H  33.51000 52.97100 27.05300
H  34.39000 50.45800 20.97800
H  36.61200 45.14800 23.49300
H  33.38200 49.39300 29.99600
H  34.72700 51.96700 29.36800
H  31.97100 51.03100 29.89800
H  32.06300 52.36700 28.63200
H  32.63500 52.62800 30.29700
H  35.80100 50.89200 31.00800
H  36.05600 49.24000 30.54900
H  35.61500 49.05100 32.63400
H  33.83300 49.16700 32.44200
H  32.79300 54.34800 25.92400
H  31.90100 54.51600 24.43800
H  33.50500 55.18000 24.42300
H  33.73800 55.18800 22.09400
H  32.08800 54.52000 22.14400
H  32.73400 54.88500 20.56100
H  36.34400 48.67600 20.33800
H  35.59600 46.11100 21.32200
H  33.47300 48.32500 20.19200
H  34.29600 46.76000 19.91700
H  34.73100 48.30700 19.06800
H  37.98600 46.80600 20.07800
H  38.08000 45.84200 21.47000
H  39.38500 47.62500 22.50100
H  38.26600 48.88300 22.06200
H  39.34800 48.22200 20.90900
H  37.79200 43.46200 26.26700
H  36.58900 43.32600 24.97800
H  36.17700 42.88000 26.56900
H  36.27300 47.19300 30.31600
H  33.28900 44.32500 31.77700
H  32.63100 45.79500 32.25400
H  33.85100 45.17100 33.33700

