158

Mg 47.37800 15.65400 27.49900
C  45.48200 16.08100 30.41400
C  49.94300 17.53600 28.96800
C  48.94100 15.79000 24.59700
C  44.66100 14.17800 25.99800
N  47.64100 16.74700 29.45600
C  46.78300 16.55200 30.55000
C  47.53900 17.07900 31.80900
C  48.81400 17.80000 31.26700
C  48.85100 17.35600 29.79600
C  48.89500 19.26500 31.46300
C  47.81000 16.00100 32.92400
C  47.45200 16.38600 34.40000
H  47.43500 17.90200 34.82200
N  49.31500 16.35200 26.96000
C  50.21500 17.10600 27.66400
C  51.40900 17.30700 26.86700
C  51.06600 16.79900 25.56600
C  49.71600 16.30700 25.66100
C  52.69300 17.95300 27.40400
C  51.92000 16.66700 24.31400
O  51.49700 16.23000 23.27500
C  53.43400 17.08700 24.39900
N  46.99800 14.89500 25.55600
C  47.81400 15.03500 24.53000
C  47.12000 14.76700 23.19400
C  45.91200 13.89400 23.66000
C  45.82200 14.28100 25.14100
C  46.68300 16.06100 22.47100
C  46.15500 12.40600 23.47500
C  46.60900 11.59600 24.62100
N  45.45400 15.26900 28.02200
C  44.50800 14.58600 27.35700
C  43.28500 14.57900 28.15200
C  43.64500 15.09100 29.41200
C  44.95600 15.51300 29.22500
C  41.89900 13.93500 27.75700
C  43.19700 15.30400 30.74600
O  42.13400 15.02000 31.27800
C  44.41400 15.98300 31.47200
C  44.09200 17.22500 32.31300
O  43.95000 18.34600 31.94900
O  43.71900 16.75300 33.52500
C  43.21000 17.84000 34.43300
H  50.79400 18.02400 29.44800
H  49.38800 15.98400 23.62000
H  43.72300 13.78700 25.60000
H  46.99000 17.88200 32.30100
H  49.64100 17.41400 31.86200
H  47.92000 19.71200 31.65700
H  49.23800 19.72700 30.53700
H  49.54200 19.52100 32.30100
H  48.85600 15.69500 32.91400
H  47.22800 15.11600 32.66700
H  48.12600 15.91600 35.11600
H  46.42100 16.04600 34.50100
H  53.40000 17.15300 27.62400
H  52.45000 18.73800 28.12000
H  53.00700 18.57400 26.56500
H  53.58600 18.15800 24.53500
H  53.90100 16.61700 23.53400
H  53.78900 16.54400 25.27500
H  47.88000 14.18000 22.67900
H  44.97000 14.16700 23.18600
H  47.32400 16.27600 21.61700
H  46.75000 16.95100 23.09700
H  45.67600 15.98500 22.06000
H  46.98100 12.20700 22.79200
H  45.30800 12.03000 22.90000
H  47.04700 10.68600 24.21200
H  45.78200 11.13400 25.16000
H  47.32800 12.05000 25.30300
H  42.05200 12.86700 27.60100
H  41.46100 14.43100 26.89100
H  41.14300 14.02900 28.53700
H  44.62900 15.17100 32.16700
H  42.20700 18.15400 34.14600
H  43.91100 18.65500 34.25200
H  43.26900 17.64900 35.50500
Mg -1.69600 34.03800 26.45600
C  -3.55300 32.84200 29.26300
C  -0.65900 36.61500 28.57600
C  -0.15000 35.28700 23.91700
C  -3.38200 31.72100 24.60800
N  -1.92300 34.56600 28.62900
C  -2.66100 33.90500 29.58100
C  -2.65300 34.54000 31.02300
C  -1.70200 35.79000 30.71100
C  -1.40600 35.67500 29.19700
C  -2.25300 37.20600 31.11400
C  -2.12300 33.63000 32.11200
C  -2.93000 33.54500 33.40000
H  -2.57200 34.60800 34.43500
N  -0.52000 35.72100 26.24500
C  -0.29400 36.72400 27.18800
C  0.50500 37.74700 26.58400
C  0.83400 37.26000 25.29000
C  0.08900 36.00700 25.11600
C  0.97300 39.07000 27.34200
C  1.66000 37.88500 24.25200
O  1.84500 37.37700 23.12900
C  2.48000 39.15200 24.59200
N  -1.81900 33.55600 24.49000
C  -0.98600 34.17200 23.65100
C  -1.12800 33.50100 22.29500
C  -2.08300 32.27200 22.46500
C  -2.40000 32.46800 23.93000
C  -1.55400 34.53900 21.17700
C  -1.39900 30.86400 22.15200
C  -2.46900 29.89500 21.58800
N  -3.07600 32.51600 26.83700
C  -3.65300 31.60400 25.99700
C  -4.54400 30.80700 26.64600
C  -4.54300 31.24700 27.94000
C  -3.64000 32.31400 28.00700
C  -5.39800 29.66400 26.08200
C  -5.17200 31.01700 29.22800
O  -5.94800 30.19200 29.59700
C  -4.50700 32.07100 30.20200
C  -5.50000 32.93100 30.79300
O  -5.85300 34.04500 30.40300
O  -6.09000 32.26500 31.87600
C  -7.06000 33.05800 32.61000
H  -0.43200 37.49500 29.18200
H  0.45000 35.63300 23.07300
H  -4.00600 31.07200 23.99000
H  -3.68800 34.85200 31.16600
H  -0.77800 35.72100 31.28500
H  -3.08500 37.07400 31.80500
H  -2.58900 37.84800 30.30000
H  -1.53700 37.74400 31.73400
H  -1.12300 33.97600 32.37300
H  -2.03500 32.59800 31.77100
H  -2.76100 32.56800 33.85200
H  -4.00600 33.68900 33.30000
H  0.84500 39.89200 26.63800
H  1.97800 38.89800 27.72800
H  0.23600 39.08300 28.14500
H  1.78600 39.97900 24.74100
H  3.10300 39.53000 23.78100
H  3.03000 38.87100 25.49000
H  -0.10400 33.17600 22.10900
H  -2.99400 32.48800 21.90800
H  -2.21700 34.06900 20.45100
H  -0.59800 34.81700 20.73400
H  -2.06800 35.44300 21.50400
H  -0.88800 30.42500 23.00900
H  -0.71800 31.08800 21.33000
H  -2.32300 28.99700 22.18800
H  -2.27300 29.73800 20.52700
H  -3.47900 30.27300 21.75200
H  -5.26000 29.53500 25.00900
H  -6.36800 29.86700 26.53600
H  -5.01400 28.76600 26.56600
H  -3.94500 31.39200 30.84300
H  -7.12200 32.49700 33.54200
H  -7.84100 32.93300 31.86000
H  -6.63300 34.04900 32.76400

