158

Mg 9.00700 48.79600 25.89200
C  6.91400 49.02800 28.64500
C  11.74200 49.79400 27.96600
C  11.15200 48.33000 23.35600
C  6.35100 48.23600 23.84900
N  9.30600 49.40500 28.05400
C  8.31800 49.20800 29.02000
C  8.95400 49.46200 30.44200
C  10.40100 50.06500 30.10500
C  10.51800 49.75900 28.61300
C  10.67000 51.57500 30.49000
C  9.11800 48.24100 31.43400
C  8.80700 48.50500 32.86800
H  8.58500 47.28800 33.66800
N  11.12100 49.02400 25.63400
C  12.02900 49.47200 26.63600
C  13.40100 49.43300 26.06200
C  13.27800 48.95500 24.72600
C  11.81100 48.73500 24.49100
C  14.66900 49.81700 26.80300
C  14.37900 48.72200 23.70000
O  14.10300 48.20600 22.63400
C  15.89100 49.03400 24.00500
N  8.75900 48.63000 23.80800
C  9.73100 48.26000 23.03800
C  9.24300 47.80200 21.62600
C  7.68300 47.84900 21.75900
C  7.59500 48.27900 23.22700
C  9.83000 48.77900 20.46600
C  6.95300 46.50800 21.48000
C  5.64500 46.72800 20.70900
N  7.05800 48.65200 26.08700
C  6.04500 48.44500 25.16900
C  4.75700 48.40900 25.80400
C  5.03400 48.70400 27.23200
C  6.43400 48.77500 27.31500
C  3.52600 48.09000 25.08700
C  4.45900 48.89400 28.54900
O  3.28400 48.78400 28.98000
C  5.68900 49.10900 29.50400
C  5.58600 48.06200 30.52600
O  5.76800 46.88700 30.43800
O  5.23300 48.76600 31.74800
C  4.91400 47.98900 32.94200
H  12.47200 50.12400 28.70800
H  11.87500 48.05200 22.58600
H  5.46700 48.11400 23.21900
H  8.38700 50.19000 31.02300
H  11.25200 49.62200 30.62200
H  11.16100 51.68100 31.45700
H  9.66200 51.94300 30.67900
H  11.09600 52.18600 29.69400
H  10.12600 47.84000 31.54100
H  8.54900 47.39300 31.05200
H  7.89900 49.09900 32.97600
H  9.58700 49.11100 33.33000
H  15.25400 48.91800 26.99400
H  14.45600 50.33300 27.74000
H  15.19400 50.58000 26.22800
H  16.41700 49.02500 23.05100
H  16.30400 48.32300 24.72100
H  15.93700 50.03400 24.43700
H  9.70700 46.81800 21.56700
H  7.12000 48.54500 21.13700
H  9.35400 49.74600 20.62400
H  9.69800 48.33300 19.48000
H  10.90800 48.84800 20.61500
H  6.81300 45.82500 22.31800
H  7.59600 45.83200 20.91600
H  5.77900 46.05900 19.85900
H  5.56600 47.75900 20.36400
H  4.75300 46.47400 21.28200
H  3.21500 48.91000 24.43900
H  2.94400 47.77400 25.95300
H  3.73400 47.26700 24.40300
H  5.49700 50.10000 29.91600
H  5.83700 47.47900 33.21800
H  4.15400 47.25200 32.68200
H  4.52100 48.54600 33.79200
Mg -2.58600 35.25300 26.61400
C  -4.31700 33.84700 29.33500
C  -1.25300 37.57900 28.85400
C  -1.20800 36.81800 24.02500
C  -3.98900 32.93900 24.55000
N  -2.71000 35.61900 28.93400
C  -3.50900 34.98700 29.77200
C  -3.26300 35.47600 31.27000
C  -2.32000 36.73800 31.07600
C  -2.12100 36.70300 29.51300
C  -2.60600 38.10200 31.68300
C  -2.79800 34.31000 32.19800
C  -2.30600 34.71800 33.63700
H  -3.31600 34.41400 34.74000
N  -1.33700 36.93600 26.43700
C  -0.92400 37.73700 27.49600
C  -0.05700 38.78300 26.89800
C  -0.09500 38.59100 25.43800
C  -0.95000 37.41000 25.20100
C  0.69500 39.77200 27.68200
C  0.55500 39.30800 24.32200
O  0.51700 39.01100 23.15800
C  1.48000 40.47000 24.60000
N  -2.78600 35.07100 24.64100
C  -2.05200 35.78300 23.67800
C  -2.12300 35.16900 22.34400
C  -2.59200 33.73400 22.61500
C  -3.20100 33.91600 24.02200
C  -3.11400 35.95700 21.34900
C  -1.39700 32.75700 22.69500
C  -1.71400 31.37400 22.11100
N  -3.93000 33.67000 26.82400
C  -4.38100 32.80900 25.89300
C  -5.22800 31.85000 26.52300
C  -5.25700 32.17700 27.89700
C  -4.38800 33.32800 28.01700
C  -6.02000 30.77200 25.76600
C  -5.71100 31.80600 29.20700
O  -6.53900 31.00800 29.56600
C  -5.15300 32.87100 30.18400
C  -6.15000 33.53700 31.10300
O  -6.59000 34.70600 31.02400
O  -6.40500 32.71200 32.07200
C  -7.36400 33.16700 33.05200
H  -0.77300 38.33500 29.47900
H  -0.69800 37.16500 23.12400
H  -4.35400 32.23900 23.79600
H  -4.21100 35.81600 31.68800
H  -1.33100 36.57300 31.50400
H  -3.52300 38.02300 32.26600
H  -2.68100 38.92800 30.97500
H  -1.70700 38.36600 32.24000
H  -2.04900 33.71300 31.67700
H  -3.67200 33.68200 32.37200
H  -2.09500 35.78400 33.72200
H  -1.38900 34.18600 33.89300
H  1.71100 39.41000 27.84000
H  0.35100 39.98000 28.69500
H  0.76300 40.77700 27.26500
H  0.94400 41.33800 24.98300
H  1.95300 40.74300 23.65600
H  2.24000 40.19700 25.33200
H  -1.15500 35.15800 21.84200
H  -3.30000 33.39600 21.85800
H  -3.15900 37.03200 21.52300
H  -4.11800 35.56400 21.50800
H  -2.91000 35.74400 20.30000
H  -1.09600 32.55000 23.72200
H  -0.52000 33.13100 22.16700
H  -0.89400 31.23100 21.40600
H  -2.63900 31.18000 21.56800
H  -1.59900 30.59600 22.86600
H  -6.66200 30.31400 26.51900
H  -5.39100 29.96000 25.40000
H  -6.61300 31.30000 25.02000
H  -4.48800 32.30300 30.83500
H  -8.29400 33.24700 32.48800
H  -7.18500 34.15900 33.46600
H  -7.50200 32.47900 33.88600

