158

Mg 36.44800 0.51000 30.16000
C  34.59400 1.85100 32.71000
C  39.13800 0.33100 32.11200
C  38.12400 -0.55600 27.35300
C  33.54200 0.78300 28.09100
N  36.71300 0.99400 32.15400
C  35.85100 1.42700 33.04000
C  36.50300 1.69900 34.37900
C  38.08400 1.71600 34.00800
C  37.98100 0.92900 32.72200
C  38.80500 3.04800 34.10100
C  36.08400 0.51900 35.36200
C  35.37900 0.90100 36.68700
H  35.83900 2.09900 37.45200
N  38.29400 -0.17100 29.83400
C  39.22000 -0.30900 30.83800
C  40.37600 -0.98100 30.31800
C  40.15300 -1.06400 28.90900
C  38.79400 -0.61300 28.61500
C  41.54700 -1.33900 31.23000
C  41.19000 -1.57300 27.92500
O  41.02200 -1.55600 26.66700
C  42.54400 -2.00400 28.23800
N  35.89700 0.33900 28.00700
C  36.83100 -0.02500 27.09700
C  36.23800 -0.19200 25.68100
C  34.70600 0.08000 26.00800
C  34.69800 0.48000 27.45900
C  36.89600 0.75800 24.65200
C  33.82000 -1.17400 25.77900
C  33.78600 -1.94400 24.41800
N  34.50000 1.38600 30.23700
C  33.43900 1.40400 29.37400
C  32.37300 2.12200 29.98400
C  32.72400 2.23200 31.31900
C  34.06700 1.79100 31.38600
C  31.03800 2.39800 29.34000
C  32.35400 2.66100 32.56800
O  31.28900 3.19700 32.92300
C  33.45100 2.37400 33.53600
C  33.76500 3.69900 34.19300
O  34.29200 4.71200 33.71400
O  33.04300 3.67000 35.40100
C  33.02300 4.98800 36.04500
H  39.99000 0.21900 32.78600
H  38.68900 -1.02400 26.54400
H  32.60700 0.66600 27.53900
H  36.16700 2.63100 34.83400
H  38.64000 1.16300 34.76500
H  39.66700 3.00200 34.76800
H  38.14000 3.76800 34.57800
H  38.96500 3.41500 33.08700
H  36.88600 -0.21000 35.47200
H  35.28400 -0.09200 34.94500
H  35.51400 -0.00100 37.28300
H  34.30100 1.02000 36.57500
H  41.86300 -2.38300 31.22300
H  41.56900 -0.92300 32.23700
H  42.37400 -0.87100 30.69600
H  42.51900 -2.88400 28.88000
H  42.97100 -1.16800 28.79100
H  43.22500 -2.26700 27.42800
H  36.41400 -1.23100 25.40400
H  34.36400 0.92300 25.40800
H  37.94100 0.97300 24.87400
H  36.38000 1.71500 24.57100
H  36.80400 0.21200 23.71300
H  32.80100 -0.79500 25.85900
H  33.96900 -1.87900 26.59700
H  33.98700 -2.97000 24.72600
H  34.39300 -1.43200 23.67100
H  32.77600 -2.06700 24.02800
H  30.90200 1.89400 28.38300
H  31.01300 3.47000 29.14600
H  30.25000 2.10700 30.03500
H  33.17700 1.74900 34.38600
H  32.43700 5.67100 35.43000
H  34.06300 5.31400 36.07700
H  32.72800 4.98100 37.09500
Mg 47.29900 24.67600 27.67000
C  48.01000 26.97900 30.26800
C  46.58000 22.34300 30.14500
C  46.96800 22.20700 25.31300
C  48.42900 26.89300 25.45600
N  47.32600 24.69900 29.95600
C  47.48000 25.76200 30.78600
C  47.10400 25.50300 32.27000
C  46.99000 23.91900 32.21800
C  46.97000 23.62200 30.69900
C  47.90000 23.12100 33.08300
C  45.79300 26.21100 32.78800
C  45.97700 27.39300 33.78600
H  46.80400 26.97500 34.99900
N  46.71900 22.60300 27.76600
C  46.52500 21.85300 28.88800
C  46.19500 20.55000 28.53200
C  46.20500 20.42800 27.15800
C  46.58300 21.81500 26.66600
C  45.91000 19.45600 29.59400
C  45.86100 19.21100 26.28000
O  45.99200 19.22900 25.07000
C  45.23800 17.94000 26.88500
N  47.70000 24.48400 25.62200
C  47.41100 23.41300 24.87700
C  47.67800 23.80100 23.40100
C  47.97900 25.36400 23.47900
C  48.07100 25.57400 24.91000
C  48.77200 23.00800 22.59700
C  46.92100 26.35000 22.73500
C  45.62000 26.69500 23.55300
N  48.18700 26.49200 27.78400
C  48.55800 27.28900 26.77300
C  49.07700 28.54500 27.21500
C  48.87200 28.46100 28.55800
C  48.30500 27.21500 28.90700
C  49.70400 29.55700 26.29000
C  49.08500 29.19000 29.79600
O  49.62300 30.29200 29.96000
C  48.40100 28.31800 30.95000
C  49.46400 28.24600 32.02300
O  50.29400 27.35800 32.08300
O  49.25500 29.22400 32.86000
C  50.13000 29.25000 34.04100
H  46.35400 21.70800 31.00500
H  46.93000 21.39700 24.58100
H  48.78200 27.67100 24.77500
H  47.99500 25.88300 32.76900
H  45.93200 23.71100 32.37700
H  48.60700 22.47800 32.55900
H  47.33000 22.50300 33.77700
H  48.46200 23.87100 33.64000
H  45.13200 25.51300 33.30300
H  45.19100 26.56900 31.95300
H  45.01800 27.72100 34.18700
H  46.39000 28.24600 33.24700
H  46.36700 18.51100 29.30200
H  44.89400 19.32500 29.96600
H  46.38800 19.73400 30.53300
H  45.96700 17.44700 27.52800
H  45.00300 17.20600 26.11400
H  44.36000 18.27200 27.44000
H  46.78100 23.73200 22.78500
H  48.95500 25.72300 23.15100
H  49.64000 23.64900 22.43900
H  48.45300 22.77100 21.58200
H  49.06200 22.12100 23.16100
H  46.63700 25.85200 21.80700
H  47.36700 27.32800 22.55500
H  45.70300 27.76100 23.76100
H  45.55200 25.98000 24.37300
H  44.77500 26.57600 22.87400
H  50.39900 30.15100 26.88400
H  49.03400 30.17700 25.69400
H  50.39000 29.15100 25.54600
H  47.52100 28.84900 31.31300
H  51.04900 29.65400 33.61600
H  50.46500 28.31300 34.48600
H  49.61400 29.83600 34.80200

