158

Mg 43.96400 5.11900 47.06700
C  42.04100 8.08200 46.78200
C  41.02200 3.38700 46.56100
C  45.88700 2.39100 46.56100
C  46.90100 7.06700 46.74800
N  41.77200 5.65800 46.77400
C  41.25200 6.90700 46.63500
C  39.75000 6.81500 46.42200
C  39.43100 5.36100 46.83900
C  40.81000 4.74300 46.72100
C  38.79000 5.09700 48.23900
C  39.42700 7.09300 44.93200
C  38.75900 8.42200 44.58300
H  39.29600 9.30100 43.41400
N  43.49100 3.17300 46.77200
C  42.27900 2.63000 46.61700
C  42.38600 1.18400 46.40700
C  43.73300 0.88100 46.68300
C  44.51000 2.19300 46.58800
C  41.28000 0.29900 46.16100
C  44.30100 -0.53100 47.11800
O  43.61600 -1.53800 47.13500
C  45.70800 -0.58000 47.36900
N  46.11500 4.81400 46.52900
C  46.63300 3.52700 46.49800
C  48.21400 3.58000 46.44500
C  48.50000 5.11700 46.45400
C  47.06600 5.67800 46.55800
C  48.92300 2.89500 47.60700
C  49.36200 5.57700 45.24900
C  50.61300 6.33800 45.50400
N  44.49000 7.19400 46.84700
C  45.71400 7.83800 46.86900
C  45.46700 9.28100 46.92300
C  44.02100 9.44800 46.99400
C  43.49800 8.13000 46.90800
C  46.52200 10.37900 46.77300
C  42.91100 10.38200 47.03500
O  42.83500 11.59400 47.14800
C  41.63600 9.54100 46.76200
C  40.71800 9.84200 47.90900
O  40.79400 9.51700 49.12100
O  39.94100 10.78500 47.49800
C  39.09300 11.38300 48.51900
H  40.19000 2.71000 46.35300
H  46.48300 1.48400 46.43900
H  47.88700 7.53600 46.76900
H  39.17200 7.48000 47.06400
H  38.79200 4.85000 46.12000
H  39.36500 4.52900 48.97000
H  37.83700 4.61500 48.02300
H  38.74800 6.10200 48.66000
H  38.84100 6.29300 44.48000
H  40.37800 7.14200 44.40200
H  38.71000 9.05700 45.46800
H  37.74700 8.06600 44.39200
H  40.56900 0.48200 46.96700
H  41.54300 -0.75700 46.09200
H  40.75300 0.63300 45.26700
H  46.26600 -0.65800 46.43600
H  45.98000 -1.46500 47.94400
H  45.99500 0.27700 47.97800
H  48.43000 3.17100 45.45800
H  48.92000 5.44600 47.40400
H  49.31100 1.90300 47.37800
H  48.34600 2.84800 48.53100
H  49.81400 3.47200 47.85500
H  48.74100 6.28100 44.69500
H  49.67800 4.70700 44.67300
H  51.41500 6.08700 44.81100
H  50.89400 6.20700 46.54900
H  50.40600 7.39400 45.32900
H  46.17600 11.28800 46.28000
H  47.33900 9.90200 46.23200
H  46.95200 10.48000 47.76900
H  41.28700 9.96700 45.82200
H  38.83800 12.41500 48.27700
H  39.71200 11.46900 49.41200
H  38.21400 10.76200 48.68900
Mg 10.05500 47.22700 25.87800
C  8.17000 46.97900 28.92700
C  12.67200 48.56700 27.87900
C  11.91900 47.49500 23.19500
C  7.25200 46.24300 24.14800
N  10.41600 47.55200 28.15500
C  9.48900 47.40200 29.16900
C  10.01200 48.00200 30.53200
C  11.29900 48.75000 30.07800
C  11.46700 48.30400 28.63500
C  11.09900 50.27600 30.08800
C  10.21400 46.95100 31.72500
C  9.49200 47.27000 33.04300
H  9.41600 46.11400 34.13000
N  12.09800 47.87200 25.60600
C  13.02100 48.28900 26.53700
C  14.31600 48.32400 25.91500
C  14.06800 48.05100 24.53400
C  12.68500 47.80300 24.37100
C  15.54300 48.65200 26.68600
C  14.94000 48.04700 23.43400
O  14.60200 48.08900 22.24700
C  16.39100 47.91900 23.69400
N  9.54700 46.99600 23.99000
C  10.57400 47.14900 23.06800
C  10.03500 46.53600 21.75000
C  8.65000 45.91200 22.07000
C  8.49700 46.33500 23.45800
C  10.03800 47.54300 20.55900
C  8.69800 44.37700 22.01800
C  8.85800 43.56200 23.28200
N  8.07400 46.77600 26.38800
C  6.99600 46.56100 25.53400
C  5.77300 46.42200 26.28400
C  6.20400 46.55100 27.65500
C  7.57300 46.74700 27.63000
C  4.44400 46.29700 25.73600
C  5.82800 46.58200 29.07700
O  4.73600 46.59400 29.60000
C  7.06800 46.78500 30.00200
C  7.29400 45.55900 30.85400
O  7.94100 44.55400 30.52700
O  6.52000 45.68600 32.01300
C  6.48300 44.45900 32.82400
H  13.51900 48.79800 28.52800
H  12.39800 47.65900 22.22700
H  6.43800 45.75800 23.60500
H  9.21000 48.70000 30.77200
H  12.21200 48.48700 30.61400
H  10.05000 50.57000 30.10700
H  11.35800 50.77200 29.15300
H  11.65300 50.67700 30.93700
H  11.27000 46.94900 31.99500
H  9.93200 46.00500 31.26200
H  8.43600 47.50500 32.90900
H  10.00000 48.14700 33.44500
H  16.06700 49.49700 26.23900
H  16.09500 47.76800 26.36700
H  15.41200 48.75800 27.76300
H  16.79000 48.62700 24.42000
H  16.99100 47.95600 22.78500
H  16.46900 46.91500 24.11200
H  10.79000 45.78400 21.52300
H  7.80400 46.19900 21.44600
H  10.39500 48.52800 20.86000
H  8.99500 47.76700 20.33500
H  10.63600 47.05800 19.78700
H  9.42300 44.02800 21.28200
H  7.78600 44.04300 21.52400
H  8.86800 44.12200 24.21700
H  9.91400 43.29600 23.23500
H  8.22600 42.67500 23.30900
H  4.36100 47.20300 25.13500
H  3.65600 46.25200 26.48700
H  4.44200 45.44600 25.05600
H  6.99400 47.72400 30.55100
H  6.49800 44.74700 33.87600
H  7.29400 43.75100 32.65100
H  5.57400 43.88800 32.63800

