158

Mg 45.37600 5.77900 49.09900
C  43.01200 8.26200 48.21400
C  42.97000 3.51200 48.53100
C  47.80600 3.37300 49.12900
C  47.75800 8.21200 49.38000
N  43.25600 5.90400 48.38900
C  42.44400 6.99500 48.21300
C  40.96100 6.58300 47.94800
C  41.06600 5.04800 48.12400
C  42.52200 4.78900 48.41600
C  40.07200 4.42000 49.22400
C  40.49600 7.01900 46.49300
C  39.07500 7.68800 46.30800
H  38.52400 7.54500 44.87900
N  45.28500 3.61300 48.98200
C  44.22900 2.90000 48.62800
C  44.63200 1.50200 48.62400
C  46.08000 1.41700 48.91900
C  46.48500 2.83900 49.01700
C  43.66600 0.37100 48.37800
C  46.83700 0.12900 49.18700
O  46.27300 -0.95500 49.02800
C  48.29900 0.16000 49.88700
N  47.47600 5.78600 49.39200
C  48.30400 4.67400 49.37000
C  49.79700 5.05300 49.21900
C  49.78300 6.52100 49.56500
C  48.27600 6.90700 49.51900
C  50.79600 4.15200 50.05800
C  50.69100 7.40900 48.67100
C  52.23000 7.28500 48.99700
N  45.42100 7.83700 48.93300
C  46.51200 8.65500 48.97200
C  46.11700 10.08000 48.66400
C  44.65000 9.92700 48.50300
C  44.33800 8.58400 48.54900
C  47.04200 11.28400 48.62900
C  43.45100 10.66500 48.19900
O  43.26700 11.85500 47.87200
C  42.28000 9.52700 48.04900
C  41.27600 9.73800 49.14000
O  41.17000 9.19000 50.17000
O  40.41000 10.62600 48.60600
C  39.10600 10.70000 49.36800
H  42.14500 2.81800 48.35400
H  48.62500 2.66000 49.24400
H  48.55100 8.95600 49.47400
H  40.28700 7.08700 48.64100
H  40.84400 4.60900 47.15100
H  39.34000 5.15400 49.56000
H  40.58600 4.08000 50.12300
H  39.51000 3.61200 48.75500
H  40.46600 6.11700 45.88200
H  41.22100 7.72400 46.08500
H  39.08900 8.74700 46.56600
H  38.50600 7.16100 47.07400
H  42.78900 0.79700 47.89000
H  43.31200 -0.11100 49.28900
H  43.96800 -0.33500 47.60400
H  49.02400 0.56400 49.18100
H  48.58700 -0.86400 50.12500
H  48.26900 0.82900 50.74700
H  49.99000 4.95300 48.15100
H  50.17000 6.62400 50.57800
H  51.58600 4.75600 50.50500
H  51.18200 3.38100 49.39200
H  50.12600 3.66800 50.76800
H  50.57300 8.49200 48.69800
H  50.46800 7.11200 47.64600
H  52.62300 6.64200 48.21000
H  52.54100 6.80500 49.92500
H  52.67400 8.27800 48.92900
H  48.10000 11.02700 48.57700
H  46.92400 12.00600 49.43600
H  46.66800 11.86200 47.78400
H  41.79400 9.53100 47.07400
H  39.34600 11.45800 50.11400
H  38.74200 9.77800 49.82100
H  38.36300 10.96600 48.61600
Mg 50.19700 45.63700 42.24500
C  47.17900 46.44400 40.65800
C  49.92800 42.43700 40.75100
C  53.24700 45.15200 43.24800
C  50.48700 49.17300 43.18200
N  48.70800 44.58600 40.76000
C  47.50000 45.07600 40.41100
C  46.75900 44.02800 39.62600
C  47.67700 42.77200 39.62800
C  48.87600 43.30700 40.38000
C  46.95500 41.54200 40.29600
C  46.44500 44.58900 38.27600
C  45.10900 44.22500 37.73800
H  44.86900 43.21600 36.57600
N  51.40700 43.99600 42.11100
C  51.22300 42.78100 41.49000
C  52.45400 41.92900 41.65600
C  53.32500 42.63700 42.47300
C  52.66600 43.99700 42.63700
C  52.58700 40.52800 41.01300
C  54.59200 42.14200 43.06600
O  55.00000 41.04600 42.84400
C  55.37800 42.90100 44.10100
N  51.68800 46.98700 43.05600
C  52.85000 46.48500 43.38300
C  53.75200 47.58000 43.89400
C  52.88400 48.85000 43.90000
C  51.58000 48.31800 43.28500
C  54.39600 47.30100 45.22300
C  53.46700 50.14400 43.07900
C  52.87600 50.40900 41.64800
N  48.98300 47.37700 42.17000
C  49.24800 48.77700 42.52000
C  48.05700 49.59500 42.21400
C  47.22400 48.64600 41.58100
C  47.86800 47.35700 41.43400
C  47.67800 51.01600 42.54500
C  45.95400 48.61000 40.87700
O  45.12800 49.49800 40.54600
C  45.90200 47.19600 40.34400
C  44.74100 46.51900 41.06700
O  44.79700 45.77400 42.00400
O  43.66800 46.92900 40.38400
C  42.35700 46.47200 40.88200
H  49.93200 41.40000 40.41200
H  54.28100 44.95900 43.54000
H  50.56900 50.17100 43.61900
H  45.84100 43.85000 40.18700
H  47.92700 42.51700 38.59800
H  47.33600 40.63700 39.82300
H  45.87100 41.59200 40.19300
H  47.06500 41.64700 41.37600
H  47.23900 44.37100 37.56200
H  46.35900 45.67600 38.27300
H  44.50800 45.10700 37.51800
H  44.50600 43.76500 38.52100
H  51.87900 39.82300 41.45000
H  53.59900 40.16300 41.18600
H  52.34900 40.59000 39.95100
H  54.70100 43.20900 44.89700
H  56.07800 43.63900 43.70900
H  56.08600 42.22500 44.58100
H  54.64000 47.79300 43.29800
H  52.70400 49.24100 44.90100
H  55.41700 47.68200 45.22600
H  54.43500 46.27400 45.58700
H  53.87000 47.74600 46.06700
H  54.50900 49.88900 42.88100
H  53.55300 51.08000 43.63000
H  52.43500 51.39400 41.80700
H  52.13000 49.71200 41.26600
H  53.63700 50.53200 40.87800
H  46.63500 50.97300 42.86000
H  47.84700 51.57900 41.62800
H  48.24700 51.36100 43.40800
H  45.60700 47.32400 39.30200
H  41.86800 47.12400 41.60600
H  42.40400 45.47800 41.32700
H  41.77900 46.49000 39.95700

