158

Mg 1.63600 -1.10200 43.72500
C  4.87100 -0.28600 43.13100
C  0.71600 1.89900 42.26400
C  -1.57000 -2.29100 43.45300
C  2.59900 -4.26400 44.69000
N  2.71900 0.66900 42.79700
C  4.04600 0.75400 42.63800
C  4.50200 2.03400 41.83200
C  3.12200 2.76500 41.61600
C  2.09600 1.74400 42.25000
C  3.01200 4.24200 42.12500
C  5.30300 1.79300 40.52200
C  6.54100 2.67600 40.22000
H  6.87800 3.28100 38.88300
N  -0.17900 -0.21700 43.15000
C  -0.35500 1.04700 42.59500
C  -1.75200 1.32900 42.47800
C  -2.39300 0.08000 42.79700
C  -1.40300 -0.87600 43.20600
C  -2.29400 2.72500 42.14900
C  -3.94900 -0.05200 42.74900
O  -4.65300 0.89400 42.55900
C  -4.56700 -1.42600 42.81200
N  0.65500 -3.09400 43.98100
C  -0.66000 -3.30200 43.83400
C  -1.10200 -4.78400 44.09600
C  0.19600 -5.23100 44.74100
C  1.21900 -4.18500 44.44100
C  -2.44200 -5.01900 44.85300
C  0.81300 -6.66600 44.45800
C  -0.19200 -7.78300 44.18100
N  3.37800 -2.10200 43.97500
C  3.64700 -3.32400 44.44900
C  4.99400 -3.54600 44.75600
C  5.58600 -2.28700 44.25600
C  4.49400 -1.54800 43.69300
C  5.69000 -4.68000 45.36600
C  6.80800 -1.49600 43.94400
O  7.98200 -1.78500 44.12500
C  6.37300 -0.12900 43.20500
C  6.81900 1.07300 43.99700
O  6.24400 1.51800 44.99800
O  7.89200 1.69300 43.37700
C  8.47300 2.96600 43.88500
H  0.49900 2.88400 41.84700
H  -2.56200 -2.74300 43.39500
H  2.89600 -5.21200 45.14500
H  5.03700 2.74600 42.46000
H  2.85600 2.83300 40.56100
H  2.74600 4.78900 41.22000
H  3.98900 4.58300 42.46800
H  2.28500 4.25900 42.93700
H  4.63300 1.97100 39.68100
H  5.51000 0.73100 40.39000
H  7.34100 1.99700 40.51500
H  6.41100 3.45400 40.97200
H  -1.47800 3.44500 42.21800
H  -3.13200 3.11600 42.72700
H  -2.71700 2.76500 41.14600
H  -5.60000 -1.56900 42.49500
H  -4.37100 -1.71100 43.84500
H  -4.06500 -2.10000 42.11900
H  -1.15100 -5.11400 43.05800
H  -0.01600 -5.21000 45.81000
H  -2.19100 -5.34600 45.86300
H  -2.99200 -5.70700 44.21100
H  -3.06500 -4.14400 45.03700
H  1.33600 -6.94300 45.37300
H  1.54500 -6.49900 43.66800
H  -0.30000 -7.79800 43.09700
H  -1.11500 -7.73700 44.76000
H  0.23000 -8.75200 44.44500
H  4.98000 -5.42400 45.72800
H  6.33200 -4.41000 46.20500
H  6.24900 -5.13100 44.54600
H  6.81300 0.04200 42.22300
H  7.71200 3.69700 44.16000
H  9.17300 3.53800 43.27600
H  9.00900 2.81300 44.82200
Mg -2.78400 34.77500 27.02900
C  -4.72600 33.49100 29.70000
C  -1.25000 37.05500 29.10500
C  -1.50200 36.28300 24.34900
C  -4.48500 32.44800 24.98200
N  -3.04000 35.23600 29.12300
C  -3.82800 34.54400 30.04900
C  -3.40900 34.95400 31.41800
C  -2.34300 36.17100 31.20700
C  -2.14000 36.09600 29.70300
C  -2.92600 37.58400 31.62100
C  -2.80300 33.76300 32.23600
C  -3.51600 33.35300 33.57000
H  -2.80100 33.17900 34.93800
N  -1.62200 36.49300 26.79400
C  -0.99100 37.19400 27.75300
C  -0.10600 38.23600 27.17700
C  -0.18200 38.02600 25.76100
C  -1.13800 36.92600 25.55900
C  0.51900 39.32600 27.96400
C  0.47700 38.74500 24.63400
O  0.37800 38.41900 23.49300
C  1.32800 39.92200 25.00300
N  -3.15600 34.56200 25.00000
C  -2.39200 35.21700 24.09900
C  -2.53500 34.71100 22.66400
C  -3.29900 33.38700 22.89800
C  -3.70800 33.47500 24.38300
C  -3.18500 35.70900 21.71400
C  -2.40800 32.12300 22.55300
C  -3.16300 31.07400 21.66800
N  -4.32800 33.19900 27.25600
C  -4.88500 32.36800 26.31000
C  -5.77400 31.44900 27.00700
C  -5.77100 31.84800 28.38900
C  -4.82000 32.93200 28.42700
C  -6.52000 30.25900 26.50300
C  -6.29600 31.55100 29.62900
O  -6.98200 30.59900 29.94200
C  -5.73800 32.65600 30.56300
C  -6.82300 33.39100 31.21000
O  -7.23700 34.44500 30.74000
O  -7.26600 32.84300 32.38300
C  -8.40900 33.45000 33.07000
H  -0.67300 37.68000 29.79000
H  -0.93300 36.46500 23.43500
H  -4.90700 31.72100 24.28500
H  -4.27000 35.33500 31.96700
H  -1.45700 35.99300 31.81600
H  -3.98500 37.46200 31.84700
H  -2.93600 38.23000 30.74300
H  -2.31500 38.05700 32.39000
H  -1.78300 34.08700 32.44200
H  -2.80000 32.84200 31.65300
H  -3.81600 32.32700 33.35800
H  -4.30300 34.09600 33.70400
H  -0.12600 40.20000 27.88000
H  1.57400 39.48500 27.74000
H  0.50500 39.05600 29.02000
H  0.78300 40.76800 25.42100
H  1.65800 40.37700 24.06900
H  2.17600 39.62300 25.61900
H  -1.52200 34.49600 22.32400
H  -4.24100 33.32300 22.35200
H  -2.58500 35.84200 20.81400
H  -3.30900 36.70800 22.13200
H  -4.21200 35.37100 21.57500
H  -2.18000 31.54400 23.44800
H  -1.52800 32.46700 22.00800
H  -3.20100 30.12100 22.19600
H  -2.67600 30.87500 20.71400
H  -4.16600 31.38500 21.37300
H  -6.43700 29.45200 27.23100
H  -5.91600 29.86600 25.68500
H  -7.54000 30.38700 26.13900
H  -5.29700 32.11400 31.40000
H  -8.05400 34.35800 33.55700
H  -8.79700 32.78400 33.84000
H  -9.31200 33.56600 32.47000

