158

Mg 52.89700 23.58400 44.97100
C  50.11400 25.60600 44.26700
C  51.13800 20.98400 43.59300
C  55.64800 21.71500 45.04100
C  54.64100 26.51100 45.83400
N  50.97800 23.45700 43.78900
C  50.01400 24.37300 43.57500
C  48.90500 23.81000 42.62200
C  49.08900 22.24200 42.87200
C  50.50100 22.18700 43.43300
C  48.15300 21.60200 43.96900
C  49.02300 24.25700 41.20100
C  47.78600 24.61600 40.41000
H  47.30100 23.56200 39.45900
N  53.34300 21.52200 44.59500
C  52.50200 20.62700 44.02400
C  53.05200 19.32300 43.94500
C  54.35200 19.43300 44.46000
C  54.50600 20.91700 44.83000
C  52.29500 18.17300 43.29300
C  55.40100 18.37600 44.64200
O  55.17100 17.17600 44.42200
C  56.80100 18.55200 45.25900
N  54.86600 24.12000 45.22500
C  55.80400 23.11000 45.28600
C  57.18200 23.76200 45.56600
C  56.87000 25.25500 45.83000
C  55.36300 25.35400 45.55000
C  58.04400 23.09900 46.75900
C  57.67600 26.21800 44.99100
C  58.38200 27.41000 45.69800
N  52.51000 25.69000 45.14000
C  53.35800 26.75200 45.56300
C  52.44500 27.89000 45.82000
C  51.15700 27.46600 45.34400
C  51.25600 26.15100 44.89100
C  52.80500 29.16900 46.48600
C  49.77500 27.84900 45.14200
O  49.22600 28.86400 45.49900
C  49.01200 26.64700 44.42300
C  48.45500 27.18300 43.15700
O  49.09700 27.57000 42.20200
O  47.10100 27.31300 43.32200
C  46.44800 28.04800 42.21600
H  50.49100 20.15700 43.29200
H  56.53300 21.07600 45.00300
H  55.33900 27.26400 46.20500
H  47.92100 24.06900 43.01400
H  49.00600 21.68000 41.94200
H  47.49100 22.36800 44.37400
H  48.72200 21.12200 44.76400
H  47.54000 20.81000 43.53900
H  49.47900 23.46000 40.61400
H  49.69900 25.11000 41.26400
H  47.94400 25.54900 39.86800
H  47.00700 24.83400 41.14000
H  52.30400 18.30200 42.21100
H  51.27800 18.14200 43.68300
H  52.77400 17.24200 43.59500
H  57.10700 17.56000 45.59100
H  56.86100 19.19900 46.13400
H  57.51100 18.80700 44.47200
H  57.66300 23.62700 44.59700
H  57.00800 25.40600 46.90000
H  58.79900 22.40100 46.39600
H  57.30800 22.53200 47.32800
H  58.44200 23.73400 47.55100
H  57.04800 26.57100 44.17400
H  58.51400 25.72900 44.49400
H  58.00900 28.35600 45.30700
H  59.47200 27.39700 45.68100
H  58.01600 27.43600 46.72500
H  52.67300 29.91300 45.70000
H  53.86000 29.04400 46.72800
H  52.18500 29.47500 47.32900
H  48.14900 26.29300 44.98600
H  46.95800 28.97700 41.96100
H  45.44800 28.41000 42.45600
H  46.41100 27.30700 41.41800
Mg 0.59200 42.72600 26.10100
C  2.87000 42.69500 28.77100
C  -1.80400 41.61700 28.26200
C  -1.31500 42.04100 23.52100
C  3.42800 43.02200 23.90800
N  0.60000 42.08600 28.27900
C  1.56500 42.32200 29.16400
C  0.98800 42.29700 30.59500
C  -0.52900 41.90700 30.43700
C  -0.54800 41.82400 28.87700
C  -0.88000 40.50300 31.17000
C  1.15600 43.69500 31.41600
C  1.58900 43.64000 32.89800
H  1.29600 42.34300 33.66100
N  -1.39100 42.04900 25.96600
C  -2.22900 41.70300 26.93400
C  -3.43200 41.19500 26.40800
C  -3.29200 41.28700 24.98400
C  -1.97900 41.78100 24.74700
C  -4.64400 40.72300 27.17900
C  -4.34100 40.92100 23.86500
O  -3.97900 41.15200 22.68000
C  -5.73900 40.32900 24.24000
N  0.99100 42.79800 23.97700
C  0.02100 42.38400 23.18800
C  0.45900 42.36400 21.69600
C  1.90900 42.83200 21.73200
C  2.16300 42.85700 23.25200
C  0.29700 40.89500 21.08500
C  2.20200 44.07900 20.90300
C  2.15600 45.37900 21.63200
N  2.69600 42.95400 26.28100
C  3.70600 43.09900 25.29600
C  4.95100 43.32300 25.92600
C  4.71100 43.17800 27.38100
C  3.33900 42.95000 27.44900
C  6.22800 43.72000 25.30300
C  5.27100 43.15800 28.67800
O  6.40900 43.37300 29.10800
C  4.16200 42.84500 29.64800
C  4.61500 41.61900 30.34500
O  4.38500 40.49500 29.90000
O  5.19100 41.88400 31.55900
C  5.48600 40.83500 32.49000
H  -2.66600 41.45300 28.91100
H  -1.87900 41.81400 22.61400
H  4.23100 43.29500 23.22000
H  1.49800 41.44300 31.04200
H  -1.29900 42.63500 30.69200
H  -1.91500 40.66100 31.47200
H  -0.25500 40.34600 32.05000
H  -0.84000 39.71200 30.42100
H  0.18900 44.18200 31.29200
H  1.75300 44.42200 30.86400
H  0.85700 44.37000 33.24400
H  2.57100 44.02800 33.16800
H  -5.48300 41.41500 27.10700
H  -4.52300 40.64100 28.25900
H  -4.94000 39.77000 26.73800
H  -6.11200 40.79200 25.15400
H  -5.70700 39.29500 24.58200
H  -6.40700 40.54100 23.40600
H  -0.22700 43.04000 21.18600
H  2.58100 42.09200 21.29700
H  1.20700 40.29700 21.13800
H  0.15000 41.14800 20.03500
H  -0.50600 40.33600 21.56600
H  1.70500 44.04100 19.93400
H  3.27000 44.01900 20.69300
H  3.08100 45.69800 22.11400
H  1.29300 45.39500 22.29700
H  1.87600 46.13400 20.89700
H  7.06700 43.05900 25.52000
H  6.43100 44.66100 25.81500
H  6.10800 43.91200 24.23700
H  4.11200 43.60600 30.42600
H  6.56900 40.73300 32.56000
H  5.01600 39.91000 32.15400
H  5.08200 41.18900 33.43900

