158

Mg 17.28000 -1.53100 27.66800
C  16.36400 0.42600 30.40900
C  19.34100 -3.32400 29.85900
C  18.70800 -2.96200 24.98400
C  15.54700 0.76900 25.48700
N  17.77900 -1.43800 29.83700
C  17.16800 -0.60100 30.78300
C  17.62800 -0.89500 32.21100
C  18.89800 -1.83000 31.99900
C  18.65200 -2.26500 30.46900
C  20.32600 -1.23500 32.36200
C  16.57200 -1.51900 33.10700
C  16.42000 -1.07600 34.55300
H  17.13500 -2.13300 35.39800
N  18.65200 -3.14600 27.50200
C  19.42800 -3.71400 28.49500
C  20.24400 -4.72400 27.94500
C  19.99000 -4.69700 26.49700
C  19.11200 -3.53200 26.24500
C  20.83800 -5.79300 28.83800
C  20.53100 -5.58500 25.37600
O  20.08400 -5.50600 24.24100
C  21.59200 -6.69100 25.66700
N  17.00100 -1.18200 25.53700
C  17.68300 -1.95900 24.64100
C  17.50500 -1.49700 23.20400
C  16.25600 -0.44500 23.40200
C  16.26800 -0.25400 24.92000
C  18.74600 -0.87500 22.46800
C  14.89600 -0.86800 22.82800
C  13.75800 -1.26800 23.77200
N  16.13000 0.14600 27.86600
C  15.53800 1.00700 26.89300
C  14.85200 2.07200 27.55700
C  15.07900 1.83600 28.94000
C  15.90400 0.70100 29.08100
C  14.11200 3.12700 26.91100
C  14.70600 2.29900 30.32000
O  14.02000 3.22400 30.69600
C  15.60800 1.38800 31.23800
C  16.46400 2.30000 32.07300
O  17.37000 3.03200 31.69500
O  16.12800 2.19300 33.39000
C  16.92000 3.02600 34.32800
H  20.00200 -3.74600 30.61800
H  19.18100 -3.38800 24.09700
H  15.02100 1.48300 24.85000
H  17.89700 0.07700 32.62300
H  18.82800 -2.74600 32.58500
H  20.86100 -1.00600 31.44000
H  20.88200 -1.89800 33.02500
H  20.14800 -0.34100 32.95900
H  16.73400 -2.59700 33.07800
H  15.62700 -1.34000 32.59400
H  15.36400 -0.99300 34.81000
H  16.91000 -0.10300 34.55700
H  21.92800 -5.79000 28.81600
H  20.43500 -6.76400 28.55000
H  20.44200 -5.66800 29.84600
H  22.49500 -6.39600 26.20200
H  21.94600 -7.09700 24.71900
H  21.16400 -7.58000 26.13000
H  17.25100 -2.41500 22.67400
H  16.57800 0.41500 22.81600
H  19.36200 -1.54000 21.86300
H  19.35900 -0.40100 23.23500
H  18.35300 -0.04200 21.88500
H  15.05300 -1.73800 22.19100
H  14.40800 -0.11300 22.21100
H  13.50000 -0.34900 24.29700
H  14.22800 -1.95800 24.47300
H  12.96900 -1.75500 23.20000
H  14.82200 3.50100 26.17300
H  13.93600 4.01000 27.52400
H  13.15900 2.87300 26.44600
H  14.99700 0.77100 31.89700
H  17.80800 2.51100 34.69500
H  16.23300 3.25500 35.14300
H  17.32200 3.96100 33.93700
Mg 46.88400 24.94300 28.68700
C  47.79500 27.15400 31.12900
C  45.71400 22.70400 31.02200
C  46.23000 22.66600 26.09400
C  48.31200 27.06900 26.22600
N  46.81500 24.93400 30.83800
C  47.07800 26.02800 31.63400
C  46.74900 25.79100 33.15100
C  46.34300 24.25400 33.07200
C  46.32200 23.85900 31.57300
C  47.20800 23.28800 33.92400
C  45.61100 26.72600 33.59600
C  45.78500 27.43300 34.86000
H  46.13600 26.67600 36.13300
N  46.12300 22.98600 28.54500
C  45.63800 22.28600 29.69900
C  45.03200 21.07800 29.18400
C  45.14700 21.04200 27.75200
C  45.87000 22.28600 27.37700
C  44.36600 20.00900 30.07600
C  44.70800 20.09600 26.74500
O  44.84600 20.21700 25.52800
C  43.98400 18.93900 27.26500
N  47.29200 24.76700 26.55700
C  46.92100 23.77900 25.72900
C  47.29700 24.05300 24.20100
C  47.53800 25.67200 24.33100
C  47.69300 25.86300 25.81400
C  48.61700 23.33800 23.64400
C  46.41300 26.62700 23.75500
C  46.95400 27.79100 22.85100
N  47.89700 26.78400 28.65700
C  48.40500 27.49900 27.57800
C  49.01000 28.77800 28.09600
C  48.80900 28.60400 29.46600
C  48.07900 27.41900 29.76000
C  49.65500 29.84400 27.29100
C  49.05200 29.22300 30.73600
O  49.63100 30.25500 31.06000
C  48.32500 28.37500 31.88700
C  49.41100 27.96200 32.87500
O  50.04500 26.90000 32.92800
O  49.56500 28.95300 33.79100
C  50.68000 28.72500 34.72600
H  45.22900 22.07200 31.76900
H  46.05800 22.05100 25.20800
H  48.67100 27.75900 25.46000
H  47.62700 25.88300 33.79100
H  45.32300 24.03400 33.38800
H  47.72400 22.57500 33.28100
H  46.49900 22.68600 34.49200
H  47.93700 23.82000 34.53600
H  44.70300 26.15100 33.78100
H  45.43300 27.37400 32.73800
H  44.81300 27.90500 35.00100
H  46.30300 28.38700 34.76500
H  43.29400 19.92800 29.89200
H  44.55900 20.15600 31.13900
H  44.84500 19.03000 30.04800
H  43.11500 19.19300 27.87300
H  44.73300 18.29000 27.71800
H  43.56900 18.41500 26.40400
H  46.42200 23.91400 23.56700
H  48.50000 25.92300 23.88600
H  48.35100 22.67900 22.81800
H  48.92400 22.58500 24.37000
H  49.45900 23.96500 23.35100
H  45.87500 27.02700 24.61400
H  45.74800 26.00100 23.16100
H  46.43400 27.75000 21.89400
H  48.03900 27.72400 22.78000
H  46.71100 28.71200 23.38100
H  50.10400 29.50200 26.35900
H  50.44400 30.27200 27.90900
H  48.97300 30.64200 26.99400
H  47.60500 29.11600 32.23300
H  50.31000 28.00100 35.45200
H  50.95000 29.65600 35.22500
H  51.60600 28.33100 34.30500

