158

Mg 48.11100 15.45900 28.28500
C  45.86500 15.92400 30.89900
C  50.39100 17.19100 30.04500
C  50.01900 15.42100 25.48200
C  45.49100 14.04400 26.36600
N  48.03000 16.51600 30.16200
C  47.07600 16.46700 31.13300
C  47.55300 17.14200 32.42500
C  48.84600 17.80000 31.97000
C  49.16400 17.06400 30.64400
C  48.92100 19.38900 31.87400
C  47.57200 16.21900 33.63100
C  47.38200 16.90300 34.96600
H  47.37600 18.38900 35.11100
N  49.91600 16.23000 27.85500
C  50.71100 16.91900 28.69600
C  51.96500 17.18600 28.08700
C  51.95000 16.68800 26.79200
C  50.60900 16.04300 26.64800
C  52.99200 17.96300 28.86800
C  52.98400 16.78900 25.63800
O  52.69300 16.25200 24.55200
C  54.33400 17.39800 25.84300
N  47.74900 14.95300 26.16900
C  48.75200 14.91800 25.28200
C  48.29700 14.36400 23.89800
C  46.82300 13.83600 24.22700
C  46.64900 14.31400 25.68800
C  48.31400 15.40900 22.82600
C  46.48900 12.30800 24.02900
C  47.14200 11.32500 24.94300
N  46.12600 14.91200 28.57500
C  45.19100 14.31300 27.75100
C  44.01200 14.07400 28.49400
C  44.21600 14.70200 29.73200
C  45.53000 15.21400 29.73000
C  42.77300 13.45300 27.98100
C  43.54600 14.94500 30.99700
O  42.38100 14.73600 31.34200
C  44.60500 15.72400 31.91200
C  43.99500 16.91200 32.50600
O  44.05800 18.02100 32.04300
O  43.37800 16.55800 33.65700
C  42.79200 17.64400 34.43600
H  51.07800 17.78500 30.65200
H  50.67100 15.26200 24.62100
H  44.70300 13.45600 25.89000
H  46.83900 17.95200 32.57000
H  49.67600 17.47700 32.59800
H  49.39900 19.79200 32.76700
H  47.99000 19.92600 31.69200
H  49.55800 19.65100 31.02900
H  48.51700 15.67700 33.67800
H  46.80500 15.44500 33.63700
H  48.15900 16.43800 35.57200
H  46.38100 16.59000 35.26200
H  53.89300 18.17300 28.29200
H  53.19300 17.34400 29.74300
H  52.41100 18.83000 29.18400
H  54.03300 18.43700 25.97700
H  54.95400 17.29300 24.95200
H  54.84500 16.96700 26.70300
H  48.98100 13.58000 23.57100
H  46.10700 14.38800 23.61800
H  48.28800 16.39300 23.29200
H  47.56000 15.46200 22.04000
H  49.33100 15.48700 22.44200
H  47.01200 12.04400 23.11000
H  45.41200 12.14000 24.05900
H  47.80400 10.63500 24.42200
H  46.31100 10.79400 25.40600
H  47.79100 11.85400 25.64000
H  42.90600 13.07000 26.96900
H  42.02000 14.24100 27.97800
H  42.52300 12.58700 28.59300
H  44.92500 15.06800 32.72200
H  42.68900 18.65700 34.04700
H  43.47700 17.70400 35.28200
H  41.87700 17.24600 34.87400
Mg -8.12000 39.19500 39.96700
C  -7.73300 35.87400 38.94600
C  -4.79000 39.76500 39.13900
C  -8.68900 42.56000 39.73100
C  -11.49600 38.66200 40.24500
N  -6.52700 38.06000 39.02800
C  -6.53600 36.67800 38.86000
C  -5.12000 36.21600 38.49000
C  -4.14300 37.37900 38.95600
C  -5.18300 38.48300 39.07200
C  -3.38400 37.10800 40.26400
C  -4.95100 35.84300 37.00500
C  -5.29800 36.96400 35.99400
H  -6.53500 36.74800 35.04800
N  -6.92100 40.96100 39.50900
C  -5.59500 40.94300 39.31600
C  -5.06900 42.26900 39.17400
C  -6.22300 43.16700 39.15100
C  -7.35400 42.23700 39.49700
C  -3.69200 42.70000 38.82600
C  -6.16200 44.67200 38.79400
O  -5.10200 45.31300 38.61100
C  -7.51000 45.38000 38.58900
N  -9.78300 40.47200 39.96900
C  -9.74800 41.80800 40.03700
C  -11.20600 42.31900 40.39600
C  -11.95800 41.10600 40.90400
C  -11.07300 39.95800 40.22900
C  -11.28200 43.53400 41.29000
C  -13.49800 40.93900 40.66200
C  -14.36200 40.46500 41.87100
N  -9.36600 37.55100 39.81700
C  -10.72600 37.50300 40.02500
C  -11.15000 36.09700 40.03000
C  -10.05000 35.47400 39.48100
C  -8.99000 36.40000 39.38800
C  -12.59800 35.55300 40.06600
C  -9.53600 34.22900 39.05600
O  -10.03300 33.11400 39.03400
C  -7.99400 34.38800 38.72100
C  -7.07200 33.59700 39.47700
O  -6.76000 33.77600 40.64400
O  -6.56200 32.57100 38.62100
C  -5.56800 31.63400 39.15400
H  -3.72500 39.97000 39.01500
H  -8.92300 43.62700 39.71700
H  -12.53800 38.36100 40.36600
H  -4.81500 35.37900 39.11700
H  -3.55900 37.67800 38.08600
H  -3.39100 36.06900 40.59300
H  -3.67500 37.76100 41.08700
H  -2.36400 37.48500 40.19700
H  -5.53200 34.92600 36.90500
H  -3.89100 35.61100 36.89800
H  -4.39300 37.15400 35.41700
H  -5.42300 37.89100 36.55400
H  -2.97300 41.88100 38.79600
H  -3.33900 43.38500 39.59700
H  -3.80400 43.22100 37.87400
H  -7.94500 45.55900 39.57300
H  -8.04600 44.65900 37.97100
H  -7.34100 46.30600 38.04100
H  -11.55700 42.53300 39.38600
H  -11.78200 40.96400 41.97000
H  -12.06700 43.45800 42.04100
H  -11.45700 44.46100 40.74300
H  -10.39500 43.52300 41.92300
H  -13.75900 40.26300 39.84800
H  -13.83100 41.95700 40.46100
H  -14.68300 39.42800 41.78300
H  -15.32000 40.98500 41.91900
H  -13.85000 40.52400 42.83100
H  -13.12900 36.38600 39.60700
H  -13.05700 35.15400 40.97000
H  -12.63100 34.73900 39.34200
H  -7.87300 34.15200 37.66300
H  -4.67600 31.66800 38.52900
H  -5.91100 30.59900 39.16300
H  -5.20000 31.97900 40.12000

