158

Mg 0.07600 8.17200 26.72700
C  0.79000 10.40500 29.33100
C  -0.41300 5.71100 29.03000
C  0.06700 5.91500 24.14600
C  0.79600 10.70000 24.43100
N  0.36800 7.99500 28.92700
C  0.56900 9.05100 29.76300
C  0.24800 8.69000 31.27300
C  0.09100 7.14700 31.10100
C  0.04500 6.90800 29.58400
C  1.25800 6.26200 31.73400
C  -1.05200 9.40600 31.76100
C  -1.23500 9.60200 33.27200
H  -0.03600 9.30700 34.11000
N  -0.11100 6.14300 26.57600
C  -0.48500 5.35700 27.68700
C  -0.73600 4.05800 27.17800
C  -0.67800 4.05200 25.73200
C  -0.19200 5.40500 25.38900
C  -1.04400 2.88300 28.16200
C  -0.98900 2.96400 24.70300
O  -0.89700 3.03000 23.49300
C  -1.49100 1.65500 25.18900
N  0.64500 8.27300 24.61200
C  0.41400 7.23300 23.72700
C  0.67500 7.57900 22.31500
C  0.50000 9.21600 22.31600
C  0.59700 9.44900 23.87000
C  1.90000 6.99300 21.65200
C  -0.81500 9.71800 21.74200
C  -0.69400 10.88900 20.73300
N  0.71400 10.10600 26.70300
C  0.85200 11.09700 25.76800
C  1.19300 12.33300 26.36300
C  1.10200 12.10600 27.71200
C  0.80200 10.77000 27.92500
C  1.38000 13.63900 25.64600
C  1.24700 12.76100 29.01500
O  1.55300 13.87200 29.28300
C  1.11000 11.67000 30.12700
C  2.34600 11.66300 30.90000
O  3.37400 11.09000 30.53300
O  2.14500 12.30800 32.10600
C  3.28600 12.34100 33.06800
H  -0.74600 5.02700 29.81400
H  -0.09200 5.29800 23.26000
H  0.66600 11.57000 23.78300
H  1.16500 8.94900 31.80200
H  -0.80000 6.74900 31.58800
H  0.90600 5.46600 32.39100
H  1.88100 6.94800 32.30800
H  1.91200 5.83100 30.97700
H  -1.84200 8.72100 31.45400
H  -1.26100 10.36700 31.29100
H  -2.04400 8.93800 33.57600
H  -1.56600 10.61900 33.48300
H  -0.82600 3.00700 29.22300
H  -0.63400 1.95700 27.75800
H  -2.12500 2.75900 28.21500
H  -1.85500 1.15000 24.29400
H  -2.35500 1.79900 25.83800
H  -0.68200 1.26200 25.80400
H  -0.11000 7.11300 21.72000
H  1.38200 9.65600 21.84900
H  2.61800 6.78600 22.44600
H  2.26200 7.59900 20.82200
H  1.67000 6.00500 21.25400
H  -1.48400 10.11800 22.50400
H  -1.20400 8.81200 21.27900
H  0.28900 10.99600 20.27300
H  -0.92200 11.83000 21.23300
H  -1.40200 10.74200 19.91700
H  0.86000 13.70800 24.69100
H  2.41600 13.95500 25.52900
H  1.09900 14.45700 26.31000
H  0.25200 11.91800 30.75100
H  4.12800 12.51200 32.39600
H  3.37900 11.32200 33.44200
H  3.09300 12.97300 33.93500
Mg 8.27900 3.84200 28.45700
C  9.94000 2.38900 31.23900
C  6.30300 5.44300 30.71500
C  6.84800 5.29400 25.85000
C  9.86000 1.58500 26.40700
N  8.07200 3.84700 30.81400
C  8.92600 3.26200 31.65400
C  8.66100 3.77300 33.15900
C  7.28800 4.39100 32.97000
C  7.25500 4.66000 31.42500
C  6.19000 3.43700 33.54900
C  9.74800 4.77400 33.53800
C  10.08700 4.93200 35.09900
H  9.21800 4.41800 36.19400
N  6.90900 5.30400 28.28700
C  6.19800 5.82700 29.32300
C  5.23900 6.82200 28.84000
C  5.51900 6.96700 27.42300
C  6.52300 5.86900 27.09200
C  4.19900 7.50200 29.66500
C  4.91100 7.91500 26.45000
O  5.28700 7.97300 25.28000
C  3.90000 8.98000 26.91300
N  8.09400 3.31200 26.33000
C  7.59700 4.21200 25.52100
C  7.83400 3.69400 24.04300
C  9.06300 2.67400 24.23800
C  9.00900 2.51900 25.77500
C  6.55600 3.04000 23.34200
C  10.38900 3.13100 23.68400
C  11.19700 4.21000 24.55600
N  9.54900 2.28000 28.70700
C  10.15400 1.47100 27.74900
C  11.16500 0.55000 28.36300
C  11.13700 0.94700 29.72700
C  10.16400 1.93700 29.89600
C  11.88500 -0.52200 27.56600
C  11.75200 0.70600 31.01300
O  12.66100 -0.02800 31.39400
C  10.97700 1.57600 32.06200
C  10.33500 0.79200 33.10900
O  9.55600 -0.07000 32.77800
O  10.90900 1.08100 34.30300
C  10.43400 0.08800 35.35000
H  5.64100 5.99300 31.38700
H  6.35700 5.87800 25.06900
H  10.49200 1.03800 25.70400
H  8.68400 2.93800 33.85800
H  7.24600 5.36100 33.46500
H  5.21700 3.92000 33.45900
H  6.34000 3.17300 34.59600
H  6.15600 2.55400 32.91100
H  9.54100 5.73400 33.06500
H  10.64500 4.36300 33.07500
H  10.21200 6.01500 35.10200
H  11.08200 4.50400 35.22400
H  4.45400 8.55300 29.79800
H  4.06200 6.96800 30.60600
H  3.19500 7.43700 29.24600
H  2.96000 8.60700 27.31900
H  3.62600 9.56100 26.03200
H  4.29400 9.64000 27.68600
H  8.09700 4.56900 23.44800
H  8.78400 1.71500 23.80000
H  6.36000 3.66000 22.46800
H  5.68500 3.17100 23.98400
H  6.65700 1.99900 23.03500
H  10.23900 3.70800 22.77200
H  11.11200 2.33900 23.48700
H  12.02300 3.82300 25.15100
H  10.59300 4.74300 25.29000
H  11.60300 4.93500 23.85000
H  11.59400 -0.56900 26.51700
H  11.66500 -1.50100 27.99200
H  12.94900 -0.31800 27.68700
H  11.65800 2.33300 32.44900
H  10.03000 -0.80700 34.87800
H  9.70900 0.56600 36.00900
H  11.22300 -0.19300 36.04700

