158

Mg 29.62200 57.54600 41.48800
C  27.17900 55.66300 40.07800
C  31.98500 55.64000 39.78000
C  32.03900 59.96900 42.08200
C  27.14700 60.06800 42.07400
N  29.55700 55.89800 39.95700
C  28.44100 55.22100 39.67700
C  28.74700 53.87100 38.86400
C  30.32800 53.96300 38.68900
C  30.67300 55.20100 39.60200
C  31.05100 52.63000 38.90500
C  28.03500 53.71800 37.50100
C  28.07800 54.98600 36.59400
H  27.11900 55.21700 35.48800
N  31.67500 57.66700 41.11100
C  32.47800 56.75500 40.47100
C  33.79000 57.18200 40.49300
C  33.83600 58.43200 41.16200
C  32.46300 58.71600 41.48200
C  34.84300 56.34900 39.82300
C  35.17900 59.21700 41.48800
O  36.23500 58.71800 41.08600
C  35.20900 60.49400 42.29100
N  29.64000 59.69300 42.01800
C  30.67800 60.52700 42.19700
C  30.33700 61.99100 42.47800
C  28.77100 61.88700 42.47900
C  28.45600 60.45400 42.25700
C  30.97900 62.43800 43.85900
C  28.12100 62.92700 41.49900
C  28.61500 64.30300 41.76800
N  27.51600 57.74900 41.43500
C  26.68700 58.87700 41.57700
C  25.32900 58.36000 41.38700
C  25.42600 57.05100 40.89300
C  26.88300 56.83900 40.76300
C  24.05600 59.08200 41.64500
C  24.68800 55.92700 40.41700
O  23.49800 55.61300 40.41300
C  25.81500 55.03300 39.80000
C  25.56800 53.69200 40.37800
O  25.84900 53.37300 41.51200
O  24.74500 52.97300 39.47900
C  24.13100 51.65800 39.81900
H  32.69100 55.06300 39.17900
H  32.79800 60.75100 42.15800
H  26.40300 60.84700 42.25000
H  28.36700 53.06500 39.49200
H  30.62300 54.25300 37.68100
H  31.53700 52.31100 37.98300
H  30.35500 51.85600 39.22600
H  31.82500 52.94100 39.60700
H  27.03700 53.28400 37.56400
H  28.60100 52.92100 37.01900
H  28.97600 54.96500 35.97700
H  28.10800 55.92100 37.15300
H  34.98500 56.54800 38.76000
H  34.64300 55.28600 39.95200
H  35.73200 56.52400 40.42900
H  34.94100 61.36200 41.68900
H  36.25700 60.69600 42.51100
H  34.66100 60.40100 43.22900
H  30.68900 62.58600 41.63500
H  28.21400 62.22500 43.35200
H  31.41300 63.43200 43.74400
H  31.78500 61.77700 44.17800
H  30.12300 62.42700 44.53400
H  27.04000 63.02400 41.60000
H  28.33800 62.59400 40.48400
H  27.71600 64.90000 41.92300
H  29.24200 64.71300 40.97600
H  29.14600 64.41600 42.71300
H  23.17700 58.48200 41.40900
H  24.01100 59.99200 41.04600
H  23.98900 59.44400 42.67000
H  25.59900 55.06700 38.73200
H  24.18500 51.69700 40.90700
H  24.64800 50.78900 39.41200
H  23.06800 51.63700 39.57800
Mg -12.16900 15.14500 42.76600
C  -8.82400 13.95800 42.37500
C  -11.18400 17.75600 40.72300
C  -15.32300 15.92500 42.51000
C  -12.98400 12.11100 44.27800
N  -10.22100 15.73800 41.62200
C  -8.96600 15.20600 41.70200
C  -7.98600 15.95300 40.89700
C  -8.71800 17.33700 40.72300
C  -10.17900 16.92200 41.03600
C  -8.10600 18.54100 41.46100
C  -7.56500 15.25400 39.56300
C  -6.09100 14.91700 39.37900
H  -5.38400 15.52400 38.18700
N  -13.10700 16.72400 41.77100
C  -12.55200 17.68300 41.04800
C  -13.55300 18.65300 40.70600
C  -14.86500 18.05800 41.08200
C  -14.46200 16.88000 41.85500
C  -13.30600 20.01500 39.97300
C  -16.26200 18.64700 40.80100
O  -16.35300 19.76000 40.17800
C  -17.57100 18.04700 41.35600
N  -13.85800 14.23500 43.42500
C  -15.08100 14.72700 43.19000
C  -16.24900 13.88700 43.87000
C  -15.48800 12.62700 44.44600
C  -14.03000 12.96300 44.00700
C  -16.96600 14.80800 44.99000
C  -15.86600 11.25700 43.73300
C  -17.03900 10.61700 44.47000
N  -11.11900 13.44600 43.30800
C  -11.57200 12.24600 43.89600
C  -10.47900 11.31200 44.09700
C  -9.40600 11.95100 43.45400
C  -9.85100 13.25800 43.04100
C  -10.54500 9.99400 44.76200
C  -7.99300 11.71300 43.09300
O  -7.21500 10.78100 43.31100
C  -7.61200 13.00100 42.34200
C  -6.36300 13.54000 42.84900
O  -6.28000 14.31200 43.84100
O  -5.27300 13.19800 42.12000
C  -4.00600 13.81100 42.61500
H  -10.85900 18.60900 40.12300
H  -16.36800 16.20000 42.35000
H  -13.20600 11.18900 44.81900
H  -7.17900 16.05800 41.62200
H  -8.74200 17.66100 39.68300
H  -8.06900 19.46500 40.88400
H  -7.13300 18.30000 41.89100
H  -8.72100 18.62400 42.35700
H  -7.89700 15.89900 38.74900
H  -8.22200 14.39100 39.45500
H  -5.95700 13.83900 39.29100
H  -5.58000 15.23900 40.28700
H  -13.78800 20.84900 40.48200
H  -13.47900 19.93800 38.90000
H  -12.23000 20.11500 40.12000
H  -17.47800 18.03600 42.44200
H  -17.62400 17.11900 40.78600
H  -18.45800 18.65700 41.19100
H  -16.90200 13.61800 43.04000
H  -15.61700 12.61000 45.52800
H  -16.93300 14.33900 45.97400
H  -18.03900 14.88700 44.81800
H  -16.60300 15.83300 45.05300
H  -15.07400 10.52000 43.60100
H  -16.17600 11.43400 42.70300
H  -17.76500 10.37300 43.69400
H  -17.49700 11.22900 45.24800
H  -16.70900 9.61900 44.75700
H  -11.52900 9.69000 45.12000
H  -9.75700 9.94000 45.51300
H  -10.29700 9.20600 44.05100
H  -7.52600 12.76000 41.28200
H  -3.58400 13.09900 43.32500
H  -4.14300 14.81400 43.01700
H  -3.24200 13.96300 41.85200

