158

Mg 46.97100 25.08400 29.41700
C  48.02800 27.48900 31.86800
C  45.61500 23.35300 32.19300
C  46.46200 22.49900 27.33700
C  48.54000 26.90700 26.99100
N  46.78800 25.49500 31.82800
C  47.24200 26.52300 32.51500
C  46.84700 26.39600 34.06200
C  46.17000 24.93300 34.06900
C  46.21400 24.55500 32.60600
C  46.82100 23.88700 35.05000
C  45.95500 27.59800 34.57700
C  46.42900 28.27900 35.90800
H  46.76300 27.28200 37.01600
N  46.08200 23.19100 29.66100
C  45.56600 22.64200 30.90400
C  45.02000 21.33000 30.62100
C  45.28000 21.00800 29.17200
C  46.01300 22.24300 28.64700
C  44.39100 20.49900 31.62300
C  45.01600 19.75000 28.50100
O  45.44600 19.50300 27.35200
C  44.23000 18.63600 29.19700
N  47.37900 24.80300 27.41600
C  47.02700 23.58600 26.81200
C  47.44200 23.71600 25.25000
C  48.05200 25.15600 25.14100
C  48.06500 25.63800 26.60200
C  48.50400 22.57000 24.80300
C  47.15100 26.01300 24.17300
C  47.90000 27.07700 23.26400
N  48.03500 26.88000 29.38600
C  48.63600 27.46500 28.27900
C  49.25300 28.73200 28.77000
C  49.00500 28.74800 30.16900
C  48.33300 27.58700 30.46900
C  49.92000 29.72700 27.95400
C  49.27800 29.47500 31.39300
O  49.90800 30.52600 31.58200
C  48.65200 28.70100 32.54300
C  49.78000 28.36500 33.53200
O  50.44800 27.33200 33.79700
O  49.75800 29.38500 34.40800
C  50.42300 29.14900 35.70400
H  45.04700 22.95000 33.03300
H  46.28000 21.64600 26.68000
H  48.96700 27.55300 26.22100
H  47.82100 26.36800 34.54900
H  45.15300 25.07400 34.43500
H  46.03000 23.14200 35.13800
H  47.07200 24.40300 35.97600
H  47.66000 23.39400 34.55900
H  44.93300 27.31600 34.83000
H  45.92900 28.32200 33.76300
H  45.73900 28.98300 36.37400
H  47.41200 28.73000 35.77200
H  44.20500 21.03900 32.55100
H  45.10300 19.68100 31.74000
H  43.45200 20.00700 31.36500
H  43.29100 19.08300 29.52500
H  44.84600 18.18100 29.97100
H  44.13000 17.79000 28.51800
H  46.53800 23.62800 24.64800
H  49.09300 25.13300 24.81800
H  48.34200 22.08900 23.83800
H  48.44700 21.75900 25.53000
H  49.48800 22.99800 24.99400
H  46.37400 26.55600 24.71200
H  46.69900 25.27500 23.51000
H  47.61500 26.96000 22.21900
H  48.97600 26.94400 23.37300
H  47.58900 28.05000 23.64400
H  49.82600 30.69900 28.43800
H  49.48500 29.98300 26.98900
H  50.98500 29.57900 27.77700
H  47.95100 29.33700 33.08500
H  51.31000 28.51700 35.75100
H  49.69500 28.72100 36.39400
H  50.68000 30.10100 36.16800
Mg -11.58900 16.17500 41.48100
C  -8.45300 14.66400 41.18500
C  -10.09400 19.05600 40.45200
C  -14.65100 17.42200 40.87800
C  -13.02300 13.06700 42.16900
N  -9.55600 16.70400 40.60700
C  -8.38600 15.94600 40.71000
C  -7.14800 16.72300 40.32100
C  -7.63700 18.17200 40.46000
C  -9.18900 17.98900 40.50600
C  -7.09700 18.94000 41.74100
C  -6.58100 16.42400 38.88400
C  -5.05600 16.43400 38.76200
H  -4.64500 16.93500 37.40300
N  -12.33800 17.91600 40.86700
C  -11.54700 19.02200 40.58300
C  -12.41400 20.14400 40.25500
C  -13.78500 19.76500 40.33800
C  -13.60800 18.31100 40.71800
C  -11.89700 21.46900 39.94500
C  -15.02500 20.49600 39.91600
O  -14.89900 21.62600 39.49200
C  -16.43000 19.96700 40.06300
N  -13.63100 15.32100 41.46100
C  -14.67700 16.03700 41.26400
C  -15.97200 15.22800 41.48300
C  -15.44300 13.82300 41.94200
C  -13.93700 14.10900 41.96900
C  -16.94900 15.92800 42.51800
C  -15.72700 12.70800 40.96600
C  -16.18500 11.36200 41.63100
N  -10.90500 14.24500 41.82900
C  -11.55700 13.09400 42.19500
C  -10.57800 12.05600 42.48900
C  -9.33200 12.62800 42.13400
C  -9.60800 13.90900 41.63600
C  -10.90700 10.63000 42.96400
C  -7.87400 12.43800 42.10500
O  -7.08600 11.62400 42.60700
C  -7.29300 13.71600 41.40200
C  -6.29300 14.28300 42.39300
O  -6.57700 14.84200 43.45000
O  -5.02500 14.01300 41.98800
C  -3.98600 14.55800 42.82300
H  -9.66800 20.03900 40.24100
H  -15.63900 17.87400 40.77500
H  -13.51700 12.10600 42.32800
H  -6.32500 16.50800 41.00400
H  -7.49000 18.73500 39.53800
H  -7.95300 19.09200 42.39900
H  -6.87000 19.99100 41.56200
H  -6.35200 18.31700 42.23500
H  -6.87100 17.03800 38.03200
H  -6.80500 15.38300 38.65200
H  -4.66200 15.42200 38.85800
H  -4.56700 17.03400 39.53000
H  -12.14800 21.66000 38.90200
H  -10.84700 21.70200 40.11800
H  -12.33900 22.25200 40.56100
H  -17.24700 20.68100 39.96400
H  -16.47700 19.65600 41.10700
H  -16.59500 19.08400 39.44500
H  -16.42500 15.20100 40.49100
H  -15.86300 13.52200 42.90100
H  -17.89100 16.16200 42.02100
H  -16.45700 16.85400 42.81700
H  -17.16300 15.25200 43.34600
H  -14.99700 12.42200 40.20900
H  -16.63900 12.94700 40.41900
H  -16.21400 11.47000 42.71500
H  -15.47700 10.61600 41.27200
H  -17.22700 11.06700 41.50600
H  -11.84500 10.68300 43.51600
H  -10.10400 10.12800 43.50400
H  -11.07100 10.15500 41.99700
H  -6.83200 13.40800 40.46300
H  -4.17100 15.63200 42.83400
H  -3.00800 14.19500 42.50600
H  -4.18100 14.24200 43.84800

