158

Mg 47.86000 35.39400 27.92200
C  45.99800 33.54800 30.24300
C  47.96700 38.03700 30.18500
C  49.10600 37.23900 25.43300
C  47.18900 32.79400 25.68300
N  47.00100 35.75400 29.91100
C  46.50000 34.74100 30.74200
C  46.59200 35.24600 32.22700
C  46.81600 36.75300 32.09900
C  47.26500 36.90400 30.66100
C  45.55800 37.66100 32.39500
C  47.71000 34.54300 33.01000
C  47.57600 34.46800 34.53100
H  46.47400 35.27800 35.21100
N  48.57400 37.27900 27.88100
C  48.46500 38.24700 28.92800
C  49.13600 39.43500 28.46800
C  49.54000 39.16600 27.12200
C  49.11700 37.83100 26.76200
C  49.43200 40.70000 29.32500
C  50.33700 40.08300 26.24200
O  50.76000 39.71500 25.13300
C  50.65500 41.49900 26.63300
N  48.01100 35.11300 25.84300
C  48.60500 35.96000 25.01700
C  48.89700 35.45700 23.63300
C  48.42400 33.99200 23.74100
C  47.82300 33.94600 25.18400
C  48.34000 36.27100 22.46900
C  49.48000 32.93100 23.38600
C  50.26500 32.37000 24.58400
N  46.83200 33.49400 27.91300
C  46.65500 32.59400 26.92200
C  45.79300 31.51500 27.38700
C  45.55400 31.83100 28.71100
C  46.16200 33.09000 28.96200
C  45.35300 30.29900 26.67000
C  44.85500 31.37900 29.88300
O  44.18000 30.36400 30.08200
C  45.00700 32.56200 30.88600
C  45.43500 32.01700 32.16600
O  46.44300 31.38200 32.43800
O  44.43500 32.25900 33.08900
C  44.36500 31.26700 34.13400
H  47.90100 38.90300 30.84700
H  49.58800 37.81700 24.64100
H  47.00900 32.01900 24.93500
H  45.64000 34.99200 32.69400
H  47.61800 37.12400 32.73700
H  45.48300 38.33200 31.53900
H  45.67100 38.18500 33.34400
H  44.67700 37.02300 32.32600
H  48.62400 35.09800 32.79800
H  47.85500 33.52700 32.64200
H  48.53700 34.79500 34.92700
H  47.49600 33.40700 34.76900
H  50.51800 40.75900 29.40700
H  49.02700 40.66500 30.33700
H  49.01200 41.57600 28.83000
H  49.80400 42.18100 26.65700
H  51.37900 41.82000 25.88400
H  51.23200 41.69400 27.53600
H  49.97800 35.51900 23.51600
H  47.63100 33.77700 23.02600
H  47.66400 37.05200 22.81500
H  47.80300 35.56800 21.83300
H  49.22900 36.60400 21.93300
H  50.15900 33.39900 22.67400
H  49.06700 32.12700 22.77800
H  51.22500 32.04500 24.18200
H  49.69800 31.61600 25.13000
H  50.38600 33.15500 25.33100
H  44.70500 29.74100 27.34600
H  46.24300 29.73900 26.38200
H  44.87700 30.57600 25.72900
H  44.05400 33.08900 30.86900
H  44.57100 31.81800 35.05200
H  44.92300 30.33100 34.15700
H  43.33700 30.91300 34.21000
Mg 0.61800 43.62100 25.56800
C  2.83800 43.51400 28.27100
C  -1.98800 42.94000 27.70000
C  -1.38700 43.78100 22.92900
C  3.41000 43.62000 23.43900
N  0.43300 43.20900 27.60100
C  1.47000 43.30000 28.57200
C  0.90800 43.00800 30.01000
C  -0.45900 42.43600 29.66100
C  -0.71800 42.93300 28.24100
C  -0.72400 40.87300 29.74400
C  0.79800 44.37200 30.84800
C  0.29800 44.34900 32.34500
H  0.28200 43.09600 33.13700
N  -1.42100 43.37500 25.32500
C  -2.32400 43.23800 26.36400
C  -3.67500 43.24000 25.90700
C  -3.53600 43.46700 24.51900
C  -2.06100 43.63500 24.20500
C  -4.81300 43.05700 26.75200
C  -4.62200 43.50000 23.53300
O  -4.33000 43.72200 22.38500
C  -6.06500 43.26200 23.93400
N  0.95400 43.47000 23.53500
C  -0.05400 43.58500 22.61500
C  0.45400 43.64500 21.17500
C  1.95800 43.89000 21.44100
C  2.12200 43.65300 22.90200
C  -0.00100 42.47900 20.16600
C  2.58000 45.26900 20.97600
C  2.19200 46.43400 21.81200
N  2.71200 43.51600 25.74800
C  3.71400 43.67300 24.79800
C  4.90400 43.81500 25.52000
C  4.66000 43.68500 26.83300
C  3.32500 43.60800 26.94300
C  6.23400 43.90300 24.97800
C  5.25900 43.71000 28.12500
O  6.41600 43.77900 28.43700
C  4.11400 43.45500 29.13900
C  4.21100 42.08000 29.77900
O  3.90400 41.01100 29.29500
O  4.71500 42.14900 31.06000
C  4.77600 40.80400 31.79700
H  -2.67900 42.69600 28.51000
H  -2.08500 43.79800 22.08800
H  4.14300 43.79900 22.64900
H  1.54500 42.23100 30.43200
H  -1.23400 42.92000 30.25600
H  -0.77900 40.36000 28.78400
H  -1.58800 40.69800 30.38500
H  0.15500 40.38500 30.16700
H  0.07900 45.02200 30.35000
H  1.74900 44.90000 30.78700
H  -0.70300 44.77700 32.39800
H  0.98300 44.97900 32.91200
H  -5.51500 43.86400 26.54300
H  -4.58400 42.98700 27.81600
H  -5.35100 42.12200 26.60100
H  -6.63200 42.99000 23.04400
H  -6.42800 44.11900 24.50000
H  -5.99500 42.35500 24.53500
H  0.15600 44.61700 20.78000
H  2.57400 43.20800 20.85400
H  -0.21000 42.98200 19.22200
H  -0.79400 41.86100 20.58600
H  0.88200 41.85500 20.02700
H  2.34600 45.45500 19.92800
H  3.66500 45.21200 21.07400
H  3.11500 46.80300 22.25900
H  1.44300 46.11400 22.53600
H  1.87000 47.28100 21.20600
H  6.85800 43.99700 25.86700
H  6.49000 44.82800 24.46200
H  6.48000 43.01200 24.39900
H  4.11500 44.21100 29.92400
H  3.78900 40.37800 31.97700
H  5.38300 40.78300 32.70200
H  5.25900 40.05500 31.16800

