158

Mg 49.01500 46.52200 42.61800
C  45.74400 47.37100 41.77400
C  48.46300 43.55200 40.86000
C  52.26700 46.00600 42.62800
C  49.52300 49.87400 43.50900
N  47.30200 45.62700 41.37400
C  46.00900 46.05900 41.27000
C  44.98700 45.03000 40.80800
C  45.88600 43.75700 40.85300
C  47.28300 44.27500 41.05900
C  45.42400 42.71300 41.90800
C  44.24200 45.36000 39.49900
C  44.90600 46.30800 38.46500
H  45.80700 45.71400 37.42100
N  50.13600 44.85800 42.03800
C  49.76900 43.76600 41.30200
C  50.93000 42.91000 41.25700
C  52.00300 43.62900 41.87500
C  51.48600 44.96900 42.19300
C  50.94300 41.55700 40.66500
C  53.42700 42.98300 41.94000
O  53.54500 41.76300 41.78000
C  54.61300 43.77400 42.34700
N  50.73100 47.87100 42.70900
C  51.94000 47.34400 42.91800
C  52.96700 48.42100 43.34900
C  52.02600 49.62700 43.70100
C  50.68000 49.09700 43.23400
C  53.87900 47.95000 44.49600
C  52.34200 51.09400 43.08600
C  52.37600 52.20900 44.11600
N  47.90600 48.29300 42.66300
C  48.21300 49.52300 43.24000
C  46.99200 50.36200 43.29900
C  45.97900 49.54400 42.67600
C  46.57100 48.29500 42.41100
C  46.77400 51.82000 43.73200
C  44.60600 49.43300 42.28500
O  43.66700 50.23500 42.30500
C  44.37700 48.05600 41.78900
C  43.38300 47.40000 42.62300
O  43.55300 47.36200 43.81800
O  42.39300 46.82400 41.90800
C  41.49000 46.03100 42.76200
H  48.33900 42.58700 40.36300
H  53.34700 45.88000 42.72700
H  49.68200 50.89700 43.85700
H  44.28700 44.87700 41.62900
H  45.87800 43.25800 39.88400
H  46.20400 42.54300 42.65000
H  45.09900 41.78900 41.43100
H  44.51900 42.95500 42.46600
H  43.22800 45.66300 39.76000
H  44.07000 44.38200 39.05000
H  45.64200 46.93800 38.96400
H  44.16700 46.92800 37.95700
H  50.01500 41.54500 40.09300
H  50.87400 40.81700 41.46200
H  51.81900 41.30500 40.06800
H  54.33700 44.23700 43.29500
H  54.79500 44.39500 41.47000
H  55.40200 43.07400 42.62000
H  53.51700 48.77400 42.47700
H  52.02700 49.67100 44.79000
H  53.73500 46.87600 44.61400
H  53.58700 48.51900 45.37900
H  54.92800 48.11700 44.25000
H  51.58200 51.37100 42.35500
H  53.34000 50.99100 42.66200
H  51.99800 51.90600 45.09200
H  51.72900 53.03200 43.81200
H  53.35500 52.68000 44.20400
H  47.59500 52.13700 44.37400
H  45.82800 51.98100 44.24900
H  46.70100 52.44400 42.84100
H  43.93600 48.26200 40.81400
H  41.83300 45.00300 42.64400
H  40.50000 46.14600 42.32100
H  41.46900 45.97100 43.85000
Mg 10.30500 46.67200 25.06200
C  7.71000 47.01300 27.61700
C  12.46000 48.21500 27.29000
C  12.54100 46.72900 22.67000
C  7.72800 46.11300 22.76800
N  10.05500 47.58900 27.18400
C  8.99700 47.42600 28.04300
C  9.34200 48.01200 29.43000
C  10.74400 48.74500 29.19300
C  11.15800 48.15100 27.86800
C  10.72000 50.31400 29.16700
C  9.42600 46.85500 30.48000
C  9.54400 47.30500 31.89100
H  8.80100 46.52100 33.05500
N  12.30100 47.04400 25.05200
C  12.98400 47.62000 26.07100
C  14.37000 47.86000 25.71400
C  14.46500 47.33300 24.34300
C  13.06000 47.01500 23.95500
C  15.38300 48.59000 26.59200
C  15.66200 47.15300 23.45100
O  15.64200 46.50200 22.40100
C  17.02900 47.63900 23.89100
N  10.11400 46.57300 22.99400
C  11.19800 46.44300 22.22000
C  10.88000 45.97000 20.82900
C  9.31100 45.91000 20.83900
C  9.03800 46.23600 22.30100
C  11.43300 46.66100 19.53800
C  8.58100 44.65300 20.18900
C  7.72000 44.98500 18.91200
N  8.14600 46.52000 25.11000
C  7.29100 46.22400 24.07100
C  5.96300 46.09400 24.65600
C  6.05500 46.41100 26.02700
C  7.43100 46.60100 26.27100
C  4.76400 45.83000 23.84200
C  5.26600 46.47200 27.23800
O  4.07600 46.33600 27.35200
C  6.32200 46.88300 28.33900
C  6.33800 45.67200 29.27300
O  7.16000 44.79500 29.21400
O  5.37900 45.82900 30.31700
C  5.33800 44.96900 31.42800
H  13.20900 48.77800 27.85000
H  13.26700 46.65100 21.85800
H  7.06500 45.88900 21.93000
H  8.66000 48.79400 29.76200
H  11.51400 48.44800 29.90600
H  11.17700 50.73200 28.27100
H  11.10100 50.82600 30.05100
H  9.69600 50.65300 29.00700
H  10.31700 46.26900 30.25300
H  8.51900 46.26100 30.37100
H  9.24200 48.35200 31.91300
H  10.60700 47.13200 32.05700
H  14.97400 49.59000 26.74000
H  16.45500 48.65000 26.40500
H  15.33000 47.97700 27.49100
H  17.67300 47.69000 23.01300
H  17.47000 47.04800 24.69400
H  16.84800 48.66200 24.22000
H  11.30500 44.97000 20.74200
H  8.97700 46.83000 20.35900
H  12.09300 47.47800 19.83000
H  10.63600 47.07700 18.92300
H  12.04400 45.95800 18.97200
H  7.83800 44.36900 20.93400
H  9.38400 43.92200 20.09400
H  8.18100 44.45900 18.07600
H  7.50600 46.04400 18.76800
H  6.79800 44.44600 19.12800
H  4.85000 44.92800 23.23600
H  4.38500 46.63100 23.20800
H  3.97900 45.61600 24.56700
H  6.27200 47.84600 28.84900
H  5.82600 44.02600 31.18200
H  4.28000 44.72400 31.52600
H  5.72500 45.48600 32.30700

