158

Mg 7.60100 2.88000 27.27900
C  9.09600 1.61000 30.33500
C  5.61400 4.94300 29.21200
C  6.46100 4.20400 24.45000
C  9.47200 0.50400 25.47000
N  7.36600 3.16400 29.50700
C  8.10300 2.61700 30.52600
C  7.69100 3.23400 31.84800
C  6.53600 4.18600 31.47400
C  6.40900 4.09400 29.94200
C  5.24000 3.81200 32.22400
C  8.78300 4.01600 32.60700
C  8.41200 4.43900 33.97900
H  9.28200 4.06800 35.21500
N  6.26600 4.47300 26.87400
C  5.55800 5.23400 27.78800
C  4.87300 6.27600 27.07700
C  5.08000 6.07900 25.71100
C  5.93100 4.87400 25.65600
C  4.06900 7.28700 27.73800
C  4.50500 6.81900 24.50700
O  4.59900 6.46300 23.34000
C  3.61800 7.95200 24.70200
N  7.79300 2.30500 25.30600
C  7.28200 3.06700 24.32400
C  7.74900 2.65500 22.93900
C  8.78400 1.53300 23.24700
C  8.71900 1.43000 24.81100
C  6.60500 2.21000 22.09100
C  10.22700 1.88700 22.65900
C  11.10000 2.89600 23.35100
N  8.90000 1.26400 27.81000
C  9.64900 0.41400 26.91100
C  10.47900 -0.49400 27.74900
C  10.31700 0.00500 29.06300
C  9.31000 1.03600 29.08200
C  11.54000 -1.53100 27.32600
C  10.69300 -0.27600 30.41200
O  11.38200 -1.19300 30.84300
C  10.02100 0.82900 31.31400
C  9.15200 0.16300 32.35300
O  8.12900 -0.45700 32.15400
O  9.74200 0.42900 33.56700
C  8.91400 0.13900 34.77400
H  5.12500 5.63500 29.90100
H  6.18000 4.54900 23.45300
H  10.14700 -0.11300 24.87200
H  7.54500 2.34600 32.46300
H  6.70700 5.21700 31.78200
H  5.41500 2.92300 32.83100
H  4.53900 3.50600 31.44800
H  4.81100 4.63600 32.79400
H  8.89600 4.96600 32.08500
H  9.74500 3.50400 32.65000
H  7.56400 3.82000 34.27100
H  8.03500 5.46100 34.03700
H  4.04400 7.06200 28.80400
H  3.08400 7.07100 27.32400
H  4.36600 8.27900 27.39700
H  3.92800 8.73700 25.39200
H  2.63900 7.55200 24.96500
H  3.45100 8.53600 23.79800
H  8.25400 3.50100 22.47200
H  8.52700 0.52200 22.93300
H  6.39300 2.94500 21.31400
H  5.67300 2.18800 22.65500
H  6.72500 1.27700 21.53900
H  10.04800 2.25300 21.64800
H  10.76200 0.93700 22.64000
H  10.99700 2.81900 24.43400
H  10.77800 3.87000 22.98100
H  12.15400 2.79100 23.09700
H  12.39800 -1.22700 27.92600
H  11.63900 -1.65000 26.24700
H  11.21000 -2.53500 27.59100
H  10.69300 1.60700 31.67700
H  8.06900 0.82700 34.77900
H  9.53600 0.06700 35.66700
H  8.52300 -0.87800 34.80300
Mg 29.97600 58.47300 40.13900
C  27.21500 56.65300 39.06300
C  31.98300 55.92300 39.30100
C  32.52000 60.54900 40.27400
C  27.73500 61.38300 40.54400
N  29.58700 56.49300 39.31100
C  28.46100 55.94800 39.02700
C  28.59800 54.47600 38.59000
C  30.04400 54.22700 39.13300
C  30.61000 55.65800 39.33300
C  30.11800 53.40100 40.49200
C  28.46600 54.17300 37.03400
C  27.34500 53.26100 36.49800
H  26.61300 53.81200 35.30000
N  32.03800 58.25100 39.85200
C  32.69800 57.11900 39.52200
C  34.12200 57.27600 39.59700
C  34.32600 58.64100 39.87100
C  32.92100 59.21200 40.08400
C  35.11900 56.14600 39.34400
C  35.72000 59.31000 39.88600
O  36.68500 58.74700 39.49900
C  35.87100 60.75800 40.26000
N  30.07400 60.69100 40.53700
C  31.36400 61.26500 40.48900
C  31.22900 62.80200 40.62300
C  29.67300 63.05300 40.85700
C  29.11800 61.66000 40.73900
C  32.13100 63.49300 41.67900
C  29.22500 64.11500 39.82400
C  29.42200 65.57200 40.27200
N  27.85700 58.95600 39.89300
C  27.12000 60.15400 40.04900
C  25.71700 59.91200 39.67900
C  25.65300 58.52000 39.37200
C  26.99200 58.04300 39.39300
C  24.64700 60.94000 39.57300
C  24.86000 57.39100 38.90100
O  23.65400 57.35200 38.58400
C  25.79300 56.16800 38.75400
C  25.43200 54.98400 39.57400
O  25.88500 54.73400 40.70600
O  24.36100 54.30000 39.00300
C  23.80700 53.29400 39.84800
H  32.50600 54.97600 39.14900
H  33.28200 61.32300 40.15900
H  26.99600 62.18000 40.65700
H  27.89300 53.81700 39.09700
H  30.54400 53.58000 38.41300
H  30.38200 54.00200 41.36200
H  30.98500 52.74400 40.42000
H  29.18200 52.84800 40.57300
H  29.39200 53.86200 36.55100
H  28.28500 55.12400 36.53300
H  26.59100 53.07900 37.26300
H  27.73900 52.28600 36.20800
H  35.93800 56.52200 38.73100
H  34.67900 55.28700 38.83800
H  35.53200 55.86500 40.31200
H  36.88200 61.07100 40.52300
H  35.24200 60.99200 41.11900
H  35.56600 61.33900 39.38900
H  31.50400 63.09900 39.61100
H  29.50600 63.47300 41.84900
H  32.69000 62.73900 42.23300
H  31.48700 63.98800 42.40500
H  32.90600 64.18200 41.34300
H  28.15800 64.07700 39.60200
H  29.74700 63.94100 38.88300
H  28.43000 66.02400 40.25800
H  30.00500 66.07100 39.49900
H  29.80700 65.72000 41.28100
H  24.81000 61.53600 38.67600
H  24.86400 61.63600 40.38400
H  23.71200 60.38200 39.62200
H  25.78800 55.77600 37.73700
H  24.64600 52.65700 40.12700
H  23.03500 52.69600 39.36200
H  23.33500 53.76700 40.70900

