158

Mg 48.65300 15.85600 29.34000
C  46.38900 15.30300 31.92400
C  50.83000 17.23300 31.59800
C  50.77500 16.29100 26.71400
C  46.30200 14.44200 27.12100
N  48.54100 16.30200 31.57300
C  47.60000 15.84000 32.42100
C  48.10200 15.99400 33.86500
C  49.34100 16.94500 33.71300
C  49.67300 16.76600 32.19100
C  49.18100 18.41500 34.16300
C  48.50500 14.60500 34.45400
C  48.36100 14.26300 36.00700
H  48.08200 15.52200 36.84300
N  50.53200 16.65600 29.18700
C  51.23300 17.21900 30.20100
C  52.43200 17.70100 29.63600
C  52.48800 17.38900 28.25700
C  51.19500 16.82000 27.98400
C  53.45000 18.47600 30.46700
C  53.50500 17.77400 27.14900
O  53.26500 17.68100 25.91100
C  54.83100 18.25600 27.61400
N  48.53100 15.38800 27.15100
C  49.47300 15.81200 26.31900
C  49.11300 15.54900 24.83400
C  47.77400 14.77100 25.02900
C  47.49500 14.86200 26.48900
C  48.92400 16.85600 24.07900
C  47.79700 13.24000 24.66000
C  47.00600 12.71600 23.48200
N  46.69900 15.21600 29.41100
C  45.85400 14.63100 28.45500
C  44.62000 14.18700 29.01000
C  44.84100 14.42700 30.39200
C  46.04900 15.13900 30.56700
C  43.56300 13.29400 28.28900
C  44.27000 14.26500 31.72400
O  43.28500 13.63600 32.04600
C  45.22000 14.84100 32.75400
C  44.44200 15.78500 33.60600
O  44.26300 16.92600 33.26800
O  44.16800 15.20700 34.80900
C  43.40200 16.07200 35.76900
H  51.55100 17.67100 32.29200
H  51.41200 16.32000 25.82800
H  45.58600 14.03700 26.40300
H  47.28700 16.43200 34.44100
H  50.24600 16.65000 34.24500
H  49.63900 19.18100 33.53700
H  49.69300 18.52300 35.11900
H  48.13400 18.70300 34.25900
H  49.54400 14.48300 34.14700
H  47.93700 13.90400 33.84300
H  49.27900 13.72800 36.25000
H  47.51800 13.58100 36.11900
H  53.99900 19.19500 29.85800
H  54.09900 17.73800 30.93900
H  52.86100 19.05400 31.17900
H  54.62400 19.32100 27.72200
H  55.62400 18.04500 26.89600
H  55.01200 17.72400 28.54700
H  49.81200 14.95300 24.24700
H  46.95700 15.16700 24.42700
H  49.13700 16.59300 23.04300
H  49.53900 17.68400 24.43400
H  47.90500 17.23600 24.15000
H  47.47300 12.61200 25.49000
H  48.84200 12.97900 24.49200
H  46.85700 13.55300 22.79900
H  45.98700 12.43000 23.74400
H  47.50900 11.88200 22.99300
H  42.92200 13.93300 27.68200
H  42.96300 12.68100 28.96100
H  44.04400 12.61300 27.58700
H  45.59600 14.01300 33.35500
H  42.39600 15.65300 35.76700
H  43.35800 17.14000 35.55200
H  43.92600 16.08700 36.72500
Mg -10.63600 39.59400 40.26400
C  -9.81700 36.32200 39.43100
C  -7.28700 40.45300 39.32700
C  -11.50700 42.78400 40.05300
C  -13.88600 38.54500 40.79900
N  -8.77900 38.52900 39.20000
C  -8.71100 37.18000 39.11400
C  -7.30300 36.78700 38.72700
C  -6.47500 38.04100 38.98600
C  -7.53800 39.09700 39.27000
C  -5.38100 37.89500 40.03800
C  -7.13500 36.14000 37.36400
C  -7.73000 37.02600 36.24500
H  -8.87500 36.40500 35.42900
N  -9.53900 41.33400 39.86900
C  -8.22000 41.49800 39.47300
C  -7.92500 42.87600 39.47300
C  -9.11100 43.62700 39.65900
C  -10.12200 42.58400 39.87200
C  -6.55800 43.36200 39.03600
C  -9.17600 45.15000 39.59000
O  -8.22700 45.80200 39.23200
C  -10.45400 45.87300 39.87800
N  -12.53100 40.59200 40.34700
C  -12.65200 41.91100 40.20200
C  -14.08300 42.33300 39.95700
C  -14.90100 41.00500 40.42600
C  -13.71700 39.96700 40.52300
C  -14.46200 43.57800 40.73300
C  -16.08500 40.54600 39.52200
C  -17.47300 41.14800 39.91100
N  -11.66600 37.85700 40.17800
C  -12.93400 37.57900 40.55900
C  -13.13600 36.14200 40.49700
C  -11.98300 35.53300 39.99000
C  -11.08700 36.70900 39.82900
C  -14.41300 35.45000 40.83400
C  -11.28200 34.26700 39.59000
O  -11.63800 33.08800 39.50900
C  -9.87200 34.79000 39.20700
C  -8.90400 34.05000 40.10200
O  -8.72100 34.32600 41.29400
O  -8.35300 33.01300 39.43100
C  -7.19200 32.36100 40.11600
H  -6.22700 40.68500 39.20700
H  -11.86400 43.81300 39.96500
H  -14.91700 38.35600 41.10400
H  -7.05700 35.96000 39.39300
H  -5.94200 38.33400 38.08100
H  -4.46100 38.02000 39.46500
H  -5.27900 36.92800 40.53000
H  -5.39100 38.65900 40.81500
H  -7.50100 35.11600 37.28400
H  -6.07700 36.31100 37.16300
H  -7.00300 37.33600 35.49500
H  -8.09200 37.94600 36.70500
H  -6.42500 44.17500 39.75000
H  -6.60800 43.67700 37.99400
H  -5.76100 42.63400 39.19300
H  -10.92600 45.66800 40.83900
H  -11.18000 45.71500 39.08100
H  -10.10700 46.90300 39.79000
H  -14.27700 42.50500 38.89800
H  -15.35500 41.10800 41.41100
H  -13.73700 44.00900 41.42400
H  -15.32900 43.44300 41.37900
H  -14.67100 44.38500 40.03100
H  -16.17200 39.46000 39.52900
H  -15.83700 41.05800 38.59300
H  -17.44100 41.86300 40.73400
H  -18.00500 40.21600 40.09900
H  -18.00100 41.66600 39.11100
H  -15.22500 35.83400 40.21500
H  -14.68000 35.57900 41.88300
H  -14.34700 34.40900 40.51800
H  -9.60000 34.45400 38.20600
H  -7.39900 32.13100 41.16100
H  -6.38700 33.08700 40.23500
H  -6.85600 31.45400 39.61400

