158

Mg 26.24800 1.81900 29.17000
C  27.96300 1.43600 32.10500
C  23.26900 1.76000 31.09500
C  24.39300 1.73200 26.32100
C  29.17400 1.26800 27.36300
N  25.75200 1.65300 31.34600
C  26.60800 1.57700 32.37500
C  25.95300 1.55200 33.73100
C  24.42500 1.37200 33.38100
C  24.44900 1.60900 31.83700
C  23.85500 -0.02700 33.85900
C  26.30300 2.81700 34.61300
C  26.88100 2.48900 35.96600
H  26.85600 3.54900 37.10000
N  24.14500 1.88700 28.71700
C  23.11000 1.86800 29.66200
C  21.82500 1.88500 28.92600
C  22.14300 1.96700 27.54700
C  23.59000 1.87600 27.46900
C  20.50000 1.94900 29.63600
C  21.22100 2.09200 26.38400
O  21.61300 2.10900 25.21900
C  19.66600 2.22200 26.60300
N  26.68400 1.36300 27.10900
C  25.75600 1.55100 26.12800
C  26.38500 1.58300 24.71600
C  27.90200 1.67500 25.10800
C  27.94200 1.47700 26.63400
C  26.06100 0.33400 23.84800
C  28.57500 3.02000 24.57700
C  28.21000 4.37300 25.14400
N  28.15500 1.39600 29.55600
C  29.30300 1.24000 28.74100
C  30.47900 1.14700 29.57700
C  30.02800 1.20400 30.92200
C  28.58100 1.36200 30.83300
C  31.88300 0.90800 29.20300
C  30.44500 1.20300 32.22600
O  31.58900 1.03400 32.61900
C  29.20500 1.41600 33.08800
C  29.03500 0.20600 34.09500
O  28.39300 -0.85400 34.04200
O  29.81100 0.56800 35.19800
C  29.68600 -0.31700 36.41000
H  22.33000 1.78200 31.65300
H  23.82300 1.74300 25.39000
H  30.03100 1.20100 26.69000
H  26.34400 0.63000 34.16200
H  23.85600 2.08700 33.97600
H  24.51100 -0.48900 34.59600
H  23.85400 -0.64700 32.96200
H  22.87400 0.06300 34.32400
H  25.43000 3.45500 34.75300
H  26.99500 3.45600 34.06300
H  27.91800 2.15200 35.96000
H  26.22900 1.72800 36.39500
H  20.47600 2.04800 30.72100
H  19.98200 1.08000 29.22900
H  20.02600 2.85100 29.24900
H  19.27200 1.43600 27.24800
H  19.08200 2.13900 25.68600
H  19.63900 3.23200 27.01200
H  26.13000 2.46300 24.12500
H  28.51200 0.83400 24.77700
H  26.92200 -0.23600 23.50000
H  25.69200 0.74400 22.90800
H  25.28800 -0.22300 24.37900
H  28.41200 3.13300 23.50500
H  29.65800 2.90200 24.55100
H  27.98300 5.01000 24.29000
H  29.01200 4.79200 25.75200
H  27.37900 4.35500 25.84900
H  32.03700 -0.10300 29.57900
H  32.43500 1.67500 29.74700
H  32.07500 0.95400 28.13100
H  29.34500 2.23000 33.79900
H  28.69600 -0.40000 36.85800
H  30.41400 0.11500 37.09800
H  30.01800 -1.30800 36.10200
Mg -1.91700 34.97800 26.82900
C  -3.67400 33.15000 29.22900
C  -0.65200 36.95700 29.30100
C  -0.58500 36.70300 24.39900
C  -3.69900 33.03800 24.33800
N  -2.02500 34.96700 29.01400
C  -2.77300 34.11300 29.76900
C  -2.50800 34.37200 31.32400
C  -1.66500 35.67800 31.29000
C  -1.40200 35.85100 29.74100
C  -2.38500 36.93500 31.91800
C  -1.91500 33.08600 32.10300
C  -2.81200 32.54600 33.34800
H  -2.10400 32.63000 34.75400
N  -0.71800 36.51100 26.84900
C  -0.33700 37.25800 27.94600
C  0.57900 38.31200 27.53100
C  0.71600 38.16900 26.17200
C  -0.23100 37.11900 25.70400
C  1.30900 39.35100 28.44000
C  1.52000 38.98900 25.17400
O  1.47000 38.68800 23.97500
C  2.43500 40.08700 25.48600
N  -2.27500 34.92200 24.68200
C  -1.52400 35.73500 23.95800
C  -1.69500 35.55700 22.47600
C  -2.79800 34.40800 22.39200
C  -2.99700 34.14200 23.84700
C  -1.97800 36.84200 21.58000
C  -2.50300 33.11700 21.59000
C  -1.16800 32.46500 21.92000
N  -3.39700 33.41100 26.73300
C  -4.02200 32.78600 25.68100
C  -4.80900 31.66200 26.21200
C  -4.65800 31.78500 27.60300
C  -3.86100 32.87000 27.87800
C  -5.54800 30.55600 25.41800
C  -5.12000 31.25900 28.88300
O  -5.92600 30.34700 29.10800
C  -4.49300 32.17300 30.00700
C  -5.55800 32.87100 30.81400
O  -6.02200 33.99900 30.63000
O  -6.00400 32.05600 31.82300
C  -7.02300 32.66400 32.72800
H  -0.29900 37.55000 30.14700
H  -0.31800 37.40500 23.60700
H  -4.18400 32.35200 23.64000
H  -3.46100 34.48300 31.84100
H  -0.66200 35.65100 31.71600
H  -1.71600 37.26400 32.71300
H  -3.24900 36.61400 32.49900
H  -2.62900 37.68000 31.16000
H  -1.00400 33.39200 32.61600
H  -1.78600 32.25600 31.40800
H  -2.99000 31.47900 33.21200
H  -3.77200 33.06200 33.32100
H  0.83200 40.32100 28.30400
H  2.33700 39.53600 28.13100
H  1.21200 39.15000 29.50700
H  2.73800 40.53900 24.54200
H  3.34700 39.67500 25.91900
H  1.94300 40.84200 26.09800
H  -0.77600 35.08700 22.12400
H  -3.70400 34.83800 21.96600
H  -2.31300 37.70000 22.16300
H  -2.73600 36.58600 20.84100
H  -1.11600 37.11100 20.96800
H  -2.47300 33.35600 20.52700
H  -3.30600 32.38000 21.60600
H  -1.33900 31.44500 22.26600
H  -0.53100 33.03100 22.59900
H  -0.56900 32.34200 21.01800
H  -5.75000 29.87900 26.24800
H  -4.96800 30.16200 24.58300
H  -6.45800 30.89900 24.92600
H  -3.86200 31.55000 30.64100
H  -6.51300 33.17000 33.54800
H  -7.64300 31.86500 33.13600
H  -7.65200 33.28000 32.08600

