158

Mg 17.33900 -1.40900 27.53400
C  16.42100 0.50400 30.39300
C  19.66600 -3.11400 29.48000
C  18.67200 -2.86300 24.71700
C  15.70100 0.93100 25.61500
N  17.90500 -1.34200 29.69200
C  17.25200 -0.58500 30.69300
C  17.92500 -0.82400 32.08500
C  19.08200 -1.94600 31.69700
C  18.88500 -2.16000 30.18300
C  20.49800 -1.57600 32.24600
C  16.83500 -1.40900 33.07900
C  16.73500 -0.86500 34.53200
H  18.07300 -0.22800 34.98900
N  18.81200 -2.89200 27.13500
C  19.66800 -3.50100 28.06100
C  20.41000 -4.47700 27.44800
C  20.03000 -4.52200 26.05700
C  19.06400 -3.40300 25.89600
C  21.39800 -5.40900 28.23200
C  20.62100 -5.38900 24.99400
O  20.23600 -5.36400 23.81700
C  21.70400 -6.37400 25.34000
N  16.93500 -1.30300 25.52500
C  17.71800 -1.88300 24.52600
C  17.44100 -1.33400 23.07900
C  16.38800 -0.24800 23.37700
C  16.41200 -0.14500 24.91600
C  18.68200 -0.92300 22.24300
C  15.01800 -0.44800 22.81200
C  14.90400 -0.10500 21.34300
N  16.18400 0.30800 27.82600
C  15.59700 1.18300 26.94800
C  14.95800 2.25600 27.64700
C  15.15400 1.94600 28.99800
C  15.95100 0.80200 29.05100
C  14.21000 3.47600 27.14900
C  14.80700 2.39200 30.36700
O  14.06300 3.31500 30.73800
C  15.64300 1.43500 31.32900
C  16.51700 2.34600 32.09600
O  17.71500 2.58700 31.85900
O  15.68900 2.84200 33.07000
C  16.40600 3.75800 33.96100
H  20.31200 -3.71400 30.12500
H  19.19800 -3.28300 23.85700
H  15.18300 1.70900 25.05000
H  18.33300 0.12700 32.42800
H  18.83000 -2.92700 32.09900
H  20.92600 -2.29500 32.94500
H  20.50800 -0.59100 32.71200
H  21.12800 -1.51900 31.35800
H  17.06900 -2.46300 33.22800
H  15.85500 -1.12500 32.69400
H  16.37600 -1.68300 35.15600
H  16.01500 -0.04900 34.59200
H  21.50100 -5.33100 29.31400
H  22.37900 -5.45800 27.75900
H  20.88300 -6.36600 28.14100
H  21.26400 -7.13400 25.98600
H  22.35700 -5.64800 25.82500
H  22.17300 -6.89900 24.50800
H  17.00300 -2.10200 22.44100
H  16.81100 0.70900 23.07300
H  18.62000 -1.06100 21.16400
H  19.60000 -1.28200 22.70800
H  18.79100 0.15900 22.33100
H  14.25300 0.04200 23.41500
H  14.68400 -1.47800 22.93900
H  15.18600 -0.96400 20.73500
H  15.37300 0.84300 21.07600
H  13.83900 0.12300 21.29800
H  13.86200 3.34600 26.12400
H  14.87500 4.34000 27.11900
H  13.34900 3.58200 27.80900
H  14.96800 0.84100 31.94600
H  16.68300 4.67800 33.44600
H  17.37500 3.34000 34.23100
H  15.78900 3.83600 34.85700
Mg -9.83300 16.84800 40.96700
C  -6.29900 16.61000 41.07000
C  -9.42900 20.22800 40.21600
C  -13.05800 16.97100 39.94200
C  -10.03800 13.49800 41.40200
N  -8.10500 18.21400 40.53300
C  -6.81500 17.85000 40.65300
C  -5.90600 19.02100 40.28800
C  -6.90600 20.23100 40.53800
C  -8.25700 19.50800 40.50100
C  -6.56200 21.15300 41.83200
C  -5.37500 19.06600 38.81500
C  -3.76700 18.85600 38.62000
H  -3.37300 17.57600 37.98700
N  -11.12900 18.44000 40.23500
C  -10.75600 19.69200 39.97600
C  -11.85500 20.44900 39.55200
C  -12.95800 19.55400 39.53900
C  -12.43400 18.26600 39.93700
C  -11.76300 21.95000 39.29500
C  -14.32200 19.92500 38.97200
O  -14.67100 21.06200 38.77300
C  -15.39500 18.90100 38.73000
N  -11.26800 15.31400 40.27500
C  -12.51900 15.69200 40.16700
C  -13.52900 14.59200 40.58400
C  -12.51900 13.38500 40.87400
C  -11.23500 14.11700 40.89800
C  -14.44000 14.93300 41.77600
C  -12.37200 12.21600 39.87200
C  -12.92600 10.89800 40.30000
N  -8.50600 15.30000 41.16000
C  -8.71600 13.94000 41.36700
C  -7.46900 13.28400 41.65100
C  -6.50600 14.28100 41.53300
C  -7.16100 15.51000 41.26200
C  -7.35300 11.84000 42.03500
C  -5.07500 14.54100 41.69100
O  -4.22300 13.80200 42.08900
C  -4.91500 16.17300 41.41700
C  -4.54100 16.74000 42.75900
O  -5.25600 17.02100 43.69500
O  -3.18300 16.75600 42.70700
C  -2.54800 17.20500 43.82500
H  -9.14300 21.28100 40.25500
H  -14.14500 17.03600 40.02700
H  -10.13000 12.46300 41.73900
H  -5.04500 19.11900 40.94800
H  -6.92300 20.91100 39.68700
H  -6.64900 22.22900 41.68000
H  -5.55300 20.98100 42.20700
H  -7.31700 20.93100 42.58700
H  -5.50400 20.05000 38.36300
H  -5.90800 18.32600 38.21800
H  -3.25200 18.88400 39.58000
H  -3.28400 19.67500 38.08700
H  -12.11500 22.53100 40.14800
H  -12.36400 22.21000 38.42400
H  -10.70700 22.21500 39.23200
H  -16.26700 19.35200 38.25700
H  -15.71200 18.50700 39.69600
H  -15.03100 18.06300 38.13500
H  -14.12900 14.36900 39.70200
H  -12.57800 13.06400 41.91400
H  -14.22000 14.48400 42.74400
H  -15.43800 14.56300 41.54100
H  -14.40900 16.01700 41.88800
H  -11.33600 11.93600 39.68300
H  -12.86400 12.40100 38.91800
H  -13.01800 10.84700 41.38500
H  -12.17700 10.13100 40.10300
H  -13.83600 10.59000 39.78500
H  -8.35400 11.41200 42.07800
H  -6.72200 11.63300 42.89900
H  -6.91000 11.41500 41.13400
H  -4.31100 16.37500 40.53200
H  -2.96300 16.67700 44.68300
H  -2.83100 18.24700 43.97000
H  -1.46400 17.11800 43.74300

