158

Mg 48.59200 34.67500 27.05600
C  46.59200 33.68000 29.82800
C  49.03100 37.55400 28.56100
C  49.62900 35.99700 24.11800
C  47.11800 32.09200 25.31500
N  48.02700 35.38700 29.00400
C  47.28700 34.84800 30.01800
C  47.30000 35.74200 31.33100
C  47.74600 37.12600 30.68600
C  48.28700 36.66000 29.30900
C  46.65100 38.21500 30.56000
C  48.26600 35.32800 32.40500
C  47.68600 35.37600 33.89300
H  48.47100 35.97700 34.94600
N  49.52000 36.45000 26.53900
C  49.61900 37.57600 27.25900
C  50.42800 38.58000 26.61400
C  50.65000 38.02600 25.29600
C  49.93600 36.80000 25.30100
C  50.88600 39.90900 27.23900
C  51.53600 38.53800 24.18200
O  51.71800 37.94400 23.14400
C  52.27100 39.85800 24.36000
N  48.31900 34.25100 25.01200
C  48.89200 34.84100 23.94700
C  48.76300 34.09400 22.60400
C  47.85400 32.85800 23.02400
C  47.76900 33.07100 24.54400
C  48.35500 34.95000 21.42200
C  48.44400 31.48500 22.43800
C  49.86400 31.14800 22.97800
N  47.22800 33.12500 27.43600
C  46.73100 32.10600 26.62200
C  45.80600 31.23600 27.37900
C  45.72000 31.83000 28.69100
C  46.62000 32.95700 28.66500
C  45.06800 30.09200 26.88200
C  45.08200 31.77000 29.99900
O  44.28900 30.98200 30.45500
C  45.59700 33.08200 30.77300
C  45.99600 32.75000 32.17500
O  46.96700 31.99900 32.39300
O  45.06600 33.21300 33.04800
C  45.08500 32.48500 34.28500
H  49.33400 38.44000 29.12200
H  49.90500 36.31500 23.11100
H  46.64800 31.31700 24.70700
H  46.30200 35.89000 31.74300
H  48.49600 37.59800 31.32000
H  45.75100 37.70600 30.90400
H  46.53800 38.74300 29.61300
H  46.97400 39.00300 31.24000
H  49.23500 35.82100 32.32900
H  48.50000 34.28400 32.20000
H  47.63800 34.34100 34.23300
H  46.70900 35.85500 33.83700
H  50.24500 40.20800 28.06800
H  50.81100 40.74000 26.53700
H  51.88700 39.87400 27.66800
H  51.51100 40.63900 24.36000
H  53.02700 39.99000 23.58600
H  52.78600 39.97400 25.31300
H  49.80100 33.84300 22.38400
H  46.86200 33.04100 22.61000
H  49.19600 35.13000 20.75200
H  47.89600 35.91400 21.63700
H  47.64200 34.39100 20.81600
H  48.69200 31.57200 21.38000
H  47.73400 30.72500 22.76400
H  49.70300 30.18000 23.45200
H  50.28700 31.90200 23.64200
H  50.52700 31.04600 22.11900
H  45.72600 29.22900 26.78300
H  44.59200 30.23800 25.91200
H  44.22100 29.92900 27.54900
H  44.71300 33.70800 30.89100
H  45.15000 31.43100 34.01300
H  44.21400 32.79700 34.86100
H  45.94200 32.85800 34.84600
Mg 31.06900 58.30700 39.96200
C  28.18900 56.49500 38.95400
C  32.94200 55.60900 39.23100
C  33.77400 60.31300 40.04500
C  29.06700 61.21000 40.25600
N  30.58200 56.38900 39.08500
C  29.40200 55.82500 38.68600
C  29.54700 54.34800 38.24000
C  30.97100 54.01100 38.91000
C  31.55800 55.44900 39.05300
C  30.93300 53.07200 40.12900
C  29.54600 54.37600 36.72500
C  28.36400 53.66500 35.98400
H  27.35200 54.57500 35.24600
N  33.04300 58.01100 39.69200
C  33.65100 56.81900 39.45100
C  35.07900 57.01400 39.36700
C  35.36800 58.35900 39.70500
C  34.03700 59.01900 39.75300
C  35.99600 55.83400 39.08800
C  36.77800 58.93800 39.93800
O  37.76600 58.28500 39.63300
C  36.94700 60.33000 40.30900
N  31.41600 60.57100 39.79600
C  32.65000 61.06500 40.05500
C  32.62000 62.45900 40.58700
C  31.11600 62.70100 40.88100
C  30.44600 61.41000 40.28500
C  33.52300 62.69900 41.84700
C  30.40700 63.93000 40.23300
C  29.33600 64.73000 41.12600
N  29.00500 58.78300 39.70200
C  28.38700 60.00400 39.93600
C  26.96000 59.78700 39.84600
C  26.84000 58.39300 39.51900
C  28.12200 57.83200 39.36000
C  25.78100 60.78600 40.11100
C  25.87000 57.34600 39.37600
O  24.66100 57.38700 39.48400
C  26.73400 56.06700 38.85500
C  26.35100 54.85100 39.68000
O  27.00100 54.34300 40.53400
O  25.25200 54.23600 39.08400
C  24.79400 52.97100 39.60800
H  33.51700 54.69300 39.08500
H  34.60800 61.00700 40.16700
H  28.51200 62.07800 40.61800
H  28.73100 53.74500 38.63700
H  31.59400 53.64200 38.09400
H  29.93300 52.68000 40.31400
H  31.27000 53.69800 40.95500
H  31.63400 52.26000 39.93800
H  30.44500 53.92000 36.31000
H  29.72100 55.41300 36.43900
H  27.84100 52.99600 36.66700
H  28.83400 53.02100 35.24100
H  36.10000 55.83400 38.00300
H  35.71200 54.86100 39.48800
H  37.01800 55.82100 39.46500
H  36.47100 60.55900 41.26300
H  36.52500 60.92900 39.50200
H  38.01700 60.43000 40.49000
H  33.00900 63.10000 39.79500
H  30.96000 62.60800 41.95600
H  33.98100 61.78100 42.21400
H  32.89600 63.21600 42.57300
H  34.28300 63.38300 41.46800
H  30.08800 63.53400 39.27000
H  31.23600 64.60300 40.01200
H  28.44000 64.92200 40.53500
H  29.76400 65.66900 41.47600
H  28.99400 64.24100 42.03800
H  25.88000 61.40700 39.22100
H  25.93100 61.42200 40.98300
H  24.81300 60.28400 40.12000
H  26.45500 55.84200 37.82600
H  25.62400 52.26500 39.62500
H  23.95300 52.51900 39.08400
H  24.56300 53.09300 40.66600

