158

Mg 46.96900 25.96700 29.29500
C  47.78700 27.93600 32.06200
C  45.92100 23.47400 31.52100
C  45.93000 24.27200 26.63700
C  48.04100 28.45000 27.20600
N  46.80400 25.80200 31.56700
C  47.19200 26.72700 32.49700
C  46.68200 26.31900 33.88700
C  46.20200 24.87100 33.65600
C  46.28400 24.71500 32.13600
C  46.98000 23.82700 34.47800
C  45.63100 27.23100 34.47400
C  45.98700 27.95800 35.82300
H  46.39100 27.06700 37.02400
N  46.18600 24.08900 29.09700
C  45.82400 23.24100 30.13400
C  45.31800 22.00800 29.54500
C  45.14000 22.25400 28.11700
C  45.77900 23.57900 27.91300
C  44.98500 20.77400 30.39200
C  44.57600 21.35200 27.05300
O  44.61000 21.61600 25.84800
C  43.99900 20.11800 27.43200
N  47.22700 26.13400 27.11400
C  46.55800 25.39400 26.26400
C  46.53200 25.89800 24.83600
C  47.18300 27.32100 25.05400
C  47.47300 27.34100 26.57900
C  47.29700 25.01600 23.78500
C  46.29600 28.52200 24.63600
C  47.06900 29.63300 23.96000
N  47.96300 27.68500 29.50800
C  48.28300 28.58300 28.57700
C  48.91300 29.70100 29.22200
C  48.76800 29.48700 30.57700
C  48.14400 28.29500 30.74100
C  49.46400 30.89000 28.50300
C  49.00400 30.04900 31.92700
O  49.61500 31.06800 32.31900
C  48.32000 29.02100 32.97900
C  49.46300 28.39500 33.76900
O  50.28700 27.69900 33.25400
O  49.27700 28.76600 35.10700
C  50.29900 28.25100 35.99300
H  45.51000 22.75500 32.23300
H  45.50000 23.77000 25.76700
H  48.37900 29.16600 26.45400
H  47.45800 26.36900 34.65100
H  45.14700 24.71200 33.87900
H  47.48700 23.09900 33.84500
H  46.17600 23.39600 35.07400
H  47.73900 24.21700 35.15700
H  44.73500 26.63500 34.64700
H  45.44600 28.09100 33.83000
H  45.01500 28.37800 36.08100
H  46.72500 28.75800 35.75800
H  44.90200 19.83700 29.84100
H  43.99500 20.99400 30.79200
H  45.50900 20.61600 31.33400
H  44.72800 19.40500 27.81700
H  43.51000 19.62400 26.59300
H  43.26900 20.28900 28.22300
H  45.46600 25.96200 24.61800
H  48.11000 27.30300 24.48100
H  47.13400 25.11500 22.71200
H  47.22300 23.97000 24.08300
H  48.34700 25.30900 23.76400
H  45.85600 28.89300 25.56200
H  45.46600 28.18500 24.01400
H  46.54800 29.88600 23.03700
H  48.10200 29.33600 23.78100
H  47.05000 30.50100 24.62000
H  49.10600 31.74700 29.07300
H  49.21000 30.97000 27.44700
H  50.53800 30.92400 28.68900
H  47.60600 29.48800 33.65700
H  50.98400 29.00700 36.37800
H  50.89600 27.42200 35.61400
H  49.77300 27.92500 36.89000
Mg 48.53400 35.98900 28.79800
C  46.32600 34.55600 31.10900
C  48.89900 38.64500 30.86200
C  50.07900 37.65800 26.23700
C  47.71100 33.31400 26.58000
N  47.81200 36.44800 30.74200
C  47.06500 35.67100 31.56500
C  47.27900 36.06800 32.97600
C  47.49300 37.60000 32.70900
C  48.15900 37.59100 31.35600
C  46.22100 38.59700 32.90800
C  48.53900 35.37700 33.58800
C  48.68700 35.33200 35.07100
H  47.87800 36.13700 36.04100
N  49.45400 37.90200 28.61100
C  49.53700 38.77700 29.60000
C  50.27300 39.93800 29.12900
C  50.78900 39.52300 27.83600
C  50.08900 38.34100 27.47200
C  50.45400 41.22300 29.90200
C  51.83400 40.23700 26.98300
O  52.22000 39.86800 25.88200
C  52.51300 41.52100 27.51000
N  48.98100 35.43200 26.81400
C  49.48200 36.33800 25.92100
C  49.55100 35.89100 24.52300
C  49.00200 34.40500 24.60500
C  48.54300 34.33500 26.05600
C  48.71700 36.75100 23.47300
C  50.00800 33.17700 24.29000
C  50.00800 32.79400 22.76400
N  47.30500 34.21200 28.77200
C  47.01400 33.30100 27.78800
C  46.14500 32.37800 28.26600
C  45.82200 32.80800 29.55100
C  46.55800 33.94500 29.84000
C  45.70300 31.06800 27.57900
C  45.01700 32.50500 30.74400
O  44.14600 31.64600 30.89300
C  45.32200 33.62300 31.75900
C  45.70200 33.06700 33.13000
O  46.77200 32.53400 33.40000
O  44.66000 33.33600 34.05100
C  44.83100 32.79600 35.34600
H  49.01800 39.50400 31.52600
H  50.66500 38.14400 25.45500
H  47.52000 32.58100 25.79300
H  46.41100 35.96500 33.62800
H  48.23400 37.96800 33.41800
H  46.36200 39.28000 33.74600
H  45.35100 38.00900 33.20300
H  45.91000 39.11600 32.00200
H  49.39000 35.90300 33.15500
H  48.61200 34.46400 32.99700
H  49.70300 35.69900 35.21800
H  48.65700 34.26000 35.26800
H  50.23600 41.95100 29.12000
H  51.47100 41.27700 30.29200
H  49.69000 41.42600 30.65100
H  51.80200 42.28800 27.81500
H  53.06900 41.85800 26.63500
H  53.12300 41.38400 28.40300
H  50.62200 35.96700 24.33600
H  48.15100 34.34600 23.92600
H  48.72200 37.80000 23.76800
H  47.67400 36.44200 23.55100
H  48.97600 36.67300 22.41700
H  49.82500 32.29800 24.90900
H  51.03200 33.45200 24.54200
H  49.49000 31.85100 22.59100
H  50.98000 32.60900 22.30800
H  49.44200 33.58300 22.26700
H  44.92900 30.55300 28.14900
H  46.65900 30.54400 27.55600
H  45.29800 31.08100 26.56700
H  44.42900 34.15000 32.09600
H  45.22800 33.63700 35.91500
H  45.49200 31.93100 35.38400
H  43.87900 32.41000 35.71100

