158

Mg 8.97300 2.86800 27.65500
C  9.88100 1.12100 30.60600
C  7.51500 5.22800 29.69200
C  7.57500 4.12500 24.90500
C  10.16900 0.17000 25.85800
N  8.89100 3.19800 29.89200
C  9.32500 2.34800 30.90100
C  9.16400 3.09200 32.25700
C  8.32300 4.36800 31.97800
C  8.24100 4.25200 30.42600
C  7.00900 4.59900 32.69900
C  10.42600 3.20300 33.10900
C  10.39600 4.29300 34.28500
H  11.21400 3.92800 35.50200
N  7.65700 4.45300 27.31400
C  7.24000 5.36400 28.28600
C  6.52300 6.37000 27.59600
C  6.42900 6.08200 26.20300
C  7.19500 4.81300 26.07200
C  6.01600 7.49800 28.39700
C  5.80000 6.86700 25.10100
O  5.87900 6.60700 23.90500
C  4.84700 7.96600 25.47400
N  8.61000 2.05700 25.68700
C  8.29400 2.87800 24.72200
C  8.51500 2.32700 23.28400
C  9.55100 1.24400 23.63600
C  9.43700 1.13400 25.18200
C  7.21300 1.81500 22.66100
C  11.02300 1.57200 23.20500
C  11.79900 0.46000 22.44100
N  9.90000 1.07300 28.07300
C  10.38800 0.10900 27.24800
C  11.05400 -0.93300 28.05800
C  10.91800 -0.55300 29.38600
C  10.12800 0.65700 29.35400
C  11.76100 -2.05200 27.60100
C  11.26900 -0.82600 30.72900
O  12.04800 -1.67200 31.18400
C  10.66200 0.22600 31.57800
C  9.88900 -0.26200 32.72300
O  8.70900 -0.42400 32.68300
O  10.77000 -0.51300 33.74800
C  10.11400 -1.00600 34.94500
H  7.17900 6.05100 30.32500
H  7.23500 4.64900 24.01000
H  10.68100 -0.51600 25.18000
H  8.64200 2.32100 32.82400
H  8.96100 5.24200 32.10700
H  7.16600 4.30100 33.73500
H  6.26100 4.04000 32.13600
H  6.73900 5.65100 32.78600
H  11.15100 3.67000 32.44200
H  10.63000 2.18900 33.45400
H  9.37100 4.54900 34.55100
H  10.92900 5.13600 33.84700
H  6.13600 8.47300 27.92400
H  6.43100 7.64000 29.39500
H  4.93700 7.38400 28.50900
H  5.40200 8.81500 25.87200
H  4.24600 7.60500 26.30900
H  4.10000 8.19000 24.71300
H  8.95500 3.16200 22.73900
H  9.32100 0.27000 23.20400
H  7.27700 0.72700 22.64700
H  7.17800 2.16000 21.62700
H  6.30700 2.19500 23.13200
H  11.59300 2.08600 23.97900
H  10.99600 2.37200 22.46500
H  11.53600 0.69500 21.41000
H  11.42800 -0.54100 22.66000
H  12.85200 0.61400 22.67600
H  12.61100 -1.58700 27.10300
H  11.27000 -2.77500 26.95000
H  11.90400 -2.63200 28.51300
H  11.54900 0.78900 31.87000
H  10.55900 -1.95200 35.25300
H  9.02700 -1.04700 35.00600
H  10.42100 -0.23600 35.65300
Mg 16.88600 -2.98200 28.53500
C  16.22600 -1.07100 31.20700
C  18.70700 -5.16400 30.56200
C  18.09200 -4.59900 25.72200
C  15.43800 -0.61000 26.41500
N  17.64300 -2.92700 30.57500
C  17.01800 -2.19000 31.53300
C  17.48300 -2.60800 32.92300
C  18.62400 -3.68600 32.67200
C  18.34400 -3.94800 31.13800
C  20.16900 -3.35100 32.95200
C  16.24100 -3.03000 33.83300
C  16.19200 -2.51900 35.27700
H  17.29600 -1.61700 35.75000
N  17.91300 -4.78900 28.27200
C  18.60500 -5.54500 29.19400
C  19.00900 -6.80500 28.59200
C  18.83500 -6.61500 27.19500
C  18.21300 -5.29900 26.98600
C  19.65500 -7.89200 29.41000
C  19.32500 -7.53300 26.11900
O  19.05200 -7.43100 24.96500
C  19.98100 -8.83300 26.45200
N  16.86500 -2.63400 26.46200
C  17.55700 -3.31800 25.47000
C  17.24100 -2.89400 24.06500
C  16.09300 -1.83000 24.21100
C  16.12400 -1.64600 25.80100
C  18.55000 -2.28500 23.32100
C  14.66600 -2.26700 23.68700
C  13.52700 -2.78900 24.64700
N  16.03700 -1.19900 28.70400
C  15.46800 -0.35500 27.76800
C  14.80000 0.73600 28.48800
C  15.09900 0.51200 29.84200
C  15.85200 -0.65600 29.92000
C  14.00000 1.77300 27.90300
C  14.76500 0.87900 31.24300
O  14.06300 1.74900 31.66300
C  15.64900 -0.01800 32.17700
C  16.55800 0.94500 32.88900
O  17.74400 1.12500 32.68300
O  15.87600 1.54400 33.87700
C  16.52600 2.51500 34.80900
H  19.27500 -5.74700 31.29000
H  18.47500 -5.02400 24.79200
H  14.91300 0.13800 25.81800
H  17.95000 -1.64500 33.12600
H  18.37300 -4.58700 33.23200
H  20.79100 -3.43200 32.06100
H  20.47400 -4.09000 33.69400
H  20.23400 -2.38000 33.44300
H  16.36100 -4.11300 33.88000
H  15.27900 -2.83400 33.36000
H  15.96500 -3.32700 35.97100
H  15.28700 -1.92000 35.17100
H  19.23100 -8.88600 29.27400
H  19.79600 -7.68200 30.47100
H  20.68000 -7.89100 29.03900
H  20.99600 -8.77000 26.84400
H  20.17300 -9.43000 25.56000
H  19.30400 -9.40200 27.08800
H  16.83800 -3.77400 23.56300
H  16.38500 -0.88700 23.74900
H  18.26400 -1.62500 22.50200
H  19.18200 -2.99500 22.78800
H  19.10500 -1.70600 24.06100
H  14.96200 -2.90900 22.85700
H  14.20300 -1.35500 23.31100
H  13.85800 -3.39900 25.48800
H  12.89300 -3.39600 24.00000
H  12.98600 -1.98400 25.14300
H  14.68000 2.47700 27.42300
H  13.41800 2.33900 28.63000
H  13.37800 1.33400 27.12300
H  14.96400 -0.30700 32.97400
H  17.59900 2.38000 34.94300
H  16.06000 2.30200 35.77100
H  16.20600 3.52000 34.53400

