158

Mg 47.68200 24.70400 28.15800
C  48.67500 27.03000 30.73600
C  47.03600 22.48500 30.73200
C  46.88800 22.49000 25.88300
C  49.00700 26.79400 25.86000
N  47.81200 24.81900 30.49100
C  48.08500 25.90300 31.31200
C  47.88600 25.51000 32.75200
C  47.57300 24.00000 32.74500
C  47.57500 23.72300 31.20100
C  48.64600 23.12000 33.46000
C  46.76600 26.37600 33.46100
C  47.30800 27.39600 34.49000
H  46.63400 27.64300 35.85700
N  46.97700 22.77900 28.28500
C  46.82900 22.00600 29.45300
C  46.22800 20.68900 29.01600
C  46.16400 20.68400 27.61000
C  46.65700 22.03500 27.19200
C  45.79300 19.53400 29.99700
C  45.82800 19.62200 26.55600
O  45.96000 19.72100 25.35900
C  45.24100 18.34100 27.09500
N  48.08100 24.60700 26.06800
C  47.44300 23.67600 25.33700
C  47.52300 24.05900 23.82300
C  47.96600 25.54000 23.87600
C  48.28200 25.67200 25.38600
C  48.47700 23.07800 23.06500
C  46.92000 26.56800 23.38200
C  47.31000 27.66900 22.35500
N  48.72600 26.53000 28.24600
C  49.23600 27.20600 27.18500
C  49.66900 28.47200 27.71300
C  49.44700 28.45700 29.07700
C  48.90000 27.24300 29.35000
C  50.19800 29.68600 27.02000
C  49.72900 29.19200 30.34100
O  50.24600 30.28400 30.51500
C  49.12100 28.22900 31.48900
C  50.31000 27.97700 32.35900
O  51.21100 27.24500 32.18200
O  50.20200 28.72200 33.41700
C  51.11200 28.53300 34.52400
H  46.88800 21.84400 31.60300
H  46.59300 21.88200 25.02500
H  49.31800 27.51600 25.10300
H  48.78300 25.73600 33.32800
H  46.59000 23.70300 33.11100
H  48.99000 22.36600 32.75200
H  48.08300 22.58200 34.22300
H  49.47900 23.72200 33.82400
H  45.97700 25.81600 33.96300
H  46.35000 26.90300 32.60100
H  47.36700 28.37000 34.00400
H  48.35700 27.22600 34.73200
H  46.20300 18.55600 29.74600
H  44.71100 19.42800 30.08500
H  46.14200 19.85100 30.98000
H  45.93300 17.76400 27.70800
H  44.91700 17.72700 26.25400
H  44.41000 18.58600 27.75700
H  46.54300 23.89000 23.37600
H  48.90300 25.73300 23.35300
H  48.86500 22.43600 23.85600
H  49.34600 23.56000 22.61700
H  47.92800 22.60800 22.24800
H  46.43200 26.93700 24.28400
H  46.16100 26.06800 22.78100
H  48.37100 27.81400 22.15100
H  46.97200 28.64700 22.69700
H  46.82100 27.45100 21.40500
H  50.47800 29.43500 25.99700
H  51.01700 30.07900 27.62300
H  49.43400 30.46100 26.96100
H  48.32100 28.78600 31.97600
H  51.98800 29.17500 34.42400
H  51.51100 27.52000 34.58000
H  50.55400 28.81100 35.41700
Mg 48.49200 34.40800 26.07500
C  46.73100 33.16500 28.74300
C  48.79800 37.37300 27.72400
C  49.69800 35.71200 23.30700
C  47.67100 31.47600 24.20800
N  47.97300 35.03800 28.10200
C  47.30400 34.36500 29.05500
C  47.36500 35.09900 30.39000
C  47.78800 36.57500 29.98400
C  48.24900 36.33900 28.53100
C  46.61000 37.60600 29.95000
C  48.52500 34.50600 31.35300
C  48.45000 34.76800 32.83300
H  47.31300 35.58800 33.30900
N  49.21800 36.29800 25.59100
C  49.22100 37.37800 26.39900
C  49.90800 38.43700 25.71800
C  50.23400 38.01700 24.45900
C  49.67500 36.65700 24.35700
C  50.13400 39.79300 26.24900
C  50.86100 38.67600 23.31600
O  51.05300 38.13000 22.21500
C  51.37400 40.16500 23.48900
N  48.31200 33.85300 23.98700
C  48.99300 34.57900 23.10500
C  49.06200 33.87900 21.76100
C  49.03600 32.40000 22.17500
C  48.23200 32.54000 23.53600
C  47.86200 34.31000 20.81600
C  50.46800 31.71900 22.47300
C  50.90200 30.55800 21.56500
N  47.41700 32.69800 26.38000
C  47.12800 31.59900 25.51900
C  46.45700 30.54100 26.22100
C  46.17300 31.13700 27.45100
C  46.80600 32.44500 27.49100
C  46.08800 29.32700 25.70500
C  45.52500 30.98700 28.67200
O  44.74000 30.14400 28.97700
C  45.83500 32.21200 29.56400
C  46.46500 31.69400 30.76100
O  47.60500 31.25600 30.81600
O  45.59800 31.70100 31.87800
C  46.18300 31.55400 33.25000
H  48.66300 38.35400 28.18400
H  50.22100 36.05200 22.41100
H  47.67700 30.51800 23.68500
H  46.33400 35.11100 30.74600
H  48.54600 37.08500 30.57700
H  45.68300 37.13600 30.27800
H  46.38200 38.07200 28.99100
H  46.91500 38.39100 30.64200
H  49.45800 34.96900 31.03200
H  48.69100 33.44100 31.19500
H  49.44000 35.13800 33.09900
H  48.42600 33.90100 33.49400
H  51.20500 39.99200 26.25200
H  49.78000 39.77900 27.28000
H  49.54800 40.50300 25.66600
H  52.20100 40.26000 24.19300
H  50.59900 40.90500 23.68700
H  51.87200 40.50600 22.58200
H  50.00300 34.10400 21.25800
H  48.41900 31.78500 21.52000
H  47.41800 33.49400 20.24700
H  48.26700 35.05800 20.13500
H  47.07800 34.66400 21.48600
H  50.49200 31.40100 23.51500
H  51.16100 32.55800 22.39600
H  51.91600 30.76500 21.22100
H  50.42000 30.63300 20.59000
H  50.83600 29.57800 22.03600
H  45.34100 28.91100 26.38200
H  46.99200 28.71900 25.73800
H  45.71200 29.33600 24.68200
H  44.88600 32.66100 29.85700
H  47.23500 31.84000 33.24200
H  46.06800 30.64600 33.84200
H  45.66900 32.22000 33.94300

