158

Mg 35.83600 48.86700 25.39700
C  35.90300 46.64100 28.25300
C  34.76100 51.28500 27.53700
C  35.25400 50.79400 22.64400
C  36.49800 46.09500 23.34600
N  35.28200 48.88200 27.65900
C  35.48300 47.92900 28.67000
C  35.38100 48.55900 30.03900
C  34.86100 50.06300 29.73100
C  34.98900 50.06500 28.15300
C  33.40400 50.37500 30.21300
C  36.79500 48.53500 30.76200
C  36.80400 48.17000 32.28900
H  35.52100 48.14300 33.15400
N  35.18900 50.80800 25.10300
C  34.83500 51.66800 26.14600
C  34.38600 52.88700 25.61100
C  34.44600 52.76000 24.17100
C  34.94600 51.42200 23.87300
C  33.79300 53.98700 26.46000
C  34.07400 53.75500 23.06600
O  34.17300 53.48000 21.91100
C  33.61500 55.11800 23.38300
N  35.92200 48.51500 23.33300
C  35.70400 49.46600 22.37100
C  36.00600 48.85300 20.96500
C  36.44100 47.41500 21.23400
C  36.26300 47.36100 22.76200
C  34.82400 48.99500 19.89300
C  37.91400 47.02600 20.84900
C  38.11200 45.84200 19.93000
N  36.11700 46.82500 25.69000
C  36.44300 45.80600 24.79800
C  36.72800 44.57200 25.42100
C  36.46300 44.89800 26.80700
C  36.12100 46.21500 26.92300
C  37.31500 43.22600 24.81000
C  36.46200 44.33700 28.14200
O  36.74600 43.19400 28.42700
C  36.12300 45.40100 29.15900
C  34.86500 45.05600 29.81500
O  33.85200 44.93900 29.20300
O  35.04300 44.65700 31.18800
C  33.76300 44.23100 31.84000
H  34.47900 52.06200 28.25000
H  35.24000 51.39500 21.73200
H  36.69300 45.09200 22.96100
H  34.65000 47.89600 30.50000
H  35.51200 50.90300 29.97300
H  32.99600 49.50400 30.72700
H  32.81500 50.72600 29.36600
H  33.52400 51.19100 30.92600
H  37.15600 49.54300 30.55700
H  37.39800 47.75000 30.30400
H  37.47200 48.94100 32.67300
H  37.42700 47.28200 32.39200
H  32.71500 53.98300 26.30100
H  34.28000 54.92200 26.18100
H  33.82400 53.77200 27.52800
H  33.74500 55.79200 22.53600
H  34.15100 55.47700 24.26200
H  32.56700 55.04200 23.67300
H  36.85500 49.38800 20.54000
H  35.80600 46.61900 20.84500
H  35.16500 49.31900 18.91000
H  34.00100 49.61600 20.24900
H  34.33600 48.02600 19.78900
H  38.57600 47.13400 21.70800
H  38.34900 47.78700 20.20100
H  39.18400 45.72400 19.77200
H  37.54000 46.07100 19.03100
H  37.65400 44.99700 20.44300
H  36.66100 42.66400 24.14400
H  37.65000 42.61700 25.65000
H  38.22300 43.42200 24.23900
H  36.88600 45.51100 29.93000
H  33.24700 45.09100 32.26700
H  34.12000 43.58000 32.63700
H  33.13100 43.59200 31.22300
Mg 26.63200 49.87700 26.58800
C  24.39100 50.93800 29.03500
C  28.84400 49.01200 29.00700
C  28.70400 48.84600 24.19000
C  24.41600 51.00100 24.22500
N  26.54400 50.08300 28.75500
C  25.50300 50.31200 29.58600
C  25.81600 49.87900 31.02400
C  27.32100 49.43400 30.93300
C  27.57900 49.48400 29.41400
C  28.27100 50.37300 31.70900
C  24.78900 48.84500 31.60200
C  23.80500 49.44900 32.61400
H  23.74100 48.77300 34.03900
N  28.51000 49.06300 26.56200
C  29.26200 48.79800 27.70300
C  30.48600 48.17900 27.28500
C  30.51200 48.27800 25.84800
C  29.21200 48.74600 25.47200
C  31.57000 47.69100 28.17600
C  31.64300 48.06700 24.82700
O  31.56800 48.38800 23.62400
C  32.96200 47.59300 25.41200
N  26.68200 50.05200 24.47000
C  27.57000 49.46600 23.66600
C  27.07500 49.41900 22.20900
C  25.60900 49.95600 22.36700
C  25.58200 50.34700 23.77500
C  27.96500 50.27100 21.19800
C  24.53200 48.88500 21.95900
C  24.34400 47.75200 22.94500
N  24.84300 50.74900 26.52100
C  24.08300 51.28100 25.53600
C  22.89900 51.92300 26.03200
C  22.99700 51.84000 27.41900
C  24.15700 51.12700 27.66600
C  21.84700 52.67600 25.27100
C  22.33300 52.23900 28.63000
O  21.34200 52.92900 28.82400
C  23.13800 51.47800 29.78600
C  23.49800 52.56800 30.81000
O  24.47000 53.30400 30.77400
O  22.53200 52.56200 31.73900
C  22.69000 53.66300 32.73700
H  29.42400 48.46600 29.75400
H  29.36900 48.63300 23.35000
H  23.60500 51.16600 23.51200
H  25.81700 50.76500 31.66000
H  27.34900 48.45200 31.40600
H  29.05300 50.79600 31.07900
H  28.85500 49.91100 32.50500
H  27.74800 51.24000 32.11200
H  25.38700 48.11200 32.14400
H  24.23100 48.40700 30.77400
H  22.79900 49.47200 32.19500
H  23.98600 50.50100 32.83400
H  31.80000 46.63700 28.02500
H  31.48000 47.84700 29.25100
H  32.39100 48.37100 27.94900
H  33.38100 48.24000 26.18300
H  33.55800 47.42500 24.51500
H  32.71600 46.65200 25.90400
H  27.03300 48.35200 21.99200
H  25.46900 50.78200 21.67000
H  28.95500 50.48200 21.60200
H  27.50500 51.19900 20.86000
H  28.16600 49.69000 20.29800
H  24.71300 48.68200 20.90400
H  23.59800 49.44300 22.01400
H  25.07300 47.90000 23.74200
H  24.44300 46.84800 22.34400
H  23.35900 47.72400 23.41100
H  20.92600 52.81100 25.83800
H  21.63900 52.09400 24.37300
H  22.29200 53.58600 24.87000
H  22.49100 50.70300 30.19800
H  23.47600 53.27900 33.38800
H  21.79100 53.76100 33.34500
H  22.89100 54.57800 32.17900

