158

Mg 9.03200 4.10400 27.08400
C  9.90800 2.26300 29.91900
C  6.88500 5.99800 28.89100
C  7.76000 5.33300 24.13600
C  10.89300 1.71800 25.17000
N  8.40100 4.04800 29.15500
C  9.11400 3.41000 30.23800
C  8.62300 3.82600 31.61000
C  7.54100 4.97900 31.14800
C  7.59500 5.01300 29.57500
C  6.13000 4.77400 31.75600
C  9.65300 4.31300 32.66500
C  8.96400 5.07500 33.85900
H  9.75300 5.18800 35.19300
N  7.42100 5.43100 26.55400
C  6.70700 6.16200 27.48900
C  5.95500 7.09900 26.79900
C  6.28200 6.96900 25.41100
C  7.19000 5.89600 25.32000
C  4.99700 8.06400 27.52800
C  5.85200 7.90400 24.25800
O  6.18800 7.74500 23.08100
C  5.05600 9.03500 24.52600
N  9.30000 3.54900 24.96900
C  8.68500 4.30700 24.00800
C  9.20500 3.84400 22.62100
C  10.23000 2.73400 22.91300
C  10.20500 2.69200 24.46200
C  8.07800 3.48800 21.63800
C  11.69600 3.05400 22.24900
C  12.55300 4.04500 23.06900
N  10.35600 2.43100 27.46100
C  10.95800 1.54500 26.58400
C  11.67300 0.49400 27.28900
C  11.38400 0.74300 28.69000
C  10.46300 1.90200 28.69700
C  12.47500 -0.66200 26.67000
C  11.39600 0.26100 30.05800
O  11.90600 -0.73600 30.47100
C  10.64800 1.32900 30.92000
C  9.78200 0.61500 31.88700
O  8.63500 0.27800 31.67500
O  10.36600 0.75100 33.11700
C  9.58100 0.42800 34.27200
H  6.54600 6.65000 29.69800
H  7.35200 5.62700 23.16700
H  11.44600 1.00800 24.55300
H  8.17700 2.93300 32.04900
H  7.85400 6.01000 31.30600
H  5.89600 5.73000 32.22400
H  6.03200 4.05300 32.56800
H  5.46300 4.47800 30.94600
H  10.38700 4.99000 32.22800
H  9.99700 3.33400 32.99800
H  7.96500 4.66500 34.00800
H  8.91900 6.07800 33.43400
H  5.03400 7.91000 28.60600
H  4.04100 7.75500 27.10700
H  5.29500 9.10900 27.44300
H  5.54500 9.57500 25.33700
H  4.15200 8.50900 24.83400
H  4.99300 9.70100 23.66500
H  9.77800 4.69600 22.25500
H  9.92100 1.72600 22.63600
H  7.07500 3.61400 22.04500
H  8.19400 2.49200 21.21100
H  8.14300 4.10800 20.74300
H  11.46200 3.50400 21.28400
H  12.22300 2.11500 22.08100
H  13.46800 3.55000 23.39600
H  12.08000 4.40900 23.98100
H  12.93200 4.90100 22.50900
H  12.86000 -0.37700 25.69100
H  11.86700 -1.55500 26.52800
H  13.30000 -0.99700 27.29900
H  11.38700 1.92200 31.45900
H  10.02500 0.98800 35.09500
H  9.52400 -0.60100 34.62600
H  8.55200 0.76600 34.14400
Mg -9.70400 39.33900 40.20500
C  -9.10200 35.97600 39.66800
C  -6.50600 40.04300 39.18700
C  -10.46200 42.60300 39.98400
C  -13.16800 38.59200 40.70600
N  -8.00100 38.11300 39.41000
C  -7.95500 36.74000 39.34300
C  -6.54000 36.19400 38.97600
C  -5.71500 37.54600 39.21100
C  -6.78100 38.63800 39.29100
C  -4.79900 37.37200 40.48700
C  -6.54600 35.59000 37.50600
C  -6.95700 36.47700 36.35100
H  -8.23600 36.10900 35.56600
N  -8.63800 41.11000 39.70900
C  -7.35800 41.22000 39.27600
C  -7.00900 42.62200 38.97500
C  -8.19400 43.39600 39.19700
C  -9.14800 42.40800 39.66700
C  -5.65800 43.08500 38.49100
C  -8.29500 44.84500 38.95300
O  -7.30000 45.48500 38.60200
C  -9.60200 45.59600 39.24100
N  -11.55600 40.38700 40.34400
C  -11.48400 41.77500 40.39300
C  -12.89300 42.40100 40.66300
C  -13.84300 41.14300 40.71000
C  -12.84900 39.96400 40.59000
C  -12.91300 43.27500 41.97200
C  -14.82800 41.11300 39.47700
C  -16.13900 40.27900 39.70100
N  -10.89500 37.66000 40.46600
C  -12.27100 37.48900 40.60200
C  -12.54100 36.06200 40.64100
C  -11.35700 35.46400 40.26300
C  -10.41700 36.47800 40.11800
C  -13.92700 35.49500 40.96600
C  -10.69700 34.10000 39.87500
O  -11.04000 32.91400 39.73900
C  -9.21500 34.42600 39.39000
C  -8.25700 33.46600 40.05100
O  -8.33600 33.26800 41.21500
O  -7.33600 32.92200 39.15400
C  -6.23700 32.27500 39.87200
H  -5.46800 40.27600 38.93800
H  -10.82600 43.62000 40.14200
H  -14.21700 38.38500 40.93000
H  -6.34100 35.37800 39.67000
H  -5.06500 37.74300 38.35800
H  -4.97800 36.42300 40.99300
H  -5.02400 38.11100 41.25600
H  -3.77100 37.39300 40.12500
H  -7.15200 34.68900 37.41600
H  -5.51100 35.36600 37.25000
H  -6.13900 36.63000 35.64700
H  -7.18300 37.44400 36.80000
H  -5.73500 43.42900 37.46000
H  -4.90900 42.29800 38.58200
H  -5.25900 43.86200 39.14400
H  -9.91500 45.52700 40.28300
H  -10.42700 45.22300 38.63400
H  -9.44900 46.62900 38.93100
H  -13.15400 43.04000 39.82000
H  -14.36000 40.98800 41.65700
H  -13.33800 42.79800 42.85500
H  -13.53900 44.12500 41.70300
H  -11.91600 43.61500 42.25200
H  -14.32700 40.78400 38.56700
H  -15.11000 42.16000 39.36400
H  -16.26900 40.04300 40.75800
H  -16.05600 39.38400 39.08400
H  -16.98500 40.87300 39.35600
H  -14.45100 35.99200 41.78300
H  -13.72300 34.44600 41.18200
H  -14.56300 35.49000 40.08100
H  -9.25000 34.24600 38.31600
H  -5.32300 32.58200 39.36200
H  -6.40500 31.19900 39.83300
H  -6.10500 32.51100 40.92800

