158

Mg 26.04100 0.57900 29.18700
C  27.94900 0.18900 32.17100
C  23.25700 1.15200 31.15400
C  24.29700 0.52600 26.43100
C  28.97800 -0.14200 27.30000
N  25.63500 0.66500 31.39100
C  26.56600 0.51800 32.38900
C  25.85600 0.73900 33.82000
C  24.36800 1.08500 33.49700
C  24.40300 0.96900 31.94700
C  23.31600 0.14000 34.09800
C  26.60100 1.69800 34.71800
C  25.89200 2.44800 35.91700
H  26.42600 2.20700 37.34800
N  24.03200 0.78700 28.77700
C  23.06900 1.11100 29.67600
C  21.74600 1.34900 29.00400
C  22.06800 0.93700 27.59400
C  23.49200 0.76000 27.54000
C  20.41700 1.67200 29.69600
C  21.09100 0.70700 26.43700
O  21.35300 0.30200 25.34000
C  19.60200 0.69500 26.86000
N  26.54800 -0.07200 27.18000
C  25.64800 0.20300 26.22700
C  26.24100 -0.03100 24.87000
C  27.73500 -0.27700 25.09800
C  27.72900 -0.09600 26.57900
C  25.50600 -1.01900 23.86200
C  28.65200 0.90700 24.46200
C  29.90600 0.43300 23.65000
N  28.10500 0.11500 29.60800
C  29.14500 -0.14300 28.71900
C  30.30000 -0.36300 29.52300
C  29.95000 -0.19500 30.86300
C  28.52500 0.07700 30.85800
C  31.72500 -0.62300 29.01800
C  30.39900 -0.11900 32.25300
O  31.54000 -0.19800 32.69600
C  29.07400 0.01700 33.15500
C  28.77900 -1.14500 33.95100
O  28.49000 -2.22400 33.51400
O  28.88800 -0.83900 35.36000
C  28.46200 -1.93000 36.28600
H  22.42000 1.37900 31.81800
H  23.73000 0.55500 25.49800
H  29.86200 -0.40100 26.71300
H  25.94600 -0.23700 34.29700
H  24.07400 2.10900 33.72500
H  23.51100 0.04700 35.16600
H  23.37900 -0.85900 33.66600
H  22.32600 0.58700 34.00500
H  27.08400 2.44400 34.08700
H  27.46800 1.29100 35.23700
H  24.82700 2.22500 35.97500
H  26.03000 3.51500 35.74000
H  20.69200 1.89500 30.72700
H  19.85000 0.74600 29.60000
H  19.85300 2.46400 29.20300
H  19.50700 -0.04500 27.65500
H  19.03800 0.42900 25.96700
H  19.25900 1.69400 27.12900
H  26.02800 0.90100 24.34600
H  28.04400 -1.32100 25.05300
H  24.99100 -0.59800 22.99800
H  24.70300 -1.45700 24.45500
H  26.17100 -1.81900 23.53800
H  29.04600 1.67300 25.13000
H  28.01900 1.41000 23.73000
H  29.74900 -0.56700 23.24600
H  30.72600 0.44800 24.36700
H  29.98200 1.20500 22.88400
H  32.38100 0.20300 29.29200
H  31.78900 -0.78000 27.94100
H  32.08000 -1.46500 29.61200
H  29.21800 0.84200 33.85300
H  28.77200 -1.59600 37.27700
H  28.96600 -2.89600 36.27800
H  27.38300 -2.08400 36.30200
Mg 6.74100 55.20000 40.71300
C  5.64800 51.92600 41.18800
C  9.69400 54.02500 39.53600
C  7.14300 58.10500 39.16100
C  3.24000 56.08200 41.25500
N  7.52400 53.22100 40.24400
C  6.84500 52.03600 40.55100
C  7.77700 50.81500 40.06900
C  9.17200 51.49900 39.98400
C  8.77800 53.01500 39.90200
C  10.14500 51.20600 41.22000
C  7.26800 50.04900 38.76400
C  6.33400 50.70700 37.78000
H  6.98600 51.37900 36.52600
N  8.31800 56.06300 39.65800
C  9.49800 55.39600 39.46200
C  10.42800 56.42800 39.15000
C  9.68200 57.59200 38.79900
C  8.29100 57.32500 39.17900
C  11.92800 56.08600 38.85100
C  10.20200 58.84000 38.21400
O  11.39500 58.88100 37.98100
C  9.32200 60.01700 37.88200
N  5.38200 56.81500 40.15200
C  5.82800 57.89900 39.53800
C  4.84800 59.09500 39.58500
C  3.66100 58.43300 40.34700
C  4.14900 57.05700 40.67800
C  5.46300 60.34700 40.23200
C  2.29200 58.33200 39.55500
C  1.11800 58.97400 40.29800
N  4.83400 54.26200 41.42500
C  3.58300 54.76000 41.58400
C  2.64700 53.75700 42.01300
C  3.44300 52.63700 41.92000
C  4.76400 52.98200 41.59400
C  1.07300 53.91300 42.19600
C  3.44300 51.23600 42.12300
O  2.59900 50.49400 42.56100
C  4.94300 50.71100 41.72200
C  4.77500 49.61600 40.78000
O  4.21800 49.77100 39.72700
O  5.27500 48.36500 41.27000
C  4.89000 47.16700 40.42300
H  10.72900 53.80000 39.27300
H  7.32400 59.10200 38.75400
H  2.20800 56.34000 41.50200
H  7.66200 50.04200 40.82800
H  9.63800 51.36500 39.00800
H  9.60800 51.08500 42.16000
H  10.61600 52.17800 41.36400
H  10.94400 50.49400 41.01300
H  6.79300 49.12000 39.08100
H  8.17300 49.87800 38.18000
H  5.87400 51.58500 38.23400
H  5.44400 50.12800 37.53100
H  11.93700 55.80300 37.79900
H  12.37500 55.30600 39.46800
H  12.50400 56.99800 39.00900
H  9.89900 60.92700 37.71500
H  8.78800 60.40300 38.75000
H  8.43000 59.88000 37.27000
H  4.67400 59.40200 38.55300
H  3.36800 58.94000 41.26700
H  5.76900 61.01100 39.42300
H  6.25900 60.14900 40.95000
H  4.68600 60.93000 40.72700
H  2.09200 57.27000 39.41300
H  2.32600 58.86100 38.60300
H  0.47700 59.28100 39.47200
H  1.41200 59.87700 40.83400
H  0.53700 58.24100 40.85900
H  0.57600 52.94900 42.30600
H  0.58600 54.53900 41.44900
H  0.88500 54.44100 43.13100
H  5.51300 50.39300 42.59500
H  4.66300 47.41600 39.38600
H  3.96500 46.68600 40.73900
H  5.67600 46.41400 40.38000

