158

Mg 49.80000 46.30600 41.98400
C  46.90500 48.06800 41.11700
C  48.56700 43.60300 40.26100
C  52.78200 44.89400 41.95500
C  51.20600 49.31800 43.17000
N  47.81600 45.88100 40.95200
C  46.79100 46.73000 40.72300
C  45.65500 46.01900 39.92800
C  46.33300 44.58400 39.75100
C  47.68900 44.63400 40.34200
C  45.47500 43.42600 40.26800
C  45.29900 46.71300 38.53300
C  43.97800 46.19000 37.88900
H  44.00500 45.02500 36.90100
N  50.49400 44.38100 41.43900
C  49.80700 43.41200 40.79900
C  50.64500 42.24100 40.65300
C  51.94700 42.61700 41.11000
C  51.78200 44.01200 41.57100
C  50.15800 40.85800 40.04000
C  53.09100 41.69100 41.24300
O  53.00500 40.49700 40.80200
C  54.37600 41.96400 41.95600
N  51.75700 47.08600 42.54900
C  52.84500 46.25200 42.36900
C  54.08800 47.07400 42.76800
C  53.58400 48.47100 43.18200
C  52.10000 48.30000 43.02900
C  55.08300 46.27700 43.65200
C  54.32600 49.72000 42.49700
C  55.71500 50.06700 43.16700
N  49.16000 48.27200 42.18600
C  49.88900 49.36000 42.69700
C  48.90600 50.50600 42.79600
C  47.76000 49.98200 42.21100
C  47.94100 48.63400 41.85800
C  49.09100 51.91200 43.31200
C  46.40900 50.31600 41.83000
O  45.76100 51.31200 41.95700
C  45.93600 49.12000 40.93900
C  44.67300 48.63300 41.45400
O  44.48900 48.14300 42.55100
O  43.73700 48.68700 40.47600
C  42.36400 48.42000 41.03400
H  48.11200 42.73500 39.77900
H  53.73500 44.36500 41.89000
H  51.66300 50.25700 43.49000
H  44.77400 46.05500 40.56800
H  46.42200 44.34500 38.69100
H  45.33300 42.73000 39.44100
H  44.49900 43.74800 40.63200
H  46.09100 42.90100 40.99900
H  46.12100 46.43400 37.87400
H  45.36900 47.79900 38.57700
H  43.46000 47.04300 37.45000
H  43.31500 45.80300 38.66200
H  50.78700 40.69100 39.16500
H  49.09400 40.80000 39.81200
H  50.25300 40.06900 40.78600
H  54.92500 41.02200 41.94400
H  54.15200 42.34200 42.95400
H  54.98000 42.62500 41.33600
H  54.62900 47.36600 41.86900
H  53.65800 48.61900 44.25900
H  54.48800 45.43800 44.01100
H  55.43400 46.81800 44.53000
H  55.85100 45.91800 42.96700
H  53.62200 50.54800 42.58500
H  54.53500 49.51500 41.44700
H  56.53900 50.11900 42.45600
H  55.96400 49.30200 43.90200
H  55.61300 51.02600 43.67500
H  50.01500 52.34500 42.92900
H  49.14300 51.85000 44.39900
H  48.29400 52.48700 42.84100
H  45.82400 49.49600 39.92200
H  42.24500 47.68100 41.82600
H  41.93300 47.92700 40.16200
H  41.91800 49.40200 41.19200
Mg -4.94600 25.46000 26.00200
C  -3.42500 26.49400 28.98400
C  -6.91000 23.35400 27.78600
C  -5.64800 23.73100 23.15100
C  -2.46700 27.13300 24.19400
N  -5.04200 24.85000 28.11700
C  -4.46800 25.53100 29.17900
C  -5.13100 25.16300 30.51300
C  -6.00700 23.96400 30.08400
C  -5.98400 24.05300 28.58000
C  -5.38000 22.52000 30.34800
C  -6.00000 26.35800 31.04900
C  -5.94200 26.52600 32.58300
H  -5.38500 25.42300 33.47300
N  -6.24000 23.83600 25.51700
C  -7.03800 23.20600 26.43400
C  -7.79500 22.17400 25.71100
C  -7.49300 22.26000 24.34500
C  -6.35800 23.25600 24.32100
C  -8.84800 21.26400 26.35800
C  -8.09200 21.54800 23.09700
O  -7.79700 21.85900 21.96600
C  -9.14000 20.52200 23.25700
N  -4.12900 25.38000 24.01300
C  -4.63400 24.65500 23.00400
C  -3.95100 24.91700 21.59400
C  -3.25400 26.24300 21.96500
C  -3.30700 26.37600 23.49500
C  -3.09800 23.73100 21.26800
C  -3.76600 27.56600 21.23900
C  -2.72100 28.33100 20.44400
N  -3.32700 26.75800 26.49500
C  -2.40200 27.34700 25.67400
C  -1.54400 28.18400 26.46800
C  -1.92400 27.94700 27.77900
C  -3.00000 27.00900 27.73200
C  -0.49200 29.13100 25.85300
C  -1.66600 28.31300 29.14100
O  -0.79300 29.00700 29.61500
C  -2.76200 27.47300 29.99400
C  -1.93300 26.75900 31.00700
O  -1.03300 25.94400 30.76800
O  -2.21000 27.24800 32.24900
C  -1.32600 26.77900 33.32200
H  -7.63800 22.81400 28.39600
H  -5.82100 23.18200 22.22300
H  -1.72700 27.61600 23.55300
H  -4.40600 24.85100 31.26400
H  -6.98300 23.98600 30.56800
H  -6.12800 21.73800 30.48600
H  -4.70500 22.61100 31.19800
H  -4.83400 22.17700 29.46900
H  -6.98100 26.23600 30.59100
H  -5.64800 27.29700 30.62100
H  -6.97700 26.68100 32.88800
H  -5.47100 27.46400 32.87700
H  -9.80700 21.53900 25.92000
H  -8.75900 21.36000 27.44000
H  -8.74000 20.22900 26.03500
H  -9.47700 20.23700 22.26000
H  -9.97100 21.03400 23.74400
H  -8.86800 19.68300 23.89800
H  -4.67600 25.06800 20.79400
H  -2.20500 26.03300 21.75500
H  -3.37800 22.85600 21.85400
H  -2.05500 23.99100 21.45000
H  -3.18700 23.59300 20.19100
H  -4.20600 28.28900 21.92500
H  -4.48700 27.19400 20.51100
H  -2.56500 29.40400 20.55600
H  -2.83300 28.28300 19.36100
H  -1.70200 27.95300 20.51900
H  -0.15800 28.74600 24.88900
H  0.30400 29.23100 26.59100
H  -0.97300 30.09300 25.67700
H  -3.44900 28.16500 30.48200
H  -1.41300 27.52000 34.11700
H  -0.32000 26.83400 32.90700
H  -1.54600 25.77800 33.69300

