158

Mg 55.51900 23.82100 44.67400
C  53.33900 26.51000 44.21200
C  53.09800 21.78300 43.46000
C  57.87200 21.45500 44.63100
C  57.93200 26.23500 45.88200
N  53.51000 24.26200 43.64100
C  52.80900 25.33800 43.59200
C  51.50500 25.06600 42.83200
C  51.29100 23.52700 43.06600
C  52.70100 23.16500 43.42900
C  50.31800 23.23100 44.22000
C  51.59000 25.51800 41.33200
C  50.23600 25.86200 40.64600
H  49.88100 25.06200 39.36900
N  55.50000 21.86300 43.99600
C  54.36200 21.18100 43.60100
C  54.79200 19.84200 43.32900
C  56.19400 19.72000 43.64900
C  56.59500 20.99900 44.12700
C  53.79800 18.81500 42.83400
C  57.03500 18.38200 43.61900
O  56.53500 17.32600 43.24900
C  58.42400 18.33700 44.01000
N  57.60200 23.87900 45.07700
C  58.29000 22.65500 45.17700
C  59.77500 22.89800 45.61100
C  59.74400 24.42700 45.89800
C  58.30800 24.88700 45.59300
C  60.32200 21.98900 46.75000
C  60.79300 25.24300 45.13300
C  61.84300 25.88900 46.09300
N  55.62100 26.03700 45.05900
C  56.67200 26.80300 45.58600
C  56.13400 28.19400 45.78000
C  54.81900 28.08100 45.30100
C  54.63100 26.74800 44.75400
C  56.83700 29.33600 46.27300
C  53.53200 28.77200 45.16600
O  53.16700 29.90300 45.57700
C  52.55600 27.84200 44.37500
C  52.24900 28.59100 43.12300
O  53.09300 28.92200 42.30700
O  50.87800 28.75000 43.03800
C  50.46000 29.60600 41.89000
H  52.23900 21.17800 43.16200
H  58.67600 20.71800 44.68400
H  58.64600 26.86200 46.41900
H  50.81700 25.74200 43.33900
H  50.95200 23.01700 42.16400
H  49.41100 22.77500 43.82200
H  50.01800 24.15800 44.70700
H  50.70600 22.62700 45.04100
H  52.08500 24.75900 40.72600
H  52.20000 26.41600 41.23600
H  50.31700 26.92500 40.42000
H  49.43100 25.77500 41.37500
H  53.03400 19.41900 42.34400
H  53.39000 18.25600 43.67600
H  54.42500 18.21300 42.17700
H  58.44300 18.71300 45.03300
H  58.93300 18.96400 43.27900
H  58.71400 17.28700 43.96300
H  60.33300 22.77600 44.68300
H  59.87200 24.55900 46.97200
H  61.01700 21.36100 46.19200
H  59.52000 21.37000 47.15100
H  60.86600 22.49400 47.54800
H  60.32100 26.11800 44.68700
H  61.26200 24.65100 44.34700
H  62.68100 25.20300 45.96500
H  61.50100 25.92800 47.12700
H  62.24000 26.80800 45.66200
H  57.02400 29.14000 47.32900
H  56.28400 30.26800 46.15900
H  57.79500 29.39100 45.75500
H  51.66500 27.66600 44.97900
H  50.41800 30.68700 42.02700
H  49.46000 29.33400 41.55100
H  51.12100 29.52500 41.02700
Mg -10.47800 39.12300 40.71400
C  -9.58200 35.91500 39.60000
C  -7.52600 40.24900 39.49500
C  -11.70200 42.23100 41.14600
C  -13.84200 37.81400 40.93800
N  -8.85300 38.08700 39.68400
C  -8.57800 36.81500 39.43000
C  -7.11700 36.52500 38.88600
C  -6.48700 37.99000 39.05900
C  -7.70700 38.84500 39.43600
C  -5.38500 38.10900 40.24100
C  -6.95300 35.89700 37.50600
C  -6.41000 36.61800 36.22400
H  -6.24400 35.84000 34.91300
N  -9.67900 41.01700 40.33900
C  -8.41700 41.25300 39.81100
C  -8.29000 42.71200 39.59200
C  -9.52800 43.35800 40.09600
C  -10.38000 42.18100 40.59200
C  -7.13400 43.31200 38.90800
C  -9.83200 44.80800 40.10900
O  -9.04100 45.64600 39.69400
C  -11.11200 45.21500 40.68100
N  -12.59800 39.94400 40.86400
C  -12.65800 41.23400 41.31900
C  -14.16900 41.58900 41.66300
C  -14.87600 40.19200 41.63900
C  -13.69900 39.27400 41.10200
C  -14.30400 42.26700 43.06000
C  -16.28800 40.25000 40.89600
C  -17.50500 40.15400 41.78300
N  -11.54700 37.25000 40.47700
C  -12.86000 36.90800 40.55400
C  -13.04400 35.53800 40.22700
C  -11.77600 35.05400 39.96800
C  -10.89400 36.16300 40.01500
C  -14.32900 34.79800 40.20600
C  -11.01200 33.92600 39.60000
O  -11.33700 32.78100 39.38400
C  -9.53600 34.42600 39.34400
C  -8.56300 33.75600 40.11400
O  -8.54800 33.62300 41.35200
O  -7.60900 33.12400 39.29200
C  -6.38800 32.51200 39.87500
H  -6.57200 40.52500 39.04100
H  -12.04400 43.20800 41.49300
H  -14.83600 37.46800 41.22600
H  -6.64200 35.89400 39.63700
H  -6.02600 38.43500 38.17700
H  -5.56900 38.93000 40.93400
H  -4.39000 38.25000 39.81900
H  -5.28300 37.21200 40.85100
H  -7.92900 35.56500 37.15100
H  -6.26400 35.05600 37.57900
H  -5.40300 36.92100 36.50800
H  -7.03100 37.48900 36.01300
H  -7.43200 44.02000 38.13500
H  -6.54200 42.51000 38.46600
H  -6.50100 43.88700 39.58400
H  -11.95200 44.83400 40.10100
H  -11.18700 46.30100 40.73000
H  -10.98600 45.02100 41.74700
H  -14.54900 42.36100 40.99300
H  -15.09400 39.95000 42.67900
H  -15.07400 41.79600 43.67100
H  -14.51300 43.32600 42.91100
H  -13.29900 42.23700 43.48100
H  -16.22700 39.41100 40.20200
H  -16.46400 41.21100 40.41400
H  -18.21200 40.94900 41.54300
H  -17.25400 40.24900 42.84000
H  -18.01200 39.21300 41.57000
H  -14.15200 33.82800 39.74200
H  -14.96300 35.36200 39.52100
H  -14.67900 34.54300 41.20600
H  -9.40100 34.26500 38.27500
H  -5.76000 33.37600 40.09500
H  -5.89600 31.86500 39.14900
H  -6.59100 31.97400 40.80100

