158

Mg 17.37500 -2.15100 27.11500
C  16.06600 -0.22900 29.82900
C  19.35800 -3.76300 29.57400
C  18.84500 -3.68700 24.66200
C  15.66000 -0.03300 24.97100
N  17.56400 -2.04400 29.41000
C  16.92300 -1.15900 30.28400
C  17.45800 -1.34600 31.70600
C  18.64500 -2.32700 31.54000
C  18.53800 -2.77500 30.07200
C  20.07000 -1.76300 31.79200
C  16.36200 -2.05000 32.58000
C  16.39100 -1.60400 34.04100
H  17.63800 -0.85000 34.61500
N  18.78300 -3.68600 27.13500
C  19.52900 -4.18600 28.22500
C  20.24100 -5.34600 27.77700
C  20.15900 -5.29000 26.35500
C  19.32600 -4.14900 25.94300
C  20.93200 -6.38000 28.66700
C  20.73700 -6.23700 25.24800
O  20.53600 -6.07700 24.07300
C  21.47600 -7.46600 25.67500
N  17.39800 -1.70900 25.06000
C  17.99900 -2.60600 24.23800
C  17.85300 -2.15800 22.78600
C  16.61000 -1.25500 22.94300
C  16.52500 -0.95600 24.43500
C  19.12100 -1.48800 22.22800
C  15.22900 -1.75300 22.40500
C  14.42000 -0.77400 21.50300
N  16.15300 -0.41500 27.23900
C  15.44400 0.24900 26.32000
C  14.62100 1.29200 26.89600
C  14.76300 1.05600 28.28200
C  15.80400 0.08700 28.46700
C  13.60800 2.06800 26.05900
C  14.32600 1.54800 29.59100
O  13.50200 2.40800 29.88000
C  15.19100 0.76600 30.61300
C  16.08300 1.74400 31.24900
O  17.03500 2.27800 30.74400
O  15.55100 1.98900 32.47600
C  16.27800 3.00500 33.24700
H  19.99800 -4.31100 30.26900
H  19.15700 -4.19800 23.74900
H  15.04800 0.53500 24.26700
H  17.83900 -0.41800 32.13300
H  18.51900 -3.20700 32.17000
H  20.07100 -0.79300 32.29000
H  20.58000 -1.67300 30.83300
H  20.59600 -2.43400 32.47200
H  16.45700 -3.13200 32.49100
H  15.41300 -1.80100 32.10400
H  16.21400 -2.49000 34.65000
H  15.45900 -1.11200 34.32000
H  21.04900 -5.92800 29.65200
H  21.91300 -6.68100 28.30000
H  20.32700 -7.26900 28.84100
H  20.70600 -8.03700 26.19300
H  22.17000 -7.13700 26.44900
H  21.92700 -8.16300 24.96800
H  17.57100 -3.09800 22.31200
H  16.86700 -0.36300 22.37100
H  19.88100 -1.44800 23.00900
H  19.07900 -0.46900 21.84300
H  19.54100 -2.04800 21.39200
H  14.62700 -1.81200 23.31200
H  15.25400 -2.71600 21.89400
H  13.39100 -0.55200 21.78600
H  14.24100 -1.25800 20.54300
H  14.85800 0.20900 21.32900
H  12.66000 2.03900 26.59600
H  13.43000 1.57200 25.10600
H  13.74500 3.13700 25.89800
H  14.46000 0.28500 31.26200
H  15.69800 3.15100 34.15800
H  16.30000 3.98400 32.76600
H  17.27800 2.72500 33.57800
Mg 15.82500 51.09700 26.20400
C  18.04000 50.21500 28.89400
C  13.42900 51.63200 28.49000
C  13.76000 51.41500 23.71100
C  18.56100 50.15300 24.02900
N  15.81200 50.92800 28.32300
C  16.80200 50.64100 29.20900
C  16.36100 51.10700 30.60400
C  14.79700 51.27600 30.57400
C  14.69100 51.43100 29.03100
C  14.13300 49.95000 31.04100
C  17.10300 52.50000 31.02300
C  17.59700 52.86500 32.46800
H  16.96100 52.11400 33.64400
N  13.89700 51.49800 26.14700
C  13.01300 51.71500 27.17000
C  11.68500 51.79600 26.68600
C  11.75000 51.56000 25.25100
C  13.16500 51.50200 24.99100
C  10.40100 51.88100 27.58500
C  10.68900 51.48200 24.18500
O  10.99100 51.09300 23.04600
C  9.22500 51.80400 24.58800
N  16.16800 50.90200 24.19000
C  15.07900 51.15000 23.35300
C  15.57200 51.05700 21.81900
C  17.07100 50.62000 21.96300
C  17.32400 50.58400 23.49700
C  14.69000 50.19300 20.81200
C  18.08100 51.42600 21.13600
C  19.03000 50.70900 20.19100
N  17.85300 50.32700 26.39300
C  18.79500 50.06500 25.40200
C  20.00200 49.63500 26.02700
C  19.83000 49.72900 27.42600
C  18.48200 50.09600 27.56000
C  21.33300 49.21000 25.39100
C  20.41900 49.55400 28.70100
O  21.52100 49.16000 29.06000
C  19.28800 49.83100 29.75200
C  19.11300 48.69400 30.68100
O  18.57600 47.64700 30.45700
O  19.64300 49.03200 31.89200
C  19.30200 48.11000 32.95500
H  12.63200 51.81800 29.21300
H  13.15500 51.64500 22.83200
H  19.40700 49.95000 23.36900
H  16.71100 50.28300 31.22500
H  14.25700 52.03900 31.13500
H  14.92600 49.20300 31.08800
H  13.29800 49.66000 30.40400
H  13.78800 50.20800 32.04200
H  16.52600 53.30300 30.56300
H  18.08400 52.63700 30.56800
H  17.35000 53.89100 32.74000
H  18.68400 52.83200 32.54600
H  9.90100 50.91500 27.64900
H  9.80500 52.63200 27.06700
H  10.66400 52.31800 28.54900
H  8.56900 51.74200 23.72000
H  9.17700 52.83800 24.92900
H  8.95600 51.05500 25.33300
H  15.48300 52.09100 21.48500
H  17.16100 49.57700 21.65800
H  13.73200 49.88900 21.23400
H  15.29600 49.55600 20.16700
H  14.31600 50.85300 20.03000
H  18.68300 52.01700 21.82700
H  17.50400 52.09200 20.49500
H  19.12200 51.45100 19.39700
H  18.48200 49.89900 19.71000
H  19.91900 50.37400 20.72600
H  22.15600 49.61100 25.98200
H  21.27600 49.68800 24.41200
H  21.38200 48.12100 25.36900
H  19.53600 50.71500 30.34000
H  20.00900 47.28900 33.08200
H  18.26900 47.76600 32.91400
H  19.31400 48.73300 33.84900

