158

Mg 30.00500 58.18800 40.42900
C  27.38100 56.17500 39.54200
C  32.24100 55.68300 39.28800
C  32.53000 60.26700 40.59500
C  27.79600 60.83400 40.97900
N  29.86800 56.25800 39.38900
C  28.63500 55.62700 39.26400
C  28.77400 54.27300 38.56300
C  30.31200 53.96300 38.94000
C  30.86700 55.40600 39.15800
C  30.43000 53.12900 40.20500
C  28.49000 54.54700 37.04200
C  27.78300 53.44500 36.18600
H  27.26100 53.97000 34.84900
N  32.11600 58.00500 40.21200
C  32.81900 56.92500 39.73800
C  34.22600 57.16700 39.68800
C  34.29800 58.57900 40.01200
C  32.96200 58.99900 40.29100
C  35.31300 56.16400 39.24300
C  35.53400 59.42600 39.93700
O  36.56200 58.91800 39.52000
C  35.70600 60.94100 40.34800
N  30.11100 60.26400 40.52300
C  31.30900 60.86100 40.83100
C  31.22300 62.28100 41.25300
C  29.59800 62.51400 41.18300
C  29.07600 61.11100 40.81500
C  31.82600 62.63300 42.61700
C  29.15500 63.61800 40.23300
C  27.77700 64.23400 40.49700
N  27.95700 58.53500 40.33400
C  27.18900 59.59800 40.68100
C  25.82900 59.24000 40.53500
C  25.88200 57.85300 40.07600
C  27.23000 57.50500 40.03300
C  24.62700 60.17000 40.62500
C  25.05200 56.73000 39.75600
O  23.82900 56.61600 39.68900
C  26.03100 55.67200 39.31300
C  25.69900 54.38000 40.05500
O  26.18200 54.01200 41.15400
O  24.72700 53.70100 39.35800
C  24.35200 52.40400 39.91000
H  32.94700 54.92200 38.95100
H  33.27200 61.05900 40.72000
H  27.13500 61.68700 41.14800
H  28.19900 53.45900 39.00400
H  30.83900 53.45900 38.12900
H  31.06400 53.49900 41.01200
H  30.82100 52.15400 39.91400
H  29.48300 53.07600 40.74200
H  29.42900 54.79200 36.54500
H  27.99800 55.51900 37.01100
H  27.00800 52.94900 36.77000
H  28.57900 52.75000 35.91900
H  35.21300 55.27400 39.86400
H  36.31100 56.46600 39.56000
H  35.23800 56.00700 38.16700
H  35.34900 61.01700 41.37500
H  35.03900 61.57900 39.76800
H  36.77000 61.17200 40.29400
H  31.76600 62.88400 40.52400
H  29.25600 62.69900 42.20200
H  31.04600 63.02000 43.27300
H  32.56300 63.43100 42.52700
H  32.20000 61.70900 43.05600
H  29.29400 63.33600 39.18900
H  29.80000 64.45600 40.49900
H  27.92400 65.31400 40.49500
H  27.37700 63.88800 41.45000
H  27.11400 63.98600 39.66800
H  24.94200 61.06500 40.08800
H  24.23400 60.33400 41.62800
H  23.84900 59.71100 40.01500
H  25.75900 55.47400 38.27600
H  24.05500 52.37100 40.95900
H  25.05600 51.61500 39.64600
H  23.42800 52.17800 39.37800
Mg 5.70500 52.41400 41.89900
C  5.00800 48.99300 41.82800
C  8.62600 51.84300 40.20400
C  6.02500 55.65700 41.53400
C  2.31300 52.93300 42.95200
N  6.64400 50.62100 40.92600
C  6.26700 49.35000 41.20600
C  7.30700 48.38500 40.54400
C  8.63500 49.33500 40.70000
C  7.93900 50.68300 40.54300
C  9.42500 49.21900 42.01400
C  7.06300 47.96100 38.98800
C  6.03000 48.75100 38.25000
H  5.67700 48.24700 36.89200
N  7.25100 53.61000 41.12800
C  8.36200 53.17200 40.50700
C  9.20900 54.28400 40.21000
C  8.45000 55.48500 40.58200
C  7.20400 54.94900 41.07400
C  10.50100 54.18200 39.41400
C  8.94600 56.92200 40.49500
O  10.10700 57.15900 40.13800
C  8.06000 58.11100 40.85900
N  4.24700 54.09200 41.99300
C  4.77500 55.35700 41.95900
C  3.81600 56.35900 42.57800
C  2.55800 55.49000 42.90500
C  2.99100 54.09400 42.50800
C  4.40000 57.11700 43.80700
C  1.28300 55.95500 42.16400
C  0.08300 56.32000 43.04300
N  3.94000 51.23600 42.43900
C  2.68000 51.57900 42.94700
C  2.07100 50.32300 43.42300
C  2.93400 49.24900 42.96100
C  4.07600 49.89800 42.32300
C  0.79400 50.16000 44.12800
C  3.08100 47.87200 42.81800
O  2.33400 46.98200 43.17500
C  4.42400 47.61200 42.09300
C  4.09600 46.73300 40.88600
O  3.37500 47.05400 39.94000
O  4.67500 45.47100 40.99700
C  4.62300 44.68100 39.80200
H  9.62900 51.60700 39.84200
H  6.25100 56.72300 41.45500
H  1.41800 53.21500 43.51000
H  7.57800 47.51400 41.14100
H  9.32300 49.13400 39.87900
H  8.99200 48.37700 42.55400
H  9.36800 50.21700 42.45000
H  10.50000 49.11400 41.87000
H  7.00500 46.87300 38.95200
H  7.97400 48.09600 38.40400
H  6.26800 49.81300 38.19200
H  5.10000 48.64300 38.80900
H  10.17200 53.83000 38.43600
H  11.13900 53.38600 39.79900
H  11.05800 55.10200 39.23500
H  8.47800 59.11000 40.73500
H  7.77500 57.98300 41.90400
H  7.10800 58.22200 40.34100
H  3.69500 57.12300 41.81000
H  2.34800 55.59700 43.96900
H  5.41400 56.87000 44.12200
H  3.72800 57.02100 44.65900
H  4.51200 58.17400 43.56500
H  0.99800 55.17100 41.46300
H  1.55100 56.88900 41.67100
H  0.43400 56.74800 43.98300
H  -0.55700 55.44300 43.13200
H  -0.60300 57.02000 42.56700
H  0.74300 49.13500 44.49700
H  -0.10200 50.30200 43.52400
H  1.01500 50.79900 44.98300
H  5.14400 47.15100 42.76900
H  5.68600 44.54300 39.60500
H  4.20500 45.06400 38.87100
H  4.18800 43.70500 40.01700

