158

Mg 9.29900 4.17800 28.02600
C  10.52300 2.28200 30.79200
C  7.47100 5.99200 30.16200
C  7.87500 5.48200 25.42900
C  10.57800 1.42800 26.02100
N  8.97300 3.95600 30.25200
C  9.66000 3.30100 31.19900
C  9.29800 3.82000 32.62200
C  8.12500 4.87200 32.34200
C  8.13900 4.95500 30.85200
C  6.81100 4.50000 33.05000
C  10.51900 4.38400 33.45700
C  10.68000 3.82200 34.89200
H  10.96800 4.82700 35.98800
N  7.88900 5.63400 27.79000
C  7.34200 6.34900 28.77700
C  6.56300 7.46200 28.20400
C  6.77300 7.31200 26.77900
C  7.60800 6.17200 26.62900
C  5.86900 8.46500 29.03600
C  6.19200 8.12100 25.72700
O  6.39300 7.89700 24.52800
C  5.24100 9.34700 26.00000
N  9.23100 3.47700 25.96000
C  8.53500 4.29400 25.06300
C  8.74500 3.81900 23.60700
C  9.54400 2.48400 23.80700
C  9.80800 2.41000 25.35500
C  7.40500 3.65400 22.87700
C  10.77000 2.29700 22.93400
C  10.96300 0.98700 22.23200
N  10.44300 2.33900 28.26500
C  10.98600 1.43700 27.37100
C  11.92900 0.53700 28.10200
C  11.77700 0.83600 29.42200
C  10.86000 1.87900 29.49400
C  12.88500 -0.42300 27.43200
C  12.23300 0.44800 30.73700
O  13.09800 -0.38400 31.10100
C  11.47800 1.45100 31.70000
C  10.76400 0.62400 32.72900
O  9.69600 0.07900 32.51500
O  11.48300 0.57000 33.90300
C  10.76100 0.02200 35.07000
H  6.92500 6.68600 30.80500
H  7.48300 5.88000 24.49100
H  11.04300 0.74500 25.30700
H  8.94200 2.90100 33.08700
H  8.38800 5.81900 32.81400
H  6.05000 4.23600 32.31600
H  6.65800 5.48100 33.50000
H  6.87800 3.69600 33.78400
H  10.56200 5.47300 33.46500
H  11.37600 4.12000 32.83800
H  11.38600 2.99100 34.91000
H  9.69900 3.37600 35.05700
H  6.19800 8.47800 30.07500
H  4.84200 8.10300 29.06500
H  6.01600 9.53100 28.86400
H  4.35400 8.88700 26.43600
H  4.77500 9.76900 25.11000
H  5.62300 10.08500 26.70600
H  9.39200 4.60200 23.21100
H  8.86200 1.67700 23.53900
H  6.63500 3.67700 23.64900
H  7.35600 2.69900 22.35400
H  7.07500 4.45200 22.21100
H  11.65400 2.49400 23.54100
H  10.61800 3.00300 22.11700
H  10.03400 0.46300 22.00700
H  11.38200 0.33500 22.99900
H  11.47500 1.07600 21.27400
H  13.21800 0.17500 26.58400
H  12.52800 -1.36200 27.00800
H  13.74800 -0.73000 28.02100
H  12.19500 2.02200 32.28900
H  9.98400 -0.70700 34.84100
H  10.42600 0.77300 35.78600
H  11.56800 -0.57400 35.49700
Mg 42.98500 41.64900 25.81300
C  42.24900 43.84900 28.32600
C  44.20300 39.51700 28.01800
C  43.89000 39.82700 23.10800
C  41.87500 44.17300 23.39300
N  43.28600 41.75100 27.92000
C  42.86500 42.70400 28.79400
C  42.92600 42.24800 30.25600
C  43.71700 40.85700 30.13600
C  43.75600 40.72000 28.59200
C  45.07600 40.79400 30.92800
C  41.52300 42.15800 30.90000
C  41.51700 41.54700 32.29600
H  41.00500 42.28100 33.55700
N  43.91400 39.91800 25.63200
C  44.27100 39.15900 26.67200
C  44.70400 37.83000 26.15800
C  44.56300 37.92100 24.75200
C  44.10500 39.29600 24.41000
C  45.10400 36.78400 27.10200
C  44.76900 36.77600 23.76700
O  44.58600 36.96600 22.56100
C  45.20800 35.43100 24.25800
N  42.81800 42.01700 23.54200
C  43.39200 41.04600 22.70200
C  43.33100 41.53000 21.21400
C  42.47100 42.85700 21.36200
C  42.37300 43.03300 22.87600
C  44.77500 41.81000 20.57300
C  41.02000 42.72500 20.72600
C  40.08200 41.69900 21.48200
N  42.29600 43.65500 25.80600
C  41.79200 44.49600 24.78900
C  41.32100 45.73700 25.38900
C  41.44900 45.56100 26.80400
C  42.03300 44.26600 26.97000
C  40.80900 46.90500 24.60600
C  41.25900 46.10700 28.09200
O  40.84600 47.21500 28.40700
C  41.85200 45.04800 29.15300
C  42.88600 45.64900 29.94200
O  43.89400 46.23100 29.57300
O  42.52100 45.37600 31.26700
C  43.50500 45.82200 32.35000
H  44.47700 38.77200 28.76700
H  44.13700 39.18600 22.25900
H  41.52200 44.98100 22.74800
H  43.52600 42.94700 30.83800
H  43.10700 40.03400 30.50800
H  45.28300 41.72600 31.45400
H  45.83600 40.52800 30.19400
H  44.97200 40.01800 31.68600
H  40.83600 41.60200 30.26200
H  41.08600 43.11700 31.18100
H  42.50500 41.14300 32.51700
H  40.88900 40.65700 32.28200
H  45.30000 37.12400 28.11900
H  46.05700 36.37700 26.76400
H  44.48100 35.89000 27.06600
H  44.44500 34.95000 24.87000
H  46.14400 35.60200 24.78800
H  45.33100 34.78100 23.39100
H  42.90600 40.78800 20.53800
H  42.97100 43.76400 21.02000
H  44.98000 42.88100 20.55600
H  44.81700 41.32900 19.59600
H  45.51700 41.32700 21.20900
H  41.14100 42.51600 19.66300
H  40.51500 43.69100 20.71000
H  39.31300 42.24000 22.03200
H  40.59600 41.07700 22.21600
H  39.60400 41.06800 20.73300
H  40.25700 46.62400 23.70900
H  41.64200 47.52500 24.27400
H  40.11900 47.47200 25.23200
H  40.91800 44.81400 29.66300
H  44.42000 46.32900 32.04100
H  43.89300 44.87400 32.72200
H  42.97600 46.39400 33.11200

