158

Mg 24.83500 -5.26700 46.71400
C  27.27300 -3.22700 45.38000
C  22.64800 -4.11500 44.43500
C  22.76500 -7.69900 47.65900
C  27.34200 -6.58000 48.79500
N  25.03900 -3.94200 45.00500
C  26.07600 -3.11800 44.66700
C  25.71900 -2.12500 43.54000
C  24.15700 -2.18700 43.57800
C  23.88600 -3.46200 44.44300
C  23.46200 -0.95000 44.16300
C  26.36200 -2.45900 42.17300
C  26.61900 -1.15100 41.24200
H  26.02500 -1.15100 39.81300
N  22.97200 -5.85400 46.08300
C  22.16900 -5.19200 45.24200
C  20.91800 -5.95400 45.10000
C  20.94300 -7.04600 45.97900
C  22.27600 -6.95200 46.58800
C  19.96700 -5.66000 44.07300
C  19.76900 -8.09000 46.20700
O  18.77100 -8.02200 45.48500
C  19.89100 -9.24100 47.13500
N  25.05000 -6.89300 48.06500
C  23.96700 -7.70800 48.27800
C  24.44600 -8.91000 49.15800
C  25.89800 -8.54200 49.60000
C  26.10300 -7.27000 48.81900
C  23.50200 -9.23900 50.42400
C  26.84400 -9.75200 49.21000
C  28.11600 -9.83400 50.11300
N  26.84900 -4.91900 47.12500
C  27.72700 -5.55500 47.98600
C  28.98600 -4.91200 47.91000
C  28.86800 -3.96600 46.94100
C  27.57900 -4.05300 46.46600
C  30.21600 -5.30000 48.74800
C  29.57700 -2.98000 46.18600
O  30.68200 -2.39500 46.32600
C  28.57500 -2.38700 45.10900
C  28.33600 -0.96200 45.41900
O  27.49600 -0.46900 46.18300
O  29.26900 -0.17100 44.76200
C  28.93800 1.18500 44.89800
H  21.79900 -3.61100 43.96700
H  22.08400 -8.43700 48.08800
H  28.06000 -6.90000 49.55200
H  26.12000 -1.15100 43.82200
H  23.86000 -2.30400 42.53500
H  24.06300 -0.38200 44.87300
H  22.72900 -1.30500 44.88800
H  23.11900 -0.28200 43.37300
H  25.63900 -3.08100 41.64400
H  27.26400 -3.03700 42.37500
H  27.70200 -1.21300 41.14200
H  26.48300 -0.19100 41.73900
H  20.27100 -4.98600 43.27100
H  19.10500 -5.19100 44.54700
H  19.66400 -6.50900 43.46100
H  19.98400 -8.90400 48.16800
H  20.77100 -9.80700 46.83000
H  18.98600 -9.82200 46.96000
H  24.51500 -9.74700 48.46300
H  25.99000 -8.27800 50.65300
H  22.43800 -9.07100 50.26100
H  23.89000 -8.88300 51.37900
H  23.55900 -10.32000 50.55000
H  27.19900 -9.62800 48.18700
H  26.37100 -10.73300 49.25400
H  28.03000 -10.65700 50.82200
H  28.26900 -8.90100 50.65500
H  28.98900 -9.83100 49.46100
H  30.44000 -6.31700 48.42500
H  29.84200 -5.40200 49.76600
H  31.18300 -4.79800 48.72100
H  28.81700 -2.50100 44.05200
H  28.96800 1.45600 45.95400
H  27.92300 1.37900 44.55100
H  29.57300 1.83300 44.29400
Mg 6.23600 53.85700 41.26500
C  5.35500 50.39400 40.95900
C  9.29300 53.05100 40.35500
C  6.72500 57.06000 41.11500
C  2.68100 54.41700 41.82100
N  7.07600 51.99000 40.53800
C  6.62000 50.68600 40.54500
C  7.68300 49.64700 40.03900
C  8.93800 50.48400 40.43600
C  8.40200 51.95100 40.48400
C  9.73300 50.02100 41.73500
C  7.50500 49.13800 38.56500
C  6.80100 50.01100 37.56900
H  6.28600 49.44700 36.22600
N  7.84200 54.93600 40.87600
C  9.02100 54.41400 40.38400
C  9.92600 55.53400 40.09800
C  9.22200 56.72600 40.38500
C  7.90200 56.28400 40.81000
C  11.34300 55.44000 39.51700
C  9.67600 58.14500 40.27600
O  10.84700 58.41700 39.91800
C  8.84800 59.47300 40.47900
N  4.81500 55.48700 41.35000
C  5.37300 56.76200 41.22900
C  4.23200 57.78000 41.35700
C  2.89600 56.96500 41.24300
C  3.44000 55.56100 41.50800
C  4.12100 58.60900 42.68600
C  2.21600 56.92500 39.88300
C  0.84800 57.62500 39.77800
N  4.41000 52.68400 41.43600
C  3.08400 53.08800 41.77100
C  2.25600 51.94000 41.90400
C  3.17500 50.83900 41.73800
C  4.45000 51.35600 41.36000
C  0.84000 51.97300 42.39300
C  3.24700 49.42000 41.70700
O  2.40200 48.52600 41.95200
C  4.62200 49.08400 41.13400
C  4.27100 48.34900 39.81300
O  3.89500 48.86900 38.74500
O  4.31800 47.03900 40.03700
C  4.19000 46.16700 38.90200
H  10.34700 52.84100 40.16100
H  6.86100 58.12100 41.33500
H  1.63100 54.68300 41.95800
H  7.57100 48.83600 40.75900
H  9.56800 50.55100 39.54900
H  9.93500 50.88000 42.37400
H  10.70600 49.60700 41.47200
H  9.21600 49.27900 42.34300
H  6.89900 48.23300 38.61100
H  8.45100 48.80300 38.13900
H  7.48100 50.82500 37.31900
H  6.00200 50.60700 38.01200
H  11.09400 55.85600 38.54000
H  11.76200 54.44900 39.34100
H  12.13700 56.01300 39.99400
H  9.50300 60.34300 40.44400
H  8.46300 59.33400 41.49000
H  7.97500 59.48800 39.82700
H  4.34300 58.48900 40.53600
H  2.14100 57.18100 42.00000
H  3.91100 57.98500 43.55500
H  3.26500 59.28300 42.68400
H  5.05000 59.13000 42.92000
H  2.17600 55.87900 39.58100
H  2.90900 57.46100 39.23400
H  0.82800 58.11200 40.75300
H  0.07100 56.86200 39.72200
H  0.86500 58.35000 38.96500
H  0.21000 52.19800 41.53200
H  0.71100 52.72000 43.17600
H  0.55200 50.97600 42.72700
H  5.11100 48.41700 41.84400
H  4.97300 46.32600 38.16000
H  3.21800 46.14500 38.40800
H  4.37400 45.15100 39.25100

