158

Mg 41.61300 7.80300 30.22000
C  43.31900 8.70100 33.08600
C  39.34600 6.16600 32.12000
C  40.11400 6.56800 27.32700
C  44.13800 8.96100 28.30400
N  41.57800 7.18700 32.37900
C  42.25900 7.88900 33.34800
C  41.59800 7.57100 34.68200
C  40.63600 6.36300 34.33700
C  40.45200 6.61300 32.88400
C  41.16100 4.94200 34.68200
C  41.04100 8.75900 35.45100
C  41.17300 8.71700 36.98800
H  41.56600 10.01500 37.79900
N  39.96500 6.65900 29.82300
C  39.05400 6.14700 30.77500
C  37.86600 5.60400 30.09300
C  38.10300 5.73500 28.65600
C  39.38400 6.35100 28.58300
C  36.69900 4.96500 30.87100
C  37.12100 5.49900 27.45400
O  37.30500 5.93500 26.32700
C  35.74200 4.89000 27.74500
N  42.10500 7.59200 28.08800
C  41.32700 7.16900 27.09200
C  41.91500 7.44400 25.64500
C  42.96400 8.46700 26.06400
C  43.12400 8.31000 27.58500
C  42.48900 6.09100 25.11600
C  42.61900 9.94400 25.71400
C  41.25600 10.49500 26.20600
N  43.40800 8.68000 30.62400
C  44.31900 9.08100 29.72100
C  45.39100 9.87500 30.48800
C  44.90600 9.82300 31.76100
C  43.79400 8.96500 31.82600
C  46.56600 10.51800 29.90400
C  45.25800 10.20900 33.08600
O  46.11600 10.87100 33.52800
C  44.18500 9.57200 34.05800
C  44.77900 8.72700 35.08500
O  45.18800 7.61400 34.95200
O  44.80300 9.42600 36.22200
C  45.46000 8.86300 37.41900
H  38.49900 5.67400 32.60400
H  39.56100 6.37200 26.40600
H  44.70500 9.54200 27.57400
H  42.32000 6.99400 35.26000
H  39.69300 6.48100 34.87000
H  40.43700 4.42900 35.31400
H  42.10600 4.90000 35.22500
H  41.23700 4.34800 33.77200
H  39.99400 8.97100 35.23300
H  41.58100 9.66300 35.17000
H  41.81900 7.88500 37.26900
H  40.27700 8.29800 37.44500
H  36.84300 4.97900 31.95100
H  36.63500 3.92700 30.54700
H  35.80500 5.55000 30.65300
H  35.32500 4.67800 26.76100
H  35.16300 5.70800 28.17200
H  35.78400 3.99400 28.36400
H  41.13800 7.85700 25.00100
H  43.96900 8.23000 25.71700
H  41.87100 5.68400 24.31500
H  42.58500 5.31900 25.87900
H  43.48600 6.27500 24.71600
H  42.55200 10.03000 24.62900
H  43.35800 10.68500 26.02000
H  40.52000 10.53100 25.40200
H  41.45800 11.37500 26.81600
H  40.83100 9.68500 26.79800
H  46.36800 11.52700 29.54300
H  46.90700 9.95200 29.03700
H  47.35900 10.54700 30.65100
H  43.60000 10.45500 34.31500
H  44.74800 8.22400 37.94200
H  45.80100 9.68700 38.04500
H  46.36500 8.34100 37.11100
Mg 54.81400 24.45000 45.45000
C  52.19400 26.78400 44.70000
C  52.70600 22.02400 44.10500
C  57.42400 22.33800 45.35100
C  56.91200 27.15700 46.22400
N  52.79300 24.49800 44.31900
C  51.84800 25.52600 44.32400
C  50.51000 25.06300 43.69600
C  50.63600 23.49100 43.91300
C  52.16500 23.32400 44.09800
C  49.83200 22.87700 45.09200
C  50.34300 25.64100 42.26900
C  50.28900 24.63300 41.03300
H  50.02900 25.06500 39.61100
N  55.03400 22.38400 44.85700
C  54.01200 21.54100 44.39700
C  54.57600 20.20300 44.16000
C  55.97700 20.29900 44.28300
C  56.20800 21.67300 44.85100
C  53.60400 18.97900 43.81100
C  56.96900 19.18600 44.08100
O  56.65000 18.07400 43.66800
C  58.49600 19.32100 44.36000
N  56.82900 24.71300 45.72500
C  57.66400 23.67300 45.83900
C  59.09300 24.06700 46.25100
C  58.94900 25.58500 46.37000
C  57.41900 25.87200 46.14700
C  59.75800 23.31300 47.33300
C  60.02000 26.45900 45.71600
C  60.71600 27.42700 46.57900
N  54.66400 26.49800 45.57700
C  55.58200 27.45700 45.97000
C  54.94400 28.75700 46.02300
C  53.63900 28.50900 45.55800
C  53.53400 27.11300 45.17100
C  55.56000 30.01500 46.49800
C  52.43500 29.16200 45.34900
O  52.00900 30.25900 45.61400
C  51.45600 28.11200 44.65700
C  51.09200 28.61800 43.31600
O  51.88900 29.14500 42.50000
O  49.68900 28.54000 43.15200
C  49.26800 29.22500 41.92500
H  52.04700 21.20900 43.79700
H  58.27500 21.65400 45.32500
H  57.55600 28.00200 46.47500
H  49.66800 25.33500 44.33300
H  50.48800 22.88900 43.01700
H  50.43800 22.16100 45.64800
H  48.88900 22.41300 44.80300
H  49.54800 23.65400 45.80200
H  51.11400 26.31800 41.90100
H  49.34000 26.06500 42.31100
H  49.44400 23.94500 41.06600
H  51.23500 24.09800 41.11000
H  52.82400 19.09600 44.56300
H  54.08500 18.00600 43.90800
H  53.22700 19.03900 42.79000
H  58.84400 20.26100 43.93100
H  59.08200 18.67000 43.71200
H  58.74300 19.22000 45.41700
H  59.68900 23.68700 45.42100
H  59.10100 25.75700 47.43600
H  60.72200 22.84600 47.13600
H  59.10900 22.47700 47.59700
H  59.94600 23.89100 48.23800
H  59.52100 27.03200 44.93400
H  60.64600 25.83000 45.08300
H  61.77200 27.46400 46.31400
H  60.59600 27.37500 47.66100
H  60.28700 28.38800 46.29300
H  56.22100 30.44100 45.74300
H  56.14400 29.96300 47.41800
H  54.78400 30.76900 46.63000
H  50.54200 27.96900 45.23400
H  49.68500 28.71700 41.05500
H  49.75200 30.20200 41.93000
H  48.19100 29.35000 42.03700

