158

Mg 40.27600 7.17000 29.14300
C  41.92500 8.73400 31.99800
C  38.29200 5.56700 31.30400
C  39.06500 5.55300 26.46100
C  42.93600 8.47400 27.23300
N  40.08300 7.30200 31.37600
C  40.89300 7.89600 32.31600
C  40.34000 7.65800 33.71000
C  39.36300 6.52000 33.51400
C  39.19700 6.44300 31.96500
C  39.90900 5.19400 34.10600
C  39.75900 8.93100 34.27700
C  39.40500 9.03800 35.74600
H  40.29500 10.06000 36.57100
N  38.71900 5.87500 28.97300
C  37.96300 5.37300 29.90500
C  36.92100 4.53600 29.33600
C  37.08500 4.69300 27.88200
C  38.35500 5.34500 27.71000
C  35.92600 3.81800 30.16500
C  36.11700 4.36300 26.69200
O  36.36300 4.47900 25.47800
C  34.81100 3.88500 27.15600
N  40.97100 6.94600 27.11500
C  40.26200 6.28300 26.22000
C  40.76700 6.52900 24.79300
C  41.94400 7.57600 25.03700
C  42.03500 7.64900 26.56800
C  41.24300 5.23800 23.94700
C  41.91300 8.96800 24.25300
C  40.91100 9.99200 24.65500
N  42.07100 8.28300 29.49900
C  43.05100 8.67000 28.60700
C  44.04000 9.41300 29.29600
C  43.62300 9.49300 30.61900
C  42.37900 8.82400 30.70200
C  45.36000 9.82800 28.81700
C  43.97800 10.01800 31.91800
O  44.93300 10.71000 32.23900
C  42.84800 9.55700 32.84800
C  43.45800 8.61800 33.84800
O  44.12900 7.63800 33.61600
O  43.40400 9.16300 35.11900
C  44.02700 8.34100 36.13700
H  37.63400 5.08400 32.02900
H  38.73400 5.09000 25.53000
H  43.60700 8.97600 26.53300
H  41.21200 7.41800 34.31800
H  38.34400 6.74000 33.83100
H  40.88100 5.28800 34.59200
H  40.07400 4.45400 33.32300
H  39.19400 4.76000 34.80500
H  38.77900 8.96900 33.80100
H  40.25800 9.83600 33.92800
H  39.55200 8.07600 36.23700
H  38.33600 9.24400 35.79400
H  36.21200 3.82200 31.21700
H  35.89100 2.75800 29.91100
H  34.92000 4.21700 30.03800
H  34.31800 4.51400 27.89700
H  35.13000 2.97000 27.65600
H  34.13300 3.63600 26.33900
H  39.93900 7.04800 24.31000
H  42.87100 7.09800 24.72100
H  40.87700 5.16200 22.92300
H  41.07400 4.28800 24.45400
H  42.32900 5.29100 23.86900
H  41.60400 8.77300 23.22500
H  42.93400 9.32000 24.39700
H  40.21500 9.64600 25.41900
H  40.35300 10.31500 23.77600
H  41.51000 10.77000 25.12900
H  45.29300 9.72200 27.73400
H  46.09300 9.15800 29.26700
H  45.65500 10.82200 29.15200
H  42.32600 10.38500 33.32800
H  43.50600 7.38300 36.14400
H  43.93300 8.72400 37.15300
H  45.11100 8.37700 36.02900
Mg 45.56400 24.71400 29.04400
C  46.24100 27.16600 31.36000
C  44.62700 22.51900 31.39900
C  45.34300 22.32500 26.62700
C  46.75300 26.89200 26.48700
N  45.30700 24.85400 31.15400
C  45.78700 25.91400 31.91000
C  45.50300 25.63300 33.36500
C  45.07800 24.12300 33.36500
C  44.92500 23.81000 31.90600
C  46.13500 23.24500 34.03600
C  44.36700 26.52900 33.94700
C  44.77700 27.32200 35.25300
H  43.73100 27.42700 36.36200
N  44.80700 22.70600 29.03000
C  44.47200 22.00300 30.14200
C  43.98900 20.78900 29.67800
C  44.33800 20.60900 28.28800
C  44.83200 21.91600 27.87900
C  43.30500 19.86000 30.64700
C  44.22700 19.32100 27.33800
O  44.64300 19.27600 26.17100
C  43.71600 18.04500 27.90100
N  46.17600 24.56200 26.88400
C  45.91100 23.42700 26.12600
C  46.36600 23.63800 24.66600
C  46.49700 25.16000 24.57100
C  46.50200 25.60100 26.04800
C  47.69800 22.89600 24.34000
C  45.30400 25.72900 23.83600
C  43.93500 25.88800 24.55600
N  46.27700 26.60000 28.95700
C  46.73900 27.35500 27.85100
C  47.16200 28.67900 28.31000
C  46.97100 28.66500 29.68800
C  46.49900 27.37400 29.99200
C  47.66200 29.75200 27.43500
C  47.07000 29.40700 30.91600
O  47.50700 30.56900 31.03300
C  46.80700 28.44000 32.08800
C  48.01300 28.14500 32.90200
O  48.96700 27.47200 32.52100
O  47.85500 28.62600 34.16200
C  48.78800 28.20900 35.20200
H  44.36400 21.89300 32.25500
H  45.36800 21.53300 25.87500
H  46.76100 27.80000 25.88000
H  46.43400 25.80500 33.90600
H  44.07600 23.93900 33.75300
H  45.83400 22.19800 34.08100
H  46.14700 23.65400 35.04600
H  47.13500 23.10700 33.62400
H  43.40500 26.05600 34.14300
H  44.12700 27.28100 33.19500
H  45.13100 28.33100 35.03900
H  45.66700 26.85400 35.67500
H  42.36600 19.47700 30.24700
H  43.37400 20.12700 31.70100
H  43.90200 18.94900 30.68300
H  42.63600 18.17000 27.97500
H  44.23500 18.07400 28.85900
H  44.02100 17.20300 27.28000
H  45.66200 23.26300 23.92200
H  47.43500 25.46800 24.10900
H  47.59600 22.35400 23.40000
H  47.97600 22.20900 25.13900
H  48.54200 23.55400 24.13200
H  45.10100 25.25900 22.87400
H  45.48100 26.76200 23.54000
H  44.01600 26.90100 24.95000
H  43.73200 25.07300 25.25200
H  43.17000 25.94400 23.78300
H  48.00100 29.33700 26.48500
H  48.51900 30.18600 27.95000
H  46.93300 30.54800 27.28700
H  46.00900 28.77500 32.75100
H  49.72800 27.83700 34.79400
H  48.52800 27.37400 35.85300
H  49.06400 29.11000 35.75000

