158

Mg 29.84000 59.06300 39.85100
C  27.19200 57.42600 38.45200
C  31.92400 56.45700 38.95200
C  32.60100 61.06800 40.12200
C  27.82000 62.05700 39.94400
N  29.55000 57.14100 38.75900
C  28.38800 56.62800 38.34600
C  28.48700 55.17900 37.85100
C  29.96300 54.86800 38.41600
C  30.55200 56.22500 38.67300
C  29.90300 54.03900 39.71200
C  28.30800 55.18200 36.27300
C  27.23000 54.31100 35.72000
H  26.32500 54.96200 34.66600
N  31.96200 58.71000 39.74200
C  32.63300 57.62600 39.34400
C  34.02900 57.73800 39.57800
C  34.31100 59.03200 40.00900
C  32.91100 59.65400 39.99500
C  35.01700 56.66400 39.21000
C  35.73000 59.60200 40.32800
O  36.70900 58.88100 40.13500
C  35.91500 60.94800 40.88700
N  30.06000 61.22600 40.14000
C  31.37600 61.71300 40.16900
C  31.29100 63.25900 40.21900
C  29.78300 63.55600 40.38200
C  29.16500 62.21100 40.05800
C  32.09200 63.89600 41.41900
C  29.18500 64.79000 39.57600
C  28.95800 66.07300 40.37600
N  27.85100 59.55600 39.54800
C  27.11400 60.80000 39.67700
C  25.71300 60.49400 39.35300
C  25.70400 59.16900 38.94400
C  27.06200 58.68500 38.97900
C  24.59900 61.58700 39.21900
C  24.81700 58.13000 38.37700
O  23.57300 58.10900 38.18300
C  25.71200 56.89600 38.14000
C  25.43500 55.72200 39.10700
O  25.91700 55.59500 40.25300
O  24.62300 54.82900 38.46500
C  24.36600 53.62600 39.32400
H  32.45900 55.50900 38.86600
H  33.47600 61.72100 40.14300
H  27.22200 62.95800 40.09200
H  27.68400 54.60500 38.31500
H  30.53700 54.27100 37.70600
H  29.19700 54.48900 40.41000
H  30.90500 54.09500 40.13800
H  29.66500 52.97900 39.62400
H  29.27100 55.02800 35.78700
H  28.06400 56.19300 35.94700
H  26.59700 53.94100 36.52700
H  27.75700 53.51100 35.19900
H  35.74800 56.64500 40.01900
H  35.45600 56.67600 38.21300
H  34.47600 55.71800 39.22700
H  36.93800 61.05000 41.25000
H  35.26600 61.21200 41.72200
H  35.76700 61.62000 40.04100
H  31.59800 63.65200 39.25000
H  29.53700 63.74900 41.42600
H  31.55200 64.53800 42.11500
H  33.00000 64.35300 41.02300
H  32.45500 63.06600 42.02500
H  28.30000 64.48600 39.01700
H  29.88200 65.10100 38.79800
H  29.60300 66.86700 39.99800
H  29.26600 65.98500 41.41800
H  27.88000 66.20700 40.46200
H  25.07400 62.56400 39.12900
H  24.00800 61.52500 40.13300
H  23.91900 61.47200 38.37500
H  25.46400 56.58000 37.12700
H  23.82600 52.89100 38.72700
H  23.75800 53.98600 40.15400
H  25.26600 53.17700 39.74300
Mg 35.76800 48.57000 25.37800
C  35.75300 46.89200 28.54400
C  34.42200 51.27100 27.02900
C  35.59000 49.95800 22.37000
C  36.65800 45.56400 23.98400
N  35.18800 48.99500 27.52900
C  35.48700 48.28600 28.61600
C  35.15300 49.11000 29.91100
C  34.66700 50.49200 29.45700
C  34.81100 50.26100 27.91600
C  33.17500 50.92400 29.78400
C  36.45000 49.20200 30.69000
C  36.38200 49.05700 32.19700
H  35.10600 49.24100 32.97200
N  34.96400 50.33500 24.74300
C  34.49500 51.30100 25.58500
C  34.20300 52.47200 24.76800
C  34.56500 52.23200 23.41300
C  35.03000 50.82200 23.48300
C  33.57200 53.71200 25.42600
C  34.35400 53.11800 22.20700
O  34.78700 52.77000 21.10400
C  33.47400 54.34500 22.31000
N  35.85800 47.79200 23.45900
C  35.90300 48.60100 22.39000
C  36.44300 47.93600 21.05800
C  36.81100 46.55000 21.69800
C  36.43200 46.61900 23.13900
C  35.43500 47.76100 19.90000
C  38.30700 46.19100 21.55700
C  38.98600 46.33100 20.20800
N  36.26900 46.63100 26.06400
C  36.56600 45.52900 25.37400
C  36.70600 44.38500 26.28300
C  36.35000 44.89000 27.55800
C  36.14500 46.27100 27.36800
C  37.21000 42.88800 25.92300
C  36.31400 44.57000 28.99900
O  36.57500 43.57000 29.67000
C  35.97300 45.91100 29.71400
C  34.64800 45.71700 30.47400
O  33.56400 46.02900 30.10800
O  34.90500 45.13300 31.67200
C  33.75000 44.91300 32.54300
H  33.90100 52.07300 27.55500
H  35.62900 50.54700 21.45100
H  37.00400 44.65800 23.48200
H  34.38700 48.65000 30.53600
H  35.35300 51.27100 29.78900
H  33.29200 51.94100 30.15800
H  32.69700 50.24700 30.49200
H  32.57200 51.12000 28.89700
H  37.01300 50.12100 30.53300
H  37.13700 48.38700 30.46100
H  37.15800 49.77800 32.45700
H  36.66800 48.03300 32.43600
H  34.02700 54.58000 24.94900
H  33.81000 53.81200 26.48500
H  32.49100 53.61600 25.32800
H  32.58400 54.03600 22.85700
H  33.23900 54.78800 21.34200
H  34.05100 55.13700 22.78800
H  37.28700 48.43800 20.58400
H  36.13500 45.79100 21.30600
H  34.36800 47.95400 20.01700
H  35.57700 46.77000 19.46900
H  35.80800 48.47600 19.16700
H  38.38900 45.12400 21.76300
H  38.89700 46.80100 22.24100
H  38.28300 46.60300 19.42100
H  39.48400 45.40400 19.92200
H  39.74400 47.11100 20.14100
H  37.93300 42.92000 25.10700
H  36.31600 42.29600 25.72600
H  37.78000 42.53500 26.78200
H  36.73800 46.03100 30.48100
H  33.93100 44.33100 33.44600
H  33.06600 44.26100 32.00100
H  33.36600 45.87400 32.88500

