158

Mg 1.88300 -1.97700 43.79900
C  5.05400 -0.62500 43.25900
C  0.63300 0.78800 42.07200
C  -1.11800 -3.48700 43.80300
C  3.36900 -4.74700 45.14800
N  2.74500 -0.21400 42.69900
C  4.04900 0.16600 42.67600
C  4.26700 1.50800 41.93900
C  2.78800 2.11500 42.08500
C  2.02100 0.84700 42.22600
C  2.59200 3.18500 43.20400
C  4.78600 1.37900 40.49100
C  5.46200 2.64400 39.83600
H  5.58900 2.63700 38.28000
N  -0.00500 -1.39200 43.13000
C  -0.27500 -0.27600 42.37100
C  -1.75400 -0.22100 42.11100
C  -2.29400 -1.38000 42.70200
C  -1.13000 -2.19000 43.24600
C  -2.45700 0.92400 41.43300
C  -3.73800 -1.87400 42.77300
O  -4.64700 -1.23500 42.19800
C  -4.22300 -3.12100 43.49200
N  1.18100 -3.85200 44.41100
C  -0.11900 -4.27400 44.39900
C  -0.29100 -5.72800 44.90200
C  1.21800 -6.10100 45.38200
C  1.97200 -4.77400 45.05400
C  -1.37800 -5.93400 45.97400
C  1.71200 -7.27000 44.48600
C  1.48300 -8.63800 45.15500
N  3.77200 -2.60700 44.18700
C  4.20000 -3.75700 44.73100
C  5.62900 -3.73200 44.87200
C  6.01300 -2.53100 44.32900
C  4.83400 -1.88400 43.90100
C  6.43400 -4.78700 45.59300
C  7.10700 -1.65900 44.03600
O  8.30000 -1.87300 44.19700
C  6.53300 -0.39700 43.30800
C  6.82400 0.73100 44.27700
O  6.38800 0.83500 45.40400
O  7.85800 1.52100 43.80200
C  8.34400 2.55900 44.65400
H  0.16100 1.69500 41.68800
H  -1.98100 -4.13100 43.62100
H  3.90100 -5.62800 45.51200
H  4.87400 2.17700 42.54800
H  2.37100 2.56500 41.18400
H  3.50300 3.59100 43.64600
H  1.99300 2.75100 44.00500
H  1.91200 3.95000 42.83200
H  4.00400 1.00200 39.83100
H  5.63100 0.68900 40.49000
H  6.52900 2.53900 40.03000
H  5.01800 3.50800 40.33100
H  -2.27300 0.79600 40.36600
H  -2.20400 1.85200 41.94600
H  -3.54300 0.86900 41.51100
H  -4.10200 -3.96800 42.81600
H  -5.24500 -2.92100 43.81500
H  -3.68600 -3.31000 44.42100
H  -0.61600 -6.41000 44.11600
H  1.32400 -6.30900 46.44700
H  -2.12300 -5.14000 46.01900
H  -1.01100 -6.11300 46.98400
H  -1.78700 -6.92200 45.76100
H  2.75400 -7.11400 44.20600
H  1.13600 -7.29000 43.56100
H  0.83500 -8.76500 46.02300
H  2.52100 -8.92200 45.32200
H  0.92500 -9.31800 44.51200
H  5.95400 -5.16100 46.49800
H  7.44800 -4.49000 45.86100
H  6.48100 -5.62200 44.89400
H  7.10600 -0.24800 42.39300
H  9.01900 2.24800 45.45200
H  7.47800 3.02500 45.12300
H  8.86400 3.23300 43.97400
Mg 50.00400 46.79100 42.22000
C  46.57800 47.13500 41.63600
C  49.88100 43.91500 40.27400
C  53.27200 46.82400 42.14200
C  49.91100 50.15200 43.26100
N  48.37500 45.73000 41.00100
C  47.10100 46.02500 40.99100
C  46.35800 45.20900 39.87900
C  47.44900 44.10800 39.47600
C  48.65000 44.64900 40.27700
C  47.05400 42.67000 39.85200
C  45.96000 46.21700 38.65700
C  44.53600 45.90600 38.16300
H  44.32500 45.70800 36.71500
N  51.40900 45.37900 41.38900
C  51.13500 44.25000 40.77400
C  52.40300 43.59400 40.63400
C  53.44200 44.46600 40.96400
C  52.71500 45.59200 41.58000
C  52.54700 42.23600 40.05100
C  54.89500 44.29200 40.70200
O  55.36200 43.34700 40.07400
C  55.90500 45.36000 41.00300
N  51.43900 48.38300 42.57900
C  52.75900 48.03400 42.55000
C  53.60000 49.17800 43.09000
C  52.45900 50.32100 43.38600
C  51.17900 49.55700 43.13500
C  54.43000 48.84600 44.41600
C  52.68400 51.62400 42.53500
C  52.20200 52.85500 43.33400
N  48.54700 48.27700 42.56800
C  48.68800 49.51400 43.05000
C  47.40100 50.17200 43.23800
C  46.48900 49.23500 42.67900
C  47.26700 48.09900 42.31500
C  47.11900 51.54700 43.76900
C  45.08200 48.91700 42.32300
O  44.05900 49.56900 42.38700
C  45.08100 47.46900 41.70900
C  44.46700 46.57200 42.62800
O  44.89400 46.25600 43.72400
O  43.32500 46.09300 42.06300
C  42.94000 44.82800 42.64500
H  49.71600 43.01500 39.67800
H  54.35100 46.85000 42.30700
H  49.94600 51.20400 43.55300
H  45.54100 44.63600 40.31700
H  47.74900 44.18900 38.43100
H  45.96800 42.57900 39.85000
H  47.40000 42.37600 40.84300
H  47.45000 42.11200 39.00300
H  46.70400 46.04700 37.87900
H  45.95400 47.26900 38.94400
H  43.84100 46.72000 38.37100
H  44.10000 45.06000 38.69300
H  53.27000 42.33400 39.24100
H  51.55300 41.88000 39.78400
H  53.03200 41.68600 40.85700
H  55.59600 46.34100 40.64300
H  56.84600 45.11800 40.50900
H  56.04400 45.42400 42.08200
H  54.29500 49.43100 42.29000
H  52.41700 50.62700 44.43100
H  55.48200 49.11200 44.30800
H  54.30400 47.87300 44.88900
H  54.11400 49.51600 45.21500
H  52.12600 51.34200 41.64200
H  53.74600 51.83400 42.41200
H  51.38300 53.32500 42.79000
H  52.99500 53.59200 43.46400
H  51.83200 52.65300 44.33900
H  46.07000 51.72100 44.00900
H  47.42600 52.24200 42.98800
H  47.80900 51.71800 44.59500
H  44.57500 47.51900 40.74500
H  41.91300 44.82200 43.01200
H  43.63200 44.32700 43.32200
H  43.03600 44.13500 41.80900

