158

Mg 24.71000 -6.72600 47.32300
C  27.15900 -4.59500 46.19500
C  22.69900 -5.92100 44.75100
C  22.47500 -9.34800 48.24700
C  27.17700 -8.24800 49.42700
N  25.02500 -5.58600 45.41200
C  25.97800 -4.57200 45.31800
C  25.80200 -3.77500 44.01600
C  24.26900 -4.16600 43.61200
C  23.96500 -5.31600 44.64300
C  23.16100 -3.11800 43.53800
C  26.78700 -3.94400 42.85400
C  27.58900 -2.64600 42.53500
H  27.49400 -2.20300 41.10400
N  22.74600 -7.50200 46.70800
C  22.10500 -6.98900 45.60600
C  20.87900 -7.64500 45.45900
C  20.72000 -8.55300 46.51400
C  21.98900 -8.48700 47.29100
C  19.92400 -7.42300 44.39300
C  19.42600 -9.48300 46.76800
O  18.46500 -9.53100 46.02400
C  19.38000 -10.25100 48.06300
N  24.81600 -8.44700 48.59600
C  23.81900 -9.38300 48.83200
C  24.37400 -10.65400 49.44700
C  25.78100 -10.27500 49.84900
C  25.94700 -8.82500 49.33200
C  23.47100 -11.17700 50.58600
C  26.84300 -11.23800 49.20800
C  27.78400 -11.88200 50.31600
N  26.63400 -6.35600 47.92500
C  27.48900 -6.97600 48.77800
C  28.67800 -6.21600 48.91100
C  28.62100 -5.24700 47.94700
C  27.34900 -5.41500 47.33800
C  29.83800 -6.50800 49.82500
C  29.23200 -4.12900 47.20800
O  30.35300 -3.67300 47.35200
C  28.38500 -3.64900 46.08400
C  28.06200 -2.21300 46.17500
O  28.78100 -1.36400 45.62300
O  27.01600 -1.92600 46.97700
C  26.91100 -0.47700 47.13800
H  21.94200 -5.50700 44.08200
H  21.82900 -10.15600 48.59700
H  27.96500 -8.69900 50.03400
H  25.80100 -2.74700 44.38000
H  24.20000 -4.72300 42.67700
H  23.60000 -2.12100 43.50900
H  22.46100 -3.20200 44.36900
H  22.58100 -3.26900 42.62700
H  26.33800 -4.36500 41.95300
H  27.51100 -4.71100 43.12800
H  28.60600 -2.57400 42.91900
H  27.11800 -1.81800 43.06500
H  19.88500 -6.43000 43.94700
H  18.91200 -7.50500 44.78900
H  20.04900 -8.17100 43.60900
H  19.95400 -11.16200 48.23400
H  18.33000 -10.50400 48.20500
H  19.63800 -9.44600 48.75000
H  24.39100 -11.40900 48.66200
H  25.76900 -10.14100 50.93100
H  22.70000 -11.87600 50.26200
H  23.01400 -10.41200 51.21400
H  24.00800 -11.76400 51.33100
H  27.47300 -10.66300 48.52900
H  26.39500 -11.99400 48.56200
H  27.87800 -12.95000 50.12400
H  27.46200 -11.69900 51.34100
H  28.81500 -11.53000 50.30100
H  30.18700 -7.47900 49.47500
H  29.46900 -6.58000 50.84800
H  30.57100 -5.70200 49.78100
H  28.96300 -3.95200 45.21100
H  26.16500 -0.29600 47.91200
H  26.47600 0.07100 46.30200
H  27.89400 -0.08800 47.40600
Mg 16.93200 52.81600 26.62300
C  18.75900 51.32200 29.22600
C  14.51700 53.62400 28.89600
C  14.82300 53.73800 24.12100
C  19.27900 51.76100 24.34900
N  16.76900 52.64500 28.84400
C  17.63400 52.04700 29.67300
C  17.07300 51.91300 31.12400
C  15.67700 52.66400 31.00900
C  15.58900 52.96700 29.47200
C  14.43300 51.84200 31.61200
C  17.83700 52.62800 32.22000
C  17.60900 51.69800 33.47800
H  17.21100 52.52400 34.71500
N  15.03000 53.56300 26.53200
C  14.17200 53.87400 27.55300
C  12.89600 54.41900 27.11500
C  13.06800 54.68000 25.71400
C  14.36100 53.94100 25.41300
C  11.91800 54.83700 28.04600
C  12.20300 55.30800 24.71400
O  12.52100 55.44900 23.54400
C  10.93400 55.95500 25.11800
N  17.19000 52.94100 24.55000
C  16.12700 53.19500 23.72100
C  16.49200 53.05600 22.19800
C  18.07800 52.75800 22.35800
C  18.24700 52.50800 23.81400
C  15.87400 51.93400 21.38600
C  19.04500 53.98100 21.96200
C  20.36000 53.76100 21.08000
N  18.73100 51.80600 26.74100
C  19.51700 51.39900 25.66800
C  20.55100 50.58200 26.18700
C  20.35400 50.53700 27.57300
C  19.19400 51.29500 27.87600
C  21.53300 49.86700 25.26400
C  20.72300 49.92200 28.83500
O  21.65200 49.15200 29.05900
C  19.74600 50.50600 29.96400
C  19.09000 49.31000 30.65600
O  18.45600 48.38100 30.11500
O  19.60700 49.18800 31.94200
C  19.15400 48.03200 32.63100
H  13.68200 53.87800 29.55200
H  14.22900 53.99800 23.24200
H  20.00200 51.46000 23.58700
H  16.76800 50.88100 31.29600
H  15.64500 53.62100 31.53000
H  13.89200 52.35500 32.40700
H  14.90400 50.96100 32.04800
H  13.79400 51.65400 30.74900
H  17.52600 53.64800 32.44600
H  18.89100 52.63900 31.94600
H  18.52000 51.22000 33.83900
H  16.92600 50.86600 33.31000
H  12.25400 55.78300 28.47000
H  11.70900 54.11300 28.83400
H  10.95300 54.97400 27.55800
H  11.13000 56.62000 25.95900
H  10.31100 55.20100 25.60000
H  10.40600 56.35400 24.25200
H  16.35100 54.03700 21.74500
H  18.41400 51.90200 21.77200
H  15.10700 51.45400 21.99500
H  16.56200 51.21900 20.93400
H  15.36600 52.27100 20.48300
H  19.29600 54.55500 22.85400
H  18.45900 54.64200 21.32400
H  20.65400 54.63100 20.49200
H  20.16900 52.92600 20.40500
H  21.27500 53.43500 21.57400
H  22.23900 50.62700 24.92900
H  21.16900 49.40500 24.34500
H  21.92100 49.00000 25.79800
H  20.31600 51.12400 30.65700
H  19.74100 48.11600 33.54600
H  19.34500 47.12800 32.05300
H  18.09200 48.12100 32.85800

