158

Mg 43.90200 3.28200 47.03300
C  42.07200 6.21600 46.50600
C  41.06600 1.45600 46.54800
C  45.85100 0.51000 47.09100
C  46.87500 5.07300 46.94700
N  41.79100 3.89200 46.52000
C  41.27500 5.09700 46.43500
C  39.73700 5.04100 46.36700
C  39.47800 3.50600 46.63400
C  40.86500 2.87700 46.52400
C  38.91500 3.05700 48.01400
C  39.09500 5.36900 44.98900
C  39.49100 4.63700 43.77000
H  39.76800 5.49300 42.63600
N  43.49600 1.28500 46.83200
C  42.31000 0.77200 46.69400
C  42.38200 -0.63900 46.69800
C  43.76100 -1.04100 46.86200
C  44.45100 0.28700 46.94200
C  41.28000 -1.68200 46.59400
C  44.30500 -2.37700 46.88400
O  43.57000 -3.32500 46.82100
C  45.80900 -2.64700 46.79300
N  46.10700 2.78100 46.74900
C  46.56500 1.62400 47.03600
C  48.14900 1.57800 47.26200
C  48.44000 3.04700 47.05000
C  47.09300 3.66800 46.89700
C  48.68300 0.94200 48.54900
C  49.33700 3.14900 45.72200
C  50.18300 4.49900 45.47500
N  44.42300 5.23100 46.83100
C  45.68000 5.81100 46.89700
C  45.44800 7.24300 47.01600
C  44.12300 7.51500 46.86400
C  43.48400 6.17500 46.75600
C  46.53300 8.27000 47.02100
C  43.02400 8.49600 46.74500
O  43.06600 9.71600 46.88400
C  41.70700 7.66700 46.32700
C  40.68600 8.03500 47.29200
O  40.48300 7.68000 48.41000
O  39.78100 8.79700 46.59100
C  38.48300 9.02500 47.26300
H  40.14800 0.88600 46.39400
H  46.46800 -0.36400 47.30600
H  47.77400 5.61800 47.24500
H  39.25600 5.67100 47.11500
H  38.80100 3.15800 45.85300
H  39.21800 2.03400 48.23900
H  37.83300 3.18300 48.00800
H  39.31000 3.67500 48.82000
H  39.43400 6.39500 44.84500
H  38.02600 5.49200 45.16600
H  38.69600 3.97600 43.42400
H  40.40400 4.04400 43.82300
H  41.39800 -2.17800 45.63100
H  40.23900 -1.36000 46.59200
H  41.42800 -2.52100 47.27400
H  46.47200 -2.60100 47.65800
H  46.20100 -1.97100 46.03400
H  45.97600 -3.60600 46.30300
H  48.57100 1.02700 46.42200
H  49.08600 3.46000 47.82500
H  49.50300 1.58500 48.86900
H  49.10400 -0.04600 48.36400
H  47.95100 0.94700 49.35600
H  48.73600 2.97100 44.83000
H  50.08000 2.35200 45.73100
H  49.60500 5.39100 45.23200
H  50.86700 4.29200 44.65100
H  50.81500 4.73800 46.33000
H  47.46700 7.87200 47.42000
H  46.26500 9.02300 47.76300
H  46.56300 8.72800 46.03200
H  41.51300 7.83500 45.26700
H  38.38400 10.10200 47.12100
H  38.33100 8.82600 48.32400
H  37.77100 8.43300 46.68900
Mg 47.91000 15.99600 28.59600
C  45.51100 15.95900 31.11400
C  49.78400 17.83900 30.74300
C  49.82300 16.62300 26.05900
C  45.23600 14.96500 26.43200
N  47.75800 16.74600 30.73600
C  46.63500 16.62600 31.51200
C  46.90400 17.03600 32.97000
C  48.26100 17.80900 32.82900
C  48.65100 17.44400 31.37000
C  48.29400 19.40000 33.01900
C  46.98500 15.90900 34.05300
C  46.14700 16.12700 35.30700
H  46.11900 17.43300 36.17000
N  49.66500 16.81900 28.54200
C  50.21600 17.56500 29.49300
C  51.47700 18.05500 28.94600
C  51.60100 17.66300 27.57600
C  50.30600 16.99500 27.32200
C  52.45900 18.93300 29.82500
C  52.63200 18.04600 26.60600
O  52.60000 17.87400 25.41200
C  53.87800 18.81200 27.04800
N  47.60000 15.85700 26.49900
C  48.62100 16.06600 25.64600
C  48.12500 15.88500 24.14500
C  46.63300 15.36100 24.29800
C  46.51200 15.28700 25.78000
C  48.19000 17.18100 23.23200
C  46.43700 14.00100 23.59200
C  45.39400 13.82200 22.46200
N  45.85600 15.41500 28.70300
C  44.92600 14.98700 27.79300
C  43.62600 14.62100 28.37500
C  43.81800 14.97900 29.73100
C  45.15800 15.42200 29.84700
C  42.49300 13.94900 27.72300
C  43.11600 15.13500 30.99000
O  41.96700 15.04500 31.25500
C  44.18800 15.65900 31.96200
C  43.72900 16.93900 32.49100
O  43.72300 18.01100 31.92700
O  43.09400 16.77400 33.65500
C  42.60000 17.92200 34.43500
H  50.25200 18.47200 31.50000
H  50.48500 16.92500 25.24500
H  44.49400 14.63600 25.70100
H  46.14100 17.73900 33.30500
H  49.05500 17.42300 33.46800
H  48.19000 19.88900 32.05000
H  49.23000 19.72800 33.47000
H  47.49800 19.65000 33.72100
H  47.99900 15.72200 34.40500
H  46.50700 15.05300 33.57500
H  46.46500 15.38200 36.03700
H  45.07600 15.98300 35.16000
H  52.72000 19.84600 29.28900
H  53.44600 18.47400 29.89100
H  52.11300 19.26500 30.80400
H  54.28400 18.24600 27.88700
H  53.47200 19.78400 27.32800
H  54.56700 18.89200 26.20700
H  48.69500 15.12900 23.60500
H  45.90900 15.96200 23.74700
H  48.94700 16.96200 22.47900
H  48.60300 18.06500 23.71700
H  47.26300 17.49200 22.75100
H  46.27100 13.27800 24.39000
H  47.32300 13.56000 23.13400
H  46.00100 13.70500 21.56400
H  44.75500 14.70500 22.44600
H  44.83000 12.90500 22.63500
H  42.62000 12.89400 27.47900
H  42.29400 14.43300 26.76700
H  41.59900 14.24800 28.26900
H  44.40600 14.85000 32.65900
H  43.44000 18.46800 34.86300
H  41.96500 17.51700 35.22400
H  42.14700 18.67400 33.78800

