158

Mg -2.15300 16.66000 26.04300
C  -2.70700 14.44300 28.83500
C  -2.98400 19.29000 28.25400
C  -2.13800 18.68500 23.50300
C  -1.90800 13.91000 23.92500
N  -2.90800 16.77700 28.31200
C  -2.91900 15.76100 29.23800
C  -3.44300 16.29200 30.49900
C  -3.62300 17.84600 30.24500
C  -3.08600 17.99300 28.85400
C  -5.07200 18.38200 30.41700
C  -2.63700 16.07800 31.82600
C  -3.50200 15.79500 33.08500
H  -2.87400 14.99800 34.20900
N  -2.38000 18.78400 25.89700
C  -2.65000 19.73500 26.87000
C  -2.60200 21.04000 26.26400
C  -2.40900 20.82500 24.91400
C  -2.35200 19.38100 24.69900
C  -2.72800 22.23400 27.05300
C  -2.38300 21.87300 23.79200
O  -2.31800 21.56700 22.64500
C  -2.15400 23.28600 24.12700
N  -2.13100 16.26000 23.96600
C  -1.95700 17.30200 23.18300
C  -1.78500 16.90900 21.70400
C  -1.41500 15.33200 21.85800
C  -1.81900 15.12700 23.33500
C  -3.06000 17.20600 20.86600
C  0.09500 14.92900 21.55000
C  1.16600 15.71900 22.32200
N  -2.20800 14.57400 26.27900
C  -2.12700 13.57700 25.30200
C  -2.21400 12.29500 25.90700
C  -2.46100 12.61100 27.24500
C  -2.47600 13.97700 27.46800
C  -2.08400 10.96000 25.30400
C  -2.68300 11.97400 28.56500
O  -2.82600 10.80000 28.80400
C  -2.94100 13.03500 29.54200
C  -1.82200 12.78900 30.55100
O  -0.64000 13.03000 30.30700
O  -2.33600 12.33800 31.73900
C  -1.27500 11.71300 32.57600
H  -3.27400 20.15600 28.85200
H  -2.36200 19.36700 22.68100
H  -1.50000 13.03400 23.41600
H  -4.39500 15.79000 30.67200
H  -3.03700 18.40700 30.97300
H  -5.31600 19.14000 29.67200
H  -5.07700 18.84000 31.40600
H  -5.88100 17.65200 30.39500
H  -2.06300 16.94800 32.14400
H  -1.87300 15.33600 31.59000
H  -4.42000 15.31700 32.74400
H  -3.73700 16.77800 33.49200
H  -3.54700 22.81800 26.63400
H  -1.79100 22.77300 26.91900
H  -3.02900 21.97100 28.06700
H  -3.04800 23.77700 24.51100
H  -2.05000 23.74200 23.14200
H  -1.30300 23.40400 24.79700
H  -0.90300 17.35600 21.24500
H  -1.95100 14.72300 21.13000
H  -3.69900 17.93800 21.36000
H  -3.70700 16.39400 20.53300
H  -2.76600 17.84700 20.03500
H  0.32100 14.93500 20.48400
H  0.28200 13.90200 21.86700
H  1.62900 14.92000 22.90100
H  0.67000 16.51300 22.88100
H  1.94500 16.23700 21.76300
H  -2.96300 10.39200 25.00000
H  -1.51400 10.27800 25.93500
H  -1.36100 11.13800 24.50800
H  -3.87300 12.77400 30.04500
H  -0.55200 12.46100 32.90300
H  -0.74700 10.83900 32.19400
H  -1.73100 11.39600 33.51400
Mg -2.45700 34.30600 26.31800
C  -4.04000 32.45600 28.96200
C  -1.36100 36.58900 28.72000
C  -1.16500 36.25200 23.75100
C  -4.16700 32.35800 24.01000
N  -2.87500 34.56100 28.49900
C  -3.42200 33.67500 29.42100
C  -3.25100 34.14500 30.90500
C  -2.71700 35.62400 30.73900
C  -2.19400 35.58700 29.22400
C  -3.78100 36.73800 31.02300
C  -2.37900 33.16900 31.68900
C  -3.00600 32.54600 32.94200
H  -2.18900 32.46600 34.24300
N  -1.30000 36.03300 26.18400
C  -0.96000 36.77900 27.29300
C  0.01300 37.69000 26.88000
C  0.07400 37.71200 25.48800
C  -0.79500 36.64600 25.03900
C  0.75400 38.58600 27.92100
C  0.78300 38.60500 24.48400
O  0.76800 38.43100 23.27300
C  1.54800 39.82700 25.01200
N  -2.71000 34.35200 24.16400
C  -2.02000 35.15600 23.35600
C  -2.34100 34.86800 21.89700
C  -3.02300 33.48400 22.02200
C  -3.39400 33.41100 23.47600
C  -3.38600 35.95500 21.22700
C  -2.00100 32.41200 21.63300
C  -0.88500 31.88600 22.61100
N  -3.74900 32.71600 26.43000
C  -4.23500 31.97000 25.40100
C  -5.06400 30.87100 25.93900
C  -4.96600 31.03900 27.31100
C  -4.15200 32.11200 27.60500
C  -5.91800 29.84700 25.29600
C  -5.39600 30.44800 28.52800
O  -6.11100 29.47800 28.74800
C  -4.75600 31.32400 29.73700
C  -5.78900 31.73600 30.62400
O  -6.56600 32.65300 30.43400
O  -5.85000 30.88900 31.61800
C  -6.87800 31.26100 32.61400
H  -0.75500 37.02100 29.51900
H  -0.85400 36.85200 22.89300
H  -4.62600 31.56600 23.41400
H  -4.25000 34.11700 31.34000
H  -1.81300 35.82100 31.31400
H  -3.53700 36.99600 32.05400
H  -4.76000 36.26400 30.94400
H  -3.61600 37.62200 30.40900
H  -1.49200 33.68700 32.05600
H  -2.12600 32.34400 31.02300
H  -3.26800 31.50200 32.76800
H  -3.92600 33.09600 33.13900
H  1.82800 38.59800 27.73100
H  0.59500 38.25600 28.94700
H  0.43100 39.62300 27.82800
H  0.82300 40.46600 25.51600
H  2.01700 40.35400 24.18100
H  2.25300 39.53900 25.79100
H  -1.46000 34.92800 21.25800
H  -3.93500 33.35300 21.43900
H  -3.44900 36.87400 21.81000
H  -4.39500 35.58500 21.04600
H  -2.93900 36.09600 20.24200
H  -1.48000 32.90100 20.81000
H  -2.57200 31.55600 21.27300
H  0.06300 32.27000 22.23400
H  -0.80300 30.80400 22.50100
H  -1.09100 32.22000 23.62800
H  -5.89100 29.62700 24.22900
H  -6.96100 30.12800 25.44400
H  -5.65500 28.97900 25.90100
H  -4.03000 30.77800 30.33900
H  -6.35800 31.83200 33.38300
H  -7.12500 30.31500 33.09500
H  -7.81000 31.71800 32.28400

