158

Mg 0.54800 7.53000 25.26700
C  0.99600 9.40600 28.21000
C  1.19100 4.75600 27.21500
C  0.38300 5.74400 22.54300
C  0.74300 10.53100 23.43100
N  1.02600 7.15100 27.54200
C  0.96200 8.05500 28.52300
C  1.03800 7.36000 29.91300
C  1.29600 5.87700 29.55300
C  1.17000 5.93100 28.02300
C  2.63700 5.22500 30.05500
C  -0.24700 7.69200 30.71000
C  -0.14800 7.55100 32.25200
H  1.17700 7.01000 32.82700
N  0.37600 5.49700 24.96500
C  0.79500 4.57700 25.85100
C  0.51200 3.31900 25.17700
C  0.26600 3.59200 23.77500
C  0.37900 4.99400 23.69400
C  0.60300 1.97400 25.90400
C  -0.11900 2.62600 22.58500
O  -0.23500 2.96500 21.44300
C  -0.53700 1.20300 22.99300
N  0.72500 8.07200 23.22900
C  0.40700 7.14200 22.38400
C  0.32800 7.76300 20.98900
C  -0.01900 9.27000 21.38500
C  0.46200 9.32500 22.77800
C  1.49400 7.63900 20.03600
C  -1.47800 9.65300 21.26900
C  -1.82700 11.10000 20.70600
N  0.87800 9.61200 25.72000
C  0.98900 10.66400 24.85600
C  1.33800 11.87300 25.62600
C  1.40100 11.38500 26.95500
C  1.04300 10.05000 26.93600
C  1.35500 13.26100 25.07900
C  1.59600 11.83000 28.29800
O  1.93600 12.90700 28.72900
C  1.21400 10.59000 29.21900
C  2.44900 10.44200 30.16100
O  3.51700 9.85400 29.78800
O  2.24100 11.08300 31.32600
C  3.46800 11.03400 32.14300
H  1.45100 3.86100 27.78500
H  0.18000 5.26300 21.58400
H  0.81100 11.42000 22.80100
H  1.88900 7.85500 30.38200
H  0.52600 5.19400 29.91000
H  3.24900 5.99300 30.52700
H  3.21800 4.83900 29.21700
H  2.40500 4.32400 30.62400
H  -0.97300 6.96100 30.35600
H  -0.62400 8.67500 30.42500
H  -0.89200 6.83000 32.59200
H  -0.30000 8.47200 32.81300
H  1.09100 2.01900 26.87700
H  1.04800 1.20300 25.27500
H  -0.41900 1.65600 26.10900
H  0.34800 0.60400 23.20600
H  -0.95400 0.80300 22.06900
H  -1.28800 1.30500 23.77600
H  -0.51800 7.30000 20.48100
H  0.52500 9.86900 20.65400
H  2.26000 7.12900 20.62000
H  2.02700 8.56900 19.83900
H  1.18300 7.16000 19.10800
H  -2.03200 9.59100 22.20500
H  -1.98200 8.92100 20.63800
H  -2.17500 10.96200 19.68200
H  -0.95000 11.73500 20.83200
H  -2.66000 11.42200 21.33000
H  0.56000 13.26300 24.33300
H  2.31900 13.43000 24.59900
H  1.33900 13.92500 25.94300
H  0.29600 10.82100 29.76000
H  3.38000 11.73400 32.97300
H  4.36000 11.25600 31.55800
H  3.49400 10.02700 32.55900
Mg 42.61100 41.90100 26.30800
C  42.32400 44.21100 28.91000
C  44.03900 39.64200 28.61500
C  43.10800 39.57800 23.82800
C  41.88100 44.27400 23.98600
N  43.13100 41.94500 28.54500
C  42.78500 42.95000 29.37200
C  42.98200 42.48700 30.86100
C  43.67400 41.08200 30.66000
C  43.62600 40.86300 29.14200
C  45.09200 40.86000 31.28100
C  41.51000 42.44700 31.49500
C  41.30900 43.49800 32.67300
H  40.65100 42.88000 34.01900
N  43.39800 39.91500 26.26900
C  43.88200 39.18500 27.30700
C  44.36200 37.85900 26.87400
C  43.94600 37.77600 25.48400
C  43.50800 39.14300 25.15700
C  45.06300 36.78500 27.79700
C  43.90000 36.59900 24.56400
O  43.46900 36.65100 23.39700
C  44.21200 35.21800 25.08700
N  42.74000 42.00200 24.18200
C  42.72900 40.87500 23.39700
C  42.40100 41.20000 21.97700
C  41.79500 42.65100 22.03600
C  42.11100 43.01900 23.50400
C  43.62600 41.18200 21.00200
C  40.20500 42.78800 21.83100
C  39.32900 41.68300 22.43700
N  42.17800 43.82500 26.36600
C  41.95600 44.69700 25.32700
C  41.70300 45.99700 25.87700
C  41.78600 45.87000 27.25800
C  42.14500 44.56600 27.53500
C  41.48900 47.17900 25.19800
C  41.77000 46.57800 28.45700
O  41.55400 47.77300 28.76100
C  42.07400 45.51900 29.62800
C  43.27400 45.92800 30.51100
O  44.40200 45.51300 30.33700
O  42.87200 46.87400 31.43000
C  43.91500 47.27000 32.33400
H  44.42500 38.92500 29.34300
H  43.02600 38.92600 22.95500
H  41.52700 45.05900 23.31300
H  43.69100 43.09200 31.42600
H  43.06700 40.36800 31.21600
H  45.82400 40.42600 30.60000
H  45.04900 40.27200 32.19900
H  45.53100 41.81800 31.56000
H  41.30200 41.43400 31.84000
H  40.77100 42.70500 30.73700
H  40.55700 44.26000 32.47000
H  42.30900 43.89900 32.83800
H  45.29300 37.18700 28.78300
H  46.01400 36.41300 27.41500
H  44.33300 35.98500 27.92200
H  43.47800 34.68000 25.68800
H  45.19300 35.31600 25.55300
H  44.36100 34.56700 24.22500
H  41.67800 40.43400 21.69900
H  42.36300 43.35300 21.42500
H  44.47800 40.77500 21.54700
H  43.90400 42.02700 20.37100
H  43.46900 40.38100 20.27900
H  40.13800 42.65500 20.75200
H  39.76900 43.76200 22.05600
H  38.67700 42.10200 23.20300
H  40.01700 40.96400 22.88000
H  38.68500 41.22400 21.68700
H  41.43100 48.05400 25.84500
H  40.52800 47.08100 24.69300
H  42.33000 47.22300 24.50600
H  41.30000 45.30600 30.36500
H  44.08400 46.36900 32.92400
H  43.44900 48.04500 32.94300
H  44.82200 47.67500 31.88700

