158

Mg 35.25300 2.71000 29.15200
C  33.06400 3.69600 31.76500
C  37.97200 2.78300 31.34100
C  37.31300 1.95300 26.61400
C  32.61600 3.12600 27.01700
N  35.41000 3.11300 31.26600
C  34.42400 3.41000 32.11500
C  34.86400 3.36900 33.57600
C  36.43900 3.27400 33.38000
C  36.67300 3.06100 31.90100
C  37.29100 4.40000 34.09100
C  34.28900 2.10900 34.34800
C  34.11900 2.16100 35.81600
H  34.64200 3.28400 36.60900
N  37.36800 2.28600 29.02800
C  38.25400 2.40900 30.00700
C  39.60300 2.06700 29.50000
C  39.47900 1.95000 28.17300
C  38.00600 2.07000 27.83700
C  40.78200 1.88200 30.43800
C  40.53800 1.74000 27.12800
O  40.26300 1.86900 25.92700
C  41.96100 1.61600 27.50100
N  35.02600 2.49200 27.15200
C  35.96600 2.16000 26.24000
C  35.38000 1.82600 24.91000
C  33.87600 1.95100 25.02000
C  33.79600 2.54600 26.46600
C  35.92700 2.66800 23.64800
C  33.13900 0.64800 24.97300
C  33.33800 -0.26900 23.69200
N  33.25000 3.43300 29.25900
C  32.29200 3.48400 28.32500
C  31.06400 3.96100 28.83700
C  31.27200 4.07200 30.21500
C  32.61100 3.63000 30.42300
C  29.83700 4.20700 28.04900
C  30.77100 4.52800 31.41200
O  29.69000 5.12600 31.65000
C  31.80900 4.04600 32.56700
C  32.03900 5.21900 33.59800
O  32.90000 6.13200 33.46100
O  31.14600 5.02700 34.66500
C  31.40600 5.98800 35.71700
H  38.81000 2.72400 32.03900
H  37.92300 1.62600 25.77000
H  31.79500 3.14100 26.29700
H  34.61300 4.32900 34.02700
H  36.81600 2.40400 33.91700
H  37.50100 4.00000 35.08300
H  36.69500 5.30700 34.18400
H  38.22200 4.51300 33.53500
H  35.01200 1.37100 34.00100
H  33.39200 1.88400 33.77100
H  34.55900 1.21900 36.14200
H  33.08800 1.97500 36.11500
H  40.79700 0.79200 30.39500
H  40.58700 2.20100 31.46200
H  41.63100 2.32600 29.92100
H  42.58300 1.26700 26.67600
H  41.94900 0.91000 28.33200
H  42.28600 2.61700 27.78200
H  35.58800 0.76900 24.74400
H  33.46000 2.52000 24.18800
H  36.86700 3.03900 24.05700
H  35.30600 3.54200 23.45100
H  36.08100 2.05200 22.76200
H  32.06500 0.72600 25.14500
H  33.55600 0.02900 25.76700
H  33.49900 -1.30100 24.00300
H  34.22200 0.02100 23.12300
H  32.39500 -0.28700 23.14600
H  29.50700 3.20000 27.79600
H  30.01600 4.73600 27.11300
H  29.07900 4.55200 28.75100
H  31.43400 3.17500 33.10400
H  31.92500 6.91100 35.45600
H  31.84000 5.62600 36.64800
H  30.41400 6.27000 36.06900
Mg -11.61800 17.24300 42.23400
C  -8.12800 17.25300 42.58200
C  -11.57600 20.56800 41.56600
C  -14.90300 16.92800 41.48000
C  -11.42800 13.62500 42.29500
N  -10.04600 18.70100 42.17000
C  -8.69000 18.51200 42.26700
C  -7.92500 19.82900 42.02700
C  -9.11000 20.87000 42.24800
C  -10.32100 20.01600 41.94500
C  -9.08900 21.56300 43.65100
C  -7.35000 19.93200 40.62400
C  -5.81800 20.09100 40.60700
H  -5.01900 19.10500 39.85100
N  -13.09100 18.60100 41.67000
C  -12.84700 19.94800 41.47200
C  -14.08700 20.54300 41.17400
C  -15.13400 19.57000 41.14600
C  -14.41500 18.27200 41.39300
C  -14.19800 21.97500 40.86600
C  -16.61400 19.87100 40.95600
O  -16.99300 21.03800 40.83000
C  -17.65300 18.68000 40.83100
N  -12.93700 15.40200 41.55800
C  -14.23700 15.68600 41.61800
C  -15.09200 14.41900 41.88600
C  -13.96900 13.27900 41.98500
C  -12.72700 14.14100 42.05200
C  -16.05900 14.44700 43.09400
C  -13.91300 12.24800 40.80600
C  -14.13900 10.77000 41.24100
N  -10.10800 15.73000 42.38800
C  -10.20200 14.29500 42.43400
C  -8.84200 13.79100 42.63000
C  -8.05300 14.93200 42.78400
C  -8.84900 16.04200 42.60400
C  -8.34900 12.38300 42.64100
C  -6.66900 15.37800 43.14400
O  -5.68900 14.72300 43.38500
C  -6.69000 16.90900 43.06700
C  -6.39500 17.50100 44.38200
O  -6.89600 17.20000 45.46100
O  -5.44000 18.48600 44.21600
C  -5.30900 19.54900 45.20100
H  -11.51100 21.65700 41.51500
H  -15.96400 16.77200 41.27100
H  -11.31100 12.54200 42.37300
H  -7.11800 19.91700 42.75300
H  -9.15300 21.65500 41.49300
H  -8.24900 21.33900 44.30800
H  -9.92800 21.02000 44.08700
H  -9.19200 22.64700 43.69800
H  -7.80300 20.70500 40.00400
H  -7.55800 18.99500 40.10700
H  -5.39600 20.17800 41.60800
H  -5.65100 21.09800 40.22500
H  -14.31700 22.10900 39.79100
H  -13.32300 22.54600 41.17500
H  -15.03500 22.37000 41.44200
H  -18.59900 19.06900 40.45300
H  -17.90700 18.40600 41.85500
H  -17.34400 17.84900 40.19700
H  -15.72600 14.22300 41.02100
H  -13.96200 12.82800 42.97700
H  -16.32900 15.49200 43.24200
H  -15.63800 14.03200 44.00900
H  -16.98600 13.90800 42.89700
H  -12.93100 12.39000 40.35500
H  -14.58300 12.53800 39.99600
H  -13.35500 10.13700 40.82800
H  -15.06900 10.51700 40.73300
H  -14.35500 10.66900 42.30500
H  -8.76800 11.86400 41.78000
H  -8.91100 12.02200 43.50300
H  -7.26500 12.37100 42.75300
H  -5.93300 17.18900 42.33300
H  -5.03600 20.46800 44.68100
H  -4.63400 19.37100 46.03700
H  -6.25600 19.69200 45.72100

