158

Mg 49.89300 35.30100 28.52500
C  47.91000 34.06600 31.10100
C  50.03200 38.41200 30.35100
C  51.55400 36.79900 26.00100
C  49.19800 32.57600 26.63200
N  49.02400 36.17300 30.47000
C  48.46400 35.35400 31.37700
C  48.61600 35.92100 32.81900
C  49.01300 37.37400 32.59200
C  49.39700 37.32200 31.01700
C  48.06400 38.55200 32.95900
C  49.76800 35.12200 33.57600
C  49.79500 35.48300 35.09100
H  48.84400 36.39300 35.87400
N  50.64600 37.34600 28.29800
C  50.57300 38.42900 29.08300
C  51.17900 39.53900 28.42800
C  51.76400 39.07900 27.25100
C  51.37900 37.68200 27.15400
C  51.07000 40.95700 28.96600
C  52.63400 39.81100 26.23200
O  52.83500 39.33900 25.11300
C  53.20400 41.10900 26.67800
N  50.30300 34.84600 26.56800
C  51.04300 35.54100 25.68600
C  51.39200 34.68600 24.43700
C  50.81200 33.30100 24.81700
C  49.99200 33.58900 26.05600
C  50.98600 35.22600 23.08000
C  51.88200 32.12000 25.05400
C  51.57400 30.88100 24.22700
N  48.84000 33.62400 28.73800
C  48.62600 32.60100 27.94400
C  47.95700 31.52600 28.60500
C  47.61100 32.02800 29.83500
C  48.14700 33.34500 29.86200
C  47.63700 30.19100 27.99100
C  46.96400 31.80800 31.11300
O  46.28800 30.85000 31.41300
C  47.03900 33.07100 31.94800
C  47.17600 32.84800 33.46300
O  47.89600 32.09400 34.12300
O  46.11100 33.52500 34.06200
C  45.74200 33.12300 35.38600
H  50.21400 39.35300 30.87500
H  52.13900 37.02800 25.10800
H  49.09400 31.67500 26.02300
H  47.62600 35.91000 33.27400
H  49.97600 37.64400 33.02400
H  47.57300 38.15900 33.84900
H  47.33400 38.86100 32.21100
H  48.67900 39.40100 33.25800
H  50.70200 35.45800 33.12600
H  49.68900 34.03800 33.65500
H  50.77800 35.88100 35.34300
H  49.70000 34.55500 35.65500
H  50.51400 41.08100 29.89500
H  50.64700 41.62300 28.21300
H  52.08200 41.26200 29.23100
H  52.52900 41.91000 26.38000
H  54.12200 41.26300 26.11000
H  53.53000 41.05400 27.71700
H  52.46700 34.52100 24.50900
H  50.04200 33.08000 24.07900
H  51.93400 35.53100 22.63700
H  50.32900 36.09100 23.17200
H  50.51100 34.42800 22.51000
H  51.91600 31.99300 26.13600
H  52.87600 32.50900 24.83300
H  50.91100 30.22400 24.79100
H  52.49500 30.39800 23.90000
H  51.06200 30.92900 23.26600
H  47.06900 30.29300 27.06600
H  46.98700 29.65000 28.67800
H  48.57800 29.68500 27.77600
H  46.02800 33.45600 31.81700
H  44.86100 33.70400 35.65700
H  46.44900 33.45200 36.14800
H  45.53300 32.05400 35.34900
Mg 1.35700 42.04600 24.83800
C  2.93500 41.78100 27.98500
C  -1.50300 40.75200 26.29200
C  0.19700 41.58000 21.72600
C  4.52000 42.66200 23.44600
N  0.79200 41.46500 26.87800
C  1.60700 41.52500 28.06400
C  0.74800 41.25800 29.34700
C  -0.65000 40.91900 28.74500
C  -0.46700 41.05700 27.20100
C  -1.12100 39.54000 29.13500
C  0.70700 42.50600 30.30800
C  1.17100 42.23900 31.76900
H  0.22300 42.56800 32.92600
N  -0.51800 41.48000 24.10600
C  -1.49800 40.89700 24.87200
C  -2.60500 40.44800 24.00100
C  -2.24600 40.92000 22.73100
C  -0.77600 41.39300 22.80000
C  -3.77200 39.72800 24.54400
C  -3.10200 40.89400 21.44800
O  -2.61900 41.23200 20.37500
C  -4.48900 40.36100 21.41600
N  2.23700 42.15600 22.84000
C  1.55400 41.95500 21.76100
C  2.32700 42.44100 20.48600
C  3.64000 42.99200 21.09700
C  3.47700 42.65600 22.58000
C  2.52100 41.37200 19.34400
C  3.84800 44.49800 20.92200
C  3.93200 45.07300 19.51900
N  3.36000 42.23000 25.49700
C  4.50200 42.47900 24.82200
C  5.63500 42.59000 25.79600
C  4.99600 42.35800 27.00100
C  3.63600 42.13000 26.79700
C  7.14800 42.95400 25.49500
C  5.36200 42.19700 28.45900
O  6.38400 42.30900 29.11100
C  3.96700 41.84900 29.12000
C  4.02900 40.65500 30.01400
O  3.80800 39.50000 29.76600
O  4.37900 41.05800 31.25900
C  4.63000 40.08700 32.31500
H  -2.40600 40.38900 26.78700
H  -0.19600 41.40200 20.72300
H  5.48800 42.86500 22.98300
H  1.25800 40.39300 29.77000
H  -1.39600 41.63100 29.09800
H  -2.06400 39.60600 29.67800
H  -0.45100 39.04900 29.84000
H  -1.22400 38.89800 28.25900
H  -0.28300 42.96000 30.35400
H  1.22200 43.35400 29.85700
H  1.96100 42.97000 31.94000
H  1.70000 41.29100 31.85800
H  -4.26600 39.12800 23.78100
H  -4.43700 40.46700 24.99000
H  -3.39200 38.91000 25.15600
H  -4.45700 39.29200 21.20800
H  -5.05200 40.95600 20.69700
H  -4.95400 40.60700 22.37200
H  1.81100 43.28000 20.01900
H  4.48100 42.38900 20.75500
H  2.09800 40.36700 19.37700
H  3.57900 41.29100 19.09700
H  2.15500 41.74500 18.38800
H  4.63900 44.81900 21.60100
H  2.96300 44.93900 21.38000
H  3.05100 45.68300 19.31600
H  4.14500 44.45000 18.65000
H  4.63600 45.90500 19.51300
H  7.66700 41.99600 25.47100
H  7.52200 43.54900 26.32900
H  7.32500 43.59800 24.63400
H  3.76400 42.71000 29.75700
H  3.74800 39.61900 32.75100
H  4.93700 40.63000 33.20900
H  5.43800 39.39600 32.07500

