158

Mg 24.92400 -5.83500 46.30400
C  26.33800 -2.85700 44.85800
C  22.16700 -5.30000 44.30100
C  24.00600 -8.85300 47.09600
C  27.98800 -6.26700 47.89600
N  24.37500 -4.22500 44.67600
C  25.06300 -3.15300 44.32600
C  24.37700 -2.45000 43.23600
C  22.90600 -3.03500 43.31200
C  23.11700 -4.24400 44.14300
C  21.86500 -2.03800 43.97500
C  25.07700 -2.73900 41.86400
C  25.21000 -1.54600 40.97000
H  24.99000 -1.65100 39.44200
N  23.25600 -6.86700 45.90600
C  22.25000 -6.50200 45.02300
C  21.25400 -7.55200 44.96500
C  21.76300 -8.63800 45.69200
C  23.11400 -8.21400 46.18700
C  19.86100 -7.50500 44.19100
C  21.09100 -9.99500 45.94500
O  19.96200 -10.04300 45.62100
C  21.93500 -11.23400 46.44600
N  25.89000 -7.26800 47.33200
C  25.22200 -8.40600 47.55100
C  26.07500 -9.23500 48.61700
C  27.34800 -8.39100 48.83200
C  27.07900 -7.24800 47.96800
C  25.32700 -9.78900 49.89400
C  28.64900 -9.20700 48.49400
C  29.61200 -9.38200 49.65900
N  26.78800 -4.70400 46.43100
C  27.93400 -5.03800 47.15100
C  28.95500 -4.05400 47.00500
C  28.32900 -3.17100 46.02800
C  27.05700 -3.64300 45.72300
C  30.30600 -3.99800 47.66600
C  28.65400 -1.94700 45.31800
O  29.61300 -1.18300 45.33100
C  27.28900 -1.69100 44.50700
C  26.76000 -0.27600 44.89000
O  25.54700 -0.04700 45.17800
O  27.77500 0.72000 44.85500
C  27.32800 2.07200 45.32700
H  21.29300 -5.24100 43.64900
H  23.67500 -9.81400 47.49500
H  28.87300 -6.28600 48.53500
H  24.38900 -1.37100 43.39500
H  22.66400 -3.32200 42.28900
H  21.61200 -1.30900 43.20500
H  22.34500 -1.49400 44.78800
H  21.05100 -2.69100 44.28700
H  24.54900 -3.57300 41.40100
H  26.07600 -3.13900 42.03400
H  26.29000 -1.40200 40.99600
H  24.63400 -0.67600 41.28500
H  18.98700 -7.80100 44.77100
H  19.92300 -8.19300 43.34700
H  19.67300 -6.58000 43.64500
H  21.36600 -12.10500 46.12000
H  21.94700 -11.21200 47.53500
H  22.86500 -11.28800 45.88000
H  26.29200 -10.07300 47.95500
H  27.50800 -8.09100 49.86800
H  25.53000 -10.79800 50.25300
H  24.25800 -9.67900 49.71300
H  25.43300 -9.14800 50.77000
H  29.12000 -8.77800 47.60900
H  28.45800 -10.22500 48.15400
H  29.96700 -10.41300 49.64900
H  29.19100 -9.20400 50.64900
H  30.43200 -8.68000 49.50900
H  30.27100 -3.28000 48.48500
H  31.07100 -3.51800 47.05600
H  30.58900 -4.99700 48.00000
H  27.48800 -1.58100 43.44100
H  27.23300 2.21600 46.40300
H  26.35900 2.41100 44.96000
H  27.98900 2.81800 44.88400
Mg 48.61800 35.17200 27.44500
C  46.65600 33.87200 30.06900
C  49.30100 37.92100 29.34600
C  50.37800 36.28500 24.84700
C  47.55200 32.34600 25.49600
N  48.14900 35.70700 29.48900
C  47.40100 35.01100 30.42400
C  47.74500 35.58800 31.80600
C  47.94400 37.09400 31.46800
C  48.49500 36.95000 29.99100
C  46.80400 38.19100 31.64900
C  48.94500 34.78600 32.54900
C  48.98500 34.64900 34.09700
H  48.11800 35.56700 34.87300
N  49.56200 36.92100 27.10000
C  49.77600 37.88800 28.03000
C  50.64300 38.88600 27.40600
C  51.08600 38.39000 26.12300
C  50.36600 37.13300 25.97900
C  50.98100 40.25800 28.02600
C  52.16500 38.92300 25.22000
O  52.43900 38.40300 24.17700
C  52.97800 40.15500 25.63800
N  48.80100 34.45100 25.47600
C  49.63400 35.10700 24.62400
C  49.84200 34.37300 23.32500
C  48.92000 33.01900 23.51200
C  48.38400 33.29200 24.93700
C  49.34000 35.33100 22.24100
C  49.84200 31.65600 23.31900
C  49.50800 30.80600 22.06400
N  47.38300 33.50400 27.64700
C  47.05700 32.41900 26.84000
C  46.21100 31.52700 27.48900
C  46.04800 32.11100 28.75000
C  46.77700 33.27200 28.78100
C  45.60800 30.24600 26.98700
C  45.33000 31.89300 29.99500
O  44.49100 31.07500 30.27200
C  45.79400 33.01200 30.96700
C  46.56100 32.33200 32.06200
O  47.57000 31.66100 31.99900
O  45.72300 32.40600 33.16000
C  46.07400 31.48300 34.19500
H  49.57600 38.80700 29.92300
H  50.98000 36.60600 23.99400
H  47.23900 31.41500 25.01800
H  46.88100 35.53700 32.47000
H  48.75400 37.47600 32.08900
H  46.30000 38.42600 30.71100
H  47.07800 39.10200 32.18100
H  45.98500 37.75900 32.22400
H  49.89600 35.22200 32.24500
H  48.89000 33.77900 32.13500
H  49.99600 34.65100 34.50500
H  48.65800 33.63900 34.34300
H  50.18000 40.51900 28.71800
H  50.87900 40.92700 27.17100
H  51.89500 40.43500 28.59300
H  53.83100 40.21900 24.96200
H  53.20100 40.06500 26.70100
H  52.27800 40.96800 25.44800
H  50.90300 34.12900 23.29600
H  48.07100 33.17300 22.84600
H  48.64600 36.08600 22.61100
H  48.87000 34.84900 21.38400
H  50.15200 35.92300 21.82000
H  49.87700 30.93400 24.13400
H  50.84900 31.99900 23.08400
H  49.26400 29.82500 22.47200
H  50.37900 30.70100 21.41800
H  48.65100 31.22800 21.53900
H  45.39900 30.23700 25.91800
H  44.72000 30.02100 27.57700
H  46.37100 29.51100 27.24600
H  45.09900 33.71100 31.43100
H  45.51400 31.61800 35.12000
H  47.08500 31.55800 34.59500
H  46.01200 30.44200 33.87700

