158

Mg -1.94600 16.96100 26.97100
C  -2.52600 14.63100 29.64400
C  -2.29500 19.44800 29.24700
C  -1.63600 18.88400 24.43900
C  -2.24400 14.14700 24.67100
N  -2.29500 16.93500 29.17100
C  -2.31500 15.93500 30.12100
C  -2.54600 16.40200 31.59300
C  -2.59400 17.98000 31.28500
C  -2.41700 18.14800 29.79100
C  -3.86700 18.60700 31.85000
C  -1.30800 15.94100 32.43900
C  -0.80400 16.73200 33.57600
H  -0.25000 16.05200 34.90400
N  -1.84200 18.97300 26.84000
C  -2.04500 19.84600 27.90700
C  -1.94500 21.13700 27.33900
C  -1.71800 21.02400 25.94400
C  -1.75600 19.60900 25.69300
C  -2.01300 22.36700 28.27100
C  -1.49300 22.09500 24.87100
O  -1.28100 21.83800 23.70300
C  -1.51000 23.47300 25.27500
N  -2.09600 16.57800 24.84700
C  -1.89500 17.63600 24.05700
C  -1.89400 17.24900 22.58600
C  -1.71100 15.68000 22.66100
C  -2.06800 15.41900 24.13100
C  -3.21400 17.70000 21.82900
C  -0.26600 15.10500 22.31500
C  0.85000 15.55900 23.18600
N  -2.27700 14.85400 27.08500
C  -2.37000 13.90900 26.04500
C  -2.43000 12.65400 26.70400
C  -2.59100 12.89500 28.10600
C  -2.48500 14.20900 28.24600
C  -2.45800 11.34600 26.03900
C  -2.89000 12.23900 29.41300
O  -3.24000 11.10500 29.67800
C  -2.70100 13.35300 30.44500
C  -1.49400 12.94500 31.21300
O  -0.31700 13.26800 31.00200
O  -1.86400 12.30600 32.38000
C  -0.99700 12.24500 33.56900
H  -2.35400 20.21400 30.02300
H  -1.61500 19.61000 23.62400
H  -2.38800 13.28800 24.01300
H  -3.43700 15.97500 32.05300
H  -1.80300 18.62300 31.67300
H  -4.09500 18.07400 32.77400
H  -4.62500 18.62500 31.06600
H  -3.71800 19.66200 32.07900
H  -0.44300 15.69200 31.82400
H  -1.61600 15.03900 32.96700
H  -1.71900 17.30900 33.70800
H  0.05800 17.31000 33.24300
H  -2.80300 23.05500 27.97100
H  -1.09700 22.95400 28.20100
H  -2.10200 22.14700 29.33400
H  -2.41200 23.72900 25.83000
H  -1.53300 23.99600 24.31900
H  -0.62800 23.67700 25.88200
H  -1.00900 17.65700 22.09800
H  -2.58100 15.24000 22.17300
H  -2.92400 18.24700 20.93100
H  -3.87600 18.32700 22.42600
H  -3.66400 16.78600 21.44200
H  -0.02900 15.50800 21.33100
H  -0.34100 14.02400 22.43600
H  1.47900 16.11400 22.49100
H  1.28900 14.67300 23.64500
H  0.45200 16.21500 23.96000
H  -3.20400 11.41800 25.24700
H  -2.86100 10.58100 26.70300
H  -1.50100 10.99200 25.65800
H  -3.40400 13.56800 31.24900
H  -0.93100 13.27600 33.91800
H  0.01100 11.92200 33.30800
H  -1.37100 11.68400 34.42500
Mg -0.33700 7.00700 26.97500
C  0.57100 9.08600 29.52700
C  -0.61200 4.35200 29.41200
C  -1.04400 4.92400 24.50000
C  0.52800 9.46000 24.63000
N  -0.09900 6.78700 29.30500
C  0.21900 7.85100 30.13500
C  0.11100 7.42700 31.60400
C  0.11300 5.86800 31.48500
C  -0.24400 5.59300 29.98500
C  1.51700 5.23400 31.77600
C  -1.18700 7.95900 32.32200
C  -1.31300 8.19800 33.84800
H  -0.06900 7.88000 34.73700
N  -0.85100 5.00000 26.96300
C  -0.95000 4.08900 28.04800
C  -1.24100 2.76700 27.51000
C  -1.29800 2.87500 26.05800
C  -1.03400 4.32800 25.80900
C  -1.30400 1.57600 28.37900
C  -1.52500 1.82400 25.04300
O  -1.49300 2.00100 23.81500
C  -1.62500 0.45000 25.50800
N  -0.14000 7.17000 24.77600
C  -0.55100 6.13100 23.99500
C  -0.54100 6.53600 22.50200
C  -0.12000 8.04800 22.55100
C  0.04100 8.28600 24.03300
C  0.20200 5.69900 21.50800
C  -0.99500 9.03900 21.84100
C  -2.03600 9.76100 22.63200
N  0.42300 8.85100 27.04500
C  0.67900 9.79800 26.03400
C  1.11700 11.02200 26.57400
C  1.05500 10.85500 27.91700
C  0.71200 9.47200 28.13300
C  1.52300 12.36300 25.78800
C  1.26700 11.46500 29.20900
O  1.71000 12.61100 29.45600
C  0.99900 10.33700 30.26700
C  2.20500 10.21900 31.09200
O  3.22900 9.72200 30.70600
O  1.93500 10.75900 32.35600
C  3.15000 10.86400 33.18800
H  -0.63000 3.62900 30.22900
H  -1.17800 4.26000 23.64400
H  0.74200 10.24800 23.90400
H  1.01700 7.82600 32.05900
H  -0.67300 5.43800 32.10600
H  1.95200 4.91100 30.83000
H  1.39800 4.31900 32.35700
H  2.02800 5.98000 32.38400
H  -2.01600 7.31600 32.02700
H  -1.52300 8.90100 31.88900
H  -2.11500 7.66900 34.36200
H  -1.57500 9.24900 33.96400
H  -1.38000 1.84700 29.43200
H  -0.48800 0.91800 28.08200
H  -2.23100 1.06400 28.12000
H  -2.47000 0.35800 26.19000
H  -0.66500 0.11400 25.89900
H  -1.76700 -0.19300 24.63900
H  -1.60000 6.41300 22.27200
H  0.93900 8.13700 22.30900
H  0.81900 5.01400 22.09000
H  0.88500 6.31600 20.92400
H  -0.46200 5.05000 20.93700
H  -1.49300 8.38100 21.12800
H  -0.41900 9.81600 21.33800
H  -2.93900 10.03800 22.08900
H  -1.54200 10.72300 22.77100
H  -2.25000 9.27800 23.58500
H  2.20200 12.22500 24.94600
H  2.07100 13.15300 26.30200
H  0.62600 12.84400 25.39800
H  0.17300 10.64500 30.90900
H  3.09300 11.61400 33.97700
H  4.07400 11.05900 32.64400
H  3.42100 9.91400 33.65000

