158

Mg 36.05500 2.48700 30.28600
C  33.41300 3.44900 32.34800
C  38.22500 2.48100 32.99900
C  38.56400 1.34900 28.26900
C  33.80200 2.31800 27.59200
N  35.82900 2.88000 32.39700
C  34.62500 3.21300 33.01400
C  34.86300 3.31300 34.53800
C  36.40300 3.40300 34.63800
C  36.90200 2.88000 33.21300
C  36.74400 4.89100 34.74100
C  34.19500 2.03000 35.20400
C  33.69100 2.05100 36.65100
H  34.34100 3.07500 37.66200
N  38.11300 2.00800 30.54400
C  38.78800 2.08500 31.73700
C  40.14700 1.72900 31.55700
C  40.24800 1.40300 30.19900
C  38.96700 1.57600 29.59300
C  41.12400 1.57300 32.70900
C  41.45300 0.91200 29.44000
O  41.43000 0.64300 28.23400
C  42.77900 0.76400 30.13100
N  36.21600 2.12500 28.15800
C  37.27900 1.51200 27.63800
C  37.02000 1.07100 26.17400
C  35.48100 1.09900 26.09200
C  35.16400 1.92200 27.35700
C  37.68000 2.03700 25.10800
C  34.78100 -0.25400 26.17800
C  33.95000 -0.57900 24.89700
N  34.10700 3.05700 29.89300
C  33.32000 2.92300 28.80200
C  31.90600 3.23300 29.17300
C  31.94700 3.47700 30.57500
C  33.29200 3.37600 30.91400
C  30.70800 3.13300 28.30100
C  31.15000 3.88700 31.71900
O  29.99200 4.23900 31.85200
C  32.11400 3.80000 32.91400
C  31.98100 5.14300 33.58600
O  32.38900 6.16300 33.21500
O  31.55100 4.91900 34.84600
C  31.79500 6.01500 35.79800
H  38.83100 2.61400 33.89800
H  39.23700 0.87000 27.55500
H  32.99400 2.04300 26.91100
H  34.35800 4.18600 34.95300
H  36.69800 2.88400 35.55100
H  37.54500 5.16100 34.05200
H  36.97800 5.17100 35.76800
H  35.89300 5.54100 34.53600
H  34.88200 1.20600 35.01500
H  33.36800 1.70800 34.57000
H  33.58100 1.06300 37.09600
H  32.69000 2.41800 36.42200
H  40.61700 1.36100 33.65100
H  41.53100 2.55900 32.93100
H  42.02400 0.98100 32.54900
H  43.08700 1.63500 30.70800
H  43.53000 0.59600 29.36000
H  42.81000 -0.18600 30.66500
H  37.38400 0.05400 26.03300
H  35.11800 1.71400 25.26800
H  37.08500 2.09800 24.19700
H  38.64500 1.67300 24.75600
H  37.61500 3.06100 25.47700
H  33.95900 -0.19700 26.89300
H  35.47400 -1.04000 26.47700
H  33.82000 -1.64400 24.70600
H  34.52800 -0.17600 24.06500
H  33.03300 -0.00000 24.77700
H  30.68900 2.18600 27.76200
H  30.81300 3.93200 27.56700
H  29.76700 3.17700 28.85000
H  31.68000 2.93500 33.41500
H  30.94000 6.68700 35.86200
H  32.70400 6.56000 35.54500
H  31.94500 5.55900 36.77700
Mg 54.71000 22.88900 44.67900
C  52.84900 25.63800 43.75700
C  52.09900 20.97100 43.54900
C  56.78200 20.27500 44.86300
C  57.48500 25.03700 45.40400
N  52.72900 23.26900 43.57900
C  52.16500 24.48400 43.46300
C  50.66700 24.34000 42.98600
C  50.32400 22.86200 43.41600
C  51.79800 22.36800 43.55900
C  49.43700 22.80500 44.62000
C  50.55200 24.49300 41.45800
C  49.17400 24.77800 41.01800
H  48.73400 24.03100 39.70300
N  54.49500 20.88400 44.26800
C  53.36600 20.34100 43.75800
C  53.66900 18.88300 43.60900
C  55.03400 18.61100 43.79500
C  55.49900 19.93200 44.35800
C  52.67100 17.84900 43.11600
C  55.77900 17.40300 43.67700
O  55.29800 16.41900 43.16000
C  57.33300 17.23900 43.96200
N  56.87100 22.75900 44.94600
C  57.45800 21.49600 45.09200
C  58.93400 21.59000 45.54700
C  59.11200 23.16700 45.81400
C  57.72100 23.67700 45.39800
C  59.46900 20.64000 46.62500
C  60.31400 23.78100 44.97800
C  61.48400 22.92900 44.60300
N  55.16300 24.91700 44.61500
C  56.26500 25.62700 44.96700
C  55.90900 27.03700 44.92500
C  54.58800 27.12100 44.43800
C  54.18700 25.81200 44.24100
C  56.80800 28.13800 45.06900
C  53.46000 27.98200 44.21000
O  53.32100 29.20300 44.22900
C  52.31900 27.07600 43.63600
C  52.16300 27.39100 42.21100
O  52.96500 27.13000 41.35800
O  51.03700 28.12400 42.03800
C  50.62700 28.41000 40.69700
H  51.20400 20.37300 43.36500
H  57.51700 19.48100 45.00500
H  58.35500 25.67800 45.56300
H  50.09500 25.12800 43.47500
H  49.79500 22.20200 42.72900
H  48.58500 22.14900 44.44200
H  48.95000 23.75500 44.83700
H  50.08500 22.53500 45.45300
H  50.92100 23.59600 40.95900
H  51.24600 25.28000 41.16300
H  48.95600 25.83600 40.87100
H  48.52700 24.45000 41.83100
H  52.78400 17.64000 42.05200
H  51.65600 18.16300 43.35500
H  52.88100 16.93600 43.67400
H  57.63500 17.34800 45.00400
H  57.72300 18.06200 43.36400
H  57.62800 16.26100 43.58200
H  59.46800 21.19800 44.68200
H  59.35900 23.47600 46.83000
H  60.15600 21.13600 47.31100
H  60.09300 19.92900 46.08300
H  58.66600 20.20600 47.22000
H  60.66700 24.61900 45.57900
H  59.87600 24.17900 44.06300
H  61.36100 22.52800 43.59700
H  61.57700 22.19500 45.40400
H  62.40900 23.49900 44.67800
H  56.78500 28.62500 44.09500
H  57.83100 27.93000 45.38400
H  56.33300 28.78000 45.81100
H  51.37300 27.34900 44.10400
H  49.56000 28.60900 40.59400
H  50.85400 27.57300 40.03700
H  51.12500 29.34600 40.44500

