158

Mg 36.13400 1.50700 30.40000
C  33.57200 2.68500 32.57000
C  38.13400 1.09800 33.06400
C  38.51800 0.45100 28.25100
C  33.89700 1.82400 27.77900
N  35.85800 1.94400 32.57800
C  34.78000 2.48700 33.26700
C  34.96900 2.40600 34.75200
C  36.57100 2.18500 34.85700
C  36.82900 1.62300 33.39200
C  37.42600 3.47000 35.08900
C  34.06600 1.34200 35.48100
C  33.52000 1.82200 36.83900
H  34.24300 2.91900 37.60800
N  38.06100 0.83400 30.64600
C  38.63100 0.61400 31.82900
C  39.92100 -0.00800 31.58600
C  39.99100 -0.26100 30.21100
C  38.81400 0.28600 29.63700
C  40.93600 -0.33800 32.72500
C  40.97200 -1.02600 29.36600
O  40.73200 -1.45200 28.23000
C  42.25700 -1.55800 29.96700
N  36.28100 1.33900 28.25000
C  37.34100 0.95000 27.54400
C  37.00600 0.85200 26.04600
C  35.53400 1.25400 25.93300
C  35.20100 1.53000 27.41300
C  37.89800 1.63200 25.00000
C  34.57100 0.21100 25.33900
C  34.00900 0.56000 23.96500
N  34.15800 2.10600 30.13000
C  33.40800 2.23700 29.02100
C  32.13500 2.75400 29.34200
C  32.10800 2.94300 30.74700
C  33.37400 2.52800 31.20100
C  31.07800 3.09200 28.34200
C  31.31800 3.45400 31.85500
O  30.20900 3.93900 31.92500
C  32.21500 3.22900 33.12100
C  32.38500 4.53900 33.86700
O  33.14100 5.40000 33.60200
O  31.50900 4.61600 34.89500
C  31.51800 5.84400 35.67500
H  38.88300 1.01400 33.85300
H  39.23700 0.22500 27.46000
H  33.19800 1.90000 26.94300
H  34.77300 3.40400 35.14400
H  36.81800 1.50400 35.67100
H  37.11900 3.99700 35.99200
H  37.35300 4.11500 34.21400
H  38.51300 3.42700 35.14900
H  34.65000 0.45500 35.72400
H  33.21400 1.09100 34.85000
H  33.42200 0.91900 37.44100
H  32.50100 2.14100 36.62000
H  41.19600 -1.39300 32.80400
H  40.42500 -0.18600 33.67600
H  41.84700 0.22300 32.51700
H  42.22000 -2.04400 30.94200
H  42.98200 -0.75900 29.81100
H  42.73600 -2.34600 29.38700
H  37.22800 -0.20000 25.86600
H  35.32500 2.26000 25.56700
H  38.71100 2.20600 25.44500
H  37.31100 2.33800 24.41300
H  38.38600 0.87600 24.38500
H  33.72900 -0.04800 25.98000
H  35.02200 -0.75600 25.11300
H  32.92100 0.55900 24.03400
H  34.26200 -0.11600 23.14800
H  34.30400 1.57900 23.71400
H  31.39100 3.17400 27.30100
H  30.55500 4.01100 28.60600
H  30.37600 2.25900 28.33700
H  31.67500 2.48300 33.70500
H  31.71800 6.66400 34.98600
H  32.19600 5.72300 36.52000
H  30.44900 5.94000 35.86700
Mg -11.60400 38.19300 43.45200
C  -9.03500 35.97900 42.46100
C  -10.41200 40.46800 41.31700
C  -14.50700 39.93600 43.78400
C  -13.17200 35.39200 44.90600
N  -9.83900 38.15500 42.05200
C  -8.92700 37.19500 41.77000
C  -7.89700 37.70400 40.85100
C  -8.25900 39.21500 40.58800
C  -9.59100 39.32700 41.41300
C  -7.20800 40.30400 40.77900
C  -7.85400 36.82700 39.51200
C  -6.68000 35.85000 39.39200
H  -5.49000 36.39000 38.58600
N  -12.25100 39.94800 42.74100
C  -11.61100 40.81300 41.91800
C  -12.29800 42.07000 41.81600
C  -13.48800 41.94500 42.56800
C  -13.42900 40.55800 43.12500
C  -11.76400 43.26300 40.99400
C  -14.59200 42.94900 42.64800
O  -14.40500 43.94000 41.94900
C  -15.80900 42.87100 43.51000
N  -13.58500 37.72300 44.15500
C  -14.58500 38.62900 44.17500
C  -15.85900 38.01600 44.74200
C  -15.39000 36.60600 45.12700
C  -13.97300 36.58000 44.69800
C  -16.44900 38.81500 45.90300
C  -16.12900 35.48600 44.45100
C  -16.36800 34.10300 45.25900
N  -11.17500 36.26400 43.78200
C  -11.77700 35.26200 44.56200
C  -11.01900 34.05700 44.63600
C  -9.84800 34.32800 43.95200
C  -10.05500 35.58400 43.33800
C  -11.24300 32.88600 45.46500
C  -8.57000 33.82000 43.56600
O  -7.94300 32.78800 43.85900
C  -7.97200 34.79500 42.52300
C  -6.62900 35.15300 42.97400
O  -5.71400 34.34400 42.99800
O  -6.44900 36.43500 43.44700
C  -5.07100 36.71300 43.97100
H  -10.01800 41.19000 40.59900
H  -15.48400 40.41300 43.67700
H  -13.59700 34.51500 45.40000
H  -6.92800 37.64200 41.34700
H  -8.72900 39.33500 39.61200
H  -7.16400 41.00400 39.94400
H  -6.25600 39.81600 40.98700
H  -7.42500 41.04200 41.55100
H  -7.78100 37.60500 38.75300
H  -8.78000 36.26400 39.39700
H  -7.06800 34.88700 39.06200
H  -6.24100 35.68700 40.37600
H  -12.27700 43.27000 40.03300
H  -10.69400 43.10000 40.86700
H  -11.91600 44.13300 41.63400
H  -16.54500 42.20600 43.05700
H  -16.27400 43.85600 43.55500
H  -15.51800 42.60700 44.52600
H  -16.60600 37.98700 43.94900
H  -15.43400 36.31000 46.17500
H  -16.64100 38.29600 46.84300
H  -17.40000 39.26400 45.61600
H  -15.79200 39.62200 46.22800
H  -15.63300 35.19500 43.52500
H  -17.14800 35.73800 44.15800
H  -15.99400 33.28500 44.64400
H  -17.42700 33.89200 45.40900
H  -15.89100 34.28400 46.22200
H  -12.02200 33.08700 46.20100
H  -10.37500 32.66800 46.08700
H  -11.38400 32.03800 44.79500
H  -7.92600 34.28800 41.56000
H  -4.43800 36.80100 43.08700
H  -4.57100 35.92400 44.53300
H  -5.09800 37.65800 44.51300

