158

Mg 26.11300 -0.09700 29.40100
C  27.71200 -0.46900 32.38400
C  23.10900 0.38200 31.16800
C  24.29800 -0.46100 26.54500
C  28.94000 -0.87400 27.72500
N  25.43300 -0.18700 31.55100
C  26.36000 -0.20100 32.58400
C  25.66900 0.09600 33.89000
C  24.12800 0.09600 33.44400
C  24.22300 0.16600 31.93800
C  23.30400 -1.13500 33.89100
C  26.15400 1.38900 34.51100
C  26.87400 1.30700 35.91000
H  26.26500 2.11700 37.08300
N  23.96300 -0.01300 28.91600
C  22.98200 0.13100 29.79200
C  21.69600 0.26500 29.08700
C  21.98700 0.04000 27.74800
C  23.47000 -0.11300 27.67500
C  20.43300 0.45600 29.88600
C  21.01500 -0.23500 26.55200
O  21.42400 -0.40300 25.41800
C  19.54400 -0.11700 26.82900
N  26.60900 -0.45200 27.37300
C  25.71100 -0.53100 26.39000
C  26.26400 -0.81700 25.04000
C  27.77800 -0.79900 25.34400
C  27.82900 -0.64700 26.90300
C  25.79900 -2.02900 24.20500
C  28.72200 0.28500 24.72700
C  29.03500 0.17800 23.20400
N  27.99800 -0.60200 29.87000
C  29.10200 -0.80000 29.12300
C  30.21500 -0.93100 29.91400
C  29.78900 -0.81400 31.22900
C  28.37700 -0.59800 31.11000
C  31.66300 -0.93400 29.40300
C  30.20800 -0.67300 32.63100
O  31.28600 -0.71500 33.10600
C  28.86100 -0.45700 33.44900
C  28.74900 -1.54200 34.42400
O  28.01300 -2.54200 34.22100
O  29.39900 -1.27500 35.60600
C  29.01100 -2.11600 36.72000
H  22.24500 0.70700 31.75200
H  23.75600 -0.60700 25.60900
H  29.79700 -1.14300 27.10400
H  25.93100 -0.76000 34.51300
H  23.62400 1.03000 33.69300
H  22.73800 -1.54900 33.05700
H  22.60100 -0.87300 34.68200
H  23.99500 -1.83000 34.37000
H  25.28400 2.02000 34.69700
H  26.85000 1.85500 33.81400
H  27.90600 1.63000 35.77600
H  26.97200 0.25100 36.16200
H  20.08700 1.46700 30.09700
H  20.43900 -0.20100 30.75500
H  19.58000 0.05900 29.33600
H  19.13200 -0.94700 27.40300
H  18.94900 -0.09000 25.91600
H  19.26700 0.77000 27.39800
H  26.03000 0.13700 24.56700
H  28.24600 -1.74000 25.05500
H  24.94200 -2.55800 24.62400
H  26.50400 -2.81200 23.92700
H  25.37600 -1.62800 23.28400
H  29.64400 0.15900 25.29600
H  28.20300 1.20600 24.99300
H  28.66900 1.05300 22.66600
H  28.57700 -0.72400 22.79700
H  30.09500 0.07900 22.96900
H  32.25300 -0.24200 30.00500
H  31.67800 -0.64200 28.35300
H  32.08500 -1.93300 29.51500
H  28.97700 0.47800 33.99700
H  29.80500 -2.22800 37.45900
H  28.78500 -3.13200 36.39600
H  28.23200 -1.52900 37.20500
Mg 46.27600 24.62600 27.92600
C  47.45700 26.72200 30.29700
C  45.16700 22.43100 30.40600
C  45.29100 22.52800 25.54100
C  47.70700 26.69500 25.38100
N  46.38900 24.54500 30.06100
C  46.79500 25.63200 30.89000
C  46.40500 25.48800 32.39400
C  45.75000 24.03300 32.36600
C  45.74400 23.57700 30.85500
C  46.31900 23.00000 33.38200
C  45.69300 26.66200 33.11100
C  44.91000 26.34700 34.34300
H  45.33100 26.92300 35.71700
N  45.45300 22.73100 27.99700
C  44.99800 22.03800 29.05300
C  44.50100 20.78500 28.65700
C  44.60600 20.69400 27.24300
C  45.15400 22.02600 26.90800
C  43.99300 19.76000 29.65400
C  44.43200 19.51300 26.25300
O  44.48200 19.54700 25.02200
C  43.95700 18.19700 26.80100
N  46.61000 24.50700 25.72600
C  45.83600 23.67300 25.08800
C  45.76500 24.12100 23.51200
C  46.63800 25.42200 23.42600
C  47.00200 25.60400 24.89300
C  46.24300 23.05000 22.50600
C  45.69000 26.59800 22.98300
C  45.49400 26.63600 21.43900
N  47.43200 26.29200 27.81100
C  47.94000 27.01800 26.73500
C  48.68300 28.18800 27.23300
C  48.42300 28.09900 28.64600
C  47.70700 26.90300 28.89300
C  49.39400 29.23100 26.47100
C  48.64100 28.79700 29.80700
O  49.13100 29.94300 29.90100
C  47.97800 27.97500 30.96100
C  48.95500 27.78300 32.07300
O  49.85300 26.94400 32.17300
O  48.65400 28.68700 33.04000
C  49.52800 28.67600 34.26200
H  44.80800 21.78600 31.21000
H  44.79400 21.90200 24.79700
H  48.04500 27.46500 24.68500
H  47.40000 25.47100 32.83800
H  44.70100 24.15100 32.63700
H  46.74500 22.17500 32.81100
H  45.66000 22.61800 34.16200
H  47.20800 23.35700 33.90300
H  45.13900 27.26100 32.38800
H  46.48700 27.32600 33.45200
H  44.86600 25.25800 34.37600
H  43.86700 26.55400 34.10200
H  43.07700 19.36800 29.21200
H  43.76100 20.19700 30.62500
H  44.76600 19.00700 29.80900
H  44.60600 17.84200 27.60200
H  44.11800 17.44700 26.02700
H  42.91800 18.27800 27.12000
H  44.68300 24.12200 23.38100
H  47.54200 25.30200 22.83000
H  46.79100 22.24200 22.99100
H  46.80200 23.43100 21.65100
H  45.41500 22.46700 22.10200
H  46.01500 27.61100 23.22100
H  44.71100 26.49300 23.45000
H  45.71500 25.70500 20.91800
H  45.97500 27.49300 20.96800
H  44.44200 26.81200 21.21500
H  50.46600 29.07200 26.59100
H  49.17200 30.23900 26.82300
H  49.12900 29.24200 25.41400
H  47.10300 28.56100 31.24400
H  50.53600 28.63600 33.84900
H  49.39300 27.78100 34.87000
H  49.39200 29.53300 34.92200

