158

Mg 46.70300 45.01700 43.66000
C  43.17400 44.08700 43.33900
C  47.42800 41.86900 42.48000
C  49.86500 45.93500 43.42600
C  45.67200 48.36500 44.01300
N  45.37900 43.18400 42.83200
C  44.01800 43.04000 43.06400
C  43.63400 41.60300 42.72200
C  45.04500 40.89000 42.43600
C  46.00600 42.08200 42.54900
C  45.23200 39.68500 43.30000
C  42.63600 41.35600 41.54500
C  42.87900 42.16500 40.21000
H  42.83400 41.45200 38.85500
N  48.48600 43.95200 43.22700
C  48.53800 42.66700 42.80300
C  49.90800 42.21700 42.65600
C  50.70300 43.42100 42.91700
C  49.73600 44.53500 43.18700
C  50.34300 40.81200 42.16000
C  52.18700 43.53500 42.95100
O  52.89200 42.50500 42.75700
C  53.03300 44.88800 43.22400
N  47.54800 46.93200 43.48600
C  48.88500 46.99200 43.65000
C  49.40200 48.45600 43.83500
C  48.08500 49.23200 44.11100
C  47.04100 48.09000 43.92200
C  50.49000 48.59000 44.98400
C  47.93000 50.58100 43.42300
C  47.84000 51.87800 44.24000
N  44.86300 46.03500 43.71100
C  44.62400 47.42900 43.86300
C  43.19600 47.62700 44.10900
C  42.56400 46.31800 43.90500
C  43.60100 45.39600 43.58700
C  42.65400 48.98900 44.51500
C  41.32400 45.67200 43.75800
O  40.21700 46.05000 43.83300
C  41.66200 44.13200 43.53500
C  41.20900 43.50600 44.77200
O  40.26600 42.69200 44.86100
O  41.91900 43.99800 45.83900
C  41.55700 43.57000 47.16300
H  47.67800 40.87400 42.10800
H  50.89000 46.29000 43.29900
H  45.25600 49.35900 44.19100
H  43.13300 41.20100 43.60200
H  45.04400 40.48700 41.42400
H  46.27700 39.43700 43.48700
H  44.88100 38.76500 42.83300
H  44.70100 39.73500 44.25100
H  41.68600 41.64400 41.99500
H  42.71700 40.28900 41.33500
H  43.91700 42.39800 40.44500
H  42.35200 43.11000 40.34300
H  50.68800 41.14400 41.18100
H  49.60100 40.03500 41.97700
H  51.17500 40.39100 42.72600
H  52.80900 45.65200 42.48000
H  54.10500 44.69300 43.17800
H  52.86300 45.21500 44.25000
H  49.88500 48.66000 42.88000
H  48.03200 49.51300 45.16300
H  50.72000 47.64300 45.47100
H  50.25600 49.36200 45.71700
H  51.39000 48.90100 44.45400
H  47.03600 50.57000 42.80000
H  48.81200 50.67900 42.78900
H  47.33600 51.84400 45.20500
H  47.49300 52.68800 43.59800
H  48.85400 52.18400 44.50200
H  41.56700 49.05800 44.51400
H  43.03000 49.85900 43.97600
H  42.87700 49.20500 45.56000
H  41.04700 43.71300 42.73800
H  40.63100 42.99500 47.14900
H  41.38100 44.42400 47.81700
H  42.38100 42.93400 47.48700
Mg -5.15200 23.72700 26.39300
C  -3.50600 25.55100 28.92300
C  -6.46200 21.76100 28.88200
C  -6.99800 22.27000 24.09000
C  -3.75500 25.83500 23.96800
N  -5.00000 23.64400 28.53400
C  -4.32500 24.58000 29.39300
C  -4.69500 24.34400 30.85200
C  -5.43500 22.95400 30.83800
C  -5.59600 22.77000 29.31400
C  -4.71300 21.74400 31.48200
C  -5.70400 25.48000 31.35600
C  -5.78600 25.81200 32.81300
H  -5.30100 24.72000 33.80400
N  -6.43200 22.10600 26.45700
C  -6.93100 21.38100 27.59200
C  -7.88400 20.36600 27.19700
C  -7.97500 20.47000 25.72200
C  -7.12500 21.63900 25.37300
C  -8.49900 19.26800 28.08200
C  -8.89500 19.74400 24.70800
O  -8.90600 19.94600 23.48700
C  -9.89600 18.78200 25.22400
N  -5.22200 23.93100 24.26800
C  -6.10800 23.18900 23.57900
C  -6.02300 23.52500 22.06400
C  -4.89500 24.67600 22.03000
C  -4.51300 24.79200 23.45600
C  -5.86700 22.20600 21.07200
C  -5.40200 25.95600 21.30900
C  -4.72000 26.51900 20.10800
N  -3.71400 25.22200 26.40300
C  -3.30200 26.01800 25.33100
C  -2.44400 27.07300 25.87700
C  -2.51000 26.91700 27.26600
C  -3.28600 25.80800 27.53700
C  -1.70800 28.06100 25.08000
C  -1.94800 27.42300 28.51700
O  -1.17400 28.33800 28.65000
C  -2.68000 26.64800 29.60300
C  -1.74600 26.09200 30.55300
O  -0.72900 25.44100 30.29900
O  -2.15600 26.41700 31.82000
C  -1.41200 25.70900 32.84900
H  -6.95400 21.17400 29.66000
H  -7.63200 21.92100 23.27200
H  -3.35300 26.53900 23.23700
H  -3.81400 24.36900 31.49400
H  -6.40700 23.02500 31.32600
H  -4.46400 21.03700 30.69000
H  -5.29200 21.27300 32.27600
H  -3.86700 22.10800 32.06400
H  -6.69400 25.20000 30.99500
H  -5.43500 26.43800 30.91200
H  -6.84100 25.76000 33.08300
H  -5.37100 26.80200 32.99900
H  -9.57100 19.46400 28.05100
H  -8.10400 19.41100 29.08800
H  -8.39400 18.24500 27.72100
H  -10.48100 19.38000 25.92200
H  -9.32000 17.98200 25.69000
H  -10.44700 18.28100 24.42800
H  -7.03000 23.86500 21.82300
H  -4.08900 24.32200 21.38800
H  -5.20000 21.53800 21.61700
H  -5.47600 22.47500 20.09100
H  -6.84000 21.73400 20.93800
H  -5.56200 26.75900 22.02800
H  -6.44000 25.80900 21.01100
H  -5.20200 26.35100 19.14500
H  -3.71900 26.08800 20.10700
H  -4.54100 27.56300 20.36700
H  -0.74400 27.69500 24.72600
H  -1.58000 28.93400 25.72000
H  -2.30100 28.39200 24.22800
H  -3.31800 27.39400 30.07700
H  -0.33000 25.75900 32.73500
H  -1.66400 24.66100 32.68600
H  -1.62000 26.11000 33.84100

