158

Mg 17.36200 -0.47700 27.79400
C  15.90300 1.19900 30.55600
C  19.39300 -2.14900 30.03400
C  18.73700 -2.07900 25.21800
C  15.50700 1.68800 25.73100
N  17.47800 -0.55600 30.00500
C  16.87200 0.20300 30.89600
C  17.41800 0.12700 32.30100
C  18.63900 -0.80600 32.10600
C  18.54100 -1.21900 30.63200
C  19.97700 -0.02600 32.35500
C  16.37500 -0.55200 33.27400
C  16.10800 -0.06500 34.73500
H  17.32100 0.38900 35.47500
N  18.81400 -1.97200 27.69800
C  19.47100 -2.58600 28.68300
C  20.42300 -3.62000 28.15900
C  20.15100 -3.66300 26.77100
C  19.14400 -2.60600 26.50100
C  21.33000 -4.48100 28.95500
C  20.46400 -4.70400 25.68700
O  20.07700 -4.59000 24.53000
C  21.14700 -6.02700 26.11800
N  17.29300 -0.11800 25.84000
C  17.97500 -0.87000 24.94300
C  17.82400 -0.25300 23.53500
C  16.72500 0.84600 23.80400
C  16.47000 0.86400 25.27100
C  19.21700 0.31700 23.27900
C  15.39300 0.61300 22.94700
C  14.91500 1.75900 22.09700
N  15.84100 1.10600 28.01600
C  15.20700 1.90800 27.11100
C  14.38200 2.88400 27.82300
C  14.66400 2.63900 29.14900
C  15.49900 1.56600 29.23500
C  13.65200 4.07100 27.11800
C  14.33000 3.13400 30.46200
O  13.56900 4.04400 30.79000
C  15.18100 2.21800 31.40800
C  15.95700 3.11600 32.34400
O  16.91400 3.79300 31.99100
O  15.38600 3.13200 33.55600
C  15.80800 4.08700 34.55300
H  20.12700 -2.62900 30.68600
H  18.90100 -2.51900 24.23200
H  15.03200 2.29100 24.95500
H  17.58500 1.14800 32.64400
H  18.61800 -1.68000 32.75700
H  20.59600 0.12500 31.47100
H  20.54000 -0.70800 32.99200
H  19.73700 0.94100 32.79900
H  16.37600 -1.62700 33.45000
H  15.41700 -0.45400 32.76400
H  15.76200 -0.93900 35.28700
H  15.42600 0.78600 34.73000
H  22.35700 -4.59500 28.60900
H  20.88400 -5.47300 29.02400
H  21.36200 -4.10100 29.97600
H  21.09200 -6.76000 25.31400
H  20.71800 -6.43600 27.03300
H  22.19300 -5.83600 26.35800
H  17.66000 -1.13800 22.92000
H  16.99600 1.87000 23.54800
H  19.13200 1.29600 22.80700
H  19.80400 -0.33100 22.62700
H  19.83400 0.51300 24.15600
H  14.56500 0.40500 23.62400
H  15.52900 -0.18400 22.21600
H  14.13500 2.19600 22.72000
H  14.36400 1.56400 21.17700
H  15.75900 2.40100 21.84500
H  13.32700 3.81600 26.10900
H  14.12900 5.04900 27.16900
H  12.68300 4.03000 27.61600
H  14.43700 1.75100 32.05300
H  14.98400 4.13800 35.26500
H  16.06000 5.06600 34.14700
H  16.65800 3.83200 35.18500
Mg 47.28100 16.15500 28.29500
C  45.80800 15.93300 31.45600
C  49.90500 18.00900 29.73000
C  48.79200 16.09600 25.35700
C  44.51700 14.76400 26.88900
N  47.76300 16.95400 30.36900
C  46.97100 16.74500 31.51000
C  47.62300 17.35300 32.78900
C  48.77500 18.27100 32.15400
C  48.86700 17.72500 30.64300
C  48.61100 19.81600 32.24600
C  48.02900 16.15200 33.82700
C  48.00400 16.43900 35.33500
H  48.21800 17.82100 35.94400
N  49.04500 16.90700 27.70700
C  50.03100 17.46600 28.47800
C  51.21900 17.53100 27.67900
C  50.93900 17.03000 26.41400
C  49.53900 16.59200 26.42100
C  52.56700 17.99200 28.22900
C  51.90700 16.95900 25.25900
O  51.68200 16.32800 24.22900
C  53.22100 17.73700 25.18300
N  46.69900 15.71200 26.29700
C  47.50700 15.75200 25.20800
C  46.85200 15.28100 23.87400
C  45.47700 14.70500 24.45400
C  45.53700 15.21200 25.99100
C  46.62900 16.34500 22.82300
C  45.26000 13.26400 24.23700
C  46.16300 12.21100 25.02800
N  45.54900 15.54000 28.94700
C  44.45400 14.99600 28.22800
C  43.47500 14.58700 29.14200
C  43.98700 14.96000 30.42500
C  45.17700 15.59900 30.26500
C  42.22100 13.90500 28.79800
C  43.69500 14.88900 31.87800
O  42.76600 14.41800 32.52300
C  44.84400 15.64200 32.57700
C  44.27000 16.87000 33.17200
O  44.06500 17.90000 32.57500
O  43.89400 16.53800 34.45100
C  42.95600 17.40900 35.15300
H  50.81400 18.48800 30.10000
H  49.34700 15.98700 24.42300
H  43.68800 14.15200 26.53000
H  46.89400 17.99200 33.28800
H  49.77700 18.06500 32.53200
H  47.75900 20.14200 32.84200
H  48.68600 20.40300 31.33000
H  49.48700 20.04800 32.85200
H  48.99000 15.71000 33.56600
H  47.35900 15.32300 33.59800
H  48.82000 15.81200 35.69600
H  47.04800 16.00600 35.62900
H  52.70100 17.89200 29.30600
H  52.80500 18.98500 27.84900
H  53.31700 17.30300 27.84100
H  53.19600 18.78000 25.49600
H  53.54800 17.87500 24.15200
H  54.04300 17.28600 25.73800
H  47.45300 14.42100 23.57800
H  44.58100 15.24900 24.15500
H  46.84100 17.30400 23.29600
H  45.59700 16.49000 22.50400
H  47.35600 16.21200 22.02200
H  45.25300 13.09500 23.16000
H  44.24400 13.13800 24.61300
H  46.59200 12.71300 25.89400
H  46.94300 11.87000 24.34700
H  45.62000 11.32400 25.35700
H  42.25400 13.18200 29.61300
H  42.18900 13.42600 27.81900
H  41.35200 14.55600 28.89400
H  45.21000 15.05600 33.42000
H  41.96600 16.96700 35.04500
H  42.99500 18.38100 34.66100
H  43.35100 17.48800 36.16600

