158

Mg 17.97000 -1.85900 27.60300
C  17.18900 0.23000 30.32000
C  19.88600 -3.77300 29.70500
C  18.94000 -3.54100 24.92500
C  16.08300 0.45800 25.54800
N  18.42700 -1.76500 29.80700
C  17.98100 -0.83100 30.67100
C  18.41400 -1.17400 32.06200
C  19.49100 -2.30500 31.95800
C  19.33100 -2.61000 30.40000
C  20.93100 -2.08100 32.30100
C  17.20100 -1.70300 32.95400
C  17.08000 -1.10800 34.38600
H  18.31400 -0.43300 35.04300
N  19.22400 -3.49700 27.37100
C  19.79700 -4.19400 28.34600
C  20.40200 -5.41700 27.75700
C  20.30200 -5.25400 26.38700
C  19.49300 -4.06700 26.14800
C  21.00700 -6.36800 28.68200
C  20.79900 -6.23800 25.23600
O  20.66200 -5.98100 24.04600
C  21.45500 -7.55300 25.46600
N  17.55400 -1.59100 25.57200
C  18.12300 -2.36900 24.63700
C  17.67900 -1.97200 23.23100
C  16.57500 -0.85900 23.50800
C  16.75400 -0.62800 25.01600
C  18.80200 -1.56100 22.31400
C  15.13800 -1.14400 23.03000
C  14.55600 -0.10700 22.03500
N  16.89500 -0.05600 27.83300
C  16.12700 0.71900 26.93300
C  15.45500 1.85100 27.56700
C  15.91700 1.71100 28.90800
C  16.74100 0.55100 29.03300
C  14.61400 3.01100 27.01800
C  15.78900 2.16500 30.22600
O  15.23800 3.17000 30.58200
C  16.48700 1.25800 31.21100
C  17.45500 1.99700 32.06200
O  18.46100 2.57300 31.61900
O  16.82900 2.26200 33.26000
C  17.52500 3.28500 34.05600
H  20.60100 -4.33200 30.31300
H  19.32000 -4.04000 24.03100
H  15.42700 1.02700 24.88400
H  18.82500 -0.30100 32.56900
H  19.09600 -3.20100 32.43600
H  21.56000 -2.07400 31.41100
H  21.20300 -2.94300 32.91100
H  20.92200 -1.20900 32.95400
H  17.29500 -2.78000 33.09700
H  16.20300 -1.57100 32.53700
H  16.63900 -1.78300 35.11900
H  16.26000 -0.39200 34.43100
H  22.07500 -6.15800 28.74100
H  20.79400 -7.37700 28.33000
H  20.48300 -6.26900 29.63200
H  22.37100 -7.43000 26.04400
H  21.68100 -7.94400 24.47400
H  20.76000 -8.21500 25.98300
H  17.24200 -2.82800 22.71600
H  16.90000 0.07000 23.04000
H  18.75600 -0.48100 22.17400
H  18.69000 -2.08700 21.36600
H  19.77200 -1.83800 22.72600
H  14.40400 -1.23000 23.83200
H  15.28300 -2.13600 22.60300
H  15.08200 -0.42900 21.13600
H  14.93300 0.90700 22.16300
H  13.46900 -0.14200 21.95700
H  14.57500 3.05200 25.93000
H  15.01800 3.88500 27.52900
H  13.58500 2.92000 27.36700
H  15.72500 0.75800 31.80800
H  16.97400 4.22400 34.11300
H  18.56000 3.53000 33.81600
H  17.56700 2.86900 35.06200
Mg 46.76300 34.53800 28.12600
C  45.28500 33.04300 30.89700
C  47.24600 37.44800 30.15900
C  47.88600 36.21900 25.45700
C  45.95000 31.91200 26.18300
N  46.25400 35.18500 30.25500
C  45.82600 34.28500 31.20400
C  46.16400 34.80700 32.58900
C  46.33900 36.33300 32.30600
C  46.53000 36.36000 30.78800
C  45.20500 37.38600 32.79600
C  47.39400 34.17600 33.31300
C  47.51100 34.31100 34.78600
H  46.64000 35.20000 35.67400
N  47.30200 36.63700 27.81100
C  47.58500 37.57300 28.77500
C  48.12000 38.75600 28.15300
C  48.27700 38.44100 26.77100
C  47.82000 37.04200 26.59600
C  48.36300 40.03400 28.89100
C  48.86900 39.32600 25.59000
O  48.87200 38.88500 24.43400
C  49.42400 40.72600 25.76100
N  47.01800 34.05900 26.17800
C  47.49300 34.92500 25.17100
C  47.67700 34.11000 23.85100
C  46.94100 32.77500 24.10300
C  46.71100 32.86700 25.59200
C  47.25000 34.90600 22.61200
C  47.84400 31.53400 23.69300
C  47.08500 30.31200 23.45400
N  45.77800 32.78500 28.42900
C  45.52600 31.76100 27.53000
C  44.89300 30.65200 28.15400
C  44.82000 31.09300 29.49600
C  45.34000 32.42100 29.60400
C  44.45400 29.31300 27.47400
C  44.23500 30.80500 30.77600
O  43.59500 29.87100 31.11300
C  44.46600 32.09700 31.59100
C  44.82200 31.79200 32.96700
O  45.82900 31.25600 33.40500
O  43.64100 31.97400 33.69200
C  43.60500 31.58400 35.13500
H  47.61000 38.24700 30.80800
H  48.23300 36.47300 24.45300
H  45.86500 31.04200 25.52900
H  45.23700 34.64800 33.14100
H  47.34500 36.60000 32.63000
H  44.39200 36.73100 33.10700
H  44.85500 37.92900 31.91700
H  45.39500 38.15500 33.54400
H  48.31600 34.63000 32.95000
H  47.44600 33.11800 33.05600
H  48.53500 34.66500 34.90700
H  47.32300 33.28700 35.10900
H  48.40000 40.89900 28.22900
H  49.39600 39.91800 29.21800
H  47.62100 40.33300 29.63100
H  49.76100 40.93300 26.77600
H  48.56800 41.39400 25.66600
H  50.22000 40.86000 25.02800
H  48.74500 33.90800 23.77700
H  45.93600 32.66400 23.69300
H  46.53700 35.69300 22.85400
H  46.80200 34.28200 21.83900
H  48.18000 35.30000 22.20100
H  48.65000 31.36100 24.40600
H  48.47400 31.71300 22.82100
H  47.13800 29.72000 24.36800
H  47.53300 29.75300 22.63200
H  46.03600 30.51700 23.24400
H  43.52000 29.45900 26.93100
H  44.33400 28.56500 28.25800
H  45.15200 28.93500 26.72700
H  43.47900 32.55500 31.64700
H  42.57700 31.53200 35.49400
H  44.17100 32.40700 35.57100
H  44.10500 30.64600 35.37800

