158

Mg -2.07000 17.09800 26.96700
C  -2.64200 14.93900 29.46300
C  -2.84100 19.73500 29.08300
C  -1.60300 19.21500 24.47800
C  -2.01300 14.41200 24.73200
N  -2.80900 17.32600 29.01300
C  -2.68000 16.29100 29.89700
C  -2.99100 16.79000 31.36100
C  -3.26200 18.26200 31.17000
C  -2.91500 18.48600 29.65500
C  -4.56100 18.91600 31.66700
C  -1.91200 16.40600 32.47300
C  -1.90200 17.17700 33.79200
H  -2.08100 16.41900 35.11900
N  -2.01000 19.17700 26.85900
C  -2.43400 20.11900 27.78400
C  -2.31300 21.44300 27.26800
C  -1.72900 21.31300 25.99800
C  -1.74000 19.86300 25.73400
C  -2.81700 22.62200 27.97900
C  -1.15100 22.38200 25.04800
O  -0.81400 22.16600 23.94000
C  -1.00200 23.77600 25.51800
N  -1.75900 16.86900 24.95100
C  -1.62000 17.90500 24.06400
C  -1.51300 17.43000 22.60500
C  -1.52300 15.86900 22.74400
C  -1.73700 15.68700 24.24300
C  -2.59800 18.06100 21.74000
C  -0.24800 15.10900 22.25600
C  1.03200 15.22800 23.14000
N  -2.24500 15.02500 27.00900
C  -2.23200 14.02300 26.04800
C  -2.49600 12.74000 26.67700
C  -2.74500 13.03400 27.98900
C  -2.55600 14.40200 28.12200
C  -2.72900 11.52300 25.93000
C  -3.11300 12.51200 29.33100
O  -3.19600 11.32400 29.65200
C  -3.02000 13.71800 30.30000
C  -2.02100 13.36600 31.31800
O  -0.83300 13.63000 31.31800
O  -2.72600 12.72600 32.40900
C  -1.87700 12.43000 33.57900
H  -3.08500 20.57100 29.74200
H  -1.40600 19.89500 23.64700
H  -1.95200 13.61200 23.99100
H  -3.89000 16.22200 31.60100
H  -2.46700 18.90400 31.55200
H  -5.22700 18.08800 31.91100
H  -5.04100 19.58100 30.94900
H  -4.43100 19.63100 32.47900
H  -0.91300 16.35800 32.03900
H  -2.20900 15.37200 32.64400
H  -2.64800 17.97200 33.79400
H  -0.94700 17.70200 33.75200
H  -1.94600 23.19700 28.29400
H  -3.51300 22.34900 28.77300
H  -3.35000 23.17100 27.20300
H  -0.36100 24.04500 26.35800
H  -2.01100 24.16700 25.65000
H  -0.66000 24.39400 24.68800
H  -0.56900 17.81200 22.21600
H  -2.44800 15.49400 22.30700
H  -2.45600 17.52500 20.80200
H  -2.28400 19.08900 21.55500
H  -3.62100 18.01300 22.11300
H  -0.06000 15.52600 21.26700
H  -0.46200 14.04100 22.23300
H  1.38100 14.19900 23.23200
H  0.73900 15.60800 24.11800
H  1.75900 15.92200 22.71800
H  -2.39200 11.64800 24.90100
H  -3.78200 11.27900 25.78700
H  -2.12600 10.75500 26.41500
H  -4.00700 13.98700 30.67600
H  -1.35100 11.49700 33.37800
H  -2.53500 12.09300 34.38000
H  -1.21300 13.24700 33.86200
Mg 48.69500 36.10300 27.34700
C  46.84200 34.18800 29.42800
C  48.96100 38.47000 29.86800
C  50.30900 38.09700 25.08200
C  48.38200 33.61100 24.94300
N  48.08300 36.21500 29.51800
C  47.36700 35.29500 30.16200
C  47.37600 35.58300 31.66800
C  47.73500 37.10100 31.67300
C  48.33900 37.29400 30.27700
C  46.56600 38.07700 31.93000
C  48.41800 34.62900 32.32700
C  48.40500 34.42200 33.84200
H  47.54500 35.18800 34.84700
N  49.48800 38.08400 27.47300
C  49.47000 38.86900 28.60200
C  50.35900 40.06400 28.37400
C  50.59700 39.97800 26.93600
C  50.11900 38.68900 26.40400
C  50.81100 41.07700 29.43900
C  51.35800 41.06400 26.09400
O  51.70400 40.89500 24.91100
C  51.66300 42.30800 26.79400
N  49.08300 35.96600 25.30300
C  49.79000 36.87600 24.58300
C  50.27000 36.33200 23.27100
C  49.82600 34.80900 23.27300
C  49.08100 34.74200 24.58500
C  49.79500 37.20100 22.03400
C  50.99800 33.82200 22.94600
C  51.18300 33.40300 21.50700
N  47.88300 34.20300 27.14300
C  47.79400 33.34300 26.14700
C  46.98800 32.19700 26.44000
C  46.56000 32.48200 27.76600
C  47.13400 33.73800 28.12200
C  46.61000 31.04300 25.69300
C  45.71100 32.01000 28.80100
O  45.13300 30.94300 28.83700
C  45.78400 33.13700 29.91600
C  46.06400 32.37900 31.09800
O  46.85300 31.41700 31.31400
O  45.24800 32.90600 32.15000
C  45.10600 32.10100 33.39300
H  49.21900 39.10700 30.71700
H  50.90300 38.61700 24.32700
H  48.29700 32.83600 24.17900
H  46.36100 35.33500 31.98000
H  48.50100 37.26200 32.43100
H  46.72300 38.83200 32.70000
H  45.60400 37.69200 32.26800
H  46.47500 38.55600 30.95500
H  49.40300 35.00900 32.05700
H  48.44200 33.65100 31.84500
H  49.38500 34.31900 34.30700
H  48.00800 33.41300 33.95100
H  51.86200 41.35600 29.37100
H  50.59700 40.77500 30.46500
H  50.27400 42.02000 29.34300
H  50.79300 42.61400 27.37600
H  51.88100 43.06500 26.04000
H  52.42900 42.04300 27.52200
H  51.35900 36.31700 23.32700
H  49.03200 34.63400 22.54800
H  49.32600 36.56600 21.28200
H  50.62400 37.77500 21.61900
H  49.03800 37.92400 22.33800
H  50.90100 32.85800 23.44600
H  51.91300 34.24000 23.36500
H  51.38900 32.33300 21.50100
H  52.10200 33.88400 21.17300
H  50.26500 33.53100 20.93300
H  45.84300 31.35000 24.98300
H  46.15600 30.36600 26.41600
H  47.44000 30.47400 25.27300
H  44.75100 33.48300 29.92300
H  45.54600 31.11000 33.28400
H  44.06500 31.82200 33.55500
H  45.54400 32.61900 34.24600

