158

Mg 35.02800 2.29700 29.89700
C  32.74000 3.49400 32.28700
C  37.41600 2.24600 32.44200
C  37.43900 1.62700 27.49400
C  32.64500 2.84900 27.45500
N  35.02800 2.67900 32.13000
C  34.03600 3.29200 32.83700
C  34.36300 3.25600 34.34300
C  35.91800 3.02000 34.36200
C  36.11000 2.53800 32.92600
C  36.84700 4.03000 34.98700
C  33.60100 2.11800 35.11700
C  33.77600 2.11500 36.68700
H  34.53000 3.19400 37.42200
N  37.08800 1.81700 29.97700
C  37.84000 1.88400 31.09800
C  39.20200 1.66700 30.67400
C  39.21800 1.35700 29.30300
C  37.91100 1.63800 28.87300
C  40.27800 1.86200 31.70900
C  40.38300 1.00600 28.44200
O  40.26200 1.11800 27.26800
C  41.65200 0.49100 29.05500
N  35.01700 2.18100 27.81500
C  36.16600 1.91200 27.02900
C  35.75000 1.72600 25.52200
C  34.16400 2.02900 25.56300
C  33.87900 2.30000 27.08600
C  36.43900 2.61000 24.47300
C  33.37000 0.82100 25.00800
C  32.25500 0.99800 24.09400
N  33.08900 3.05800 29.78500
C  32.21000 3.19800 28.76400
C  30.91000 3.56000 29.16800
C  31.08600 3.75200 30.57300
C  32.45700 3.42500 30.89400
C  29.77500 4.05400 28.30600
C  30.44100 4.23700 31.78000
O  29.29200 4.64400 32.07100
C  31.48800 3.99100 32.94100
C  31.89300 5.25200 33.59000
O  32.36400 6.24800 33.03800
O  31.61900 5.18000 34.94400
C  31.92000 6.37100 35.78800
H  38.20900 2.18000 33.19000
H  38.15300 1.30800 26.73200
H  31.91700 2.94000 26.64700
H  34.08900 4.16800 34.87200
H  36.08600 2.09800 34.91900
H  36.22200 4.87000 35.28800
H  37.67500 4.47600 34.43700
H  37.33700 3.53500 35.82600
H  33.96500 1.15700 34.75100
H  32.53600 2.14700 34.88400
H  34.26700 1.21100 37.04700
H  32.85000 1.99900 37.25000
H  40.48500 0.90900 32.19500
H  40.05300 2.61900 32.46100
H  41.22300 2.19900 31.28300
H  42.21300 1.40000 29.27500
H  42.23600 -0.19900 28.44700
H  41.40800 -0.02900 29.98200
H  36.09900 0.73700 25.22500
H  33.97900 2.90400 24.93800
H  36.75000 1.94400 23.66800
H  37.37300 3.06100 24.80900
H  35.84900 3.37800 23.97100
H  32.99600 0.25100 25.85800
H  34.07600 0.06500 24.66600
H  32.49200 0.26300 23.32400
H  32.17200 1.96300 23.59400
H  31.33600 0.78200 24.63900
H  30.28600 4.34500 27.38800
H  29.39400 5.00200 28.68600
H  29.00500 3.30200 28.13200
H  30.97400 3.38900 33.69100
H  31.05300 7.03100 35.79000
H  32.78300 6.92100 35.41400
H  32.15600 6.03400 36.79700
Mg 0.23300 42.83900 25.86300
C  1.40400 42.74900 29.15200
C  -2.82700 41.79400 27.20400
C  -0.87300 42.58400 22.77400
C  3.38900 43.71100 24.81600
N  -0.60200 42.37300 28.01900
C  0.06100 42.51400 29.15000
C  -0.85300 42.42000 30.45700
C  -2.24100 41.98500 29.79100
C  -1.92100 42.02400 28.27400
C  -2.71800 40.53000 30.17600
C  -0.93100 43.82100 31.16100
C  -0.92900 43.80300 32.71800
H  -1.60700 42.62900 33.51000
N  -1.55300 42.21700 25.06300
C  -2.71000 41.94000 25.79200
C  -3.76800 41.62200 24.83100
C  -3.27600 41.77800 23.49600
C  -1.86600 42.21300 23.77100
C  -5.15500 41.05700 25.21800
C  -4.00800 41.55700 22.12400
O  -3.42200 41.57500 20.97600
C  -5.49000 41.25700 22.05600
N  1.13200 43.08600 24.07000
C  0.46400 42.85300 22.91700
C  1.43400 43.02400 21.73800
C  2.62300 43.80900 22.34000
C  2.40200 43.55000 23.87200
C  1.79400 41.74200 20.96100
C  2.66200 45.36700 22.02500
C  3.60200 45.83900 20.87700
N  2.09900 43.00400 26.71100
C  3.27300 43.34800 26.13200
C  4.34400 43.44600 27.19000
C  3.63000 43.17800 28.39600
C  2.29600 42.93400 28.04200
C  5.83600 43.65800 27.09700
C  3.78100 43.01500 29.78200
O  4.77300 43.10600 30.51400
C  2.33400 42.88800 30.34200
C  2.29600 41.69900 31.27300
O  2.43000 40.54100 30.90700
O  2.25300 42.17100 32.54900
C  2.55200 41.17200 33.59000
H  -3.79900 41.52200 27.62000
H  -1.21600 42.47700 21.74300
H  4.30200 44.14900 24.40700
H  -0.49200 41.57800 31.04800
H  -3.03200 42.72200 29.93500
H  -2.82100 39.75800 29.41400
H  -3.65300 40.62700 30.72900
H  -2.10000 39.98100 30.88600
H  -1.79900 44.36700 30.79000
H  0.00500 44.36100 31.01900
H  -1.32100 44.69500 33.20700
H  0.09000 43.87100 33.09900
H  -5.90200 41.53800 24.58700
H  -5.37200 41.19200 26.27800
H  -5.16800 40.00100 24.94900
H  -5.75000 40.39800 22.67400
H  -5.72800 41.04500 21.01300
H  -6.16100 42.09100 22.26200
H  1.03900 43.69400 20.97500
H  3.58600 43.40400 22.02800
H  1.02800 40.99500 21.17200
H  2.77000 41.28900 21.13400
H  1.72100 41.90500 19.88500
H  3.01200 45.88400 22.91900
H  1.60700 45.54100 21.81300
H  3.04800 46.44400 20.15900
H  3.93100 44.96300 20.31800
H  4.37300 46.54000 21.19800
H  6.17400 43.40000 26.09300
H  6.30300 43.18100 27.95900
H  6.00600 44.72100 27.26500
H  2.12100 43.81200 30.88100
H  3.33700 41.54300 34.24900
H  2.89900 40.21200 33.20800
H  1.62600 41.11300 34.16200

