158

Mg 49.75400 35.73600 28.35900
C  47.31400 34.24200 30.46100
C  49.86800 38.25700 30.38000
C  51.85100 37.12900 26.05500
C  49.32800 32.99100 26.12500
N  48.54100 36.23900 30.09100
C  47.76200 35.47000 30.91700
C  47.54000 36.13800 32.25000
C  47.99500 37.62700 31.97300
C  48.91100 37.38200 30.80200
C  46.99200 38.76500 31.77900
C  48.20000 35.27400 33.33500
C  49.15800 35.82600 34.34900
H  48.60700 37.01700 35.12000
N  50.74500 37.42800 28.25900
C  50.68800 38.39600 29.25300
C  51.63300 39.49200 28.97900
C  52.17600 39.14000 27.68400
C  51.56500 37.87100 27.27100
C  51.77100 40.62100 29.83800
C  53.18100 39.92900 26.83400
O  53.44900 39.58100 25.68900
C  54.04700 41.00600 27.37000
N  50.33800 35.22400 26.32700
C  51.24800 35.97300 25.62800
C  51.67500 35.34900 24.35800
C  50.91400 33.98900 24.37600
C  50.17200 34.02000 25.70700
C  51.58500 36.29300 23.07700
C  51.65400 32.67500 24.13100
C  50.95800 31.80500 23.07200
N  48.51900 34.06300 28.22100
C  48.58600 32.95300 27.31400
C  47.68800 31.88900 27.78100
C  47.24000 32.35000 29.01300
C  47.72300 33.64400 29.19000
C  47.47000 30.60600 27.08400
C  46.42500 32.01000 30.12400
O  45.67800 31.05200 30.36900
C  46.39300 33.16600 31.12300
C  46.92300 32.62900 32.39800
O  48.04500 32.22900 32.60800
O  45.92600 32.71600 33.35800
C  46.36300 32.16400 34.64500
H  50.04300 38.91300 31.23500
H  52.72300 37.43700 25.47500
H  49.30800 32.13300 25.44900
H  46.47700 36.08000 32.48500
H  48.66000 38.03300 32.73600
H  47.20600 39.13800 30.77800
H  47.17000 39.56500 32.49700
H  45.99500 38.34000 31.89800
H  48.89100 34.58200 32.85400
H  47.41100 34.92600 34.00200
H  50.08400 36.11900 33.85300
H  49.53400 35.09600 35.06500
H  52.79400 40.86700 30.12000
H  51.16800 40.49400 30.73800
H  51.36900 41.49400 29.32200
H  54.25100 40.89800 28.43500
H  53.50400 41.92300 27.14300
H  55.06800 40.84300 27.02600
H  52.72300 35.10500 24.53200
H  50.02900 34.06100 23.74400
H  51.36500 35.66900 22.21100
H  52.53100 36.82100 22.96000
H  50.85900 37.09200 23.23000
H  51.73500 32.13900 25.07700
H  52.68600 32.83500 23.81800
H  51.54900 31.58000 22.18400
H  49.95700 32.06300 22.72700
H  50.78600 30.83700 23.54400
H  48.35100 30.31800 26.50900
H  46.57000 30.85700 26.52400
H  47.16500 29.96500 27.91200
H  45.35100 33.48000 31.17000
H  45.49600 32.09700 35.30200
H  47.21900 32.69300 35.06300
H  46.65000 31.12400 34.48700
Mg 43.08700 42.36900 27.18900
C  42.19000 44.58900 29.66200
C  43.92200 40.01200 29.48200
C  44.54500 40.49900 24.80600
C  42.75500 45.05600 24.89500
N  43.13900 42.38100 29.25300
C  42.51100 43.29000 30.06200
C  42.49100 42.85500 31.58500
C  43.17600 41.46100 31.49600
C  43.39400 41.22000 29.97900
C  44.47800 41.22200 32.31400
C  41.02700 42.81600 32.12200
C  40.74900 43.72800 33.34200
H  40.48000 43.06200 34.71500
N  43.93500 40.50500 27.17300
C  44.21800 39.67000 28.21800
C  44.95900 38.48700 27.76900
C  45.05800 38.59500 26.31200
C  44.49200 39.89800 26.03900
C  45.47900 37.40900 28.64900
C  45.63500 37.59500 25.36100
O  45.87100 37.79300 24.19100
C  45.80900 36.20600 25.86500
N  43.45400 42.69500 25.16600
C  44.13000 41.76900 24.41600
C  44.02600 42.17000 22.93400
C  43.50700 43.63500 22.99800
C  43.15400 43.84300 24.40100
C  45.39100 42.02800 22.10100
C  42.55000 44.10400 21.93800
C  41.07100 44.31100 22.30800
N  42.55800 44.44600 27.19500
C  42.44800 45.37800 26.23200
C  41.91100 46.60100 26.77200
C  41.83300 46.32800 28.14700
C  42.25100 44.96700 28.32700
C  41.46100 47.88000 26.01900
C  41.64200 46.95700 29.43800
O  41.38800 48.09400 29.78300
C  41.73400 45.75300 30.52200
C  42.70000 46.13000 31.56900
O  43.93900 46.17700 31.51200
O  42.02600 46.48600 32.66300
C  42.79500 47.05200 33.78200
H  44.15800 39.20600 30.18000
H  45.11700 39.98400 24.03100
H  42.60500 45.86500 24.17600
H  42.99300 43.65400 32.13200
H  42.50200 40.68500 31.86000
H  44.64200 42.18000 32.80800
H  45.30600 40.94200 31.66300
H  44.42800 40.32200 32.92700
H  40.77900 41.78300 32.36700
H  40.39300 43.01500 31.25800
H  39.93600 44.41000 33.09400
H  41.61400 44.33100 33.61700
H  45.46400 37.58700 29.72400
H  46.51100 37.39100 28.29900
H  45.09000 36.40000 28.51400
H  46.06000 35.49200 25.08000
H  44.83700 35.87900 26.23400
H  46.58400 36.26300 26.63000
H  43.31500 41.61000 22.32600
H  44.36400 44.29800 22.88700
H  46.14700 41.89700 22.87600
H  45.66900 42.87500 21.47400
H  45.55100 41.21500 21.39200
H  42.54100 43.38700 21.11600
H  42.95600 45.02300 21.51500
H  40.92500 43.96400 23.33000
H  40.36500 43.83300 21.62900
H  40.78700 45.36200 22.24800
H  41.48100 47.80200 24.93200
H  42.05500 48.76700 26.23900
H  40.44100 48.08600 26.34500
H  40.75400 45.60300 30.97300
H  43.12600 48.05900 33.52500
H  43.66400 46.45700 34.06000
H  42.21100 47.04400 34.70200

