158

Mg 46.88400 25.79400 28.38500
C  47.68100 28.03700 30.90800
C  45.71500 23.57800 30.83900
C  46.45400 23.51600 26.02300
C  48.60600 27.90200 26.19200
N  46.69300 25.87800 30.58900
C  47.04000 26.90300 31.40200
C  46.74700 26.62900 32.89000
C  46.19600 25.17400 32.81600
C  46.19600 24.82200 31.29300
C  47.05000 24.16100 33.67100
C  45.82700 27.66800 33.61400
C  46.43100 28.48500 34.87900
H  45.42900 28.79700 36.02500
N  45.86300 23.99200 28.34800
C  45.46100 23.24100 29.45200
C  44.71200 22.13900 28.94300
C  44.99100 22.03700 27.53000
C  45.88100 23.18000 27.27200
C  43.99500 21.20200 29.86700
C  44.72300 20.95400 26.50800
O  45.21500 20.89600 25.37400
C  43.86200 19.79400 27.03700
N  47.50000 25.65600 26.42400
C  47.16400 24.63300 25.60900
C  47.40400 24.95900 24.13500
C  48.25200 26.29800 24.22700
C  48.15600 26.63100 25.70600
C  48.11900 23.75000 23.40300
C  47.64800 27.37600 23.33200
C  48.56300 28.25400 22.47700
N  47.97400 27.57700 28.47100
C  48.47400 28.38700 27.43600
C  48.86800 29.67600 28.00400
C  48.70300 29.50100 29.33900
C  48.05500 28.25700 29.58100
C  49.50300 30.80400 27.35200
C  48.86900 30.14400 30.59600
O  49.33200 31.19900 30.85900
C  48.20600 29.17000 31.63100
C  49.25100 28.76100 32.51400
O  49.99000 27.79700 32.37500
O  49.33600 29.68600 33.57100
C  50.30300 29.37800 34.58700
H  45.42300 22.95200 31.68500
H  46.11800 22.89700 25.18900
H  49.00900 28.62400 25.47900
H  47.73600 26.74300 33.33300
H  45.14600 25.19100 33.11000
H  46.40600 23.50000 34.25100
H  47.63600 24.78200 34.34900
H  47.70200 23.52000 33.07900
H  45.00500 27.14800 34.10700
H  45.36500 28.26400 32.82600
H  46.74100 29.43200 34.43800
H  47.30900 27.95000 35.24200
H  42.91600 21.29200 29.74400
H  44.29900 21.43900 30.88600
H  44.30200 20.16800 29.71000
H  44.46500 19.07700 27.59400
H  43.50100 19.20100 26.19600
H  42.95600 20.14400 27.53100
H  46.43200 25.18700 23.69700
H  49.29800 26.22000 23.93000
H  47.40400 23.11300 22.88200
H  48.69000 23.18600 24.14000
H  48.86100 24.16400 22.72000
H  47.14600 28.10400 23.97100
H  47.00800 26.89800 22.59100
H  49.57800 27.85600 22.48700
H  48.48400 29.28400 22.82400
H  48.20300 28.13700 21.45500
H  49.20300 31.01200 26.32500
H  50.49700 30.35700 27.34400
H  49.47300 31.65800 28.02900
H  47.43500 29.76500 32.12100
H  50.72700 30.23300 35.11300
H  51.16800 28.95900 34.07300
H  49.96000 28.58700 35.25500
Mg 17.47600 51.92100 25.94700
C  19.30800 50.71900 28.50800
C  15.05700 52.84000 28.13600
C  15.62300 52.92800 23.28900
C  20.00100 50.86100 23.74600
N  17.17700 51.63600 28.03100
C  18.08700 51.20600 28.92600
C  17.67300 51.41000 30.35900
C  16.20900 51.83500 30.17400
C  16.11300 52.17100 28.70700
C  15.28200 50.67400 30.41200
C  18.54300 52.48500 31.05000
C  18.95400 52.24000 32.57500
H  18.00100 51.48000 33.46800
N  15.55000 52.64600 25.71900
C  14.75300 53.10700 26.74200
C  13.63400 53.88100 26.21700
C  13.62300 53.62300 24.75800
C  14.96400 53.04000 24.52900
C  12.65000 54.57400 27.21300
C  12.68200 54.08300 23.69300
O  12.83700 53.80300 22.50400
C  11.47200 55.01500 24.08200
N  17.76300 51.78400 23.74800
C  16.90400 52.47500 22.92700
C  17.43300 52.39800 21.47900
C  18.83000 51.84300 21.60900
C  18.90700 51.43300 23.10400
C  16.61900 51.54800 20.40100
C  19.94100 52.90400 21.42800
C  21.37600 52.33400 21.06400
N  19.30400 50.92100 26.06400
C  20.19000 50.45300 25.10400
C  21.35300 49.80900 25.72500
C  21.03200 49.85900 27.10600
C  19.81300 50.55200 27.21700
C  22.45200 49.23600 24.93900
C  21.40800 49.45700 28.46200
O  22.38200 48.92300 28.82100
C  20.34200 50.06900 29.43800
C  19.83400 48.87800 30.32700
O  19.03200 48.09600 29.87600
O  20.35400 48.92600 31.48900
C  19.68700 48.00400 32.47200
H  14.47800 53.29100 28.94500
H  15.11300 53.41000 22.45200
H  20.77100 50.71600 22.98600
H  17.69100 50.47900 30.92500
H  15.89000 52.60500 30.87600
H  14.74900 50.83200 31.35000
H  15.78300 49.70700 30.45300
H  14.61900 50.57400 29.55300
H  18.09000 53.45600 30.85000
H  19.45100 52.61200 30.46000
H  18.89700 53.22500 33.03700
H  19.93700 51.80000 32.74600
H  12.10800 53.76000 27.69300
H  11.87700 55.26900 26.88500
H  13.26400 54.98900 28.01100
H  10.59900 54.48900 24.46900
H  11.08700 55.69700 23.32400
H  11.85500 55.66800 24.86700
H  17.35300 53.44200 21.17600
H  18.99600 50.89200 21.10300
H  17.16700 50.78500 19.84800
H  16.43500 52.22600 19.56800
H  15.75300 51.11600 20.90200
H  19.97300 53.45600 22.36800
H  19.58700 53.71400 20.79100
H  21.60700 52.87800 20.14900
H  21.54300 51.26300 20.94900
H  22.13000 52.59600 21.80700
H  22.81700 49.93800 24.19000
H  22.10300 48.39500 24.34000
H  23.12700 48.87700 25.71600
H  20.87900 50.80400 30.03900
H  20.47100 47.24800 32.51200
H  18.80800 47.38600 32.29200
H  19.61200 48.48300 33.44800

