158

Mg 48.98800 45.98200 44.28100
C  45.85800 46.32800 42.60200
C  49.36000 42.98800 42.40700
C  52.40900 46.30300 44.56700
C  48.68500 49.31100 45.36700
N  47.75600 44.93000 42.65800
C  46.53100 45.13600 42.26100
C  45.89300 44.00500 41.39700
C  46.98600 42.91000 41.55600
C  48.14200 43.58700 42.20000
C  46.48500 41.63900 42.52100
C  45.49900 44.56900 40.01800
C  44.02000 44.41900 39.40700
H  43.88300 43.44800 38.16500
N  50.55900 44.76000 43.62200
C  50.54600 43.57100 42.95900
C  51.79500 42.92200 43.03800
C  52.69100 43.80800 43.75600
C  51.89800 45.05300 43.99900
C  52.04700 41.48900 42.47200
C  54.09500 43.37300 44.19900
O  54.60200 42.30900 43.78400
C  54.85600 44.15200 45.18800
N  50.36400 47.54600 44.84800
C  51.73000 47.48800 44.84700
C  52.41200 48.82300 45.38100
C  51.19900 49.74500 45.73400
C  50.00200 48.87100 45.28600
C  53.28800 48.58600 46.57800
C  51.20600 51.11600 45.03700
C  52.27100 52.08000 45.45800
N  47.43300 47.43300 44.29800
C  47.53900 48.76400 44.73000
C  46.16000 49.36000 44.61400
C  45.48000 48.38800 43.80800
C  46.36700 47.29000 43.57300
C  45.66100 50.73100 44.90700
C  44.23800 48.13900 43.13900
O  43.28000 48.78200 42.95200
C  44.37700 46.74400 42.30200
C  43.47300 45.77400 42.97200
O  43.70100 45.06000 43.96400
O  42.26400 45.85500 42.26700
C  41.22900 44.91200 42.73300
H  49.45300 41.98100 41.99400
H  53.48800 46.36600 44.72400
H  48.49600 50.31700 45.74700
H  44.96300 43.56000 41.75100
H  47.19200 42.48000 40.57600
H  45.47500 41.79700 42.90000
H  46.96500 41.61400 43.49900
H  46.52000 40.67200 42.02000
H  46.06600 44.08200 39.22400
H  45.94400 45.55300 39.86900
H  43.67200 45.43400 39.21700
H  43.46200 43.96500 40.22600
H  53.08400 41.43100 42.14300
H  51.40600 41.36400 41.59900
H  51.78400 40.76000 43.23900
H  54.25800 44.55200 46.00700
H  55.29200 44.97400 44.62100
H  55.58100 43.44700 45.59500
H  53.02900 49.16000 44.54900
H  51.13700 49.78200 46.82200
H  53.11800 47.60500 47.02200
H  53.17400 49.30900 47.38600
H  54.33600 48.65800 46.28600
H  50.27100 51.67000 45.12200
H  51.25900 50.89400 43.97100
H  51.75900 53.02600 45.63600
H  52.99100 52.32500 44.67700
H  52.75900 51.72600 46.36500
H  45.85100 51.10200 45.91400
H  44.62300 50.78400 44.57700
H  46.12700 51.40200 44.18500
H  44.31600 46.90600 41.22500
H  40.32600 45.52000 42.79700
H  41.49700 44.33200 43.61600
H  41.01300 44.12500 42.01100
Mg 16.94300 51.98900 25.64200
C  18.87500 50.66400 28.28400
C  14.64700 53.00100 27.88000
C  15.29800 53.38200 23.07300
C  19.53200 50.84300 23.43200
N  16.74300 51.67400 27.92200
C  17.68300 51.24800 28.77400
C  17.22800 51.42300 30.29600
C  15.82300 52.15100 29.99000
C  15.76600 52.33800 28.56300
C  14.57100 51.28300 30.44300
C  18.24000 52.37800 31.07200
C  18.49400 52.16900 32.59600
H  17.43900 51.34700 33.30200
N  15.18300 53.00500 25.49600
C  14.38000 53.37900 26.56300
C  13.37200 54.33400 26.01100
C  13.42900 54.19100 24.55000
C  14.69400 53.50800 24.32000
C  12.37000 55.11000 26.90000
C  12.48900 54.73100 23.46000
O  12.64400 54.56900 22.23100
C  11.34900 55.56900 23.87400
N  17.31800 52.03100 23.49400
C  16.53800 52.80400 22.71700
C  17.19800 53.00200 21.28600
C  18.51100 52.13300 21.47000
C  18.48200 51.64400 22.90500
C  16.29600 52.48900 20.17700
C  19.72300 53.05800 21.31900
C  20.73100 52.49200 20.35400
N  18.62400 50.66000 25.72800
C  19.57300 50.33400 24.74700
C  20.71600 49.71300 25.38300
C  20.40200 49.83600 26.78200
C  19.16400 50.44900 26.93400
C  22.00900 49.38200 24.73900
C  21.02200 49.52400 28.02000
O  22.09200 48.97000 28.19000
C  20.03400 50.04800 29.10400
C  19.67400 48.95300 30.09200
O  18.98400 47.99300 29.88800
O  20.35600 49.19800 31.20200
C  20.17000 48.30800 32.37800
H  14.02400 53.65600 28.49200
H  14.72400 53.63400 22.17900
H  20.27800 50.47800 22.72200
H  17.25600 50.48300 30.84700
H  15.77900 53.11400 30.49900
H  14.35300 50.61700 29.60800
H  13.68600 51.84900 30.73500
H  14.83300 50.62800 31.27400
H  17.85500 53.38900 30.94000
H  19.22100 52.31900 30.60000
H  18.45200 53.10800 33.14900
H  19.42000 51.60300 32.68500
H  12.69100 55.00900 27.93700
H  11.31600 54.84800 26.80500
H  12.49700 56.17000 26.68100
H  10.79100 55.81700 22.97100
H  11.81200 56.45000 24.31700
H  10.71500 54.89400 24.44900
H  17.43600 54.05800 21.15200
H  18.54700 51.30300 20.76400
H  15.77100 51.56900 20.43400
H  16.78500 52.33500 19.21600
H  15.62800 53.30800 19.91000
H  20.18200 53.35700 22.26100
H  19.46500 54.07600 21.02500
H  20.20200 51.70000 19.82500
H  21.59000 52.12200 20.91300
H  21.01700 53.19700 19.57300
H  22.65600 48.89000 25.46500
H  22.47600 50.29700 24.37400
H  21.79900 48.63300 23.97500
H  20.53800 50.85500 29.63500
H  21.00100 47.61500 32.50200
H  19.20000 47.81600 32.29800
H  20.12800 49.00400 33.21600

