158

Mg 49.21300 35.80200 27.82300
C  47.14700 34.03400 30.10300
C  49.20700 38.43700 30.12300
C  50.93600 37.71300 25.55200
C  48.43300 33.45500 25.35800
N  48.39900 36.08900 29.83100
C  47.71200 35.20900 30.57900
C  47.41300 35.77300 32.03100
C  47.70000 37.30400 31.83700
C  48.48100 37.29600 30.49400
C  46.44600 38.15900 31.73900
C  48.40200 35.24900 33.10100
C  47.85600 34.95700 34.51800
H  47.70900 36.15500 35.47600
N  50.08100 37.71600 27.92000
C  50.06200 38.60900 29.04300
C  50.93000 39.76000 28.72300
C  51.40400 39.57200 27.34700
C  50.85600 38.25800 26.89900
C  51.15700 40.89100 29.73800
C  52.22600 40.55200 26.54200
O  52.53800 40.38100 25.37400
C  52.59000 41.87800 27.03300
N  49.61900 35.61100 25.79800
C  50.39200 36.49700 25.09800
C  50.73900 36.03600 23.68300
C  50.12000 34.55400 23.70100
C  49.28700 34.53700 25.02900
C  49.98200 36.88600 22.51400
C  51.18100 33.37300 23.48400
C  50.70600 32.23100 22.54100
N  48.11600 34.08200 27.76000
C  47.86000 33.21500 26.64500
C  46.98200 32.10600 27.03100
C  46.73500 32.39200 28.37400
C  47.36800 33.62100 28.76300
C  46.36500 30.88500 26.22100
C  45.90500 31.91700 29.51300
O  45.22900 30.93100 29.65500
C  46.12200 33.02000 30.65800
C  46.69300 32.31100 31.85500
O  47.86400 31.99000 32.10500
O  45.65600 32.13100 32.73700
C  45.96100 31.47700 34.02900
H  49.20900 39.27700 30.82200
H  51.44100 38.22600 24.73100
H  48.35400 32.66800 24.60500
H  46.38400 35.60900 32.35200
H  48.26600 37.72000 32.67100
H  46.51800 38.87400 30.91900
H  46.38100 38.69900 32.68400
H  45.56100 37.53200 31.63100
H  49.29300 35.83200 33.33400
H  48.78600 34.29000 32.75100
H  48.52500 34.29200 35.06600
H  46.94300 34.36700 34.44200
H  51.02800 40.49800 30.74700
H  50.53400 41.72400 29.41300
H  52.17700 41.25500 29.60700
H  51.72100 42.41400 27.41400
H  52.96000 42.35100 26.12300
H  53.33400 41.71500 27.81300
H  51.82600 36.05500 23.61700
H  49.26200 34.52200 23.02900
H  49.46800 36.32700 21.73100
H  50.75300 37.49100 22.03700
H  49.30500 37.51800 23.08800
H  51.35800 32.88000 24.43900
H  52.16100 33.72100 23.15900
H  50.97400 31.24400 22.91800
H  51.16200 32.26100 21.55200
H  49.63300 32.30400 22.36600
H  45.34600 30.66200 26.53900
H  46.88600 29.97500 26.52000
H  46.36100 31.03200 25.14100
H  45.23300 33.55100 30.99900
H  45.34500 31.99100 34.76700
H  47.02400 31.43600 34.26700
H  45.65800 30.43100 34.00700
Mg 28.33300 58.21700 43.07800
C  25.84000 56.40200 41.36300
C  30.70400 56.42600 41.19900
C  30.55700 60.71900 43.65700
C  25.82600 60.19300 44.51200
N  28.26300 56.68000 41.51000
C  27.16200 56.01300 41.04400
C  27.59400 54.91400 39.96100
C  29.07700 54.72400 40.22800
C  29.34300 56.05000 40.98700
C  29.50200 53.45500 41.03300
C  27.31100 55.39900 38.54000
C  26.83400 54.26600 37.53900
H  27.59300 54.15100 36.13800
N  30.40900 58.46800 42.54200
C  31.18900 57.58600 41.93300
C  32.52600 58.11000 41.93600
C  32.54400 59.30400 42.66100
C  31.11900 59.57200 42.96700
C  33.65200 57.41700 41.15700
C  33.78800 60.22700 42.83000
O  34.96200 59.95300 42.77600
C  33.59200 61.70000 43.19900
N  28.28300 60.25000 43.76000
C  29.26400 61.03200 44.09000
C  28.86800 62.26200 44.97300
C  27.36900 62.00600 45.15800
C  27.11300 60.72000 44.41100
C  29.68600 62.38600 46.33900
C  26.43100 63.22900 44.83600
C  25.80000 63.21200 43.51700
N  26.24800 58.14800 43.12200
C  25.38900 59.08800 43.69400
C  24.02000 58.65500 43.47200
C  24.22200 57.54900 42.55600
C  25.55700 57.33200 42.30500
C  22.78300 59.24000 44.02800
C  23.38900 56.57600 41.78300
O  22.18700 56.42900 41.75200
C  24.47500 55.79800 40.88800
C  24.33000 54.31300 41.05200
O  24.85600 53.68500 41.95500
O  23.55200 53.71800 39.99500
C  23.60000 52.25100 39.94900
H  31.44100 55.80200 40.68800
H  31.30600 61.36900 44.11600
H  25.09800 60.78300 45.07300
H  26.98700 54.05300 40.24200
H  29.60200 54.58600 39.28300
H  30.06700 53.70900 41.93000
H  30.02500 52.73800 40.40000
H  28.73800 52.79300 41.44100
H  28.18700 55.84800 38.07300
H  26.65100 56.26700 38.53500
H  25.85900 54.66500 37.26100
H  26.70100 53.28900 38.00300
H  33.55000 56.33500 41.24800
H  34.58400 57.73200 41.62400
H  33.67900 57.77900 40.12900
H  32.69300 62.11700 42.74600
H  34.44500 62.32100 42.92500
H  33.41400 61.67600 44.27400
H  29.06700 63.12100 44.33200
H  27.16500 61.83100 46.21400
H  30.50700 63.08800 46.19100
H  30.12400 61.40600 46.52600
H  28.96100 62.63600 47.11300
H  27.04800 64.12800 44.84700
H  25.63800 63.42600 45.55800
H  25.82000 64.20600 43.06900
H  24.72100 63.08400 43.60100
H  26.23200 62.40800 42.92100
H  22.26200 59.80600 43.25600
H  22.89200 59.81600 44.94700
H  22.19900 58.34000 44.22300
H  24.28500 56.07100 39.84900
H  24.67100 52.09800 39.81800
H  23.04800 51.78100 39.13500
H  23.29400 51.80000 40.89200

