158

Mg 44.14800 5.23500 47.14300
C  42.18600 8.10000 46.48700
C  41.32400 3.30300 46.27300
C  46.11200 2.41800 46.83500
C  47.03600 7.20000 47.24800
N  41.96700 5.74600 46.37800
C  41.40100 6.95500 46.38200
C  39.92900 6.79900 46.31300
C  39.58400 5.24300 46.28600
C  41.03700 4.68600 46.33800
C  38.78200 4.60000 47.39300
C  39.28100 7.59400 45.12900
C  39.52800 7.06200 43.71800
H  40.47100 7.80500 42.69500
N  43.71100 3.17400 46.86400
C  42.54400 2.61400 46.48200
C  42.67100 1.20600 46.33600
C  44.00200 0.83200 46.68200
C  44.72500 2.16500 46.85500
C  41.59500 0.27000 45.85400
C  44.59900 -0.56100 46.59200
O  43.89200 -1.51400 46.26600
C  45.97700 -0.92700 46.84700
N  46.25000 4.91000 47.09200
C  46.81000 3.63300 47.10500
C  48.37000 3.68600 47.21400
C  48.66600 5.22300 47.46500
C  47.24900 5.82000 47.31900
C  48.92000 2.83100 48.37100
C  49.82400 5.81900 46.59200
C  50.86200 6.61400 47.26000
N  44.60500 7.22900 46.97700
C  45.79600 7.90800 47.07400
C  45.55500 9.35000 47.06200
C  44.09000 9.42900 46.91000
C  43.56700 8.16600 46.77700
C  46.56100 10.50100 47.13700
C  42.99000 10.36200 46.84000
O  43.00200 11.58600 46.86900
C  41.68900 9.57400 46.68700
C  40.76600 9.73500 47.82000
O  40.79200 9.00500 48.83200
O  39.87200 10.70300 47.63900
C  38.82700 10.86600 48.61500
H  40.45200 2.64700 46.23600
H  46.73200 1.53900 46.64400
H  47.87500 7.88800 47.36800
H  39.53000 7.32500 47.18100
H  39.07700 4.92600 45.37400
H  39.23800 3.75100 47.90200
H  37.96600 4.11900 46.85500
H  38.34000 5.30100 48.10100
H  39.61000 8.63300 45.08500
H  38.22100 7.48800 45.36200
H  38.56000 7.01800 43.21900
H  39.90900 6.05000 43.85000
H  41.23000 -0.25700 46.73600
H  41.93700 -0.35400 45.02800
H  40.82000 0.81700 45.31600
H  45.96400 -1.89000 47.35800
H  46.51000 -0.39800 47.63600
H  46.50300 -1.00900 45.89600
H  48.82200 3.41600 46.26000
H  48.91000 5.51300 48.48700
H  49.95800 3.07400 48.60000
H  48.97800 1.79000 48.05300
H  48.24300 2.98600 49.21200
H  49.36300 6.45300 45.83400
H  50.37900 5.07300 46.02300
H  50.98900 7.51000 46.65200
H  51.80200 6.06300 47.25600
H  50.60400 6.86700 48.28800
H  46.09500 11.30600 47.70600
H  46.88700 10.85900 46.16100
H  47.41300 9.97200 47.56500
H  41.13800 9.93400 45.81800
H  38.72500 11.91500 48.89200
H  39.06600 10.37700 49.56000
H  37.83900 10.45800 48.40300
Mg -0.30700 42.40300 26.75300
C  2.01000 42.61400 29.43900
C  -2.82400 41.73600 29.14800
C  -2.35200 42.02500 24.29200
C  2.30900 42.84500 24.49200
N  -0.37200 42.34200 29.03500
C  0.68800 42.50500 29.90800
C  0.22200 42.77100 31.34600
C  -1.27100 42.27300 31.22200
C  -1.51600 41.99800 29.70100
C  -1.63400 40.99900 32.03100
C  0.49900 44.20800 31.84700
C  1.28500 44.34600 33.15300
H  1.39000 43.21300 34.06000
N  -2.33600 42.00700 26.73700
C  -3.18500 41.70000 27.80600
C  -4.54500 41.58200 27.30800
C  -4.47900 41.83700 25.91700
C  -3.03700 41.90500 25.56600
C  -5.80000 41.36700 28.18500
C  -5.53400 42.05600 24.81500
O  -5.33500 42.27400 23.59300
C  -6.97400 42.08900 25.25200
N  0.03600 42.14500 24.72800
C  -1.03200 42.06700 23.89200
C  -0.62600 42.30600 22.43200
C  0.81200 42.79800 22.51200
C  1.05900 42.64600 24.00500
C  -0.79000 40.99100 21.70900
C  1.21100 44.18400 21.83600
C  2.50000 44.17100 20.96000
N  1.75100 42.67600 26.88400
C  2.64300 42.84700 25.90300
C  3.97200 42.97800 26.45600
C  3.73500 43.00800 27.88700
C  2.45100 42.68500 28.05900
C  5.21200 43.13500 25.73300
C  4.37300 43.22900 29.15600
O  5.43900 43.65500 29.47100
C  3.31700 42.83600 30.25100
C  3.88600 41.66800 30.98900
O  3.97000 40.52500 30.49400
O  4.36600 42.03400 32.24300
C  5.09600 41.02300 32.98700
H  -3.63600 41.71700 29.87800
H  -2.95600 41.94100 23.38600
H  3.12800 43.02400 23.79200
H  0.61800 41.95800 31.95500
H  -2.01100 43.01900 31.51300
H  -2.71200 41.05500 32.17900
H  -1.14200 40.98100 33.00300
H  -1.29400 40.10700 31.50400
H  -0.51700 44.60100 31.87600
H  1.07300 44.71600 31.07200
H  0.85200 45.09900 33.81200
H  2.27400 44.65500 32.81500
H  -6.53100 40.70500 27.72000
H  -6.25300 42.29200 28.54000
H  -5.45800 40.81500 29.06100
H  -7.17100 42.23800 26.31400
H  -7.45600 41.15600 24.95800
H  -7.54300 42.93100 24.85800
H  -1.36000 43.00100 22.02500
H  1.40600 42.06500 21.96600
H  -0.28900 41.09500 20.74700
H  -1.86200 40.82200 21.61300
H  -0.38100 40.18700 22.32100
H  1.16800 44.92600 22.63400
H  0.37400 44.46900 21.19900
H  2.97500 43.19100 20.91600
H  3.19100 44.88000 21.41600
H  2.33600 44.54300 19.94900
H  5.33700 42.38100 24.95500
H  6.02900 43.14500 26.45400
H  5.24100 44.06400 25.16400
H  3.12000 43.61800 30.98500
H  5.74100 41.43900 33.76200
H  5.89000 40.62800 32.35300
H  4.43100 40.21000 33.27800

