158

Mg 8.86300 2.67200 28.20400
C  10.41400 1.21900 30.88000
C  7.23600 4.86200 30.22900
C  7.18200 3.78800 25.44200
C  10.33700 0.16900 25.97600
N  8.79000 2.91000 30.29000
C  9.60100 2.31500 31.18200
C  9.50800 2.90200 32.60100
C  8.28300 3.86900 32.48100
C  8.03100 3.84700 30.91000
C  7.00900 3.45700 33.22000
C  10.85200 3.44600 33.26500
C  10.97700 3.28900 34.77100
H  9.71500 2.97000 35.55500
N  7.49000 4.13700 27.84900
C  6.99800 4.95000 28.87300
C  5.97200 5.80700 28.28700
C  6.04200 5.60600 26.86700
C  6.94500 4.48000 26.65200
C  5.30600 6.86700 29.08500
C  5.27700 6.38300 25.77100
O  5.42400 6.23700 24.53900
C  4.17100 7.35900 26.17700
N  8.82600 2.06800 25.96700
C  8.00700 2.73600 25.10000
C  8.06000 2.09700 23.70900
C  9.31000 1.09900 23.80300
C  9.50700 1.07100 25.30800
C  6.62700 1.48000 23.45500
C  10.63000 1.49700 22.98300
C  11.23500 0.31900 22.26900
N  9.93200 0.88300 28.33400
C  10.49100 0.05900 27.37600
C  11.35100 -0.96300 28.09500
C  11.31100 -0.54300 29.45700
C  10.48100 0.55700 29.58600
C  12.04300 -2.16400 27.46400
C  11.76500 -0.82300 30.80700
O  12.63500 -1.64100 31.16900
C  11.08800 0.26300 31.83300
C  10.07900 -0.43400 32.72000
O  8.90700 -0.76600 32.42100
O  10.71500 -0.67200 33.92100
C  9.90100 -1.34500 34.97300
H  6.80300 5.51800 30.98700
H  6.46400 4.11000 24.68400
H  10.87900 -0.55300 25.36100
H  9.10000 2.10300 33.22100
H  8.49300 4.82200 32.96700
H  6.20500 3.14200 32.55400
H  6.59700 4.30200 33.77100
H  7.13400 2.64100 33.93200
H  10.74400 4.46700 32.89700
H  11.61900 2.89200 32.72400
H  11.35300 4.24800 35.12600
H  11.63400 2.43600 34.94200
H  5.88900 7.17200 29.95400
H  4.26000 6.62500 29.27600
H  5.30300 7.73900 28.43100
H  3.59000 7.77000 25.35100
H  4.74800 8.25000 26.42400
H  3.53200 6.87700 26.91800
H  8.29800 2.94400 23.06500
H  9.02300 0.09200 23.50100
H  6.03300 1.60100 24.36100
H  6.72500 0.40800 23.28400
H  6.20100 1.88500 22.53700
H  11.35600 2.07600 23.55400
H  10.37400 2.14100 22.14200
H  10.77800 0.36000 21.28000
H  11.16300 -0.70100 22.64800
H  12.26500 0.65400 22.14900
H  11.80400 -2.39600 26.42600
H  11.69500 -3.03000 28.02900
H  13.08700 -1.98000 27.71700
H  11.86600 0.64400 32.49500
H  10.35800 -2.27300 35.31600
H  8.83100 -1.44100 34.78800
H  9.87800 -0.79900 35.91600
Mg 37.29100 50.21400 24.18400
C  36.79100 48.69500 27.46400
C  36.87400 53.19500 25.88100
C  37.37400 51.65600 21.17100
C  37.67400 47.10100 22.96600
N  36.65000 50.83200 26.44900
C  36.55300 50.05700 27.51800
C  36.57700 50.91500 28.88200
C  36.44900 52.38300 28.37000
C  36.64000 52.10800 26.81200
C  35.09900 53.10700 28.69200
C  37.83000 50.69100 29.84900
C  37.49800 50.20400 31.30600
H  36.12100 50.65600 31.86100
N  37.16900 52.16100 23.63000
C  37.06100 53.20400 24.44300
C  37.02900 54.33400 23.59500
C  37.14500 53.96300 22.25300
C  37.21300 52.53200 22.26600
C  36.78300 55.78000 24.11200
C  37.16500 54.84800 21.01500
O  37.29800 54.34500 19.84300
C  37.10100 56.34500 21.11700
N  37.17100 49.47700 22.32300
C  37.46400 50.25400 21.20500
C  37.62800 49.38900 19.91900
C  38.11800 48.05500 20.58300
C  37.58600 48.19900 22.03800
C  36.40500 49.25300 18.93000
C  39.66400 47.68500 20.38900
C  39.87500 46.32300 19.66400
N  37.15900 48.20800 24.90600
C  37.32700 47.02600 24.31300
C  37.31800 45.94400 25.29300
C  37.16700 46.56200 26.52200
C  37.03600 47.96800 26.25900
C  37.53500 44.52000 25.04700
C  37.02300 46.28700 27.90700
O  37.16500 45.25200 28.55400
C  36.76000 47.66000 28.62100
C  35.46900 47.56300 29.30800
O  34.40000 47.88800 28.81300
O  35.53300 47.00500 30.51900
C  34.29300 46.75400 31.29400
H  36.88100 54.18300 26.34600
H  37.40300 51.99900 20.13400
H  38.09100 46.19300 22.52700
H  35.68200 50.69100 29.46300
H  37.33800 52.94800 28.64900
H  35.38900 54.07000 29.11400
H  34.51800 52.63100 29.48200
H  34.42900 53.31800 27.85900
H  38.44500 51.59000 29.88700
H  38.50200 50.00100 29.33900
H  38.22000 50.58500 32.02800
H  37.48100 49.11400 31.33000
H  36.22900 55.81100 25.05100
H  36.05900 56.19300 23.41000
H  37.64300 56.44700 24.16800
H  36.15200 56.69800 21.52000
H  37.15000 56.71400 20.09200
H  37.98000 56.87900 21.47600
H  38.46700 49.75100 19.32600
H  37.59100 47.21400 20.13100
H  35.59300 49.94700 19.14900
H  35.99900 48.24400 18.86000
H  36.89000 49.59300 18.01600
H  40.05800 47.80700 21.39800
H  40.24200 48.35900 19.75800
H  39.89000 45.53000 20.41200
H  40.88300 46.31900 19.24900
H  39.16500 46.28500 18.83900
H  37.94600 44.36700 24.04900
H  36.53300 44.09300 25.00400
H  38.10400 44.26100 25.94000
H  37.69900 47.79600 29.15900
H  33.63900 47.61300 31.14000
H  34.50600 46.55200 32.34300
H  33.67000 45.99600 30.81900

