158

Mg 17.65500 -0.28700 27.56600
C  16.80800 1.37800 30.61700
C  19.50600 -2.43800 29.43300
C  18.69100 -1.56300 24.70500
C  15.66400 2.07200 25.93300
N  18.28100 -0.34700 29.71700
C  17.67200 0.29300 30.77500
C  18.01400 -0.33000 32.14100
C  19.17600 -1.33500 31.73600
C  18.99600 -1.39500 30.21500
C  20.66300 -0.88300 31.92400
C  16.84700 -1.08000 32.83900
C  16.72200 -0.85900 34.33600
H  18.05300 -0.56100 35.09600
N  18.84300 -1.83200 27.15500
C  19.50100 -2.70100 28.03200
C  20.19000 -3.74100 27.27600
C  19.91300 -3.50300 25.92300
C  19.13700 -2.28200 25.85800
C  21.03500 -4.86400 27.98200
C  20.51000 -4.27200 24.77100
O  20.24100 -3.99900 23.60500
C  21.46800 -5.47600 24.97500
N  17.19500 0.16500 25.67000
C  17.89100 -0.42800 24.60200
C  17.79400 0.38500 23.36200
C  16.50800 1.27000 23.69500
C  16.44100 1.21200 25.22200
C  19.04300 1.18500 22.83000
C  15.11900 1.06100 22.95200
C  14.96600 1.97000 21.67100
N  16.54800 1.39400 28.12400
C  15.71400 2.26200 27.34500
C  15.03300 3.18700 28.16300
C  15.37000 2.82900 29.40800
C  16.39900 1.85900 29.37700
C  14.10600 4.28000 27.68000
C  15.08200 3.12300 30.88500
O  14.42600 4.03400 31.41600
C  15.99900 2.17800 31.63800
C  16.89300 3.05100 32.54900
O  17.99900 3.47500 32.23400
O  16.32200 3.27800 33.75600
C  17.05900 4.17100 34.65500
H  20.05100 -3.20900 29.98100
H  18.98100 -1.95000 23.72600
H  15.12800 2.75200 25.26700
H  18.27000 0.47800 32.82600
H  19.04300 -2.32100 32.18200
H  21.16800 -0.70600 30.97500
H  21.16900 -1.73800 32.37400
H  20.53500 -0.00900 32.56200
H  16.96200 -2.16300 32.82700
H  15.93200 -0.83600 32.29900
H  16.37700 -1.74500 34.86900
H  16.05400 -0.02100 34.53600
H  20.96000 -4.75900 29.06400
H  22.07800 -4.72800 27.69800
H  20.62000 -5.84400 27.74300
H  22.39100 -5.12300 25.43500
H  21.65200 -5.66600 23.91800
H  21.02600 -6.33700 25.47700
H  17.65300 -0.36200 22.58100
H  16.80100 2.30600 23.52500
H  19.99100 0.76700 23.16900
H  19.09500 2.26600 22.95700
H  19.24500 0.90600 21.79500
H  14.33900 1.26300 23.68700
H  14.97500 0.01000 22.70400
H  14.27100 2.80600 21.74600
H  14.59000 1.38900 20.82900
H  16.00700 2.25600 21.51700
H  14.11300 4.39500 26.59700
H  14.23500 5.22900 28.20000
H  13.13600 3.93200 28.03600
H  15.51400 1.53800 32.37500
H  17.11300 3.63400 35.60200
H  16.48000 5.08100 34.81700
H  18.07800 4.33900 34.30700
Mg 50.32000 47.18400 42.79000
C  47.11300 48.17400 41.59400
C  49.75700 44.06500 41.03000
C  53.58200 46.49600 42.92800
C  50.86600 50.56300 43.61400
N  48.60500 46.20400 41.54600
C  47.43100 46.83300 41.24500
C  46.63600 45.95500 40.29100
C  47.30000 44.50600 40.53100
C  48.65800 44.95300 41.00700
C  46.63700 43.73900 41.62300
C  46.52500 46.37700 38.75100
C  45.16100 46.07500 38.11300
H  45.28700 44.96800 37.05300
N  51.50600 45.51700 42.14500
C  51.09900 44.28200 41.51100
C  52.21200 43.41300 41.30800
C  53.26900 44.02000 42.09100
C  52.81000 45.41600 42.42800
C  52.18400 42.07800 40.62200
C  54.64100 43.38700 42.31000
O  54.90200 42.26200 41.95700
C  55.80300 44.10400 42.94500
N  51.98900 48.32600 43.09700
C  53.26200 47.81200 43.14500
C  54.31200 48.86100 43.55100
C  53.40900 50.12300 43.81500
C  52.01300 49.66200 43.50700
C  55.24900 48.47700 44.72400
C  53.72400 51.45100 43.05600
C  55.19200 51.89300 43.03400
N  49.30600 49.03900 42.72600
C  49.56300 50.27100 43.14200
C  48.52000 51.13900 42.95200
C  47.48600 50.36700 42.40400
C  48.01700 49.06400 42.26400
C  48.47900 52.59600 43.25800
C  46.14300 50.32900 41.78000
O  45.36500 51.21700 41.56900
C  45.87600 48.89700 41.24000
C  44.55300 48.45100 41.86600
O  44.38500 47.89600 42.93500
O  43.53700 48.53000 40.98600
C  42.19300 48.47100 41.51800
H  49.54900 43.05600 40.66800
H  54.65600 46.31600 43.01000
H  51.05700 51.53400 44.07600
H  45.60100 45.83800 40.61400
H  47.23100 43.97000 39.58400
H  47.39000 43.37300 42.32100
H  46.12500 42.86100 41.22900
H  45.88200 44.33200 42.13900
H  47.24400 45.79200 38.17600
H  46.82400 47.42400 38.70800
H  44.81700 46.93600 37.53900
H  44.38100 45.85100 38.84100
H  52.63000 42.23600 39.64000
H  51.17200 41.67400 40.64600
H  52.70900 41.25700 41.11100
H  55.38400 44.60500 43.81700
H  56.08000 44.83300 42.18400
H  56.50000 43.33800 43.28600
H  54.89300 49.10700 42.66200
H  53.44800 50.31900 44.88600
H  55.00700 48.91800 45.69100
H  56.25000 48.81900 44.46100
H  55.28300 47.41900 44.98400
H  53.11300 52.18400 43.58500
H  53.43500 51.35200 42.01000
H  55.50400 51.93800 41.99100
H  55.80900 51.24800 43.66000
H  55.08500 52.89400 43.45400
H  48.50500 52.70400 44.34200
H  47.59900 53.15700 42.94500
H  49.35100 53.12000 42.86500
H  45.78600 48.95400 40.15500
H  42.05500 48.85800 42.52800
H  41.88300 47.42900 41.60100
H  41.51600 49.05200 40.89200

