158

Mg 26.18100 1.03300 29.73100
C  28.31200 0.61800 32.55500
C  23.66900 1.60400 32.01400
C  24.09700 0.90800 27.20300
C  28.82800 -0.01100 27.76300
N  26.02700 1.08000 32.05400
C  27.02900 0.90200 32.95700
C  26.54900 1.30500 34.41700
C  25.02000 1.22700 34.17600
C  24.87200 1.38300 32.70100
C  24.28400 0.01200 34.71100
C  27.13800 2.69400 34.91100
C  27.99400 2.76400 36.20500
H  27.40200 3.42500 37.45200
N  24.21500 1.43500 29.57600
C  23.34500 1.59900 30.59200
C  21.97800 1.68000 30.06800
C  22.07500 1.50700 28.69800
C  23.53400 1.30800 28.46900
C  20.73800 1.83800 30.85600
C  20.98500 1.40000 27.70900
O  21.20200 1.28200 26.52400
C  19.59800 1.46400 28.05700
N  26.50900 0.64200 27.77600
C  25.46800 0.67600 26.84700
C  26.05400 0.68900 25.39000
C  27.56600 0.61800 25.62900
C  27.64800 0.45700 27.15400
C  25.38800 -0.37900 24.44500
C  28.40500 1.78600 25.08300
C  29.25100 1.41100 23.94300
N  28.14900 0.33000 30.05300
C  29.06700 -0.05900 29.11800
C  30.34300 -0.32600 29.82200
C  30.09200 -0.08800 31.19400
C  28.74100 0.32100 31.26400
C  31.59800 -0.79000 29.15700
C  30.60300 0.01200 32.57200
O  31.71900 -0.22600 33.05100
C  29.44400 0.46900 33.48000
C  29.33100 -0.69600 34.37500
O  28.63700 -1.68600 34.19800
O  29.99500 -0.48200 35.52200
C  29.79800 -1.31800 36.68900
H  22.83200 1.93500 32.63200
H  23.44300 0.92300 26.33000
H  29.65500 -0.36500 27.14400
H  26.99100 0.60500 35.12600
H  24.50700 2.08100 34.61800
H  25.02000 -0.66400 35.14800
H  23.81800 -0.52400 33.88400
H  23.54300 0.32000 35.44900
H  26.37800 3.45000 35.10900
H  27.66200 3.11700 34.05400
H  28.93800 3.19900 35.87900
H  28.20000 1.75400 36.55900
H  20.17600 2.70400 30.50500
H  20.94400 2.14800 31.88100
H  20.14800 0.92200 30.84800
H  19.43100 0.62600 28.73300
H  19.01300 1.41000 27.13900
H  19.30900 2.42100 28.49100
H  25.87300 1.61600 24.84500
H  27.90000 -0.29100 25.13000
H  24.53300 -0.78600 24.98400
H  25.93400 -1.30700 24.27800
H  24.92500 0.07600 23.56900
H  29.03600 2.18400 25.87800
H  27.87800 2.64900 24.67400
H  29.15300 2.15800 23.15500
H  28.93100 0.46500 23.50600
H  30.26100 1.29100 24.33400
H  32.39800 -1.06300 29.84600
H  31.89600 0.09800 28.60100
H  31.46100 -1.60900 28.45100
H  29.68400 1.37300 34.04000
H  29.88500 -2.29500 36.21300
H  28.81900 -1.07700 37.10300
H  30.56900 -1.15000 37.44100
Mg 9.96100 48.14300 25.52100
C  7.66900 48.29500 28.09300
C  12.33000 49.63400 27.69000
C  12.24400 48.15100 22.92100
C  7.41900 47.37000 23.36600
N  10.01100 48.77700 27.71900
C  8.93800 48.67000 28.55700
C  9.40600 49.17700 29.97300
C  10.90100 49.69900 29.85800
C  11.14000 49.35000 28.34000
C  11.18400 51.20200 30.21800
C  9.22700 48.05000 31.05500
C  10.08200 48.00500 32.37900
H  9.48600 47.99200 33.74000
N  12.00100 48.67500 25.34600
C  12.77400 49.15400 26.36700
C  14.15100 49.33600 25.87200
C  14.08000 48.88700 24.51600
C  12.74800 48.53300 24.18000
C  15.26900 49.97700 26.61200
C  15.25200 48.86100 23.47000
O  15.05900 48.49100 22.30100
C  16.64500 49.25400 23.90400
N  9.88500 47.59900 23.44900
C  10.89900 47.73600 22.58500
C  10.49300 47.43900 21.15100
C  8.93900 47.28900 21.26800
C  8.69800 47.39500 22.81200
C  10.81100 48.58900 20.11000
C  8.56900 45.92000 20.73100
C  9.10200 44.75900 21.55400
N  7.97200 47.86000 25.58700
C  7.01900 47.48200 24.65600
C  5.72700 47.30200 25.29900
C  5.96500 47.64400 26.61600
C  7.26600 47.99500 26.76000
C  4.40300 46.99700 24.61100
C  5.28800 47.66500 27.88900
O  4.12200 47.43200 28.22100
C  6.42700 48.08000 28.91600
C  6.45200 46.86800 29.79600
O  7.10500 45.86400 29.60600
O  5.75200 47.06300 30.98900
C  6.05200 46.13500 32.10500
H  12.95900 50.27500 28.31100
H  12.89300 48.01100 22.05400
H  6.66300 47.16300 22.60500
H  8.77500 50.04300 30.17600
H  11.59000 49.03900 30.38500
H  10.45000 51.52400 30.95700
H  11.21500 51.81400 29.31700
H  12.14300 51.29600 30.72800
H  9.36100 47.12400 30.49600
H  8.21500 48.18000 31.44000
H  10.85000 48.77400 32.46200
H  10.51300 47.00600 32.30500
H  15.07800 49.94500 27.68500
H  15.40000 50.97700 26.19900
H  16.22600 49.47000 26.48500
H  16.72400 50.21700 24.40800
H  17.28100 49.37300 23.02700
H  16.95800 48.45200 24.57300
H  10.95800 46.49700 20.85800
H  8.38800 48.07000 20.74500
H  11.23300 49.49400 20.54700
H  9.90800 49.02600 19.68400
H  11.60200 48.31200 19.41300
H  9.10200 45.82200 19.78600
H  7.48500 45.83400 20.65000
H  9.70700 44.10600 20.92400
H  8.26000 44.14800 21.87900
H  9.73600 44.94600 22.42000
H  4.28600 45.91600 24.53100
H  4.48700 47.37900 23.59400
H  3.56400 47.43500 25.15100
H  5.99700 48.97600 29.36200
H  5.99000 45.16400 31.61300
H  5.34500 46.16900 32.93400
H  7.08100 46.32400 32.41100

