158

Mg 43.64700 42.07300 26.39000
C  42.47600 44.24900 28.84100
C  44.41000 39.77200 28.73500
C  44.69500 39.97800 23.85000
C  43.35000 44.66100 24.02800
N  43.30000 42.01800 28.53400
C  42.80600 43.04100 29.32600
C  42.82500 42.53600 30.76900
C  43.61100 41.19200 30.75100
C  43.86000 41.00000 29.28500
C  44.95700 41.03600 31.62200
C  41.35000 42.43800 31.39200
C  41.26600 41.96500 32.86800
H  40.42900 42.80500 33.93500
N  44.46300 40.11800 26.33300
C  44.58400 39.32300 27.38600
C  45.38100 38.20000 26.99400
C  45.48800 38.22300 25.54100
C  44.77400 39.43400 25.13400
C  46.01500 37.26000 28.04700
C  46.13400 37.25300 24.57200
O  46.09300 37.30600 23.33800
C  46.77200 36.03700 25.07200
N  44.11900 42.29500 24.23600
C  44.38300 41.26800 23.44000
C  44.41000 41.70300 21.96400
C  43.73600 43.06700 22.00400
C  43.75800 43.40700 23.49600
C  45.83500 41.63300 21.34000
C  42.23200 43.05600 21.47600
C  41.01400 42.78900 22.46100
N  43.02900 44.07300 26.37600
C  43.02100 44.99800 25.35700
C  42.37100 46.20400 25.86200
C  42.09100 45.96700 27.23900
C  42.69400 44.70700 27.47200
C  42.10100 47.50400 25.10400
C  41.49900 46.53100 28.45900
O  40.88800 47.55200 28.64900
C  41.79900 45.41500 29.53800
C  42.62900 46.11800 30.60100
O  43.45100 47.01000 30.43600
O  42.25000 45.63300 31.78300
C  42.83300 46.31000 32.94800
H  44.55000 39.03600 29.52900
H  44.92900 39.31600 23.01300
H  43.22000 45.50900 23.35300
H  43.48900 43.29300 31.18800
H  43.05500 40.36300 31.19000
H  44.93600 40.22300 32.34800
H  45.07400 41.97700 32.15900
H  45.79800 40.83000 30.96000
H  40.79300 41.68500 30.83400
H  40.84000 43.40000 31.35900
H  42.24700 41.78100 33.30500
H  40.76600 41.01800 33.07100
H  46.72100 37.82700 28.65400
H  46.48600 36.39700 27.57600
H  45.28300 36.89300 28.76600
H  47.52800 36.32800 25.80200
H  47.27900 35.56600 24.23000
H  46.00500 35.37400 25.47100
H  43.76900 40.97700 21.46200
H  44.38300 43.81100 21.53800
H  46.47000 42.50800 21.48200
H  45.71500 41.35800 20.29200
H  46.41900 40.87300 21.86000
H  42.18900 42.26700 20.72600
H  41.99400 44.03000 21.04900
H  41.39400 42.59800 23.46400
H  40.51800 41.86900 22.15100
H  40.31900 43.62700 22.50900
H  41.16800 47.39500 24.55200
H  42.91000 47.67100 24.39300
H  42.07000 48.32400 25.82200
H  40.84600 45.11500 29.97400
H  43.83100 46.70400 32.75400
H  42.96400 45.68700 33.83300
H  42.28700 47.17900 33.31500
Mg 16.75100 51.54200 26.40400
C  18.67500 49.99900 29.02000
C  14.36000 52.30400 28.60100
C  15.03000 52.45100 23.72700
C  19.38500 50.30900 24.13600
N  16.59600 51.16600 28.52600
C  17.48800 50.63300 29.41500
C  17.02500 50.84000 30.89600
C  15.51100 51.32300 30.68700
C  15.47200 51.64100 29.16000
C  14.41500 50.34800 31.17400
C  17.99500 51.88500 31.61600
C  18.45700 51.52700 32.97300
H  17.36000 50.76900 33.89800
N  14.98700 52.31600 26.17300
C  14.12600 52.64200 27.24000
C  12.99000 53.33000 26.69800
C  13.20000 53.43700 25.28700
C  14.49900 52.79100 24.98100
C  11.88500 53.78900 27.58300
C  12.45500 54.21400 24.26300
O  12.82800 54.39400 23.10000
C  11.10400 54.87800 24.67000
N  17.21900 51.32800 24.25300
C  16.25300 51.81200 23.39000
C  16.57200 51.26100 21.97600
C  18.10200 50.99600 22.04500
C  18.33300 50.93400 23.58200
C  15.62800 50.11300 21.58400
C  19.09900 51.99500 21.35500
C  18.76200 53.50100 21.54000
N  18.64700 50.48900 26.53100
C  19.60600 50.07900 25.57000
C  20.69200 49.34500 26.15800
C  20.35400 49.31900 27.51900
C  19.10600 49.94100 27.68200
C  22.01600 48.77100 25.46200
C  20.83200 48.83500 28.74300
O  21.86300 48.21800 28.90400
C  19.86700 49.36000 29.82400
C  19.38300 48.27100 30.51800
O  18.99100 47.27300 29.98900
O  19.45600 48.45500 31.88200
C  18.93400 47.31600 32.62000
H  13.61700 52.58500 29.35100
H  14.35100 52.69600 22.90700
H  20.11400 49.95400 23.40500
H  17.06400 49.92000 31.47800
H  15.28400 52.18000 31.32000
H  13.90900 50.59400 32.10800
H  14.86100 49.36500 31.32400
H  13.76000 50.28200 30.30500
H  17.48300 52.84200 31.71200
H  18.91900 52.06400 31.06600
H  18.78100 52.38800 33.55800
H  19.24200 50.79500 32.78400
H  11.18000 52.98900 27.81000
H  11.38500 54.69200 27.23200
H  12.28600 54.03500 28.56600
H  10.37200 54.17800 25.07300
H  10.77700 55.34100 23.73900
H  11.34200 55.66400 25.38800
H  16.50600 52.12700 21.31700
H  18.32600 50.08900 21.48300
H  15.17200 50.46100 20.65700
H  14.85000 49.92200 22.32300
H  16.23900 49.34800 21.10400
H  18.93900 51.76400 20.30200
H  20.10000 51.66100 21.62700
H  19.64400 54.14000 21.51300
H  18.50600 53.60600 22.59400
H  18.02400 53.90600 20.84700
H  22.21500 49.06200 24.43000
H  21.86000 47.70300 25.31200
H  22.91500 48.90900 26.06200
H  20.34000 50.01200 30.55800
H  17.94300 46.96600 32.33100
H  18.83100 47.64700 33.65400
H  19.70400 46.54500 32.58100

