158

Mg 35.86400 0.77700 29.93100
C  33.33800 1.69400 32.19800
C  38.20400 1.26000 32.42000
C  38.25500 0.70200 27.51200
C  33.37900 1.16400 27.28300
N  35.82600 1.24500 32.06000
C  34.62700 1.57100 32.75500
C  34.92800 1.72400 34.24900
C  36.49300 1.94700 34.25200
C  36.92100 1.50800 32.84600
C  36.79200 3.48900 34.46800
C  34.32500 0.47200 35.00200
C  33.94100 0.41100 36.47400
H  34.83200 1.42200 37.29500
N  37.92000 0.68000 29.97500
C  38.65800 0.86300 31.12500
C  39.98700 0.36200 30.74700
C  40.09800 0.33300 29.36200
C  38.69500 0.57700 28.87900
C  41.15400 0.33300 31.75100
C  41.25500 0.12400 28.42100
O  41.21900 0.23100 27.16900
C  42.60800 -0.13000 28.92600
N  35.79500 0.89200 27.76400
C  36.95800 0.91100 26.99800
C  36.68700 0.77400 25.51700
C  35.11000 0.86200 25.40600
C  34.71300 0.87600 26.91400
C  37.47200 1.67700 24.49300
C  34.28900 -0.07900 24.49500
C  33.15900 0.63800 23.75100
N  33.76600 1.27800 29.68600
C  32.89300 1.37000 28.60200
C  31.56200 1.60200 29.02000
C  31.72700 1.75300 30.39200
C  33.08800 1.55300 30.76700
C  30.37400 1.79000 28.21000
C  30.98100 2.04100 31.65500
O  29.79900 2.18400 31.81400
C  32.02700 2.11000 32.86700
C  32.05400 3.46100 33.46200
O  32.35000 4.47000 32.83000
O  31.55500 3.50500 34.72100
C  31.49700 4.76700 35.35700
H  38.97100 1.34000 33.19300
H  39.02600 0.52200 26.76000
H  32.59300 1.10500 26.52700
H  34.36700 2.58400 34.61600
H  36.92300 1.32600 35.03800
H  37.41500 3.53400 35.36200
H  35.90800 4.07000 34.73200
H  37.38200 3.91700 33.65800
H  35.12700 -0.26500 35.05100
H  33.47500 -0.01200 34.52200
H  34.00600 -0.61900 36.82300
H  32.91000 0.76000 36.52000
H  42.03600 0.82400 31.34100
H  41.52200 -0.66000 32.01000
H  40.94100 0.89900 32.65800
H  43.35000 -0.47700 28.20700
H  42.52700 -0.85700 29.73500
H  43.00200 0.82400 29.27400
H  36.98600 -0.25900 25.33600
H  34.86000 1.89300 25.15700
H  38.12400 2.30400 25.10100
H  36.79200 2.26700 23.87900
H  37.94200 0.91100 23.87600
H  33.86500 -0.91300 25.05300
H  34.95900 -0.41900 23.70500
H  33.56600 1.30300 22.98900
H  32.47100 1.24300 24.34200
H  32.62300 -0.16300 23.24100
H  30.61900 2.20600 27.23300
H  29.73700 2.57300 28.62100
H  29.80300 0.89100 27.97600
H  31.78000 1.38000 33.63700
H  32.28400 4.68700 36.10600
H  30.55100 4.82500 35.89600
H  31.56700 5.54900 34.60100
Mg 47.39800 14.81000 27.81600
C  45.38600 14.77300 30.75900
C  49.44900 16.98000 29.42500
C  48.87100 15.19600 24.95900
C  44.70000 13.23000 26.13000
N  47.35600 15.68100 29.94200
C  46.55600 15.54000 31.00200
C  47.12600 15.97200 32.32800
C  48.37500 16.77300 31.81500
C  48.42900 16.48500 30.28000
C  48.29200 18.34800 32.13300
C  47.36800 14.81800 33.30000
C  47.00700 15.12700 34.76800
H  46.94100 16.61900 35.27400
N  48.98100 15.87200 27.29000
C  49.72700 16.63000 28.08300
C  50.87700 17.22200 27.39000
C  50.85300 16.70300 26.08300
C  49.51500 15.88700 26.00300
C  51.89400 18.12000 28.10700
C  51.88900 16.77800 24.94500
O  51.63000 16.20500 23.87200
C  53.23400 17.49500 25.01200
N  46.75700 14.41100 25.80400
C  47.66000 14.57800 24.85000
C  47.18600 13.96900 23.52300
C  45.74700 13.38500 23.85800
C  45.70200 13.73400 25.35500
C  47.33900 14.80500 22.20200
C  45.47900 12.06100 23.30500
C  46.12100 10.88800 24.04300
N  45.57300 13.95400 28.35200
C  44.58800 13.36700 27.51400
C  43.47400 13.07800 28.36300
C  43.71500 13.61400 29.64200
C  44.98700 14.18100 29.57000
C  42.21600 12.28400 27.98200
C  43.12400 13.79700 30.94300
O  42.03800 13.52200 31.36600
C  44.28500 14.44800 31.79900
C  43.69600 15.67300 32.53400
O  43.54500 16.82500 32.15100
O  43.34400 15.23300 33.76900
C  42.68500 16.23800 34.57800
H  50.25600 17.37200 30.04700
H  49.40300 15.27100 24.00900
H  43.92300 12.63600 25.64300
H  46.52100 16.74700 32.79900
H  49.23000 16.39600 32.37400
H  48.04400 18.98100 31.28100
H  49.29300 18.59800 32.48400
H  47.65100 18.46700 33.00700
H  48.44800 14.75700 33.16000
H  46.92000 13.86800 33.00900
H  47.71000 14.58100 35.39700
H  45.98500 14.76000 34.85800
H  52.30600 18.89500 27.46100
H  52.71400 17.55600 28.55100
H  51.28100 18.65300 28.83400
H  53.80700 16.80100 25.62800
H  53.04400 18.45400 25.49300
H  53.69100 17.51900 24.02300
H  47.79000 13.06700 23.42300
H  45.00600 13.94400 23.28600
H  46.90700 14.25100 21.36800
H  48.37500 15.10300 22.04200
H  46.69800 15.67700 22.33600
H  45.73300 12.14500 22.24800
H  44.41300 11.94600 23.50300
H  45.41300 10.18200 24.47700
H  46.81500 11.23300 24.80900
H  46.58000 10.29600 23.25100
H  42.24400 11.34200 28.52900
H  42.14400 12.09600 26.91100
H  41.35900 12.92000 28.20300
H  44.63500 13.75200 32.56100
H  41.82700 16.69900 34.08700
H  43.24800 17.11200 34.90400
H  42.34500 15.88500 35.55200

