158

Mg 17.35900 -2.50300 28.50100
C  16.68000 -0.27000 31.25200
C  19.04400 -4.34300 30.66700
C  18.40500 -4.07300 25.88200
C  15.88800 0.01900 26.33000
N  17.62600 -2.35500 30.73300
C  17.24400 -1.44200 31.68900
C  17.68300 -1.78700 33.07300
C  18.73100 -2.91500 32.80800
C  18.44700 -3.24700 31.30500
C  20.19200 -2.68100 33.08500
C  16.51000 -2.17200 33.91200
C  16.57400 -1.80600 35.38000
H  17.90100 -1.30500 35.95400
N  18.38800 -4.22100 28.37100
C  19.03300 -4.87700 29.36300
C  19.68400 -6.01400 28.79400
C  19.44800 -5.97600 27.38800
C  18.73300 -4.70400 27.11600
C  20.46400 -6.94300 29.69800
C  19.84900 -7.04100 26.32800
O  19.57400 -6.99800 25.11200
C  20.70600 -8.17500 26.76700
N  17.03800 -2.08800 26.37900
C  17.65600 -2.88400 25.52300
C  17.62400 -2.36000 24.11400
C  16.64400 -1.16300 24.14900
C  16.49300 -1.08000 25.68200
C  19.05600 -2.14000 23.57700
C  15.27100 -1.45600 23.45900
C  14.68200 -0.39400 22.49700
N  16.43700 -0.62400 28.71000
C  15.89800 0.20500 27.72400
C  15.33700 1.39400 28.34300
C  15.56000 1.27700 29.69500
C  16.26800 0.01100 29.86200
C  14.60900 2.52500 27.64600
C  15.48100 1.92000 30.98600
O  15.03400 3.07200 31.18800
C  16.16500 0.96900 32.09400
C  17.27300 1.60900 32.77600
O  18.48200 1.63000 32.58900
O  16.75200 2.21900 33.97300
C  17.59900 2.79300 35.04500
H  19.82400 -4.72700 31.32800
H  18.95700 -4.57400 25.08400
H  15.40800 0.74000 25.66500
H  18.28000 -1.01100 33.55200
H  18.49800 -3.82500 33.36000
H  20.74600 -2.47900 32.16800
H  20.78000 -3.54900 33.38300
H  20.36300 -1.87700 33.80100
H  16.38500 -3.24600 33.77300
H  15.60400 -1.79100 33.43900
H  16.29500 -2.73500 35.87600
H  15.81200 -1.05200 35.57600
H  21.38700 -7.27100 29.21900
H  19.84300 -7.81300 29.91200
H  20.57300 -6.42300 30.65000
H  20.24700 -8.75800 27.56500
H  21.69700 -7.92900 27.15000
H  20.80700 -8.93100 25.98800
H  17.23100 -3.15200 23.47600
H  17.17600 -0.28700 23.77800
H  19.22200 -1.15700 23.13500
H  19.35900 -2.86500 22.82200
H  19.77700 -2.16900 24.39400
H  14.57600 -1.66500 24.27200
H  15.26700 -2.33800 22.82000
H  13.94200 0.20800 23.02400
H  14.29300 -0.94100 21.63900
H  15.44500 0.31700 22.17900
H  13.73000 2.89300 28.17500
H  14.25100 2.23900 26.65800
H  15.35000 3.31100 27.49700
H  15.38500 0.71100 32.81100
H  17.05300 3.65500 35.42800
H  18.54800 3.20300 34.69900
H  17.67100 2.11100 35.89200
Mg -9.51700 17.68900 42.24100
C  -6.16300 17.27100 42.55400
C  -9.11200 20.96800 41.45200
C  -12.85500 17.89300 41.40800
C  -9.85800 14.16400 42.20800
N  -7.81400 18.92300 42.07000
C  -6.52300 18.61200 42.36600
C  -5.59300 19.87100 42.27300
C  -6.64400 20.99600 42.29400
C  -7.95700 20.26800 41.91000
C  -6.73400 21.72400 43.70700
C  -4.70000 19.84400 40.94700
C  -5.03200 18.77000 39.91000
H  -4.62000 19.15300 38.52800
N  -10.78100 19.25000 41.57400
C  -10.39200 20.46100 41.20600
C  -11.55000 21.26600 40.82000
C  -12.68600 20.46600 40.91900
C  -12.12600 19.12100 41.29700
C  -11.41500 22.73500 40.40200
C  -14.11000 20.87000 40.76700
O  -14.42800 22.04100 40.52400
C  -15.38300 19.94700 40.93800
N  -11.10100 16.26200 41.84600
C  -12.39300 16.63100 41.74800
C  -13.35400 15.45900 41.72300
C  -12.36200 14.22500 41.84100
C  -10.95900 14.88200 41.98500
C  -14.36700 15.47600 42.87700
C  -12.33400 13.39100 40.46700
C  -12.83600 11.86900 40.51200
N  -8.28100 16.03400 42.40400
C  -8.55400 14.67000 42.45100
C  -7.30600 13.97600 42.67900
C  -6.33800 14.93300 42.85300
C  -7.01100 16.17000 42.64200
C  -7.09800 12.47000 42.74100
C  -4.94600 15.28400 43.04500
O  -3.96400 14.58000 43.12200
C  -4.79500 16.85000 42.99400
C  -4.43300 17.33100 44.35000
O  -3.43600 17.99300 44.54300
O  -5.41300 16.96900 45.25200
C  -5.08100 17.28600 46.71100
H  -9.08700 22.05900 41.42800
H  -13.86500 17.81900 41.00000
H  -10.00000 13.08400 42.27700
H  -4.81900 19.90600 43.04000
H  -6.58300 21.70400 41.46700
H  -5.91100 21.58700 44.40900
H  -7.68500 21.50100 44.19000
H  -6.60800 22.78000 43.46700
H  -3.68300 19.70800 41.31400
H  -4.90200 20.82000 40.50400
H  -6.08100 18.47300 39.90500
H  -4.51000 17.83800 40.12600
H  -10.75800 22.80200 39.53500
H  -11.12800 23.32800 41.27100
H  -12.34300 23.23800 40.12700
H  -15.45700 19.02300 40.36500
H  -16.21200 20.57300 40.60800
H  -15.50000 19.72700 41.99900
H  -14.02200 15.46200 40.86200
H  -12.70400 13.61500 42.67700
H  -14.52000 14.53200 43.39900
H  -15.31600 15.85600 42.49900
H  -14.00400 16.15000 43.65300
H  -11.31700 13.34700 40.07700
H  -12.89900 13.92900 39.70500
H  -13.13400 11.61300 41.52900
H  -12.00700 11.24300 40.18000
H  -13.71100 11.93600 39.86600
H  -7.37500 12.34700 43.78800
H  -6.08800 12.14200 42.49700
H  -7.72400 11.77700 42.17900
H  -4.05500 17.12700 42.24300
H  -5.96400 17.80000 47.09200
H  -4.26100 17.99600 46.81900
H  -4.91200 16.33600 47.21700

