158

Mg 2.81400 -0.35500 43.74900
C  6.27100 -0.17400 43.13000
C  2.43400 2.71200 42.09700
C  -0.45000 -1.08200 43.32600
C  3.31100 -3.58800 44.83900
N  4.23000 0.98700 42.73300
C  5.54900 0.90100 42.66000
C  6.13300 2.27000 42.13100
C  4.93900 3.18700 42.07000
C  3.76800 2.17400 42.23700
C  4.86100 4.26800 43.20300
C  6.85000 2.07700 40.74000
C  6.03800 1.32500 39.63800
H  5.97000 1.99700 38.26400
N  1.17100 0.83400 42.96300
C  1.21700 2.05800 42.39400
C  -0.17800 2.42700 42.05300
C  -0.99100 1.26500 42.35100
C  -0.07200 0.24100 42.87600
C  -0.59300 3.73900 41.42600
C  -2.44700 1.13100 42.00600
O  -2.99300 2.19000 41.72800
C  -3.26300 -0.15000 42.11200
N  1.66500 -2.02400 43.93200
C  0.32800 -2.13600 43.85000
C  -0.25500 -3.53400 44.09400
C  0.99100 -4.29800 44.61900
C  2.07100 -3.22800 44.45500
C  -1.53500 -3.51500 44.99100
C  1.33100 -5.74900 44.11800
C  1.46100 -6.88300 45.24100
N  4.43000 -1.64000 44.08500
C  4.44200 -2.86900 44.62700
C  5.84500 -3.31700 44.80700
C  6.62000 -2.29200 44.28600
C  5.71700 -1.28800 43.82700
C  6.35100 -4.60900 45.23100
C  7.99800 -1.76700 43.92100
O  9.09200 -2.24900 44.19200
C  7.82800 -0.44300 43.10800
C  8.66500 0.73900 43.69000
O  9.77800 1.07200 43.26800
O  8.05900 1.26200 44.70100
C  8.74800 2.34800 45.41800
H  2.15300 3.68200 41.68100
H  -1.49400 -1.36800 43.18200
H  3.48700 -4.53500 45.35300
H  6.88200 2.56800 42.86500
H  4.84500 3.59900 41.06500
H  4.49100 3.92500 44.16900
H  4.44900 5.14300 42.70100
H  5.89800 4.53400 43.40900
H  7.81700 1.63000 40.97200
H  7.06300 3.06700 40.33600
H  5.00900 1.16500 39.95800
H  6.40000 0.31600 39.44100
H  -0.66100 3.65700 40.34100
H  0.09900 4.53900 41.68900
H  -1.49900 4.05200 41.94500
H  -3.32000 -0.34700 43.18200
H  -2.67200 -0.86800 41.54300
H  -4.27600 -0.12500 41.70900
H  -0.58300 -3.98700 43.15800
H  1.11400 -4.28300 45.70200
H  -1.58600 -2.65100 45.65400
H  -1.51600 -4.41200 45.61000
H  -2.43600 -3.51000 44.37600
H  2.28300 -5.70000 43.59000
H  0.59800 -6.02900 43.36100
H  0.49800 -7.38700 45.32700
H  1.57000 -6.30200 46.15700
H  2.29800 -7.55900 45.07200
H  5.70600 -5.12700 45.94000
H  7.36300 -4.55200 45.63100
H  6.39200 -5.30100 44.39000
H  8.20000 -0.42200 42.08300
H  8.89900 3.18800 44.74000
H  9.76500 2.11100 45.73100
H  8.04100 2.80100 46.11300
Mg 35.67600 1.54600 29.59500
C  33.37600 2.15800 32.09100
C  38.17400 1.75900 31.90000
C  37.84400 0.71900 27.15600
C  33.19700 2.13900 27.21200
N  35.76400 1.83900 31.73300
C  34.70100 1.91800 32.54200
C  35.11200 2.02300 34.04400
C  36.68600 2.14100 33.96800
C  36.89900 1.88400 32.47200
C  37.37300 3.44300 34.62300
C  34.68000 0.76100 34.88400
C  34.64000 0.86700 36.39200
H  35.38600 2.04200 37.10100
N  37.76200 1.24000 29.52900
C  38.56700 1.44500 30.58600
C  39.93800 1.05800 30.31400
C  39.83600 0.66100 28.88800
C  38.43700 0.85800 28.45200
C  41.14500 1.06600 31.17900
C  40.90800 0.20100 27.96200
O  40.75100 -0.10100 26.76800
C  42.38700 0.20000 28.36600
N  35.58400 1.60200 27.51700
C  36.54600 1.08300 26.75300
C  36.15900 1.20100 25.24600
C  34.73800 1.60100 25.29100
C  34.48800 1.85400 26.74800
C  37.05900 2.19000 24.51100
C  33.78400 0.61000 24.65000
C  33.51900 -0.65500 25.53000
N  33.71100 2.18500 29.57200
C  32.83800 2.33100 28.53300
C  31.46800 2.72400 29.09900
C  31.71900 2.70800 30.51700
C  33.01800 2.31200 30.71800
C  30.21400 2.96500 28.17600
C  31.03200 2.85200 31.76400
O  29.86800 3.03500 32.03200
C  32.11100 2.47500 32.84000
C  32.22000 3.70400 33.62600
O  32.68400 4.75600 33.19300
O  31.65400 3.53800 34.88600
C  31.62900 4.64700 35.87100
H  38.94700 1.77000 32.67100
H  38.56100 0.49600 26.36300
H  32.43300 2.41900 26.48400
H  34.66200 2.90500 34.50000
H  37.07000 1.27700 34.51100
H  38.04000 3.21700 35.45500
H  36.60700 4.20700 34.75800
H  38.00900 3.85100 33.83800
H  35.31300 -0.10800 34.70400
H  33.67500 0.44600 34.60200
H  34.92200 -0.07300 36.86500
H  33.60900 0.97100 36.73100
H  41.63500 2.04000 31.20700
H  41.96100 0.38100 30.94800
H  40.66800 0.90900 32.14600
H  42.54300 1.15300 28.87100
H  42.99600 0.17500 27.46200
H  42.69400 -0.61900 29.01700
H  36.29900 0.19600 24.84900
H  34.54400 2.56700 24.82600
H  36.40100 2.88900 23.99500
H  37.65000 1.58400 23.82400
H  37.79500 2.67600 25.15000
H  34.20500 0.22000 23.72300
H  32.89300 1.21200 24.46900
H  32.48100 -0.71500 25.85500
H  34.28300 -0.68100 26.30700
H  33.59500 -1.45200 24.79100
H  29.33100 2.36900 28.40900
H  30.48500 2.91500 27.12200
H  29.77800 3.92900 28.43700
H  31.79200 1.65000 33.47600
H  30.81200 4.38500 36.54300
H  31.54400 5.60600 35.35900
H  32.55600 4.70500 36.44300

