158

Mg 34.87400 1.95100 29.30000
C  33.00500 3.21400 31.94700
C  37.66500 2.03300 31.50700
C  36.90500 1.41800 26.75300
C  32.30900 2.80700 27.09100
N  35.19800 2.40300 31.52500
C  34.29000 2.89200 32.42100
C  34.90800 3.09100 33.85200
C  36.40600 2.73900 33.61200
C  36.46000 2.36000 32.11300
C  37.40800 3.84500 34.07500
C  34.18800 2.19800 34.92300
C  33.71500 2.78900 36.18600
H  34.59300 3.81900 36.91000
N  36.95300 1.46600 29.20600
C  37.88700 1.58900 30.18400
C  39.06500 1.10400 29.68100
C  38.94400 0.84100 28.31400
C  37.53600 1.26000 28.00900
C  40.27500 1.10900 30.54300
C  39.91300 0.35200 27.32700
O  39.68700 0.20200 26.13900
C  41.37700 0.11400 27.75900
N  34.66500 2.05800 27.20800
C  35.64100 1.77000 26.35100
C  35.19700 2.13300 24.92700
C  33.65900 2.19600 25.03800
C  33.48200 2.33800 26.52100
C  36.01500 3.27300 24.21400
C  32.84900 1.02800 24.36000
C  32.75900 -0.26000 25.24900
N  33.06600 2.93600 29.39300
C  32.12400 3.19400 28.45600
C  30.98600 3.84800 29.04200
C  31.27100 3.85100 30.41300
C  32.60500 3.33800 30.58400
C  29.75500 4.22800 28.36100
C  30.74600 4.13400 31.67900
O  29.67500 4.65400 32.05500
C  31.94300 3.87200 32.70300
C  32.32900 5.14200 33.41900
O  33.10000 5.94900 32.92100
O  31.72200 5.30900 34.63700
C  31.89300 6.69400 35.12200
H  38.48100 2.11800 32.22800
H  37.47300 1.37300 25.82100
H  31.48600 2.96200 26.39100
H  34.88200 4.14500 34.12900
H  36.78500 1.88500 34.17300
H  37.99100 4.18400 33.21800
H  38.01700 3.33300 34.82000
H  36.83000 4.71100 34.39700
H  34.68300 1.26400 35.19100
H  33.22500 1.98100 34.46200
H  33.53600 2.02800 36.94600
H  32.75100 3.26800 36.01400
H  40.42500 2.04300 31.08400
H  41.25400 0.86000 30.13200
H  40.22700 0.30300 31.27500
H  41.29900 -0.76100 28.40400
H  41.70600 1.07700 28.15000
H  41.97900 -0.13300 26.88500
H  35.42400 1.21000 24.39400
H  33.16900 3.07900 24.62700
H  36.53800 2.90000 23.33300
H  36.78200 3.65100 24.89000
H  35.27100 3.98200 23.85200
H  33.32100 0.61300 23.47000
H  31.83300 1.32300 24.09700
H  33.05200 -1.15000 24.69200
H  31.75200 -0.45900 25.61600
H  33.45600 -0.15300 26.08100
H  29.17000 3.32700 28.17800
H  29.94500 4.78400 27.44400
H  29.20900 4.88200 29.04100
H  31.60400 3.13100 33.42700
H  32.05900 7.46100 34.36600
H  32.68300 6.60800 35.86800
H  31.06600 6.92400 35.79400
Mg 49.35500 46.73100 42.35900
C  46.05000 47.15000 41.14800
C  49.39000 43.59800 40.92900
C  52.60100 46.66800 42.96800
C  49.06600 50.05000 43.61400
N  47.82500 45.41400 41.14300
C  46.56600 45.89800 40.71000
C  45.89600 44.85500 39.83200
C  46.94100 43.63200 39.85000
C  48.13600 44.19000 40.72900
C  46.41800 42.31100 40.37600
C  45.47200 45.41600 38.41800
C  44.10900 45.02500 37.92800
H  43.98100 44.83300 36.45400
N  50.75700 45.31000 42.14500
C  50.56900 44.10000 41.54100
C  51.72700 43.25800 41.74800
C  52.69200 44.08900 42.33900
C  52.04800 45.41900 42.52500
C  51.70000 41.77500 41.31000
C  54.12400 43.58600 42.75400
O  54.53700 42.46000 42.60600
C  55.02500 44.50800 43.59000
N  50.59500 48.16800 43.19700
C  51.90900 47.89700 43.27900
C  52.70100 49.17100 43.67400
C  51.52900 50.14300 44.15800
C  50.30700 49.42600 43.64500
C  53.77900 48.94300 44.76900
C  51.69900 51.56900 43.65600
C  51.79600 52.70200 44.64500
N  47.93800 48.24200 42.42600
C  47.89400 49.43400 43.03200
C  46.70400 50.17400 42.85900
C  45.88300 49.25500 42.16300
C  46.75400 48.14200 41.86800
C  46.33100 51.49900 43.32700
C  44.52500 49.07900 41.64000
O  43.49700 49.77500 41.60600
C  44.60200 47.64000 40.96400
C  43.58000 46.80200 41.64000
O  43.48300 46.72700 42.83400
O  42.64000 46.21000 40.77900
C  41.37900 45.84400 41.36000
H  49.46500 42.63400 40.42100
H  53.68800 46.59200 43.03900
H  49.02600 51.11200 43.86500
H  45.06600 44.54200 40.46500
H  47.29400 43.51600 38.82500
H  45.49200 42.49500 40.92100
H  47.11400 41.74000 40.99100
H  46.21500 41.64100 39.54100
H  46.14800 44.90300 37.73400
H  45.58100 46.49900 38.35300
H  43.41300 45.80900 38.22500
H  43.92000 44.16100 38.56600
H  51.60200 41.66800 40.23000
H  50.73400 41.29800 41.47600
H  52.44200 41.09300 41.72400
H  55.44000 45.26000 42.91900
H  55.88800 44.03200 44.05600
H  54.45400 45.03500 44.35400
H  53.17600 49.56700 42.77600
H  51.38400 50.12800 45.23900
H  53.65400 49.58100 45.64400
H  54.82800 49.00700 44.48000
H  53.63000 47.96000 45.21700
H  50.95200 51.74100 42.88100
H  52.59900 51.74600 43.06800
H  51.78800 52.26300 45.64200
H  51.03200 53.47300 44.53600
H  52.75200 53.21600 44.54400
H  45.25900 51.30500 43.36100
H  46.64700 52.14800 42.51100
H  46.86800 51.82600 44.21700
H  44.17900 47.69200 39.96000
H  40.76100 45.48200 40.53900
H  40.94600 46.65600 41.94400
H  41.50100 44.95300 41.97600

