158

Mg 0.02500 7.71800 24.64100
C  1.09500 9.55700 27.43500
C  0.00300 4.95400 26.58300
C  -0.77800 5.95100 21.89900
C  0.62500 10.62800 22.62600
N  0.51400 7.31200 26.87200
C  0.86200 8.22100 27.76400
C  0.99600 7.55000 29.12200
C  0.68100 6.01500 28.81900
C  0.40500 6.05100 27.33500
C  1.68700 4.94300 29.31700
C  0.05400 8.02500 30.27400
C  0.65400 8.35000 31.63800
H  1.90600 7.50600 32.06700
N  -0.32700 5.69800 24.29000
C  -0.27400 4.73000 25.21900
C  -0.58200 3.44000 24.58100
C  -0.78300 3.70400 23.19500
C  -0.67800 5.16300 23.08100
C  -0.46700 2.08000 25.30800
C  -1.03100 2.69700 22.09200
O  -1.21500 2.96800 20.88000
C  -0.90100 1.28800 22.34100
N  -0.02100 8.26800 22.62000
C  -0.40600 7.33900 21.70300
C  -0.57400 8.04300 20.30900
C  0.03900 9.42500 20.56900
C  0.24000 9.43900 22.02900
C  -0.00100 7.22300 19.09900
C  -0.94400 10.60800 20.02000
C  -2.10400 11.11200 20.91700
N  0.69100 9.70200 24.91000
C  0.87400 10.80500 24.06900
C  1.24100 11.96700 24.76800
C  1.31500 11.55800 26.13300
C  1.02500 10.16500 26.11800
C  1.49200 13.30000 24.22100
C  1.62700 12.00400 27.47000
O  1.90100 13.16800 27.79200
C  1.48500 10.69000 28.39700
C  2.71600 10.50500 29.18000
O  3.58000 9.72700 28.83300
O  2.71600 11.20900 30.32100
C  4.03500 11.04700 31.02900
H  -0.19600 4.11500 27.25300
H  -0.97900 5.41800 20.96700
H  0.72400 11.55300 22.05400
H  2.05900 7.54800 29.35900
H  -0.29400 5.76300 29.23600
H  2.20900 4.47400 28.48300
H  1.26800 4.05900 29.79900
H  2.50100 5.33200 29.92800
H  -0.83600 7.40100 30.35100
H  -0.27500 8.99600 29.90500
H  -0.02800 8.06200 32.43700
H  0.88100 9.39700 31.84000
H  -0.15300 2.11000 26.35200
H  0.21100 1.43400 24.75200
H  -1.42700 1.56200 25.29700
H  -1.01400 0.70300 21.42800
H  -1.63500 0.89700 23.04600
H  0.09400 0.94600 22.62600
H  -1.65800 8.07100 20.19600
H  1.03500 9.55900 20.14600
H  0.25400 6.22400 19.45200
H  0.81400 7.81000 18.67600
H  -0.64800 7.08600 18.23300
H  -1.40900 10.18400 19.13100
H  -0.30600 11.43500 19.70800
H  -1.77700 12.08700 21.27700
H  -2.35700 10.50800 21.78700
H  -2.99600 11.25900 20.30900
H  1.35000 13.22400 23.14300
H  2.43400 13.75400 24.52900
H  0.72200 13.93300 24.66100
H  0.68800 10.92600 29.10200
H  4.86600 11.57700 30.56400
H  4.35300 10.00700 31.10800
H  3.95700 11.36800 32.06700
Mg 54.29800 24.31100 44.68800
C  51.58600 26.31500 43.75100
C  52.34000 21.61100 43.61900
C  56.97600 22.39200 44.96900
C  56.03900 27.17700 45.53300
N  52.34100 24.03400 43.57100
C  51.41700 25.00000 43.29300
C  50.18500 24.43000 42.51000
C  50.21400 23.04400 43.24400
C  51.73900 22.86300 43.48600
C  49.28300 22.90100 44.51700
C  50.54900 24.36400 40.97000
C  49.42800 24.34600 39.94600
H  49.74000 24.94100 38.52400
N  54.60600 22.33000 44.26100
C  53.71400 21.38500 43.87300
C  54.36800 20.15900 43.90500
C  55.69100 20.22700 44.43900
C  55.84100 21.67000 44.54900
C  53.80400 18.92800 43.39700
C  56.80300 19.08700 44.64900
O  56.59200 17.97800 44.18200
C  57.95000 19.40900 45.44800
N  56.28100 24.77900 45.02400
C  57.17900 23.81200 45.28000
C  58.50600 24.37100 45.81700
C  58.09300 25.88700 46.13300
C  56.68900 25.97600 45.50500
C  59.05000 23.60000 46.95600
C  59.20600 26.95000 45.75800
C  59.02100 27.71300 44.43900
N  53.88500 26.30100 44.79500
C  54.67400 27.36500 45.21100
C  53.93400 28.61400 45.15000
C  52.71100 28.20800 44.62400
C  52.72200 26.82700 44.39100
C  54.34800 30.01500 45.54500
C  51.40000 28.73200 44.02800
O  50.94700 29.85200 43.88400
C  50.58600 27.45700 43.62700
C  50.05200 27.68700 42.24600
O  50.62700 27.66900 41.23100
O  48.71900 27.89100 42.43000
C  47.98700 28.00600 41.18200
H  51.62500 20.79600 43.48600
H  57.90300 21.92200 45.30200
H  56.64700 28.01300 45.88500
H  49.28700 24.99900 42.75200
H  49.89200 22.38500 42.43700
H  48.50200 22.15400 44.37900
H  48.76800 23.85900 44.59300
H  49.65800 22.71000 45.52200
H  51.08400 23.42800 40.81100
H  51.31200 25.07900 40.66200
H  48.70800 25.06100 40.34500
H  48.96900 23.35700 39.93400
H  54.42400 18.37800 42.68900
H  52.88400 18.99500 42.81500
H  53.50200 18.29100 44.22900
H  57.71700 19.98600 46.34300
H  58.74100 19.88000 44.86400
H  58.47300 18.49100 45.71500
H  59.26300 24.42500 45.03400
H  57.99800 26.01500 47.21200
H  58.38700 22.79000 47.25900
H  59.42300 24.26600 47.73300
H  59.90500 23.04500 46.57000
H  60.21100 26.52700 45.78100
H  59.15500 27.65900 46.58300
H  58.04500 27.46900 44.01900
H  59.83100 27.61600 43.71700
H  58.92900 28.79400 44.54300
H  54.92500 30.43700 44.72300
H  55.04100 29.92900 46.38200
H  53.43000 30.53300 45.82300
H  49.76300 27.27300 44.31800
H  48.59700 28.65500 40.55500
H  47.01000 28.46100 41.34400
H  47.87300 27.06100 40.65100

