158

Mg 46.47700 17.02700 29.00400
C  44.83500 16.48300 31.98300
C  48.80600 18.97900 30.68000
C  47.80000 18.11500 25.98700
C  43.82600 15.58500 27.28500
N  46.80800 17.56800 31.13200
C  46.04100 17.16100 32.15400
C  46.56600 17.68900 33.47400
C  47.73300 18.71700 32.98700
C  47.82000 18.42400 31.52500
C  47.45600 20.24900 33.18500
C  47.13400 16.51100 34.34200
C  47.40500 16.82400 35.78100
H  46.99600 18.19100 36.34700
N  48.20000 18.13500 28.46800
C  49.09900 18.79500 29.26300
C  50.17900 19.28000 28.51300
C  49.83600 19.12900 27.11100
C  48.54600 18.45600 27.13800
C  51.37600 19.85000 29.18500
C  50.62800 19.49800 25.84800
O  50.12500 19.41900 24.69700
C  52.04100 20.09200 26.00800
N  45.96300 16.86300 26.99800
C  46.59000 17.42100 25.91500
C  45.97500 17.04400 24.62500
C  44.80300 16.14500 25.00500
C  44.89600 16.12300 26.53500
C  45.46300 18.12300 23.64100
C  44.82400 14.72800 24.44600
C  45.53400 13.75800 25.29800
N  44.77400 16.08700 29.47500
C  43.83100 15.49900 28.70300
C  42.72800 14.98200 29.48700
C  43.09000 15.38200 30.81800
C  44.29400 16.07800 30.75300
C  41.51900 14.28600 29.02100
C  42.72900 15.38800 32.20000
O  41.70700 15.09200 32.78500
C  43.79700 16.15500 32.99300
C  43.08400 17.32600 33.66000
O  42.67600 18.32200 33.13000
O  43.10900 17.13200 35.03200
C  42.47400 18.20700 35.86400
H  49.51500 19.63100 31.19500
H  48.09700 18.30200 24.95300
H  43.01800 15.09500 26.73700
H  45.77700 18.28100 33.93800
H  48.71100 18.53000 33.43000
H  46.59100 20.31600 33.84500
H  47.29100 20.66700 32.19200
H  48.22800 20.80700 33.71400
H  48.09600 16.30300 33.87500
H  46.45100 15.67600 34.18700
H  48.48300 16.78900 35.93800
H  46.97900 15.98400 36.32900
H  51.52800 19.56000 30.22500
H  51.43000 20.93800 29.22300
H  52.25100 19.43800 28.68300
H  52.01700 21.06800 26.49400
H  52.61300 20.12500 25.08100
H  52.65800 19.37600 26.55100
H  46.77700 16.44400 24.19500
H  43.83000 16.56600 24.75300
H  46.15400 18.96500 23.61000
H  44.47800 18.56600 23.78900
H  45.39800 17.65700 22.65800
H  45.23100 14.62300 23.44000
H  43.78400 14.44000 24.29100
H  46.47500 14.20400 25.62000
H  45.95400 13.02900 24.60500
H  45.00000 13.27100 26.11400
H  41.70800 13.26200 28.69800
H  41.01200 14.94200 28.31300
H  40.90800 14.12100 29.90800
H  44.16400 15.39000 33.67700
H  41.40000 18.03100 35.92100
H  42.77700 19.19700 35.52300
H  42.85200 18.26600 36.88400
Mg 9.24700 48.53400 25.22900
C  7.09800 48.85400 28.07600
C  11.76300 49.74800 27.14600
C  11.16900 48.53600 22.46400
C  6.40000 47.82700 23.26700
N  9.31900 49.33700 27.34400
C  8.40700 49.24600 28.32200
C  8.97900 49.82300 29.69900
C  10.36000 50.37600 29.24400
C  10.51400 49.74700 27.79500
C  10.64600 51.97500 29.18900
C  9.06500 48.73100 30.83200
C  9.88900 49.01700 32.03200
H  9.38500 48.43500 33.34400
N  11.27200 49.05700 24.86000
C  12.13100 49.46800 25.83100
C  13.39700 49.52300 25.26200
C  13.30800 49.18000 23.84800
C  11.90800 48.91700 23.64800
C  14.54800 49.88300 26.18500
C  14.36600 49.04800 22.69700
O  14.01900 48.92900 21.49500
C  15.80500 49.07600 23.08900
N  8.83900 48.24600 23.20700
C  9.79200 48.29100 22.30500
C  9.30000 47.86400 20.90100
C  7.76200 47.45500 21.13900
C  7.63800 47.78200 22.63800
C  9.51300 48.87100 19.77400
C  7.38800 46.01300 20.67500
C  7.78600 44.77800 21.51000
N  7.18000 48.38100 25.56300
C  6.15200 48.13800 24.61900
C  4.83500 48.12200 25.28900
C  5.14900 48.37100 26.67400
C  6.60000 48.57200 26.77500
C  3.52100 47.77200 24.59400
C  4.63200 48.51400 28.03100
O  3.48700 48.39000 28.44800
C  5.80100 48.72700 28.96300
C  5.76700 47.57900 29.90300
O  6.37600 46.55200 29.83200
O  4.76700 47.80700 30.81900
C  4.42700 46.86800 31.82300
H  12.46900 50.27800 27.79000
H  11.66000 48.29900 21.51800
H  5.54900 47.68400 22.59900
H  8.38800 50.63500 30.12300
H  11.17600 49.97600 29.84500
H  11.07200 52.15000 28.20000
H  11.48600 52.15400 29.86100
H  9.72100 52.53100 29.33800
H  9.42400 47.84200 30.31400
H  8.02700 48.46300 31.03100
H  10.22800 50.04000 32.19500
H  10.85100 48.51300 31.94200
H  14.57700 50.95700 26.36900
H  15.54700 49.58300 25.86600
H  14.51600 49.33800 27.12800
H  16.36900 49.10500 22.15700
H  16.08600 48.26600 23.76200
H  15.94900 49.99500 23.65700
H  9.87000 46.96600 20.66200
H  7.10100 48.13600 20.60200
H  9.68900 49.89100 20.11400
H  8.58500 48.98900 19.21400
H  10.26600 48.48400 19.08800
H  7.76700 45.90300 19.65900
H  6.30000 45.96800 20.63100
H  6.99000 44.29500 22.07600
H  8.50100 45.04700 22.28700
H  8.27500 44.00500 20.91600
H  3.44800 46.69300 24.45700
H  3.61100 48.19100 23.59100
H  2.61900 48.19000 25.03800
H  5.70600 49.66900 29.50300
H  3.50400 47.29200 32.22000
H  5.23900 46.81000 32.54900
H  4.02200 45.95800 31.38200

