158

Mg 8.27700 2.88900 27.45000
C  9.58400 1.35400 30.43500
C  6.19200 4.68100 29.47000
C  6.62100 3.80700 24.66500
C  9.97200 0.35000 25.67200
N  8.02900 3.12200 29.72400
C  8.69300 2.42800 30.69800
C  8.36900 3.04300 32.11600
C  7.21900 4.00700 31.75900
C  7.10300 3.91400 30.26500
C  5.85200 3.92300 32.56100
C  9.61700 3.61700 32.91200
C  9.26600 4.56000 33.97600
H  10.12700 4.41600 35.25500
N  6.63300 4.04800 27.10100
C  5.95800 4.74900 28.08900
C  5.03900 5.68100 27.41800
C  5.13500 5.42900 25.97100
C  6.20500 4.46000 25.81100
C  4.16200 6.67600 28.22900
C  4.35800 6.08300 24.84900
O  4.42100 5.80900 23.68600
C  3.30500 7.12800 25.24200
N  8.25500 2.19000 25.45500
C  7.52000 2.77400 24.45200
C  7.98800 2.24500 23.04900
C  9.18100 1.24900 23.47700
C  9.10200 1.17500 24.97200
C  6.90700 1.68500 22.18500
C  10.61400 1.59000 23.02200
C  11.42500 2.53900 23.82600
N  9.59900 1.30400 27.89000
C  10.13500 0.35800 27.03400
C  10.95900 -0.56200 27.79800
C  10.77700 -0.15400 29.12500
C  9.94000 0.90400 29.13500
C  11.65500 -1.74500 27.22200
C  11.16700 -0.56800 30.46500
O  11.85800 -1.54700 30.84100
C  10.40100 0.40400 31.33500
C  9.61800 -0.28300 32.33600
O  8.70600 -1.01300 32.14300
O  10.07800 0.10200 33.60000
C  9.29800 -0.53100 34.65100
H  5.69600 5.32100 30.20200
H  6.19700 4.09500 23.70100
H  10.63800 -0.31900 25.12300
H  8.02300 2.20100 32.71500
H  7.53400 5.00700 32.05800
H  5.01000 3.74900 31.89000
H  5.75400 4.84800 33.12900
H  5.99400 3.06400 33.21600
H  10.33500 4.06000 32.22200
H  10.09800 2.81900 33.47800
H  8.24200 4.31900 34.25900
H  9.31500 5.57900 33.59200
H  4.27600 7.68300 27.83000
H  4.33800 6.48600 29.28800
H  3.19000 6.21500 28.04800
H  2.58300 6.62200 25.88200
H  2.80900 7.38700 24.30600
H  3.81000 8.03600 25.57400
H  8.49200 3.12100 22.63900
H  9.08100 0.29000 22.96800
H  5.96300 1.46400 22.68300
H  7.06000 0.65600 21.86000
H  6.63000 2.30200 21.32900
H  10.50900 2.11700 22.07400
H  11.15600 0.66500 22.82900
H  10.94400 2.80300 24.76800
H  11.59800 3.51100 23.36400
H  12.40800 2.13700 24.07400
H  10.98300 -2.32300 26.58800
H  11.82200 -2.48100 28.00800
H  12.61600 -1.43600 26.81100
H  11.14600 1.04800 31.80100
H  9.08000 -1.57900 34.44700
H  8.32200 -0.06200 34.77300
H  9.89700 -0.43300 35.55700
Mg 35.95400 48.67100 26.09900
C  36.36100 46.75800 29.06900
C  34.74800 51.29500 27.93900
C  35.31900 50.13600 23.33600
C  36.45300 45.45600 24.39500
N  35.64100 48.95300 28.28200
C  35.99400 48.06100 29.28000
C  35.59400 48.70800 30.64600
C  34.68600 49.92400 30.25600
C  34.99800 50.12500 28.75600
C  33.20100 49.73300 30.55000
C  36.89700 49.04200 31.37300
C  37.12600 48.49800 32.77700
H  36.90600 49.49600 33.93500
N  35.32300 50.60000 25.69700
C  34.94100 51.54400 26.60400
C  34.63400 52.74900 25.86000
C  34.89200 52.43200 24.50400
C  35.11600 51.00900 24.46600
C  34.24600 54.05200 26.48700
C  35.01100 53.34700 23.29200
O  35.28600 52.96800 22.16000
C  34.86400 54.88800 23.41600
N  36.09900 47.92300 24.13100
C  35.68800 48.79100 23.17400
C  35.74100 48.12500 21.81600
C  36.11700 46.63100 22.11000
C  36.28600 46.65600 23.63300
C  34.46600 48.14000 20.96800
C  37.53500 46.25300 21.49700
C  37.75000 46.53900 19.99100
N  36.41500 46.53700 26.53600
C  36.61300 45.45500 25.76200
C  36.77500 44.23800 26.62200
C  36.78100 44.73700 27.88800
C  36.49000 46.09800 27.85200
C  36.76400 42.75800 26.16300
C  36.98400 44.32400 29.31200
O  37.31900 43.29100 29.89400
C  36.65300 45.62300 30.05100
C  35.47300 45.14900 30.88900
O  34.30700 45.10500 30.51000
O  35.89200 44.96100 32.20900
C  34.79800 44.85500 33.20000
H  34.22100 52.01400 28.56900
H  35.06500 50.64400 22.40300
H  36.60900 44.46900 23.95600
H  35.04000 47.95600 31.20800
H  35.21900 50.70700 30.79600
H  32.57000 50.31200 29.87600
H  33.02900 50.02000 31.58800
H  33.05600 48.65700 30.45100
H  37.06000 50.11900 31.41700
H  37.74400 48.67700 30.79300
H  38.16300 48.17300 32.86200
H  36.51800 47.59800 32.87000
H  34.34100 53.93300 27.56600
H  33.23400 54.29600 26.16400
H  34.93900 54.80300 26.10600
H  35.66300 55.29600 24.03500
H  33.83800 55.13400 23.69100
H  34.91900 55.19700 22.37200
H  36.51500 48.65000 21.25700
H  35.32400 45.94900 21.80300
H  34.83100 48.33000 19.95800
H  33.73300 48.88100 21.28600
H  33.97000 47.18800 20.77800
H  37.82200 45.24200 21.78600
H  38.19800 47.00800 21.92000
H  36.81300 46.70800 19.46200
H  38.20800 45.63600 19.58700
H  38.48900 47.32100 19.81300
H  37.82200 42.54800 26.00700
H  36.23200 42.78300 25.21200
H  36.18400 42.08400 26.79400
H  37.53000 45.78300 30.67900
H  35.27900 44.83200 34.17700
H  34.16300 43.99600 32.98000
H  34.16000 45.71100 32.97900

