158

Mg 17.35300 52.21800 26.52000
C  19.23800 50.70200 29.01900
C  14.94900 53.13100 28.97600
C  15.47400 53.70800 24.06400
C  19.69800 51.12600 24.12900
N  17.02600 51.75900 28.78000
C  18.02700 51.20700 29.58200
C  17.65400 51.47900 31.06200
C  16.11400 51.84900 30.95200
C  16.04300 52.33400 29.48800
C  15.19900 50.61000 31.05600
C  18.47300 52.67600 31.55300
C  18.69800 52.85500 33.07300
H  17.89800 51.91700 34.04500
N  15.56600 53.34500 26.50900
C  14.70700 53.52700 27.61800
C  13.62200 54.35500 27.19900
C  13.80800 54.66800 25.87900
C  14.95200 53.86800 25.41900
C  12.42200 54.56200 28.11500
C  12.88400 55.48300 24.96700
O  13.10200 55.48000 23.79800
C  11.76600 56.33900 25.44000
N  17.57800 52.27900 24.33100
C  16.59000 52.91000 23.58500
C  16.96500 52.72800 22.06200
C  18.52600 52.28900 22.16100
C  18.59200 51.80500 23.58000
C  15.95000 51.77400 21.44100
C  19.56100 53.46500 22.01200
C  20.64900 53.26900 21.04500
N  19.00600 51.01500 26.44000
C  19.91200 50.68300 25.44100
C  21.09100 50.02300 25.95600
C  20.79700 49.93800 27.38000
C  19.56500 50.62100 27.59900
C  22.34300 49.45400 25.24600
C  21.26700 49.52600 28.68500
O  22.25100 48.81900 28.94600
C  20.38300 50.18400 29.76200
C  20.05400 49.16200 30.83900
O  19.41700 48.09600 30.76600
O  20.83300 49.55900 31.91500
C  20.85600 48.56900 33.04600
H  14.31600 53.53000 29.77100
H  14.94700 54.24000 23.26900
H  20.51000 50.72200 23.52000
H  17.79400 50.57700 31.65700
H  15.77200 52.55700 31.70600
H  14.40800 50.64200 30.30700
H  14.69700 50.51700 32.02000
H  15.77800 49.69500 30.93600
H  18.04700 53.57300 31.10300
H  19.51400 52.54000 31.26000
H  18.65300 53.92500 33.27600
H  19.77900 52.77700 33.18900
H  12.38700 53.78700 28.87900
H  11.44500 54.43600 27.64800
H  12.38500 55.55000 28.57400
H  10.89200 55.78800 25.78800
H  11.47600 57.12400 24.74200
H  12.25500 56.80100 26.29800
H  16.86000 53.70600 21.59200
H  18.84500 51.54000 21.43500
H  15.07900 51.59700 22.07300
H  16.41300 50.80900 21.23900
H  15.57900 52.26300 20.54100
H  20.01600 53.63500 22.98800
H  19.01100 54.40600 22.02000
H  20.56100 52.34700 20.47200
H  21.68400 53.35100 21.37900
H  20.46400 54.08300 20.34500
H  23.22100 49.92200 25.69200
H  22.27700 49.76600 24.20300
H  22.41400 48.36900 25.32100
H  21.04900 50.92200 30.20900
H  21.71000 48.95700 33.60200
H  21.05500 47.53700 32.75700
H  20.01300 48.62600 33.73400
Mg 10.49000 47.74900 26.26800
C  8.68100 47.68100 29.17200
C  13.15200 48.89200 28.10600
C  12.32000 48.07700 23.35100
C  7.73500 46.95900 24.36700
N  10.78500 48.39700 28.37400
C  10.00100 48.10800 29.44000
C  10.61200 48.57900 30.80600
C  11.84700 49.29900 30.26100
C  12.02200 48.73300 28.85000
C  11.75100 50.88300 30.34300
C  10.92300 47.31300 31.74200
C  10.43300 47.47600 33.17400
H  10.48200 46.23900 34.19600
N  12.48800 48.32200 25.78300
C  13.40100 48.72900 26.73200
C  14.68200 48.96800 26.10700
C  14.42300 48.64100 24.70100
C  13.00800 48.32600 24.54200
C  15.83700 49.50500 26.85900
C  15.43300 48.52300 23.57000
O  15.11800 48.04400 22.47100
C  16.84800 48.82800 23.72300
N  10.07800 47.51900 24.12800
C  10.96000 47.79500 23.13800
C  10.39800 47.45200 21.70200
C  8.93000 47.04000 22.08900
C  8.86800 47.19800 23.63100
C  10.48600 48.73800 20.75100
C  8.57000 45.60900 21.66700
C  9.41300 44.44700 22.24500
N  8.60800 47.37400 26.67200
C  7.53500 47.14600 25.76800
C  6.30800 46.92800 26.54600
C  6.72800 47.12800 27.86500
C  8.12300 47.42000 27.88000
C  4.98800 46.71500 25.99300
C  6.23300 47.22000 29.24100
O  5.04800 47.05900 29.65100
C  7.51900 47.65800 30.13800
C  7.67300 46.74000 31.27200
O  8.28600 45.69500 31.31900
O  6.75100 47.06100 32.19100
C  6.37800 46.01700 33.18700
H  13.90400 49.41600 28.70000
H  12.79400 48.16500 22.37200
H  6.80600 46.76200 23.82800
H  9.90500 49.22300 31.32900
H  12.65700 48.93300 30.89200
H  12.13700 51.22600 31.30300
H  10.69500 51.14200 30.42400
H  12.20300 51.52900 29.59000
H  11.98800 47.12800 31.87900
H  10.60400 46.33200 31.38800
H  9.50400 48.03500 33.06700
H  11.22600 48.02600 33.68000
H  15.87800 49.60400 27.94400
H  16.12600 50.46200 26.42500
H  16.54400 48.71200 26.61300
H  17.32400 48.97300 22.75200
H  17.38300 48.00800 24.20100
H  16.86100 49.74500 24.31100
H  10.83600 46.58200 21.21300
H  8.29800 47.75600 21.56400
H  11.07200 48.51100 19.86100
H  10.95800 49.53600 21.32500
H  9.46200 48.98900 20.47400
H  8.67300 45.58800 20.58200
H  7.49200 45.49700 21.78300
H  8.83100 43.87800 22.97000
H  10.22000 44.89100 22.82700
H  9.93600 43.79200 21.54800
H  4.33700 46.18000 26.68400
H  5.07900 46.10600 25.09300
H  4.57300 47.66600 25.65700
H  7.32000 48.63500 30.57900
H  7.06500 45.94500 34.03100
H  6.18900 45.02200 32.78600
H  5.36500 46.30200 33.46900

