158

Mg 24.71800 1.49300 29.53800
C  26.44800 1.14900 32.53600
C  21.83300 1.99300 31.37800
C  23.00500 1.36000 26.69400
C  27.75900 0.63500 27.78600
N  24.19800 1.56300 31.70700
C  25.11900 1.56400 32.69600
C  24.44300 1.87700 34.05400
C  22.94000 2.11200 33.70700
C  22.94200 1.77400 32.18400
C  22.02600 1.19800 34.45700
C  25.00300 3.11500 34.80700
C  25.46500 2.89300 36.20700
H  25.40900 4.03900 37.14100
N  22.70800 1.76100 29.12300
C  21.68800 1.97700 29.98000
C  20.47800 2.03100 29.27900
C  20.78200 1.91000 27.87500
C  22.24400 1.74900 27.84500
C  19.21300 2.33700 29.96400
C  19.79700 1.94100 26.71000
O  20.16100 1.68200 25.52800
C  18.40800 2.16300 26.81200
N  25.36700 1.21200 27.54700
C  24.41000 1.16800 26.54200
C  24.99500 0.66700 25.27300
C  26.48400 0.82100 25.56200
C  26.58700 0.92000 27.02000
C  24.46900 -0.73600 24.99100
C  27.16500 2.01700 24.76800
C  26.48300 3.40400 24.94000
N  26.74600 1.03000 29.99600
C  27.84100 0.76100 29.18900
C  28.98700 0.60100 30.05300
C  28.49200 0.78000 31.34000
C  27.11400 1.04800 31.28600
C  30.37000 0.25000 29.65900
C  28.90200 0.77500 32.67100
O  30.00900 0.66700 33.16400
C  27.61200 0.99600 33.50100
C  27.46100 -0.18200 34.42300
O  26.70700 -1.14900 34.35000
O  28.43600 -0.10300 35.39500
C  28.43400 -1.02800 36.50700
H  21.02900 2.30700 32.04700
H  22.44000 1.13600 25.78700
H  28.67400 0.45100 27.21900
H  24.59300 0.98000 34.65300
H  22.67000 3.13800 33.95600
H  21.57700 0.54500 33.70800
H  21.25600 1.73700 35.00800
H  22.63300 0.57800 35.11700
H  24.32900 3.97100 34.76200
H  25.87000 3.38600 34.20400
H  26.45600 2.44000 36.24600
H  24.89200 2.08900 36.66800
H  19.12100 2.46700 31.04200
H  18.56300 1.54300 29.59500
H  18.80700 3.25500 29.54000
H  18.26100 2.88300 27.61600
H  18.00300 1.18300 27.06600
H  17.88000 2.56200 25.94700
H  24.78800 1.32300 24.42700
H  27.00400 -0.09100 25.26900
H  23.74700 -0.54600 24.19600
H  24.02500 -1.18600 25.87900
H  25.16200 -1.42600 24.51000
H  27.18400 1.72400 23.71800
H  28.19700 2.22600 25.04800
H  25.75900 3.46600 25.75200
H  25.97500 3.68100 24.01600
H  27.25300 4.12600 25.21300
H  30.56500 0.47300 28.61000
H  30.62400 -0.80100 29.79100
H  31.03800 0.78800 30.33300
H  27.74600 1.84100 34.17600
H  27.59700 -0.68800 37.11700
H  29.28200 -1.04800 37.19200
H  28.25800 -2.06000 36.20400
Mg 35.38200 48.60100 25.57000
C  36.08500 46.93500 28.52100
C  34.00500 51.19000 27.35000
C  34.57100 50.28400 22.61700
C  36.58400 45.92300 23.67400
N  34.98400 48.97300 27.70900
C  35.43700 48.15600 28.75100
C  35.16000 48.87900 30.12900
C  34.27700 50.19000 29.77000
C  34.41100 50.13100 28.20900
C  32.75600 50.17100 30.14500
C  36.44900 49.19000 30.92400
C  36.54200 49.18400 32.43500
H  35.22500 49.15900 33.27600
N  34.43500 50.45400 25.07200
C  33.99800 51.41900 25.97900
C  33.58600 52.65400 25.27300
C  33.73600 52.34400 23.86600
C  34.27900 50.95300 23.82600
C  33.01700 53.81300 26.07000
C  33.38600 53.26800 22.69900
O  33.59000 52.99000 21.53100
C  32.86900 54.66000 22.87100
N  35.45200 48.06600 23.50000
C  35.11400 48.97400 22.47900
C  35.37900 48.33800 21.07200
C  36.20100 47.06000 21.37700
C  36.05600 47.00000 22.95200
C  34.06700 48.12400 20.28800
C  37.68700 47.27800 20.96800
C  38.59400 48.09900 21.88800
N  36.17200 46.75400 25.95200
C  36.62900 45.75600 25.11400
C  37.24800 44.68400 25.99400
C  36.94800 45.07700 27.32200
C  36.33400 46.34500 27.26100
C  37.91400 43.48300 25.37000
C  37.16400 44.67200 28.65700
O  37.73600 43.74800 29.10100
C  36.56300 45.93100 29.53700
C  35.51000 45.30700 30.38500
O  34.37700 44.99400 30.03800
O  36.03200 45.15500 31.68000
C  35.12000 44.78900 32.80400
H  33.53600 51.91300 28.02000
H  34.44700 50.84100 21.68600
H  36.98000 45.05000 23.15200
H  34.53600 48.21200 30.72400
H  34.78600 51.11300 30.04700
H  32.17900 50.14800 29.22100
H  32.52600 51.00200 30.81200
H  32.66700 49.26600 30.74700
H  36.76200 50.16300 30.54500
H  37.24200 48.59000 30.47600
H  37.10200 50.02900 32.83600
H  37.12300 48.27200 32.57900
H  32.74600 54.71000 25.51300
H  33.78200 54.01300 26.82100
H  32.09400 53.55000 26.58700
H  31.79600 54.53800 23.02000
H  32.83200 55.02900 21.84600
H  33.44000 55.28500 23.55900
H  35.93500 49.03700 20.44700
H  35.75900 46.18500 20.90000
H  33.79200 47.07100 20.24500
H  34.24500 48.45800 19.26600
H  33.28800 48.62200 20.86600
H  37.79100 47.74200 19.98700
H  37.93900 46.22700 20.82200
H  38.15800 49.09200 21.99600
H  39.50500 48.21500 21.30100
H  38.97300 47.63100 22.79700
H  38.48800 42.98100 26.14800
H  38.45100 43.77200 24.46700
H  37.00100 42.93800 25.13300
H  37.33300 46.43800 30.11800
H  35.22900 45.51600 33.60900
H  35.57000 43.84400 33.10800
H  34.08700 44.61300 32.50200

