158

Mg 1.58500 7.94900 27.58800
C  2.10800 10.02100 30.32900
C  2.01600 5.24200 29.91500
C  1.25300 5.84400 25.07200
C  1.62700 10.58700 25.41900
N  1.94700 7.68700 29.83000
C  1.88000 8.76100 30.70900
C  1.67500 8.25000 32.11900
C  2.19600 6.77900 32.01600
C  1.96400 6.50800 30.48900
C  3.47500 6.19900 32.63000
C  0.26800 8.36300 32.54100
C  -0.12100 8.43100 34.11400
H  1.14400 8.20500 35.09200
N  1.49000 5.83800 27.50000
C  1.77200 4.89500 28.53300
C  1.73800 3.57400 27.87900
C  1.37900 3.67800 26.50500
C  1.33200 5.14200 26.28500
C  2.00000 2.26000 28.61000
C  1.23700 2.57900 25.43900
O  0.95800 2.90100 24.26600
C  1.32500 1.05100 25.75400
N  1.37100 8.17400 25.62400
C  1.29600 7.20200 24.72900
C  1.01400 7.64100 23.29200
C  0.86800 9.21100 23.54400
C  1.24800 9.35200 24.93700
C  2.21400 7.46900 22.27300
C  -0.45600 9.86300 23.00600
C  -0.44400 11.13900 22.24000
N  1.96300 9.93300 27.77000
C  1.96200 10.90000 26.76500
C  2.14600 12.16000 27.39100
C  2.24200 11.90100 28.75900
C  2.05200 10.54000 28.92800
C  2.12800 13.54500 26.68000
C  2.48700 12.48000 30.10600
O  2.78100 13.60300 30.46600
C  2.33600 11.34300 31.16000
C  3.54300 11.26300 32.02200
O  4.65700 11.13700 31.54800
O  3.35500 11.48900 33.42300
C  4.57200 11.68500 34.21400
H  1.94600 4.44700 30.66000
H  1.12500 5.24000 24.17100
H  1.46400 11.45800 24.78000
H  2.31500 8.79800 32.81100
H  1.51400 6.08500 32.50800
H  4.03100 6.98800 33.13500
H  4.20700 5.90000 31.87900
H  3.33700 5.27200 33.18800
H  -0.34200 7.57300 32.10200
H  -0.16300 9.20800 32.00400
H  -0.88500 7.65900 34.20300
H  -0.66400 9.36100 34.27800
H  1.18700 1.61900 28.27000
H  1.90300 2.31200 29.69400
H  2.89600 1.74400 28.26600
H  1.38000 0.43300 24.85900
H  0.43800 0.70500 26.28600
H  2.16900 0.81900 26.40300
H  0.11400 7.13700 22.94000
H  1.59900 9.78900 22.97700
H  1.82100 7.04800 21.34700
H  2.86500 6.72100 22.72600
H  2.81600 8.37000 22.15300
H  -1.10700 10.17000 23.82500
H  -1.05600 9.12900 22.46800
H  -0.83400 10.80300 21.27900
H  0.57400 11.41900 21.97000
H  -1.01700 11.99700 22.59200
H  3.02300 13.82900 26.12800
H  1.88200 14.26500 27.46100
H  1.22100 13.41000 26.09000
H  1.52300 11.56500 31.85200
H  4.53300 12.51700 34.91800
H  5.40800 12.02700 33.60500
H  4.77400 10.73500 34.70800
Mg 47.33200 35.68600 27.08600
C  45.65300 33.76400 29.61100
C  47.25400 38.28800 29.38000
C  48.27300 37.66400 24.69700
C  46.77100 32.89400 24.86700
N  46.72200 35.87100 29.21000
C  46.14800 34.97000 29.99200
C  46.32000 35.51500 31.44500
C  46.43600 37.02900 31.39700
C  46.89700 37.10200 29.90000
C  45.16000 37.82700 31.73000
C  47.61000 34.78400 32.05700
C  47.53900 34.61000 33.56800
H  46.90700 35.67300 34.41600
N  47.96100 37.68200 27.10500
C  47.80700 38.64600 28.11200
C  48.33600 39.87500 27.67400
C  48.59400 39.73100 26.30200
C  48.29800 38.32000 25.96100
C  48.45200 41.12000 28.54900
C  49.18000 40.71800 25.29500
O  49.50200 40.43500 24.13000
C  49.55200 42.17100 25.65700
N  47.55100 35.30500 25.05400
C  47.99400 36.31800 24.29000
C  48.13900 35.77500 22.85100
C  47.96300 34.19900 22.94400
C  47.41400 34.15000 24.34500
C  47.20600 36.47400 21.78000
C  49.22100 33.35500 22.77400
C  49.11600 31.95800 22.11700
N  46.38700 33.71700 27.16800
C  46.25600 32.73900 26.20000
C  45.49400 31.63400 26.77100
C  45.24300 32.00400 28.06500
C  45.73900 33.29700 28.30100
C  45.26800 30.34900 26.09100
C  44.69200 31.54800 29.28700
O  44.23800 30.45500 29.61900
C  44.76900 32.73400 30.25700
C  45.14800 32.22300 31.60500
O  46.13200 31.48300 31.89400
O  44.22800 32.62700 32.55600
C  44.39800 32.06300 33.94800
H  47.08300 39.14800 30.03000
H  48.49000 38.29200 23.83000
H  46.59300 32.08400 24.15700
H  45.56200 35.19900 32.16200
H  47.18700 37.40900 32.08900
H  44.38200 37.06300 31.71300
H  45.05500 38.58200 30.95100
H  45.22700 38.33900 32.68900
H  48.54000 35.29800 31.81300
H  47.67700 33.78500 31.62700
H  48.60100 34.52600 33.79900
H  47.02500 33.65800 33.69700
H  49.47900 41.47900 28.49900
H  48.16400 40.87500 29.57200
H  47.73800 41.90700 28.30900
H  48.69700 42.44900 26.27300
H  49.61100 42.76700 24.74600
H  50.45700 42.16300 26.26400
H  49.11800 36.06800 22.47200
H  47.21400 33.84000 22.23900
H  46.37600 35.83200 21.48500
H  47.77300 36.78200 20.90200
H  46.77600 37.35800 22.25100
H  49.73000 33.17700 23.72100
H  50.01700 33.86500 22.23100
H  48.04600 31.90300 21.91600
H  49.36800 31.22400 22.88200
H  49.71500 31.86400 21.21100
H  46.09000 29.95100 25.49500
H  44.62800 30.55700 25.23300
H  44.87600 29.55200 26.72200
H  43.80100 33.22300 30.36200
H  44.96400 31.14800 34.12500
H  43.35900 31.94500 34.25500
H  44.76600 32.94000 34.48000

