158

Mg 25.45400 -8.07900 47.79300
C  28.28000 -5.88300 47.05700
C  23.83400 -6.48000 45.19800
C  23.28800 -10.55100 47.68600
C  27.68500 -10.01000 49.74100
N  26.08700 -6.43600 46.28700
C  27.25600 -5.72600 46.13100
C  27.15400 -4.83500 44.92300
C  25.64400 -4.97200 44.52700
C  25.11500 -6.09000 45.36300
C  24.85900 -3.63100 44.59400
C  28.05000 -5.12200 43.71100
C  28.70200 -3.86900 43.09300
H  28.19600 -3.38100 41.74300
N  23.66500 -8.31300 46.82000
C  23.12900 -7.48800 45.83900
C  21.77800 -7.93100 45.50300
C  21.59400 -9.08300 46.29400
C  22.84700 -9.38200 47.00600
C  20.90800 -7.28600 44.48600
C  20.18000 -9.85100 46.48900
O  19.24200 -9.54400 45.81500
C  19.95200 -10.89900 47.49400
N  25.63500 -10.11000 48.46500
C  24.49500 -10.91700 48.39700
C  24.66600 -12.07200 49.33400
C  26.11000 -11.96700 49.86500
C  26.47400 -10.61000 49.36700
C  23.59600 -12.22600 50.43200
C  27.11200 -13.15300 49.28900
C  27.67500 -13.97400 50.43200
N  27.47900 -7.93400 48.44000
C  28.23100 -8.77600 49.22600
C  29.52500 -8.38900 49.26700
C  29.51700 -7.15800 48.56200
C  28.25300 -6.94000 48.03900
C  30.65000 -9.11800 49.82300
C  30.46100 -6.12100 48.13100
O  31.61700 -5.87300 48.47700
C  29.66300 -5.25000 47.09000
C  29.59900 -3.78100 47.41300
O  29.85300 -3.30800 48.51200
O  29.37000 -3.13800 46.26700
C  29.65600 -1.65700 46.29300
H  23.25800 -5.97700 44.41800
H  22.54200 -11.33900 47.81100
H  28.21300 -10.65900 50.44200
H  27.36500 -3.82800 45.28300
H  25.54000 -5.39000 43.52600
H  23.84600 -3.77400 44.21800
H  25.27900 -2.88900 43.91400
H  24.82900 -3.24400 45.61300
H  27.44200 -5.56700 42.92300
H  28.79500 -5.90400 43.85600
H  29.73800 -4.17300 42.94800
H  28.61200 -3.02400 43.77500
H  21.14100 -7.48400 43.44000
H  21.06800 -6.21100 44.40700
H  19.87500 -7.51200 44.75100
H  20.32000 -10.61900 48.48200
H  20.56200 -11.71600 47.10900
H  18.93000 -11.26600 47.58800
H  24.56400 -12.90600 48.64000
H  26.12000 -11.95400 50.95500
H  23.36800 -13.29200 50.41700
H  22.67000 -11.68000 50.25200
H  24.04700 -11.85100 51.35100
H  27.95300 -12.68900 48.77400
H  26.70900 -13.73900 48.46300
H  28.71100 -13.75800 50.69600
H  27.75000 -15.04900 50.26600
H  27.12100 -13.83300 51.36000
H  30.77500 -9.96000 49.14300
H  30.36200 -9.69500 50.70200
H  31.64100 -8.66900 49.88700
H  30.20400 -5.32700 46.14700
H  29.99400 -1.22500 47.23500
H  28.76900 -1.13100 45.93800
H  30.42900 -1.48200 45.54400
Mg 8.63500 48.04600 26.05800
C  6.57600 48.04000 28.83500
C  11.35000 48.44500 28.32700
C  10.78100 48.75200 23.44100
C  5.93700 48.33500 24.01000
N  8.88200 48.19400 28.37100
C  7.91800 48.18700 29.28400
C  8.42900 48.38200 30.72400
C  9.96500 48.75300 30.45700
C  10.08600 48.39600 28.95700
C  10.16000 50.18500 30.78500
C  8.19900 47.11900 31.60900
C  9.23300 46.84300 32.71000
H  8.91400 45.82400 33.74000
N  10.79100 48.54300 25.85800
C  11.72800 48.47700 26.90000
C  13.04600 48.40300 26.36500
C  12.86100 48.55800 24.93500
C  11.41500 48.71300 24.70900
C  14.40400 48.33100 27.16300
C  13.90400 48.49800 23.74300
O  13.55000 48.72400 22.58600
C  15.34600 48.11300 23.99300
N  8.44700 48.39200 23.99500
C  9.41000 48.68400 23.14500
C  8.87700 48.74600 21.72300
C  7.31900 48.60300 21.88000
C  7.18600 48.37900 23.38000
C  9.29900 50.00700 20.89000
C  6.70800 47.38300 21.15900
C  5.25900 47.67100 20.74400
N  6.73300 48.03200 26.28900
C  5.71000 48.20200 25.39200
C  4.47700 48.03300 25.99500
C  4.75900 47.92400 27.39700
C  6.12800 47.98500 27.52300
C  3.19500 48.17800 25.28700
C  4.11600 47.92700 28.66800
O  2.90400 48.01300 28.90000
C  5.21700 47.98000 29.64200
C  5.06200 46.99100 30.71500
O  5.34300 45.80100 30.71500
O  4.61700 47.61300 31.79500
C  4.57600 46.74800 33.02200
H  12.20000 48.64500 28.98200
H  11.33500 48.79200 22.50000
H  5.06200 48.57800 23.40300
H  7.91400 49.25300 31.13000
H  10.76400 48.20800 30.96000
H  9.36100 50.80900 31.18800
H  10.39400 50.71900 29.86400
H  10.99700 50.30700 31.47200
H  8.02500 46.24000 30.98800
H  7.22900 47.16200 32.10600
H  9.61500 47.72900 33.21700
H  10.05200 46.38200 32.15800
H  14.86000 49.30100 26.96700
H  15.01200 47.45200 26.94600
H  14.18900 48.40600 28.22900
H  15.72700 48.83600 24.71400
H  15.92500 48.10500 23.07000
H  15.33400 47.16300 24.52800
H  9.29300 47.88000 21.20800
H  6.94200 49.57800 21.57000
H  9.99600 50.55500 21.52400
H  8.46500 50.60000 20.51600
H  9.83200 49.60700 20.02800
H  6.75900 46.50100 21.79700
H  7.22400 47.11100 20.23900
H  5.17500 47.63400 19.65800
H  4.97400 48.68700 21.01800
H  4.56400 47.00600 21.25600
H  2.86300 47.38300 24.61900
H  3.15800 49.10100 24.70800
H  2.42800 48.17800 26.06200
H  5.01000 48.97300 30.04200
H  3.53600 46.42600 33.07700
H  4.82500 47.42800 33.83600
H  5.30000 45.93600 33.08800

