158

Mg 47.36000 25.36200 28.54800
C  47.80700 27.41400 31.31500
C  46.07200 22.90500 30.52900
C  47.27300 23.28100 25.87900
C  48.37100 27.93800 26.42600
N  46.73700 25.29100 30.72400
C  47.20600 26.19300 31.66900
C  46.83400 25.69800 33.00900
C  46.34700 24.20400 32.82900
C  46.49200 24.06000 31.29300
C  47.09000 23.10900 33.60200
C  45.75400 26.56800 33.68500
C  46.18500 27.20700 34.98500
H  45.17300 27.39300 36.11200
N  46.69800 23.39900 28.25400
C  46.15500 22.56700 29.21700
C  45.78100 21.28400 28.60300
C  46.16800 21.35600 27.20900
C  46.69700 22.72300 27.06900
C  45.19600 20.22400 29.39400
C  46.07900 20.25900 26.22700
O  46.53700 20.34500 25.07100
C  45.55500 18.89900 26.69900
N  47.68400 25.61100 26.40200
C  47.59900 24.66700 25.50400
C  48.22400 25.01400 24.10900
C  48.30600 26.56100 24.26200
C  48.11200 26.76600 25.80200
C  49.58500 24.33400 23.64900
C  47.34500 27.42600 23.49300
C  47.87200 28.01900 22.18100
N  47.97200 27.30400 28.79200
C  48.34200 28.20100 27.84100
C  48.77100 29.44400 28.47600
C  48.65200 29.20400 29.83400
C  48.09700 27.87100 30.00100
C  49.31600 30.70000 27.84000
C  48.86500 29.65200 31.16300
O  49.34500 30.76500 31.54100
C  48.42600 28.49000 32.13100
C  49.64100 28.00000 32.78600
O  50.75600 27.94300 32.34100
O  49.38800 27.72000 34.06500
C  50.51900 27.23800 34.88600
H  45.67800 22.16000 31.22300
H  47.20000 22.69000 24.96400
H  48.72500 28.68000 25.70800
H  47.83100 25.69600 33.45000
H  45.28600 24.08000 33.04900
H  47.71500 23.69700 34.27300
H  47.73700 22.59100 32.89400
H  46.52300 22.31800 34.09400
H  44.74600 26.17700 33.82800
H  45.53200 27.36700 32.97800
H  46.38500 28.24800 34.73300
H  47.09900 26.78200 35.39900
H  44.27700 19.91500 28.89400
H  44.82000 20.46000 30.38900
H  45.93900 19.43300 29.49600
H  46.11400 18.65300 27.60200
H  45.56300 18.17600 25.88300
H  44.49900 18.95900 26.95900
H  47.42100 24.70100 23.44100
H  49.32700 26.89200 24.07100
H  49.87200 23.60700 24.40900
H  50.30600 25.11900 23.42400
H  49.43400 23.60100 22.85600
H  46.98100 28.27900 24.06600
H  46.50000 26.76900 23.28400
H  48.88500 27.71200 21.91900
H  47.89300 29.08300 22.41600
H  47.19500 27.78700 21.35900
H  50.40200 30.60500 27.79900
H  49.07300 31.55700 28.46800
H  49.06900 30.83800 26.78800
H  47.66900 28.89500 32.80200
H  50.17900 27.27600 35.92100
H  51.34400 27.92400 34.69400
H  50.75800 26.23300 34.53700
Mg 5.29100 53.92100 41.11200
C  4.97000 50.30800 40.60800
C  8.47700 53.66800 40.02100
C  5.13300 57.17600 40.84700
C  1.70300 53.82000 41.82200
N  6.51900 52.17500 40.28200
C  6.26300 50.86900 40.16900
C  7.48200 50.05600 39.80600
C  8.64900 51.14800 39.96200
C  7.82900 52.42800 40.14100
C  9.68800 50.89400 41.08400
C  7.47300 49.35500 38.35800
C  7.58900 50.15700 37.02100
H  6.55900 49.96800 35.85900
N  6.59600 55.26000 40.39000
C  7.88800 54.95500 40.05300
C  8.54000 56.20900 39.79500
C  7.64200 57.27000 40.05400
C  6.37800 56.62100 40.45100
C  10.02100 56.29100 39.62400
C  7.90900 58.82600 39.89600
O  9.00000 59.15700 39.51200
C  6.86900 60.00300 40.12400
N  3.64000 55.29400 41.34900
C  3.90100 56.58900 41.19100
C  2.67000 57.44400 41.55100
C  1.47800 56.36000 41.57400
C  2.33000 55.06700 41.54400
C  2.77800 58.23300 42.91700
C  0.51000 56.52300 40.30800
C  -1.01300 56.29200 40.45700
N  3.68700 52.45600 41.38600
C  2.30500 52.58600 41.67600
C  1.72000 51.27100 41.94200
C  2.74500 50.37400 41.44100
C  3.88500 51.10300 41.13300
C  0.22800 50.90400 42.45100
C  2.98800 48.97200 41.20800
O  2.21800 48.01600 41.28100
C  4.49400 48.81700 40.67200
C  4.53600 48.04900 39.39900
O  4.06000 48.37500 38.32200
O  5.15100 46.82700 39.52200
C  5.11600 45.91300 38.40600
H  9.56600 53.62700 39.95100
H  5.18800 58.26400 40.91400
H  0.63700 53.73100 42.04000
H  7.67900 49.16000 40.39300
H  9.21600 51.21400 39.03300
H  9.81100 49.82200 41.24000
H  9.37800 51.50100 41.93500
H  10.64600 51.33200 40.80400
H  6.54300 48.79100 38.28500
H  8.32700 48.67800 38.35100
H  8.59100 49.97300 36.63400
H  7.54900 51.23600 37.17400
H  10.34200 55.40900 39.06900
H  10.52000 56.47800 40.57400
H  10.29600 56.96900 38.81600
H  6.56900 59.99000 41.17200
H  5.97300 59.80400 39.53700
H  7.29600 60.86800 39.61600
H  2.59200 58.18700 40.75800
H  0.93900 56.40500 42.52000
H  2.36300 59.22600 42.74200
H  3.83100 58.36900 43.16300
H  2.19700 57.75300 43.70500
H  0.87300 55.79500 39.58200
H  0.63500 57.41400 39.69300
H  -1.40800 56.40300 41.46700
H  -1.45000 55.39900 40.01000
H  -1.44700 57.07100 39.82900
H  -0.44800 51.12900 41.62600
H  0.08600 51.45700 43.37900
H  0.09100 49.89400 42.83700
H  5.08800 48.25400 41.39300
H  4.68100 45.00100 38.81600
H  6.17300 45.82600 38.15300
H  4.41100 46.20100 37.62700

