158

Mg 48.00400 25.21100 30.31600
C  49.20900 27.62400 32.67400
C  46.90900 23.48600 32.88500
C  47.22700 23.04000 28.04800
C  49.69500 27.18100 27.83700
N  47.89100 25.65600 32.51400
C  48.46600 26.62800 33.29800
C  48.06600 26.43500 34.80900
C  47.44500 25.00600 34.79600
C  47.37500 24.71400 33.27500
C  48.17100 23.94400 35.78800
C  47.12900 27.55600 35.36600
C  47.66000 28.18900 36.66500
H  46.64900 28.53200 37.82600
N  47.15500 23.34700 30.49100
C  46.74400 22.77900 31.62700
C  46.12500 21.49300 31.30800
C  46.21900 21.33500 29.83300
C  46.89600 22.56900 29.35900
C  45.34700 20.62800 32.26300
C  45.74200 20.29200 28.93700
O  46.22000 20.28700 27.76300
C  44.92900 19.13900 29.36000
N  48.50800 25.13600 28.32800
C  47.97900 24.13100 27.61600
C  48.31400 24.20400 26.11100
C  49.20500 25.46800 26.07400
C  49.10900 26.01700 27.49600
C  48.93500 22.92300 25.47400
C  48.77000 26.43000 25.04600
C  47.39000 27.12400 25.36000
N  49.23400 26.95700 30.17200
C  49.78600 27.69400 29.14100
C  50.47100 28.87100 29.57000
C  50.22300 28.88700 30.93400
C  49.53800 27.70400 31.27400
C  51.20000 29.85000 28.70500
C  50.45400 29.63600 32.18100
O  50.89800 30.78100 32.37600
C  49.85400 28.82300 33.32800
C  51.02500 28.44000 34.28100
O  51.98300 27.78700 34.03600
O  50.76600 29.02900 35.50500
C  51.62000 28.79500 36.66400
H  46.48300 22.87900 33.68700
H  46.84100 22.46500 27.20400
H  50.27500 27.69200 27.06500
H  48.97200 26.43000 35.41500
H  46.39200 25.04200 35.07400
H  48.54000 23.08300 35.23100
H  47.44000 23.70800 36.56200
H  49.00500 24.39700 36.32400
H  46.07800 27.28900 35.47100
H  47.06800 28.28100 34.55400
H  48.23300 29.09200 36.45200
H  48.42600 27.73200 37.29000
H  44.29900 20.57500 31.96600
H  45.44000 20.75400 33.34200
H  45.68800 19.59800 32.15700
H  44.00700 19.50700 29.81000
H  45.49400 18.50200 30.04100
H  44.69800 18.56800 28.46100
H  47.38500 24.35800 25.56200
H  50.26600 25.27400 25.91900
H  48.95800 22.13300 26.22400
H  49.89300 23.17600 25.02100
H  48.19100 22.63700 24.73100
H  48.80600 25.83200 24.13500
H  49.46200 27.27100 24.99600
H  47.60700 28.19200 25.38200
H  46.92000 26.71200 26.25300
H  46.78400 26.87700 24.48800
H  50.90900 29.83300 27.65500
H  52.26500 29.61800 28.72900
H  51.07900 30.82900 29.16900
H  49.09800 29.37000 33.89200
H  52.58300 28.37000 36.37800
H  51.14900 28.09400 37.35300
H  51.82800 29.71900 37.20400
Mg 44.11000 42.33100 26.60700
C  42.84900 44.25900 29.21700
C  45.66200 40.43600 28.98300
C  45.38900 40.46700 24.24900
C  43.14600 44.79100 24.39400
N  44.09000 42.29700 28.91600
C  43.57400 43.22200 29.74300
C  43.84200 42.92100 31.23300
C  44.91400 41.87200 31.10000
C  44.88700 41.41300 29.63200
C  46.24300 42.42900 31.59800
C  42.58200 42.43400 32.02900
C  42.11500 43.48400 33.11100
H  41.52300 43.02200 34.44300
N  45.15400 40.60500 26.59800
C  45.74900 39.97800 27.63700
C  46.38000 38.75800 27.17000
C  46.16000 38.61900 25.79400
C  45.51100 39.89600 25.50600
C  47.00700 37.87900 28.14900
C  46.48200 37.40400 24.95400
O  46.26900 37.39800 23.75900
C  47.03300 36.06100 25.57600
N  44.38000 42.67800 24.63400
C  44.83200 41.71300 23.84900
C  44.61200 42.08500 22.34600
C  43.67300 43.35200 22.43300
C  43.72800 43.67500 23.88500
C  45.93300 42.36900 21.58100
C  42.24600 43.14000 21.86600
C  41.13200 42.58200 22.82100
N  43.25200 44.15300 26.70400
C  42.90000 45.08100 25.74300
C  42.19700 46.21800 26.32900
C  42.07500 45.84000 27.65300
C  42.75500 44.63400 27.84700
C  41.59300 47.43400 25.68900
C  41.63600 46.30200 28.92700
O  41.10000 47.39300 29.21800
C  42.08800 45.30200 30.00800
C  43.08800 46.00200 30.86100
O  44.19700 46.22700 30.50700
O  42.53700 46.49200 32.00700
C  43.37800 47.28300 32.84700
H  46.25300 39.93100 29.75000
H  45.62800 39.78800 23.42700
H  42.78800 45.56400 23.71000
H  44.26400 43.81800 31.68500
H  44.72000 41.02300 31.75600
H  46.29500 43.51000 31.46700
H  47.14000 42.06900 31.09400
H  46.32000 42.13600 32.64500
H  42.83500 41.48800 32.50700
H  41.76600 42.29000 31.32000
H  41.20300 43.96100 32.75200
H  42.80800 44.30900 33.27600
H  47.54800 38.52800 28.83700
H  47.70100 37.08000 27.88600
H  46.31300 37.26600 28.72400
H  46.43400 35.76500 26.43700
H  48.11600 36.13000 25.68100
H  46.83000 35.20700 24.93000
H  44.08100 41.20600 21.98100
H  44.05900 44.15200 21.80100
H  46.06600 43.37100 21.17300
H  46.13900 41.58300 20.85400
H  46.77300 42.17100 22.24600
H  42.30500 42.37100 21.09500
H  41.96600 44.04800 21.33100
H  40.86100 41.55800 22.56500
H  40.30300 43.28900 22.80200
H  41.37900 42.73000 23.87300
H  41.12300 47.04600 24.78500
H  42.22500 48.21800 25.27200
H  40.78600 47.88700 26.26400
H  41.19900 45.06200 30.59100
H  43.45300 46.67200 33.74600
H  42.85700 48.17400 33.19700
H  44.37000 47.57500 32.50100

