158

Mg 16.84500 -2.29500 27.44100
C  15.70400 -0.16200 30.05000
C  18.76200 -3.82300 29.55000
C  18.20600 -3.67200 24.81400
C  14.90100 -0.23700 25.29300
N  17.40100 -1.82900 29.53400
C  16.72700 -1.09600 30.45200
C  17.14500 -1.43000 31.90100
C  18.41000 -2.33100 31.63300
C  18.19400 -2.74800 30.15700
C  19.80800 -1.59500 31.83200
C  16.00400 -2.05300 32.71300
C  15.65300 -1.18700 33.85100
H  16.82400 -0.48200 34.59000
N  18.18100 -3.64800 27.23300
C  18.88300 -4.22500 28.22200
C  19.58100 -5.43400 27.69500
C  19.50600 -5.39500 26.28200
C  18.59800 -4.19700 26.03200
C  20.19000 -6.49700 28.67500
C  20.17400 -6.20900 25.30000
O  19.95200 -6.05600 24.07300
C  20.96400 -7.30400 25.72500
N  16.66400 -1.98600 25.38900
C  17.34800 -2.63600 24.47100
C  17.04300 -2.23000 22.96000
C  15.91300 -1.19200 23.23600
C  15.76200 -1.20500 24.74100
C  18.33300 -1.66000 22.34800
C  14.63900 -1.40700 22.44700
C  14.73900 -1.07800 20.95200
N  15.43600 -0.65800 27.61100
C  14.71200 0.01400 26.67700
C  13.91400 1.07100 27.34500
C  14.28400 1.01000 28.61900
C  15.17100 0.00100 28.77300
C  13.05100 2.05100 26.73000
C  14.04300 1.64500 29.88500
O  13.33900 2.56800 30.26200
C  14.84500 0.74400 30.95600
C  15.61200 1.64900 31.81200
O  16.67900 2.14600 31.57900
O  14.76700 2.02100 32.82900
C  15.21600 3.15600 33.63900
H  19.41100 -4.42100 30.19300
H  18.55800 -4.10400 23.87500
H  14.25400 0.38800 24.67400
H  17.54700 -0.46800 32.22100
H  18.24900 -3.22700 32.23300
H  20.33800 -2.16500 32.59500
H  19.68000 -0.54400 32.09400
H  20.32000 -1.74000 30.88100
H  16.29200 -3.03100 33.09700
H  15.09300 -2.10600 32.11600
H  15.20500 -1.80600 34.62800
H  14.95000 -0.39300 33.60100
H  19.66700 -7.42600 28.44700
H  20.02200 -6.29500 29.73200
H  21.26300 -6.54400 28.48600
H  20.45400 -8.01100 26.38000
H  21.87700 -6.91700 26.17700
H  21.30900 -7.77300 24.80400
H  16.63000 -3.00200 22.31100
H  16.24000 -0.18200 22.98700
H  19.09400 -1.50900 23.11300
H  18.13600 -0.80500 21.70000
H  18.68400 -2.31100 21.54700
H  13.85300 -0.84100 22.94800
H  14.27400 -2.43100 22.53100
H  15.60500 -0.43900 20.78300
H  13.92900 -0.43000 20.61800
H  14.72400 -1.97900 20.33900
H  12.63000 1.53000 25.87000
H  13.65700 2.86500 26.33200
H  12.26300 2.28000 27.44700
H  14.13600 0.14800 31.53100
H  16.26700 3.29400 33.89400
H  14.68000 2.92700 34.56000
H  14.72400 4.03800 33.22900
Mg 9.80700 47.86900 26.83700
C  8.11900 48.11100 29.90700
C  12.46300 49.55800 28.36800
C  11.16600 47.95400 23.88000
C  6.54000 47.11500 25.38600
N  10.19000 48.72000 28.86800
C  9.41200 48.54300 30.01600
C  10.18300 48.92600 31.25500
C  11.19800 49.88800 30.56000
C  11.37600 49.35000 29.16600
C  10.86200 51.42900 30.64300
C  10.82300 47.70900 32.13700
C  10.43800 47.78400 33.65300
H  10.31200 46.47600 34.39200
N  11.66000 48.49100 26.22600
C  12.62700 49.10200 27.00500
C  13.81700 49.25500 26.15500
C  13.47900 48.70600 24.85200
C  12.02900 48.36100 24.92200
C  15.06300 49.99900 26.63700
C  14.41700 48.59300 23.69000
O  14.06800 48.20400 22.59900
C  15.89000 48.83200 23.94200
N  8.94100 47.68500 24.91300
C  9.76700 47.71500 23.86800
C  9.06400 47.28200 22.55000
C  7.64400 46.82000 23.06300
C  7.68600 47.31600 24.57400
C  9.01900 48.29700 21.50600
C  7.39100 45.28500 22.94200
C  7.96500 44.25000 23.94300
N  7.68700 47.70600 27.51300
C  6.50400 47.33000 26.81900
C  5.39800 47.13600 27.73600
C  6.04900 47.39400 29.01800
C  7.41100 47.74900 28.78600
C  3.94800 46.73500 27.40600
C  5.75800 47.40100 30.44900
O  4.72300 47.24000 31.04600
C  7.15600 47.76200 31.06500
C  7.57800 46.47300 31.74300
O  7.89500 45.48000 31.16800
O  7.32000 46.53500 33.09200
C  7.24600 45.27400 33.78100
H  13.25400 50.14400 28.84200
H  11.62600 47.81900 22.89900
H  5.60600 46.71700 24.98400
H  9.56700 49.55200 31.90100
H  12.12900 49.87300 31.12600
H  10.16600 51.60800 31.46200
H  10.50100 51.75000 29.66600
H  11.74800 52.04200 30.80700
H  11.91100 47.73800 32.08800
H  10.45900 46.76100 31.74200
H  9.49100 48.32400 33.64400
H  11.22900 48.31500 34.18300
H  14.82500 50.41500 27.61600
H  15.34900 50.70900 25.86200
H  15.90700 49.31400 26.71800
H  16.22100 48.14800 24.72300
H  16.08600 49.87300 24.20100
H  16.49300 48.55400 23.07700
H  9.57200 46.36500 22.25100
H  6.85700 47.35100 22.52800
H  9.79500 49.01000 21.78600
H  8.10900 48.89400 21.56700
H  9.17900 48.04100 20.45900
H  7.62200 44.97200 21.92300
H  6.35200 45.04900 23.17500
H  8.60300 44.78200 24.64900
H  8.68800 43.59500 23.45800
H  7.24400 43.79500 24.62300
H  3.75700 46.57500 26.34500
H  3.27200 47.47600 27.83300
H  3.75000 45.78500 27.90200
H  7.09100 48.54100 31.82500
H  7.75000 44.39800 33.37300
H  6.19600 44.99100 33.85200
H  7.67800 45.48400 34.75900

