158

Mg 0.67600 8.20900 27.59400
C  1.45900 10.38900 30.35100
C  0.70400 5.55200 29.72800
C  0.15800 6.30900 24.94900
C  1.29200 11.07000 25.47600
N  1.06100 8.08000 29.66600
C  1.06800 9.05700 30.67900
C  0.90500 8.51600 32.06000
C  1.01700 6.93500 31.79600
C  0.91200 6.80000 30.31600
C  2.34900 6.26700 32.19900
C  -0.48300 9.00300 32.62000
C  -0.71900 8.84900 34.20400
H  0.49300 8.30500 35.06300
N  0.37000 6.12200 27.38400
C  0.44000 5.23200 28.43400
C  0.21200 3.96200 27.80200
C  -0.08800 4.17500 26.40000
C  0.15900 5.57800 26.18400
C  0.47000 2.68100 28.54700
C  -0.50800 3.23600 25.40900
O  -0.60300 3.47000 24.18100
C  -0.88300 1.84500 25.69800
N  0.71500 8.61800 25.55100
C  0.44400 7.62200 24.68800
C  0.41100 8.14900 23.26100
C  0.73900 9.57100 23.39800
C  0.90000 9.81600 24.91400
C  1.31100 7.33700 22.32400
C  -0.17100 10.63200 22.67900
C  -1.62200 10.66800 23.20200
N  1.32400 10.25900 27.80700
C  1.47600 11.27700 26.84200
C  1.95000 12.44300 27.49400
C  1.91900 12.14100 28.85700
C  1.56500 10.83800 29.00400
C  2.15900 13.78100 26.80800
C  2.13200 12.77000 30.16800
O  2.51500 13.91500 30.40200
C  1.72300 11.67300 31.17100
C  2.80000 11.55700 32.12200
O  3.84400 11.00900 31.95000
O  2.43500 12.12700 33.34600
C  3.32800 11.73700 34.46700
H  0.59600 4.71400 30.41900
H  -0.11500 5.78500 24.03100
H  1.38100 11.87600 24.74400
H  1.68700 8.82300 32.75500
H  0.15800 6.53500 32.33500
H  2.31900 5.27800 32.65800
H  2.78100 6.90400 32.97100
H  2.97200 6.19200 31.30800
H  -1.27900 8.36800 32.22900
H  -0.71500 10.03200 32.34500
H  -1.60800 8.23100 34.32700
H  -1.03000 9.77400 34.69000
H  -0.39700 2.02100 28.53600
H  0.77300 2.94700 29.56000
H  1.27200 2.19600 27.99100
H  -0.01800 1.18800 25.78800
H  -1.52900 1.50700 24.88700
H  -1.50700 1.89100 26.59100
H  -0.61900 7.97100 22.95300
H  1.71200 9.71600 22.92900
H  1.91000 7.96600 21.66500
H  0.76700 6.66000 21.66600
H  1.89900 6.66900 22.95300
H  -0.23800 10.48500 21.60100
H  0.28200 11.61700 22.79600
H  -2.27800 10.07500 22.56500
H  -2.00700 11.68700 23.24200
H  -1.71000 10.12900 24.14500
H  2.37100 14.46200 27.63200
H  1.23900 14.06000 26.29400
H  2.93600 13.73800 26.04500
H  0.84600 11.99500 31.73300
H  3.97400 10.89100 34.23300
H  2.72100 11.64500 35.36800
H  3.91900 12.62800 34.67900
Mg 47.73400 44.88300 42.71200
C  44.36200 45.61300 41.63800
C  47.45400 41.86500 41.16000
C  51.05200 44.73500 42.66600
C  47.77400 48.12100 43.86000
N  46.13700 43.94800 41.32300
C  44.88000 44.44300 41.10200
C  44.14200 43.39600 40.26600
C  44.96000 42.03500 40.57700
C  46.27100 42.64500 41.06000
C  44.28300 40.99300 41.62800
C  44.07300 43.86600 38.79500
C  42.87000 43.46000 37.95900
H  43.30100 42.59700 36.80100
N  49.08600 43.42600 42.01000
C  48.76600 42.20300 41.54200
C  49.96000 41.42000 41.57300
C  51.06800 42.28500 41.86600
C  50.43500 43.56600 42.12700
C  50.01500 40.01100 41.22700
C  52.51900 41.83300 41.90700
O  52.83800 40.70400 41.63100
C  53.74600 42.72800 42.31800
N  49.20900 46.34100 42.97600
C  50.50900 45.95000 43.09000
C  51.35100 47.16300 43.53900
C  50.33400 48.12100 44.20900
C  49.03600 47.46400 43.72100
C  52.54200 46.75000 44.55900
C  50.47600 49.60200 43.82000
C  50.21300 50.49600 45.05700
N  46.29800 46.46400 42.99300
C  46.49200 47.75100 43.55100
C  45.18400 48.38500 43.65000
C  44.30500 47.61100 42.88400
C  45.05500 46.45900 42.46500
C  44.93800 49.66700 44.34000
C  42.97400 47.51600 42.43700
O  41.96300 48.11800 42.67800
C  42.98200 46.23100 41.50500
C  42.00100 45.22600 42.04500
O  40.95700 44.88200 41.42700
O  42.32200 44.81700 43.32000
C  41.25200 44.03000 43.99700
H  47.24700 40.85500 40.80100
H  52.14000 44.79700 42.73300
H  47.86000 49.07700 44.38000
H  43.13400 43.34200 40.67700
H  45.15100 41.49400 39.65100
H  43.20700 41.16500 41.58500
H  44.57300 41.41500 42.59100
H  44.63500 39.96300 41.59200
H  44.95500 43.45300 38.30600
H  44.22400 44.94400 38.73400
H  42.47100 44.36700 37.50600
H  42.20200 42.90800 38.62000
H  50.38100 39.47500 42.10300
H  50.55800 39.74600 40.32000
H  48.98200 39.68000 41.12100
H  53.78600 43.12500 43.33200
H  53.82800 43.55900 41.61800
H  54.53200 41.99700 42.12800
H  51.78600 47.52400 42.60700
H  50.25900 47.99100 45.28800
H  53.40700 46.51000 43.94100
H  52.11900 45.89300 45.08400
H  52.77700 47.50500 45.30900
H  49.88900 49.83400 42.93100
H  51.43000 49.92900 43.40600
H  50.23600 49.87600 45.95400
H  49.30500 51.09700 45.02100
H  51.02500 51.21900 44.98300
H  43.92600 49.91200 44.01600
H  45.64600 50.44700 44.06300
H  45.10700 49.52200 45.40700
H  42.62000 46.43300 40.49700
H  41.71700 43.14000 44.42200
H  40.53000 43.56800 43.32400
H  40.60000 44.48800 44.74100

