158

Mg 0.66500 8.26700 26.73400
C  1.07700 10.31200 29.62100
C  0.66500 5.48200 28.90700
C  0.91400 6.34900 24.11700
C  1.15900 11.09600 24.73300
N  0.86400 7.95100 29.00800
C  0.89200 8.98300 29.97400
C  0.74800 8.32600 31.36200
C  0.84600 6.78700 31.11800
C  0.80100 6.67800 29.61300
C  2.18400 6.20800 31.65600
C  -0.51100 8.86800 32.05700
C  -0.94200 8.04400 33.28200
H  -0.01200 7.83700 34.41200
N  0.64500 6.13900 26.54100
C  0.69200 5.19700 27.51600
C  0.69600 3.91500 26.84100
C  0.83400 4.15600 25.49400
C  0.76200 5.55800 25.28500
C  0.77200 2.62200 27.57700
C  0.90800 3.18800 24.29600
O  0.90000 3.54800 23.12600
C  0.86300 1.72900 24.52700
N  0.98900 8.65300 24.77300
C  0.96800 7.69100 23.81400
C  1.07000 8.34000 22.42600
C  0.87600 9.84900 22.65300
C  1.01900 9.89300 24.12900
C  2.41300 7.88300 21.80700
C  -0.41400 10.35700 22.14800
C  -0.42000 11.64400 21.25100
N  0.96300 10.30000 27.05000
C  1.18400 11.34900 26.12100
C  1.35000 12.57300 26.79600
C  1.26200 12.21600 28.20900
C  1.09800 10.82900 28.28200
C  1.40900 13.90900 26.13900
C  1.32600 12.73600 29.56200
O  1.48100 13.85900 29.98900
C  1.15600 11.47200 30.53100
C  2.24900 11.57400 31.58400
O  3.49100 11.50800 31.41500
O  1.71300 11.86600 32.79800
C  2.63900 11.86400 33.93300
H  0.74700 4.64700 29.60600
H  0.84100 5.78000 23.18800
H  1.13600 11.97400 24.08500
H  1.65200 8.60000 31.90600
H  -0.01600 6.21300 31.45600
H  2.04000 5.20300 32.05200
H  2.47100 6.78900 32.53300
H  2.92500 6.24200 30.85800
H  -1.31100 9.08200 31.34900
H  -0.06400 9.72800 32.55700
H  -1.48400 7.12800 33.04800
H  -1.62600 8.68600 33.83700
H  -0.09200 2.01600 27.30700
H  0.63900 2.68300 28.65700
H  1.64900 2.00400 27.37900
H  0.78500 1.16300 23.59900
H  -0.09900 1.58900 25.02000
H  1.78900 1.50100 25.05300
H  0.26200 8.01200 21.77200
H  1.68700 10.35000 22.12500
H  2.95400 8.79600 21.56000
H  2.27000 7.25600 20.92700
H  2.89200 7.30200 22.59500
H  -0.98500 10.53300 23.06000
H  -1.05900 9.69800 21.56800
H  0.61900 11.93700 21.10200
H  -0.95000 12.42400 21.79800
H  -0.88800 11.48800 20.27900
H  0.47000 14.43400 26.31500
H  1.59800 13.96700 25.06700
H  2.11500 14.52600 26.69500
H  0.27200 11.64200 31.14500
H  3.66300 11.56300 33.71000
H  2.19500 11.07200 34.53500
H  2.71400 12.80700 34.47500
Mg -2.41100 35.16600 26.62200
C  -4.30500 33.30800 29.00600
C  -1.68000 37.32900 28.95900
C  -0.79300 36.97000 24.25000
C  -4.03000 33.28300 24.13500
N  -3.02000 35.32800 28.74600
C  -3.65800 34.42800 29.56300
C  -3.53900 34.73000 31.08400
C  -2.79800 36.15000 30.91000
C  -2.48400 36.30600 29.43000
C  -3.45800 37.47600 31.54100
C  -2.86500 33.63900 31.99700
C  -3.66500 33.29400 33.30700
H  -2.76100 33.15100 34.55000
N  -1.35200 36.96700 26.59400
C  -1.10500 37.66900 27.75300
C  -0.22600 38.74500 27.36900
C  0.08900 38.67200 26.00000
C  -0.64500 37.52100 25.54100
C  0.08900 39.75500 28.49500
C  0.92800 39.54100 25.21100
O  1.13600 39.31600 24.02300
C  1.60700 40.80500 25.84600
N  -2.43700 35.24900 24.53000
C  -1.59400 35.95100 23.77900
C  -1.61200 35.57000 22.30500
C  -2.63500 34.35700 22.27000
C  -3.16700 34.36700 23.74700
C  -1.98500 36.80300 21.36500
C  -1.74200 33.10500 21.82500
C  -0.95800 32.31000 22.83800
N  -3.94400 33.58600 26.51200
C  -4.45600 32.94700 25.39900
C  -5.32200 31.90600 25.85200
C  -5.31700 31.91100 27.26300
C  -4.41100 32.96900 27.60200
C  -6.09000 30.94800 25.03100
C  -5.81700 31.37300 28.51200
O  -6.50400 30.40800 28.80300
C  -5.16500 32.30000 29.68100
C  -6.30300 32.93900 30.34800
O  -7.15300 33.67100 29.86400
O  -6.51500 32.38200 31.61400
C  -7.76500 32.61100 32.33400
H  -1.53700 38.07800 29.74000
H  -0.29100 37.50900 23.44400
H  -4.48600 32.73600 23.30800
H  -4.55900 34.94100 31.40500
H  -1.86600 36.03700 31.46500
H  -4.49800 37.31600 31.82500
H  -3.42100 38.33300 30.86800
H  -2.78700 37.80300 32.33500
H  -1.79500 33.82600 32.08100
H  -2.88600 32.69100 31.46100
H  -4.20400 32.35400 33.18000
H  -4.37600 34.11200 33.41700
H  0.29200 39.25400 29.44100
H  -0.81400 40.26700 28.82500
H  0.82500 40.53900 28.31200
H  1.06700 41.46600 26.52300
H  1.89400 41.40800 24.98400
H  2.43400 40.34600 26.38800
H  -0.58400 35.32700 22.03600
H  -3.46500 34.63400 21.61900
H  -2.34000 37.62200 21.99100
H  -2.86200 36.61600 20.74500
H  -1.11400 36.99900 20.74000
H  -1.06600 33.31300 20.99600
H  -2.42300 32.38400 21.37200
H  -1.06300 32.66300 23.86400
H  0.07300 32.37400 22.49200
H  -1.29100 31.27200 22.82800
H  -5.92200 29.98600 25.51400
H  -5.75000 30.97100 23.99600
H  -7.16600 31.08400 25.14100
H  -4.66300 31.66800 30.41300
H  -8.06000 31.72100 32.89100
H  -8.56200 32.98000 31.68900
H  -7.63000 33.37900 33.09500

