158

Mg 34.92500 3.19700 29.95300
C  32.78100 4.29800 32.51100
C  37.58400 3.45000 32.04700
C  36.91100 2.52900 27.32400
C  32.19900 3.45800 27.72400
N  35.17000 4.05300 31.92700
C  34.14500 4.21400 32.85000
C  34.66900 4.12600 34.28200
C  36.24400 4.17600 34.02700
C  36.35000 3.83800 32.58400
C  37.00000 5.46800 34.30700
C  34.19000 2.92200 35.10600
C  33.95200 3.04000 36.64100
H  34.66300 4.23500 37.28600
N  36.94400 2.92400 29.70400
C  37.88000 3.05100 30.70600
C  39.22600 2.62500 30.22100
C  39.03800 2.47300 28.80800
C  37.60400 2.69900 28.57300
C  40.44800 2.57400 31.15300
C  40.09900 2.08600 27.73700
O  39.83200 2.01300 26.51800
C  41.51500 1.81200 28.19300
N  34.61300 2.96300 27.85300
C  35.58000 2.58600 27.04600
C  35.09700 2.58800 25.57500
C  33.55100 2.52800 25.75100
C  33.43500 3.11800 27.21000
C  35.67800 3.94000 24.88600
C  32.86600 1.13800 25.50700
C  31.45100 1.10900 24.88300
N  32.83400 3.76400 30.03900
C  31.88700 3.75800 29.06400
C  30.57100 4.10300 29.68000
C  30.87600 4.28700 31.04600
C  32.31700 4.13900 31.20700
C  29.27500 4.15600 28.96300
C  30.31700 4.50600 32.34100
O  29.17200 4.69900 32.62500
C  31.51900 4.54900 33.38600
C  31.46700 5.85600 34.10000
O  31.22900 6.98200 33.57400
O  31.65500 5.65900 35.45100
C  31.40800 6.88900 36.24600
H  38.40800 3.46800 32.76400
H  37.57400 2.32500 26.48200
H  31.52100 3.52100 26.87100
H  34.38800 5.04600 34.79500
H  36.75300 3.35100 34.52600
H  37.58500 5.78300 33.44300
H  37.75700 5.45000 35.09100
H  36.20200 6.17100 34.54600
H  35.00400 2.21400 34.95500
H  33.27100 2.70800 34.56100
H  34.22000 2.13100 37.17900
H  32.90300 3.15400 36.91400
H  40.90000 1.58800 31.04800
H  40.14700 2.63600 32.19900
H  41.07000 3.37800 30.75800
H  42.06800 2.63800 28.64000
H  42.07600 1.44800 27.33200
H  41.45500 0.98400 28.89900
H  35.45400 1.72400 25.01400
H  33.07500 3.21100 25.04800
H  34.81400 4.53500 24.58800
H  36.22300 3.63400 23.99400
H  36.38600 4.46200 25.53000
H  33.01100 0.49400 26.37400
H  33.48100 0.67300 24.73700
H  31.60500 0.88800 23.82600
H  31.10300 2.14200 24.85800
H  30.72100 0.46000 25.36700
H  28.55200 4.58700 29.65500
H  28.92000 3.14500 28.76000
H  29.43700 4.75600 28.06700
H  31.41200 3.73600 34.10500
H  30.40200 7.22900 35.99700
H  32.27000 7.53300 36.07000
H  31.49100 6.72800 37.32100
Mg -12.28800 17.22600 42.16400
C  -9.46200 15.39600 41.80100
C  -10.63700 20.04500 40.96900
C  -15.23900 18.79700 41.74300
C  -14.03800 14.19800 42.78600
N  -10.26400 17.66600 41.28900
C  -9.26000 16.72700 41.35700
C  -7.87500 17.39500 40.96900
C  -8.28500 18.94200 41.03700
C  -9.82100 18.93300 41.16000
C  -7.68900 19.82400 42.17600
C  -7.30000 16.96300 39.60400
C  -5.91200 16.29500 39.60200
H  -5.82200 14.99600 38.72200
N  -12.87800 19.07900 41.53900
C  -12.05600 20.12900 41.08600
C  -12.86400 21.31400 40.86900
C  -14.17200 20.98300 41.16800
C  -14.17300 19.60200 41.53700
C  -12.30900 22.67900 40.41300
C  -15.28200 21.95300 40.95900
O  -15.09300 23.08700 40.57200
C  -16.65500 21.71500 41.47700
N  -14.35500 16.59300 42.36000
C  -15.38200 17.43400 42.10200
C  -16.76300 16.72800 42.30100
C  -16.37200 15.24600 42.62100
C  -14.83600 15.30700 42.53800
C  -17.85800 17.31100 43.27200
C  -17.01100 14.21400 41.69300
C  -17.95700 13.18400 42.36500
N  -11.87400 15.22700 42.43800
C  -12.66700 14.11000 42.66600
C  -11.86700 12.92200 42.70100
C  -10.63500 13.38700 42.38500
C  -10.70500 14.75900 42.11400
C  -12.19200 11.47800 43.11100
C  -9.27400 13.02000 42.22100
O  -8.72400 11.95000 42.38700
C  -8.42100 14.27000 41.85100
C  -7.39000 14.28200 42.92000
O  -7.58500 14.30600 44.10400
O  -6.16100 14.25200 42.36900
C  -5.00400 14.35000 43.19400
H  -10.17900 21.01200 40.75200
H  -16.20300 19.23100 41.46800
H  -14.63000 13.28100 42.82300
H  -7.17400 17.09800 41.74900
H  -8.05800 19.47700 40.11500
H  -6.86200 20.46300 41.86500
H  -7.25300 19.11500 42.88000
H  -8.39400 20.46900 42.70100
H  -7.31900 17.88300 39.02000
H  -8.01100 16.34500 39.05600
H  -5.57800 16.05700 40.61200
H  -5.16800 17.02300 39.27800
H  -12.86600 23.04400 39.55100
H  -11.27700 22.55200 40.08700
H  -12.24200 23.38500 41.24100
H  -16.70100 21.11400 42.38500
H  -17.25900 21.19300 40.73500
H  -17.15700 22.65300 41.71700
H  -17.26800 16.76400 41.33500
H  -16.47600 14.94300 43.66300
H  -18.66000 17.69400 42.64200
H  -17.39100 18.16700 43.75900
H  -18.27900 16.53700 43.91500
H  -16.14200 13.67900 41.31100
H  -17.51300 14.75400 40.89100
H  -18.93500 13.66400 42.32100
H  -17.65500 13.01700 43.39900
H  -17.96700 12.30200 41.72500
H  -11.50500 11.00800 43.81400
H  -12.26900 10.90800 42.18600
H  -13.12000 11.57900 43.67500
H  -8.00300 13.96900 40.89100
H  -4.32700 13.58500 42.81500
H  -5.15900 14.27600 44.27000
H  -4.52900 15.30300 42.96200

