158

Mg -0.11900 7.36800 27.34000
C  0.83100 9.59600 29.76000
C  0.02300 4.89000 29.67400
C  -0.79700 5.17400 24.87200
C  0.59700 9.73900 24.84000
N  0.37900 7.27300 29.39500
C  0.53200 8.30300 30.20100
C  0.50100 7.86600 31.71600
C  0.51500 6.38100 31.65200
C  0.34700 6.14000 30.13900
C  1.77300 5.64700 32.21700
C  -0.61300 8.54300 32.53200
C  -0.35900 8.83100 33.98800
H  0.80900 8.41300 34.81400
N  -0.48200 5.39100 27.35400
C  -0.36900 4.50800 28.40800
C  -0.77800 3.18000 28.01100
C  -1.09000 3.21700 26.63200
C  -0.82500 4.65000 26.22100
C  -0.65300 1.98200 28.89100
C  -1.53600 2.18400 25.65300
O  -1.70100 2.32800 24.47700
C  -1.71100 0.80800 26.24000
N  -0.19600 7.49100 25.11400
C  -0.51600 6.40200 24.35800
C  -0.36300 6.80000 22.87000
C  -0.26600 8.39000 22.90400
C  0.00700 8.60800 24.36500
C  0.83000 6.00700 22.20800
C  -1.62800 9.07900 22.55600
C  -1.66800 10.34500 21.67900
N  0.60000 9.22500 27.20300
C  0.88700 10.09800 26.19000
C  1.42400 11.35800 26.68500
C  1.37600 11.20300 28.06700
C  0.93400 9.90300 28.33800
C  1.73600 12.53000 25.87300
C  1.67400 11.91500 29.37300
O  2.07500 13.03900 29.57400
C  1.32600 10.85800 30.61000
C  2.55700 10.68400 31.43800
O  3.48600 9.96700 31.14200
O  2.45000 11.43500 32.59600
C  3.61400 11.43300 33.46000
H  0.02700 4.05200 30.37400
H  -0.98400 4.52200 24.01700
H  0.67700 10.58300 24.15200
H  1.39000 8.33300 32.13900
H  -0.33400 5.96400 32.19400
H  2.30600 5.03100 31.49300
H  1.41100 5.11400 33.09600
H  2.50500 6.32200 32.66000
H  -1.47400 7.87600 32.52100
H  -0.85000 9.47900 32.02500
H  -1.29500 8.60700 34.50100
H  -0.31600 9.92000 33.97200
H  0.09400 2.12900 29.67100
H  -0.43500 1.08600 28.31000
H  -1.57500 1.85900 29.46100
H  -2.09400 0.09500 25.50900
H  -2.26500 0.84200 27.17800
H  -0.70100 0.51200 26.52400
H  -1.19000 6.42000 22.27100
H  0.42900 8.84000 22.19500
H  0.46300 5.34200 21.42700
H  1.31900 5.56100 23.07500
H  1.51000 6.72700 21.75200
H  -2.05600 9.46100 23.48300
H  -2.26400 8.27100 22.19300
H  -2.29900 10.31500 20.79100
H  -0.66300 10.59100 21.33600
H  -1.99000 11.15300 22.33600
H  2.65200 12.32700 25.31900
H  1.74600 13.38300 26.55200
H  0.83300 12.69300 25.28600
H  0.46400 11.22500 31.16700
H  3.50200 12.20700 34.21900
H  4.47000 11.62700 32.81400
H  3.71700 10.46100 33.94400
Mg 42.47900 41.78500 26.92000
C  41.81900 44.33300 29.24600
C  43.37700 39.76700 29.50900
C  43.17600 39.51600 24.65000
C  41.82200 44.07500 24.24700
N  42.65000 42.07300 29.03100
C  42.18300 43.10200 29.81900
C  42.17900 42.75400 31.28700
C  42.92600 41.38000 31.31000
C  42.97600 41.03600 29.84800
C  44.25500 41.33100 32.02500
C  40.72800 42.87400 31.85600
C  40.44800 43.69800 33.05600
H  39.87800 43.02800 34.33900
N  43.18000 39.89400 27.06200
C  43.43700 39.18500 28.23900
C  43.79200 37.78700 27.86800
C  43.75500 37.69100 26.43600
C  43.33500 39.08100 25.96500
C  43.98400 36.76600 28.87700
C  44.05500 36.49000 25.52000
O  43.93900 36.46700 24.27500
C  44.43500 35.10700 26.10900
N  42.47300 41.81700 24.68200
C  42.77700 40.68600 24.03200
C  42.58600 40.77600 22.51500
C  42.04500 42.27900 22.35600
C  42.05600 42.78300 23.85600
C  43.88700 40.53800 21.74300
C  40.65600 42.51100 21.62600
C  39.55700 41.70800 22.29500
N  42.05400 43.88400 26.73300
C  41.70500 44.59000 25.57500
C  41.34500 45.90600 25.96500
C  41.29900 45.82200 27.44100
C  41.73600 44.56400 27.80300
C  41.05700 47.07400 25.01100
C  40.99500 46.59900 28.64400
O  40.55800 47.72600 28.83500
C  41.27300 45.62900 29.86600
C  42.28900 46.31300 30.72300
O  43.42500 46.71200 30.43000
O  41.69300 46.39200 31.99500
C  42.38400 47.28400 33.00600
H  43.56700 39.08900 30.34400
H  43.33000 38.64500 24.01000
H  41.58600 44.82100 23.48500
H  42.77000 43.55200 31.73600
H  42.19500 40.73500 31.79700
H  44.37800 40.72300 32.92100
H  44.53300 42.36300 32.23900
H  44.99600 40.98800 31.30400
H  40.20200 41.92900 31.99200
H  40.11000 43.29000 31.06100
H  39.73700 44.49300 32.82700
H  41.45100 44.05600 33.28600
H  43.96600 37.13000 29.90400
H  44.94100 36.27000 28.71400
H  43.19400 36.04500 28.67200
H  43.50300 34.56400 26.26400
H  44.95200 35.12200 27.06900
H  45.17900 34.56500 25.52500
H  41.87300 40.04800 22.12700
H  42.78500 42.86000 21.80500
H  44.73800 40.27200 22.36900
H  44.18400 41.48400 21.29100
H  43.72000 39.79700 20.96100
H  40.72400 42.12200 20.61000
H  40.43600 43.57800 21.64500
H  39.25900 40.94100 21.58000
H  38.73500 42.31700 22.67200
H  39.86100 41.23300 23.22800
H  40.32100 47.84400 25.24300
H  40.73300 46.76600 24.01700
H  41.99500 47.61600 24.89100
H  40.35200 45.50200 30.43600
H  43.23300 47.78400 32.54100
H  42.74700 46.69600 33.84900
H  41.60700 47.90300 33.45500

