158

Mg 1.10700 7.56300 25.69600
C  1.83500 9.25900 28.59500
C  1.42700 4.56000 27.46500
C  0.58800 5.99300 22.78500
C  1.59400 10.64700 23.88300
N  1.96100 6.90700 27.70200
C  1.87600 7.89700 28.77900
C  1.90000 7.12600 30.11300
C  1.96800 5.64300 29.80400
C  1.80300 5.67700 28.20100
C  3.30200 4.96100 30.11800
C  0.66400 7.56900 30.99700
C  1.07100 7.97400 32.42300
H  2.37900 7.45400 33.13900
N  0.87700 5.51600 25.24000
C  1.02800 4.44900 26.06100
C  0.86200 3.22300 25.35100
C  0.65000 3.60700 23.95700
C  0.69700 5.13100 23.95500
C  0.91000 1.81800 25.95900
C  0.48500 2.75500 22.67900
O  0.30200 3.16100 21.57500
C  0.49400 1.26000 22.81800
N  1.16500 8.24800 23.67200
C  0.79600 7.38600 22.67700
C  0.91700 8.04600 21.36000
C  0.82400 9.52100 21.75100
C  1.22700 9.49400 23.21900
C  2.20700 7.59300 20.56600
C  -0.63400 10.16200 21.58500
C  -0.71600 11.59800 21.02100
N  1.59000 9.54300 26.08100
C  1.76400 10.74700 25.27400
C  1.83100 11.88100 26.14300
C  1.79100 11.36800 27.48100
C  1.75300 9.97700 27.38600
C  1.86600 13.34900 25.65300
C  1.96700 11.75600 28.91500
O  2.06300 12.82100 29.47500
C  1.97600 10.39300 29.70600
C  3.27300 10.40500 30.52200
O  4.46300 10.16100 30.23500
O  2.91100 10.91100 31.73900
C  3.86800 10.96900 32.81000
H  1.46900 3.63100 28.03900
H  0.33800 5.51300 21.83600
H  1.65200 11.61200 23.37500
H  2.83700 7.41700 30.58800
H  1.14100 5.03500 30.17100
H  3.91600 5.63700 30.71400
H  3.87200 4.79700 29.20400
H  3.13800 4.02200 30.64700
H  -0.01600 6.72000 30.93500
H  0.17600 8.41700 30.51600
H  0.19200 7.73100 33.02100
H  1.17300 9.05900 32.39800
H  -0.01000 1.23800 25.88400
H  1.11000 1.78900 27.03000
H  1.69800 1.20300 25.52400
H  1.46600 0.76900 22.88000
H  0.14900 0.77300 21.90600
H  -0.24400 1.03800 23.58800
H  0.02500 7.78600 20.79100
H  1.51000 10.10500 21.13800
H  2.27900 6.51900 20.40000
H  3.12400 8.03400 20.95600
H  1.94500 8.03900 19.60700
H  -1.04100 10.26900 22.59000
H  -1.33600 9.52900 21.04100
H  -1.24600 11.72300 20.07700
H  0.27300 12.05500 21.00500
H  -1.28700 12.18800 21.73800
H  1.58100 14.01500 26.46700
H  1.02900 13.28500 24.95700
H  2.77900 13.69600 25.16900
H  1.12600 10.41100 30.38800
H  3.30000 10.38400 33.53300
H  3.99500 11.96100 33.24200
H  4.84900 10.60100 32.51000
Mg 7.38700 53.97900 41.96600
C  6.72600 50.34800 41.57800
C  10.55800 53.38300 41.03000
C  7.81300 57.27600 41.91800
C  3.89300 54.45600 41.87500
N  8.42400 52.07800 41.28500
C  8.09700 50.74600 41.22300
C  9.35600 49.87700 41.14100
C  10.51700 50.86400 41.32700
C  9.78800 52.23100 41.21900
C  11.24400 50.73800 42.73100
C  9.40900 49.13100 39.74900
C  9.10300 50.08800 38.52800
H  8.05300 49.56900 37.53600
N  8.98800 55.21600 41.54400
C  10.21300 54.80600 41.14200
C  11.16200 55.92900 40.99200
C  10.37600 57.09800 41.29800
C  8.99800 56.61700 41.62800
C  12.61600 55.83500 40.53400
C  10.94000 58.52700 41.36100
O  12.08400 58.77300 41.05100
C  10.09700 59.72700 41.81200
N  6.11300 55.55300 41.79800
C  6.50900 56.86600 41.97700
C  5.39000 57.85800 41.83500
C  4.11100 56.97100 41.91500
C  4.73400 55.58400 41.77700
C  5.29800 59.13000 42.72600
C  3.09500 57.21900 40.78600
C  1.63400 57.16800 41.22500
N  5.65600 52.65400 41.93600
C  4.27500 53.01700 41.97300
C  3.50700 51.75900 42.16800
C  4.41600 50.71300 42.05800
C  5.65900 51.29300 41.78900
C  2.03400 51.72700 42.54900
C  4.62900 49.26800 42.06300
O  3.83300 48.37300 42.45100
C  6.09000 48.95500 41.59800
C  6.03700 48.22500 40.30500
O  5.38100 48.61300 39.35900
O  6.59800 46.93800 40.51400
C  6.31900 45.99800 39.36500
H  11.61500 53.11100 41.00000
H  7.83000 58.35500 42.08500
H  2.84000 54.71600 41.99800
H  9.26500 49.00500 41.78800
H  11.28700 50.74600 40.56500
H  12.29300 50.47000 42.60600
H  10.79400 50.21400 43.57500
H  11.31200 51.75500 43.11600
H  8.89700 48.16900 39.77600
H  10.43400 48.76400 39.68900
H  10.02900 50.19800 37.96300
H  8.87700 51.10000 38.86400
H  12.74200 54.95500 39.90200
H  13.28500 55.73800 41.38900
H  13.00500 56.69400 39.98700
H  9.33800 59.86100 41.04000
H  10.67900 60.64900 41.79600
H  9.69000 59.47000 42.79000
H  5.43100 58.30600 40.84200
H  3.69000 56.89600 42.91800
H  6.21400 59.16600 43.31600
H  4.45800 58.98400 43.40600
H  5.20200 59.95200 42.01700
H  3.14400 56.61300 39.88100
H  3.25700 58.24200 40.44800
H  1.08800 56.44400 40.62000
H  1.13700 58.10600 40.97700
H  1.50000 57.02100 42.29700
H  1.72300 52.76600 42.65900
H  1.71700 51.27900 43.49000
H  1.48500 51.25700 41.73300
H  6.49400 48.33300 42.39600
H  5.88800 45.07700 39.75800
H  7.27300 45.70200 38.92600
H  5.66800 46.36700 38.57200

