158

Mg -2.00600 16.59400 26.16500
C  -2.29400 14.28100 28.75000
C  -2.41600 19.14200 28.49300
C  -1.97200 18.84600 23.61500
C  -1.83100 14.05000 23.82100
N  -2.34300 16.66400 28.37100
C  -2.39300 15.59400 29.28700
C  -2.70100 15.99900 30.72500
C  -2.92700 17.58800 30.48400
C  -2.62500 17.81900 29.02900
C  -4.30000 18.26000 31.02800
C  -1.55600 15.57500 31.73800
C  -0.98300 16.62300 32.71700
H  -0.43800 16.05500 34.05700
N  -2.17500 18.66000 26.10000
C  -2.30400 19.54600 27.12400
C  -2.49500 20.88200 26.62200
C  -2.21700 20.87600 25.25100
C  -2.07300 19.40200 24.93200
C  -2.99000 21.97800 27.45400
C  -2.11200 22.04800 24.33900
O  -2.00200 21.99600 23.13000
C  -2.04500 23.47700 25.06000
N  -2.03400 16.51600 23.97300
C  -1.87900 17.55700 23.18900
C  -1.83600 17.20800 21.78100
C  -1.57800 15.59600 21.90600
C  -1.82100 15.38100 23.31900
C  -3.12300 17.60000 21.00400
C  -0.21500 14.98300 21.39800
C  -0.23200 14.77000 19.85000
N  -2.05600 14.59500 26.19900
C  -1.91900 13.69300 25.12900
C  -2.11600 12.32000 25.67000
C  -2.23800 12.56800 27.10200
C  -2.20800 13.91600 27.32600
C  -2.24300 11.06200 24.95700
C  -2.42000 11.91400 28.39800
O  -2.31300 10.68500 28.72500
C  -2.48900 13.00300 29.45900
C  -1.59800 12.72500 30.54200
O  -0.36000 12.62000 30.42300
O  -2.34000 12.55500 31.70500
C  -1.47000 12.14200 32.77900
H  -2.47600 19.90300 29.27400
H  -1.92800 19.57700 22.80500
H  -1.83400 13.22000 23.11100
H  -3.65500 15.52600 30.95400
H  -2.01500 18.06500 30.84200
H  -3.94400 18.91300 31.82600
H  -4.97800 17.54100 31.48700
H  -4.98100 18.69100 30.29400
H  -0.67800 15.17000 31.23500
H  -1.90100 14.89800 32.51900
H  -1.69700 17.39700 32.99600
H  -0.15100 17.11500 32.21300
H  -2.19700 22.70600 27.62800
H  -3.35100 21.63400 28.42400
H  -3.86500 22.51300 27.08700
H  -3.04700 23.67900 25.43600
H  -1.85100 24.18900 24.25800
H  -1.29700 23.52900 25.85100
H  -0.98400 17.60200 21.22800
H  -2.46900 15.22000 21.40100
H  -2.75100 18.43100 20.40500
H  -3.94800 17.97500 21.61000
H  -3.60200 16.79100 20.45300
H  -0.01500 14.15600 22.08000
H  0.48500 15.81100 21.50900
H  0.41800 15.46600 19.32000
H  -1.20000 14.78700 19.34900
H  0.18600 13.76600 19.76900
H  -1.36500 11.00400 24.31400
H  -3.13800 11.04100 24.33500
H  -2.22200 10.24100 25.67300
H  -3.43500 13.00900 30.00000
H  -0.60400 12.80000 32.85200
H  -1.25400 11.07600 32.71300
H  -2.04400 12.42500 33.66200
Mg 9.33500 3.15400 27.63500
C  10.90600 1.40600 30.34300
C  7.38600 4.81600 30.09700
C  7.52300 4.40100 25.23100
C  10.79000 0.71100 25.42500
N  9.19500 3.15500 29.95400
C  10.05700 2.42900 30.83700
C  9.78800 2.80100 32.35800
C  8.68300 3.94900 32.17400
C  8.34700 3.95400 30.65100
C  7.38200 3.75300 33.07600
C  11.10100 3.24200 33.19400
C  10.97400 4.37900 34.23600
H  11.60100 4.14600 35.65400
N  7.78500 4.58100 27.65300
C  7.10500 5.11800 28.71700
C  6.17000 6.07100 28.25400
C  6.13600 6.00600 26.80600
C  7.20800 4.98400 26.52800
C  5.43800 6.99800 29.25400
C  5.29300 6.77100 25.65400
O  5.41100 6.48000 24.50300
C  4.25000 7.77800 26.08900
N  9.24800 2.76400 25.67500
C  8.47600 3.47700 24.87800
C  8.74800 3.08600 23.45200
C  9.61500 1.82300 23.47400
C  9.92300 1.73400 24.98500
C  7.50600 2.88800 22.53200
C  10.94400 1.78800 22.61000
C  10.94600 0.62100 21.56800
N  10.62600 1.44800 27.75500
C  11.11400 0.55700 26.79700
C  11.92400 -0.41900 27.52400
C  11.91600 -0.07000 28.85100
C  11.10200 1.01600 28.99500
C  12.67700 -1.57100 26.90400
C  12.39800 -0.48200 30.15000
O  13.18000 -1.40000 30.50500
C  11.78400 0.48000 31.10500
C  10.99600 -0.27900 32.20400
O  9.81800 -0.64300 32.22200
O  11.80900 -0.21600 33.29200
C  11.10500 -0.48600 34.54700
H  6.94200 5.44500 30.87100
H  6.97900 4.76200 24.35600
H  11.16900 0.00500 24.68400
H  9.39700 1.88200 32.79500
H  9.14000 4.87900 32.51300
H  7.35800 4.60500 33.75500
H  7.45200 2.89400 33.74300
H  6.39600 3.58500 32.64200
H  11.91100 3.54300 32.53000
H  11.49300 2.33700 33.65800
H  9.93000 4.57000 34.48300
H  11.52700 5.16600 33.72300
H  6.11900 7.83400 29.41100
H  5.24000 6.51900 30.21300
H  4.51700 7.36300 28.79900
H  3.46300 7.40300 26.74200
H  3.71800 8.38300 25.35400
H  4.81600 8.50200 26.67500
H  9.40400 3.84900 23.03200
H  9.03300 0.94300 23.19900
H  6.75600 2.52400 23.23400
H  7.54800 2.15400 21.72700
H  7.21600 3.78400 21.98300
H  11.87900 1.60900 23.14000
H  11.19000 2.69200 22.05400
H  11.32900 1.06500 20.64900
H  9.92500 0.25700 21.45700
H  11.62900 -0.07600 22.05400
H  12.47600 -1.73600 25.84500
H  12.42400 -2.51200 27.39200
H  13.75700 -1.52900 27.04500
H  12.52600 1.03200 31.68200
H  11.69000 -1.20100 35.12600
H  10.05200 -0.76700 34.53700
H  11.34700 0.44600 35.05800

