158

Mg 47.59100 25.05200 28.28100
C  48.59800 27.19500 30.96700
C  46.81000 22.60400 30.71800
C  47.35300 22.79300 25.77500
C  48.84200 27.37000 25.92900
N  47.78300 24.90400 30.57600
C  48.00000 26.01500 31.41100
C  47.60100 25.65600 32.83500
C  47.09100 24.19900 32.72000
C  47.24300 23.83300 31.26200
C  47.86200 23.23200 33.61100
C  46.61000 26.61700 33.48400
C  47.01400 27.22200 34.87400
H  45.88300 27.50500 35.87400
N  47.01500 23.01900 28.22700
C  46.74100 22.19600 29.36300
C  46.07900 21.03800 28.78700
C  46.19400 21.06400 27.36400
C  46.86600 22.32000 27.06000
C  45.38700 19.93700 29.65900
C  45.63800 20.13600 26.33600
O  45.68900 20.38100 25.13100
C  45.06200 18.76800 26.73700
N  48.21100 25.00700 26.17400
C  47.94200 23.97400 25.34200
C  48.27400 24.29100 23.86100
C  48.57800 25.78000 23.93600
C  48.51500 26.06600 25.44100
C  49.27300 23.32600 23.31000
C  47.68500 26.67600 23.02900
C  46.19000 26.56100 23.18500
N  48.57800 26.85200 28.33400
C  48.86100 27.70600 27.32200
C  49.40500 28.89200 27.94900
C  49.19200 28.76000 29.29800
C  48.86100 27.45000 29.51000
C  50.05800 30.07700 27.32400
C  49.31300 29.47100 30.60400
O  49.72900 30.63300 30.83600
C  48.96900 28.43700 31.74600
C  50.19700 28.30100 32.63500
O  51.30000 28.03700 32.26000
O  49.82200 28.56300 33.89600
C  50.91700 28.62800 34.88600
H  46.53700 21.80300 31.40800
H  47.15000 22.08400 24.97000
H  49.05500 28.20500 25.25700
H  48.48000 25.68100 33.47900
H  46.02700 24.17400 32.95400
H  48.47100 22.58700 32.97700
H  47.13200 22.60500 34.12200
H  48.55000 23.61100 34.36600
H  45.61700 26.20700 33.66800
H  46.52700 27.48000 32.82400
H  47.45900 28.18100 34.60700
H  47.76400 26.54600 35.28300
H  45.67400 18.90700 29.44300
H  44.32900 20.06900 29.43200
H  45.73900 20.07600 30.68100
H  44.50400 18.29100 25.93000
H  44.36700 19.03600 27.53300
H  45.83400 18.17000 27.22100
H  47.36300 24.12300 23.28700
H  49.56900 25.92200 23.50300
H  49.88400 23.82500 22.55800
H  48.69900 22.53000 22.83500
H  49.91300 22.92600 24.09600
H  47.88000 26.38700 21.99600
H  48.02000 27.70200 23.18000
H  45.89700 27.59500 23.36900
H  45.92700 26.04500 24.10900
H  45.65200 26.20100 22.30800
H  50.11500 29.87600 26.25400
H  51.10500 30.20100 27.60100
H  49.61500 31.05000 27.53600
H  48.11200 28.70700 32.36200
H  50.62600 28.57800 35.93600
H  51.34200 29.61100 34.68500
H  51.67800 27.86500 34.72400
Mg 9.30600 47.56800 26.50900
C  7.36600 47.49400 29.48400
C  11.91500 48.77800 28.24000
C  10.92200 47.29800 23.68500
C  6.27100 46.72300 24.82900
N  9.45900 48.35000 28.54800
C  8.66400 47.99100 29.65700
C  9.28200 48.47500 30.97200
C  10.62600 49.05800 30.55400
C  10.67600 48.74200 29.02100
C  10.79000 50.61200 30.77800
C  9.42500 47.40200 32.13100
C  10.17600 47.86400 33.41000
H  9.61300 47.53900 34.84300
N  11.17600 48.05700 26.00600
C  12.22300 48.44000 26.86800
C  13.42100 48.37300 26.19300
C  13.15500 47.89900 24.80900
C  11.64500 47.79000 24.79700
C  14.74100 48.70900 26.93200
C  14.13600 47.63500 23.73100
O  13.82400 47.53500 22.55700
C  15.57500 47.69900 24.00900
N  8.72600 47.13100 24.47500
C  9.63900 46.86800 23.57600
C  8.98900 46.49200 22.22000
C  7.54800 46.08300 22.67400
C  7.51000 46.68100 24.07500
C  9.03800 47.63700 21.17700
C  7.25400 44.54400 22.61800
C  7.83500 43.52300 23.62800
N  7.24400 47.25300 27.03500
C  6.12900 46.90600 26.20400
C  4.97300 46.76800 26.98400
C  5.41200 46.89100 28.29200
C  6.76100 47.29600 28.27600
C  3.59000 46.36600 26.50900
C  5.03000 46.72800 29.66700
O  3.91800 46.39100 30.11900
C  6.26700 47.19300 30.51500
C  6.55000 46.07500 31.40100
O  7.36800 45.17800 31.17600
O  5.80900 46.17400 32.56500
C  6.24800 45.24400 33.62500
H  12.77800 49.16800 28.78400
H  11.61300 47.10700 22.86100
H  5.44900 46.33300 24.22500
H  8.59800 49.23900 31.34200
H  11.44000 48.50800 31.02500
H  11.62500 50.94100 31.39600
H  9.90400 50.89300 31.34800
H  10.78900 51.13800 29.82300
H  9.89300 46.52600 31.68200
H  8.42800 47.15200 32.49600
H  10.38200 48.93200 33.33800
H  11.16200 47.40800 33.49400
H  14.68700 48.98600 27.98500
H  15.35400 49.49600 26.49300
H  15.37700 47.82500 26.88200
H  15.79600 46.93800 24.75800
H  15.90100 48.60000 24.52800
H  16.22300 47.53700 23.14800
H  9.58200 45.64200 21.88300
H  6.79300 46.56300 22.05200
H  9.54500 48.56300 21.45000
H  8.04000 47.92700 20.85100
H  9.48000 47.25800 20.25500
H  7.47200 44.07400 21.65900
H  6.16800 44.45500 22.62100
H  8.33300 44.08700 24.41600
H  8.34300 42.61900 23.29200
H  6.95100 43.13200 24.13000
H  3.59900 45.76300 25.60000
H  2.96600 47.25900 26.48700
H  3.25000 45.64700 27.25400
H  5.83400 48.06500 31.00400
H  7.17700 45.58000 34.08600
H  6.42200 44.20000 33.36800
H  5.47000 45.25500 34.38900

