158

Mg 7.84600 2.95200 26.81400
C  8.90200 1.54700 29.75300
C  6.16700 5.38500 28.68500
C  6.56700 4.39800 23.93300
C  9.05200 0.24300 24.98500
N  7.57200 3.41900 28.98600
C  8.13600 2.69900 29.97300
C  7.90700 3.38200 31.32700
C  6.80900 4.48000 30.94500
C  6.86700 4.47900 29.44900
C  5.38300 4.13500 31.47800
C  9.21800 3.94300 31.92700
C  9.78300 3.50100 33.26700
H  9.89900 4.67100 34.28200
N  6.49500 4.61300 26.32900
C  5.98700 5.48100 27.27800
C  5.25300 6.55000 26.62000
C  5.36800 6.25000 25.17600
C  6.18000 5.09200 25.07500
C  4.50700 7.61900 27.33200
C  4.71300 7.00600 24.03400
O  4.90600 6.62500 22.85000
C  3.77000 8.11800 24.31900
N  7.87500 2.39900 24.79900
C  7.29300 3.20300 23.79100
C  7.27000 2.41700 22.46600
C  8.25800 1.19700 22.75500
C  8.39300 1.23600 24.29800
C  5.75400 1.92000 22.07600
C  9.67600 1.33700 22.12300
C  10.08000 0.21000 21.19600
N  8.68300 1.17000 27.23800
C  9.21900 0.22000 26.39100
C  9.93400 -0.71900 27.15100
C  9.76200 -0.24500 28.47300
C  9.03800 0.91600 28.47200
C  10.79300 -1.85700 26.69100
C  10.17900 -0.48600 29.85400
O  10.85900 -1.34100 30.36900
C  9.64600 0.74300 30.70700
C  8.89000 0.15700 31.90900
O  7.83500 -0.42400 31.89700
O  9.64700 0.29700 33.03600
C  9.24800 -0.25700 34.36900
H  5.67200 6.16200 29.27200
H  6.24000 4.64000 22.92000
H  9.44800 -0.58400 24.39300
H  7.52900 2.72100 32.10700
H  7.01700 5.44900 31.39700
H  5.32300 3.33300 32.21400
H  4.73800 3.84100 30.65000
H  4.84300 4.97900 31.90700
H  9.05900 5.01400 32.05500
H  10.06000 3.71000 31.27600
H  10.66000 2.92400 32.97300
H  9.10300 2.77500 33.71100
H  3.48700 7.23500 27.31200
H  4.51100 8.65400 26.99000
H  4.77300 7.70800 28.38500
H  2.93800 7.65900 24.85200
H  3.34300 8.37400 23.34900
H  4.16900 9.02300 24.77700
H  7.78800 3.07100 21.76400
H  7.73900 0.27400 22.49800
H  5.09600 2.13900 22.91700
H  5.78400 0.86800 21.79000
H  5.43100 2.47400 21.19600
H  10.41400 1.48800 22.91100
H  9.67900 2.29900 21.61100
H  10.12100 0.73100 20.23900
H  9.31400 -0.54300 21.01200
H  11.08600 -0.12400 21.44900
H  11.30300 -2.28800 27.55200
H  11.44800 -1.45700 25.91700
H  10.26700 -2.64000 26.14400
H  10.52700 1.34800 30.92000
H  10.05200 -0.91500 34.69600
H  8.30500 -0.80300 34.40200
H  9.12100 0.57600 35.06100
Mg 16.81500 51.74300 26.41900
C  18.82700 50.52200 29.03900
C  14.62200 52.79900 28.98100
C  14.59800 52.53700 23.97800
C  18.96500 50.44100 24.06700
N  16.67900 51.58700 28.77800
C  17.56400 50.92100 29.54900
C  17.10400 50.99400 31.01600
C  15.70100 51.53400 30.93400
C  15.62500 51.95100 29.48000
C  14.57000 50.52200 31.30300
C  18.02400 51.71300 32.02200
C  18.12500 51.19200 33.47800
H  17.36200 51.91100 34.49100
N  14.90400 52.54300 26.47900
C  14.28600 53.11400 27.61900
C  13.19700 53.93000 27.16100
C  13.12400 53.85000 25.73800
C  14.25100 52.95100 25.32800
C  12.41100 54.76600 28.12700
C  12.12200 54.54900 24.87500
O  12.29000 54.63100 23.64800
C  10.94000 55.33400 25.41800
N  16.69500 51.31200 24.39500
C  15.64900 51.76700 23.58100
C  16.03700 51.65200 22.13500
C  17.60800 51.25000 22.16800
C  17.76900 50.99700 23.63100
C  15.19100 50.61700 21.29100
C  18.70700 52.28900 21.70000
C  19.70300 51.71400 20.67000
N  18.59600 50.67900 26.43200
C  19.38000 50.28900 25.40000
C  20.57800 49.72000 25.98900
C  20.42800 49.68700 27.38100
C  19.13700 50.35400 27.62300
C  21.71800 49.06700 25.26200
C  20.98200 49.42800 28.61400
O  22.03500 48.92000 28.89900
C  20.03400 49.90000 29.79700
C  19.77800 48.86900 30.81500
O  19.09600 47.86200 30.68400
O  20.40900 49.11400 31.99500
C  20.23800 48.15000 33.14300
H  13.97800 53.23800 29.74700
H  14.07500 53.09800 23.20100
H  19.72400 50.10300 23.35800
H  17.00500 49.92600 31.21100
H  15.59800 52.39500 31.59400
H  13.99600 50.10400 30.47500
H  14.02200 50.87600 32.17600
H  15.04200 49.64400 31.74300
H  17.63500 52.73100 32.01900
H  19.00800 51.90200 31.59300
H  19.17200 51.19500 33.78300
H  17.82500 50.14400 33.51100
H  12.02300 55.72600 27.78700
H  13.00400 54.98300 29.01600
H  11.57300 54.17400 28.49400
H  10.09200 55.49700 24.75300
H  11.32600 56.31300 25.70000
H  10.47800 54.76700 26.22600
H  15.95700 52.65500 21.71600
H  17.73300 50.32200 21.60900
H  14.13700 50.83900 21.46000
H  15.45800 49.63200 21.67300
H  15.36300 50.75100 20.22300
H  19.24500 52.71700 22.54600
H  18.16900 53.03100 21.11100
H  19.89100 52.43600 19.87500
H  19.51900 50.69500 20.33200
H  20.57400 51.55900 21.30800
H  22.02700 49.86300 24.58300
H  21.36900 48.23800 24.64600
H  22.34000 48.84100 26.12800
H  20.59500 50.74500 30.19500
H  20.64300 48.63900 34.02900
H  20.84900 47.26100 32.98300
H  19.17500 47.93200 33.24900

