158

Mg 9.35600 3.52900 28.31200
C  10.68600 1.93100 31.14800
C  7.82100 5.71400 30.30000
C  7.92900 4.68500 25.53200
C  10.82200 0.91700 26.35700
N  9.34900 3.74500 30.51800
C  9.91900 2.99700 31.43700
C  9.80800 3.72300 32.82900
C  8.76200 4.87100 32.54000
C  8.62900 4.79100 31.00900
C  7.44600 4.85600 33.38700
C  11.18200 4.14600 33.31300
C  11.65700 3.52400 34.63100
H  12.22300 4.30500 35.74600
N  7.98300 4.95500 28.01900
C  7.42000 5.71900 28.97700
C  6.42800 6.60200 28.39400
C  6.50100 6.43600 26.98600
C  7.48400 5.31000 26.79600
C  5.61500 7.57700 29.24400
C  5.80000 7.05900 25.77100
O  5.97800 6.73100 24.62900
C  4.95200 8.31700 26.03900
N  9.43000 2.88900 26.21300
C  8.80300 3.62800 25.27200
C  9.15200 3.08500 23.88400
C  10.06900 1.88300 24.15700
C  10.15000 1.90000 25.66100
C  7.91200 2.71800 23.13100
C  11.47800 1.67200 23.41500
C  11.57900 0.49800 22.51100
N  10.47900 1.80800 28.61900
C  10.94000 0.87500 27.77600
C  11.70900 -0.13100 28.47400
C  11.62400 0.23000 29.84300
C  10.90900 1.47300 29.86500
C  12.49400 -1.26300 27.89400
C  12.10500 -0.00800 31.21800
O  12.88900 -0.85000 31.62800
C  11.45100 1.13300 32.07500
C  10.63400 0.46200 33.15500
O  9.47300 0.00600 33.02300
O  11.42500 0.34800 34.29800
C  10.86500 -0.13000 35.55900
H  7.45700 6.43100 31.03800
H  7.48100 5.09900 24.62700
H  11.26400 0.09100 25.79400
H  9.49400 2.97500 33.55800
H  9.17400 5.88000 32.51800
H  6.77400 4.03400 33.14100
H  6.88200 5.77300 33.21800
H  7.51100 4.76700 34.47200
H  11.12700 5.23000 33.41500
H  11.94800 3.84200 32.59900
H  12.43700 2.79800 34.40200
H  10.89600 2.95700 35.16600
H  5.59000 7.26700 30.28900
H  4.61700 7.62200 28.80900
H  6.06200 8.54800 29.02700
H  4.22900 8.27700 26.85400
H  4.39300 8.55700 25.13500
H  5.60500 9.16900 26.22800
H  9.79400 3.80000 23.36900
H  9.66300 0.89900 23.92100
H  6.97300 3.02000 23.59400
H  7.84000 1.65500 22.89800
H  7.93000 3.36800 22.25600
H  12.33500 1.56500 24.08100
H  11.71000 2.52900 22.78200
H  12.13900 -0.23100 23.09600
H  12.23500 0.63900 21.65200
H  10.66100 0.01500 22.17600
H  11.94000 -1.77400 27.10600
H  12.51300 -1.99900 28.69800
H  13.51800 -1.12100 27.54900
H  12.23300 1.65500 32.62600
H  10.79500 0.76600 36.17600
H  11.59700 -0.88700 35.83900
H  9.89000 -0.61600 35.53100
Mg 43.08900 4.32200 47.14700
C  40.84600 7.04800 46.91300
C  40.33900 2.25100 47.26700
C  45.12000 1.77400 47.02400
C  45.73000 6.50000 46.82800
N  40.86500 4.65200 47.23500
C  40.25600 5.81500 47.05100
C  38.71000 5.62400 47.20900
C  38.54100 4.17100 47.63200
C  39.97100 3.59800 47.32800
C  37.92200 3.84300 49.01200
C  37.78400 6.09500 45.97800
C  38.31900 5.68900 44.53500
H  38.47500 6.63800 43.40300
N  42.74900 2.34000 47.02700
C  41.56900 1.64700 47.11500
C  41.78300 0.22100 47.11900
C  43.18600 0.06500 46.95200
C  43.77100 1.42400 47.02400
C  40.70500 -0.72400 47.06100
C  43.89900 -1.24700 46.70200
O  43.29500 -2.33200 46.80400
C  45.27100 -1.29000 46.18200
N  45.08900 4.15700 46.67500
C  45.73100 2.98100 46.96300
C  47.25700 3.08800 47.07000
C  47.42900 4.64600 46.90700
C  45.99600 5.15500 46.84400
C  47.85800 2.44000 48.31000
C  48.29800 5.09300 45.71000
C  49.76500 4.61100 45.70400
N  43.29000 6.37100 46.76100
C  44.45800 7.08600 46.77900
C  44.11900 8.52800 46.86300
C  42.64500 8.56000 46.85200
C  42.25600 7.20700 46.80400
C  45.06600 9.74200 46.60400
C  41.43600 9.43400 46.84400
O  41.30800 10.65300 47.02000
C  40.23800 8.49000 46.88700
C  39.35900 8.80100 47.99000
O  39.63600 8.52200 49.16400
O  38.20600 9.39600 47.53500
C  37.29700 9.84400 48.63900
H  39.44700 1.63900 47.41300
H  45.80100 0.92300 47.07200
H  46.53800 7.16800 47.13400
H  38.28900 6.24300 48.00200
H  37.88500 3.71000 46.89300
H  36.99900 3.28000 48.87100
H  37.60900 4.64500 49.68000
H  38.44800 3.11400 49.62900
H  37.50000 7.14500 46.03500
H  36.78600 5.66900 46.07700
H  37.58000 4.98400 44.15500
H  39.24100 5.14900 44.75200
H  39.79300 -0.34700 47.52500
H  40.84400 -1.64600 47.62600
H  40.52000 -0.93400 46.00700
H  45.97800 -1.06300 46.98000
H  45.48100 -0.61100 45.35500
H  45.64400 -2.18600 45.68600
H  47.59100 2.65400 46.12700
H  47.93700 4.95300 47.82100
H  47.12800 2.30000 49.10700
H  48.63700 3.12100 48.65500
H  48.20600 1.42500 48.12000
H  48.28700 6.18000 45.62600
H  47.82500 4.63300 44.84200
H  49.75200 3.72400 45.07000
H  50.21200 4.29700 46.64700
H  50.30500 5.46800 45.30100
H  45.76500 9.53300 45.79400
H  45.72100 9.89400 47.46200
H  44.47400 10.63800 46.41700
H  39.60400 8.49800 46.00000
H  37.80400 10.60300 49.23500
H  36.91800 9.01000 49.22900
H  36.48400 10.42900 48.21000

