158

Mg 9.34500 3.61100 28.18200
C  10.58500 1.84800 30.88600
C  6.97100 5.06200 30.23200
C  7.81000 5.05200 25.47300
C  11.09900 1.50000 25.98200
N  8.75200 3.28900 30.33400
C  9.53900 2.71000 31.25600
C  9.14000 3.18700 32.67600
C  7.95500 4.22100 32.47500
C  7.80100 4.16900 30.89000
C  6.66200 3.85400 33.23500
C  10.43900 3.74200 33.52600
C  10.18900 4.64600 34.75700
H  10.73500 4.19300 36.10200
N  7.69200 4.98900 27.89700
C  6.89400 5.45300 28.89600
C  5.93100 6.41400 28.34800
C  6.12800 6.37400 26.90200
C  7.18300 5.40400 26.67700
C  4.90300 7.23900 29.09600
C  5.48800 7.19200 25.78600
O  5.82000 7.07500 24.57300
C  4.29300 8.12400 26.11600
N  9.41200 3.24000 26.05200
C  8.82500 4.06200 25.13500
C  9.30700 3.91000 23.66400
C  10.39400 2.81200 23.94800
C  10.31700 2.46200 25.41200
C  8.21500 3.40100 22.71300
C  11.80500 3.25600 23.49800
C  12.51800 4.26700 24.36500
N  10.58600 2.01400 28.33900
C  11.19300 1.22600 27.31600
C  11.94100 0.21000 27.99800
C  11.79000 0.49900 29.40600
C  10.89300 1.55500 29.51300
C  12.81500 -0.79100 27.29100
C  12.32400 0.16200 30.76700
O  13.16500 -0.62100 31.10800
C  11.54600 1.09300 31.73900
C  10.83300 0.22900 32.66800
O  9.89700 -0.49100 32.37800
O  11.32800 0.29300 33.91100
C  10.54200 -0.35600 34.96700
H  6.29000 5.61700 30.88100
H  7.35100 5.52000 24.59900
H  11.85500 1.04700 25.33700
H  8.82600 2.27200 33.17700
H  8.18800 5.25300 32.73600
H  5.90100 3.62100 32.49000
H  6.29800 4.74100 33.75400
H  6.87900 3.03100 33.91600
H  11.10700 4.22400 32.81200
H  10.90300 2.83000 33.90300
H  9.11900 4.73000 34.94900
H  10.43300 5.65500 34.42500
H  4.88300 6.98200 30.15500
H  3.89500 7.06700 28.71800
H  5.11000 8.26900 28.80800
H  3.89300 8.49500 25.17200
H  4.51800 8.96200 26.77500
H  3.39900 7.59700 26.44700
H  9.76700 4.82500 23.29300
H  10.00600 1.97500 23.36700
H  7.38800 3.02900 23.31800
H  8.55800 2.51200 22.18400
H  8.03000 4.06300 21.86700
H  11.73300 3.74300 22.52600
H  12.43500 2.37600 23.36500
H  12.09700 4.50500 25.34200
H  12.74100 5.17200 23.79900
H  13.50000 3.89000 24.65100
H  13.39700 -0.32700 26.49500
H  12.25800 -1.58400 26.79400
H  13.49200 -1.31500 27.96500
H  12.12800 1.88800 32.20600
H  9.71300 -0.99800 34.66700
H  10.16000 0.49900 35.52400
H  11.16100 -0.99800 35.59400
Mg 17.93800 -1.25700 27.52000
C  17.13800 0.52100 30.46100
C  19.68600 -3.53000 29.57500
C  19.13300 -2.67900 24.74800
C  16.31700 1.14100 25.64700
N  18.42700 -1.33200 29.86000
C  17.95300 -0.55100 30.81300
C  18.35000 -1.10600 32.20200
C  19.09400 -2.46200 31.87100
C  18.99100 -2.50400 30.34300
C  20.54000 -2.56100 32.43000
C  17.19000 -1.49800 33.16000
C  17.41900 -1.14000 34.63800
H  18.70500 -0.44600 35.05600
N  19.24000 -2.84600 27.21700
C  19.85300 -3.65800 28.19100
C  20.72900 -4.61800 27.49200
C  20.63000 -4.32200 26.09400
C  19.57900 -3.29200 25.95000
C  21.60200 -5.55500 28.30400
C  21.46700 -4.91300 24.90700
O  21.33500 -4.52400 23.76400
C  22.49700 -5.88300 25.15400
N  17.74500 -0.88100 25.49200
C  18.32200 -1.55900 24.51300
C  18.09100 -0.97400 23.11700
C  16.91900 0.01400 23.39800
C  16.98500 0.09800 24.93100
C  19.38400 -0.30200 22.60200
C  15.49600 -0.35700 22.77200
C  14.78100 0.83500 22.07700
N  16.93600 0.48200 27.88700
C  16.25800 1.29800 27.00700
C  15.48700 2.30000 27.76100
C  15.76800 1.98600 29.08500
C  16.72500 0.93600 29.10400
C  14.49900 3.37400 27.26900
C  15.53500 2.42000 30.48400
O  14.81500 3.36700 30.83800
C  16.36100 1.49400 31.39200
C  17.25000 2.32500 32.21100
O  18.28200 2.74500 31.78100
O  16.61900 2.59500 33.40600
C  17.28600 3.49700 34.32900
H  20.42600 -4.03600 30.19800
H  19.47200 -3.12100 23.80900
H  15.75900 1.94200 25.15900
H  19.02900 -0.35800 32.61100
H  18.60100 -3.37500 32.20400
H  20.78800 -1.64700 32.97100
H  21.30100 -2.56600 31.65000
H  20.77100 -3.39800 33.09000
H  16.88100 -2.53300 33.01700
H  16.32100 -0.90400 32.87900
H  17.17400 -2.00700 35.25200
H  16.63400 -0.42600 34.88900
H  22.24200 -5.07400 29.04300
H  22.35900 -6.19700 27.85300
H  20.99600 -6.32400 28.78400
H  23.44300 -5.70100 25.66300
H  22.62000 -6.45800 24.23600
H  22.08100 -6.74700 25.67200
H  17.79800 -1.67000 22.33100
H  17.24400 1.02600 23.16000
H  19.71800 -0.76400 21.67200
H  20.21200 -0.43100 23.29900
H  19.34500 0.77600 22.44600
H  14.82900 -0.70500 23.56200
H  15.65200 -1.19700 22.09600
H  14.56700 0.37800 21.11100
H  15.40000 1.72300 21.95600
H  13.84900 1.11000 22.57100
H  13.71800 3.00600 26.60400
H  15.10400 4.09600 26.72000
H  14.08700 3.81200 28.17800
H  15.67700 0.96600 32.05700
H  16.70100 4.41500 34.26600
H  18.32100 3.66000 34.02900
H  17.34800 3.07200 35.33100

