158

Mg -1.32800 16.88000 26.48000
C  -1.79000 14.77400 29.23500
C  -1.90700 19.61000 28.51000
C  -1.49400 18.91900 23.73400
C  -1.33000 14.10100 24.39800
N  -1.68100 17.11100 28.68400
C  -1.73700 16.11000 29.60100
C  -2.04000 16.72800 30.99000
C  -2.29500 18.22800 30.74700
C  -1.89600 18.38100 29.18800
C  -3.77900 18.64500 31.03000
C  -0.97000 16.42100 32.05300
C  -0.95400 17.12400 33.40700
H  -0.74800 16.23500 34.68900
N  -1.64400 18.94300 26.20000
C  -1.66600 19.91100 27.19000
C  -1.59200 21.21300 26.61800
C  -1.51400 21.08100 25.21100
C  -1.61000 19.60600 24.98700
C  -1.53300 22.48600 27.53800
C  -1.35600 22.14000 24.13600
O  -1.35500 21.93400 22.91500
C  -0.94800 23.48600 24.58600
N  -1.69200 16.53800 24.28200
C  -1.51300 17.59300 23.40000
C  -1.29700 17.08100 21.98300
C  -1.19300 15.48800 22.24100
C  -1.37100 15.35900 23.74800
C  -2.55000 17.33000 21.08100
C  0.12600 14.83400 21.62600
C  1.35500 14.88900 22.56600
N  -1.50500 14.88900 26.70700
C  -1.51900 13.85300 25.73300
C  -1.56200 12.55700 26.43700
C  -1.79700 12.91200 27.78500
C  -1.74100 14.31600 27.87800
C  -1.37700 11.28600 25.74100
C  -1.92700 12.31400 29.06600
O  -1.97800 11.13600 29.47100
C  -2.14300 13.46400 30.04500
C  -1.25900 13.16600 31.15200
O  -0.02800 13.18600 31.10600
O  -2.05900 12.82600 32.23800
C  -1.40400 12.21000 33.46100
H  -2.00500 20.42100 29.23400
H  -1.25700 19.52900 22.86000
H  -1.19700 13.22900 23.75300
H  -2.96700 16.22900 31.27300
H  -1.63700 18.87900 31.32200
H  -4.20200 18.74200 30.03000
H  -3.87700 19.55600 31.62000
H  -4.40400 17.96800 31.61300
H  0.00600 16.39100 31.56800
H  -1.10700 15.42400 32.47300
H  -1.79900 17.79500 33.56400
H  -0.10800 17.78500 33.22000
H  -1.71500 22.36600 28.60600
H  -2.36800 23.13100 27.26300
H  -0.56800 22.97200 27.40000
H  -1.75400 23.93000 25.17100
H  -0.75000 24.08000 23.69300
H  0.05100 23.43000 25.01900
H  -0.33800 17.31700 21.52100
H  -2.06300 15.10300 21.70800
H  -3.19000 16.45900 20.94400
H  -2.15900 17.61600 20.10500
H  -3.14900 18.20000 21.35100
H  0.32700 15.38700 20.70900
H  -0.14100 13.81400 21.35200
H  1.50100 13.86000 22.89500
H  1.22900 15.50400 23.45700
H  2.27400 15.16500 22.04900
H  -0.64700 10.69900 26.29900
H  -0.95700 11.33900 24.73700
H  -2.31400 10.78200 25.97500
H  -3.20200 13.53100 30.29300
H  -1.39200 13.04800 34.15700
H  -0.34300 11.98100 33.36700
H  -2.05300 11.48900 33.95900
Mg 26.04600 -0.57600 28.66500
C  27.87900 -0.78500 31.70100
C  23.23000 -0.71900 30.56000
C  24.31900 -0.46400 25.85100
C  29.07800 -1.00300 27.04800
N  25.65200 -0.85300 30.91500
C  26.52500 -0.69600 31.91700
C  25.76800 -0.36200 33.20400
C  24.27600 -0.58900 32.84400
C  24.36400 -0.76300 31.31500
C  23.47100 -1.61000 33.63600
C  26.14600 0.96900 33.93100
C  26.81000 0.76000 35.26300
H  26.44200 1.74300 36.37600
N  24.08700 -0.61800 28.22100
C  23.00700 -0.60100 29.14700
C  21.70000 -0.38800 28.46600
C  22.03000 -0.28400 27.10700
C  23.56700 -0.39200 27.00900
C  20.40300 -0.19200 29.18300
C  21.14300 0.05600 25.99600
O  21.50400 0.09200 24.82900
C  19.65900 0.41500 26.22000
N  26.63600 -0.96100 26.78500
C  25.74200 -0.70800 25.78800
C  26.38400 -0.79000 24.42800
C  27.90800 -0.71300 24.76400
C  27.89400 -0.88400 26.29200
C  25.94900 -1.97000 23.60400
C  28.74800 0.50600 24.28300
C  28.25500 1.87200 24.78500
N  28.10600 -0.94800 29.20900
C  29.16800 -1.13300 28.46800
C  30.31700 -1.20500 29.25600
C  29.88700 -1.08400 30.55400
C  28.53000 -0.93000 30.48700
C  31.68300 -1.47200 28.78900
C  30.29300 -1.08900 31.96500
O  31.37400 -1.39700 32.39300
C  28.96500 -0.78400 32.76300
C  28.76700 -1.78300 33.78200
O  28.08300 -2.83100 33.63500
O  29.42500 -1.45100 34.95100
C  29.21900 -2.47200 35.95900
H  22.28000 -0.66600 31.09600
H  23.76300 -0.41800 24.91300
H  30.03700 -1.13700 26.54300
H  26.02000 -1.12800 33.93700
H  23.72000 0.34000 32.97200
H  22.64500 -0.97300 33.95400
H  23.97400 -2.12900 34.45200
H  23.09600 -2.39700 32.98100
H  25.26400 1.60900 33.96800
H  26.86100 1.44700 33.26200
H  27.89200 0.80000 35.14400
H  26.54300 -0.25600 35.55500
H  19.91900 0.70400 28.79500
H  20.61200 -0.08100 30.24700
H  19.90000 -1.13900 28.98500
H  19.23400 0.62700 25.23900
H  19.55400 1.27600 26.88100
H  19.20200 -0.51700 26.55200
H  26.05200 0.15900 24.00800
H  28.34100 -1.57400 24.25500
H  25.09700 -1.67400 22.99200
H  25.74900 -2.84600 24.22100
H  26.75000 -2.32100 22.95400
H  28.89200 0.38100 23.21000
H  29.76100 0.32700 24.64400
H  27.93000 1.79800 25.82300
H  27.51800 2.35800 24.14500
H  29.03900 2.62900 24.81300
H  31.53900 -2.18900 27.98100
H  32.34900 -1.92700 29.52200
H  32.18100 -0.61600 28.33200
H  29.07200 0.21400 33.18800
H  29.70000 -3.37400 35.58000
H  28.15500 -2.62400 36.14100
H  29.71200 -2.19700 36.89100

