158

Mg 48.12700 24.34100 28.30400
C  49.15000 26.48700 30.95600
C  47.53000 21.90600 30.80700
C  47.39700 22.14000 25.91200
C  49.50700 26.49900 26.08700
N  48.26900 24.22500 30.62900
C  48.68500 25.25200 31.49200
C  48.48200 24.89100 32.97600
C  48.00900 23.37300 32.90800
C  47.96900 23.13500 31.36900
C  48.90900 22.37500 33.68500
C  47.66500 25.91600 33.79900
C  48.19300 26.41800 35.14600
H  47.10500 26.65800 36.28200
N  47.51600 22.32300 28.36800
C  47.31300 21.53000 29.47600
C  46.63300 20.32300 28.98200
C  46.60800 20.37900 27.54600
C  47.20500 21.65800 27.23500
C  46.43700 19.20200 29.97900
C  46.14900 19.37700 26.54400
O  46.30900 19.52600 25.35500
C  45.61200 18.05500 27.01600
N  48.64300 24.20400 26.31900
C  48.05800 23.30900 25.49300
C  48.24300 23.72900 24.00700
C  48.70000 25.23000 24.15900
C  49.00200 25.30600 25.62500
C  49.15600 22.82000 23.17100
C  47.71400 26.29000 23.69900
C  46.38200 26.35200 24.43600
N  49.00300 26.20700 28.38500
C  49.55600 26.93700 27.37700
C  50.01000 28.18000 27.91400
C  49.81300 28.06800 29.35600
C  49.27300 26.77900 29.53100
C  50.72500 29.20900 27.22000
C  50.03100 28.72200 30.63000
O  50.43000 29.88100 30.90700
C  49.64700 27.72800 31.73200
C  50.83500 27.40800 32.44600
O  51.79200 26.74300 32.07900
O  50.65400 27.90500 33.73900
C  51.67200 27.46700 34.67800
H  47.44900 21.18000 31.61900
H  47.14300 21.54200 25.03500
H  49.92700 27.21500 25.37800
H  49.45800 24.91100 33.46200
H  46.99400 23.25200 33.28800
H  49.09800 21.60200 32.94000
H  48.33900 22.02100 34.54300
H  49.85600 22.74000 34.08300
H  46.69700 25.44500 33.96800
H  47.45400 26.79400 33.18800
H  48.59600 27.42700 35.05800
H  48.93900 25.72200 35.53000
H  46.91500 18.37100 29.46000
H  45.38600 19.10100 30.25100
H  46.91400 19.39400 30.94000
H  45.22300 17.48100 26.17500
H  44.76100 18.19100 27.68300
H  46.42900 17.48900 27.46300
H  47.22600 23.87900 23.64400
H  49.60300 25.49100 23.60500
H  50.10500 23.32600 22.99100
H  48.69000 22.65700 22.19900
H  49.46300 21.86700 23.60100
H  47.54200 26.19700 22.62700
H  48.15000 27.26900 23.89700
H  45.96600 25.41000 24.07800
H  45.85900 27.14000 23.89400
H  46.36000 26.43500 25.52300
H  50.68700 30.11800 27.82100
H  50.25600 29.46200 26.26900
H  51.74400 28.84400 27.09400
H  48.81200 28.23900 32.21000
H  51.49900 26.40100 34.83100
H  51.41800 27.91100 35.64100
H  52.65900 27.88800 34.49000
Mg 26.94800 49.84800 26.40500
C  24.67200 51.05400 28.84000
C  28.72400 48.50500 28.95500
C  29.08800 49.04800 24.04200
C  25.14400 51.67600 24.05300
N  26.66200 49.78100 28.61000
C  25.69300 50.28400 29.37800
C  25.76400 49.73900 30.84600
C  27.22900 49.22800 30.90900
C  27.57400 49.15000 29.36200
C  28.33100 49.94200 31.75900
C  24.58800 48.77600 31.35100
C  23.72500 49.35700 32.56400
H  23.91800 48.49100 33.77300
N  28.63800 48.85000 26.52600
C  29.28200 48.36900 27.63800
C  30.50900 47.77100 27.27500
C  30.63300 47.89600 25.86000
C  29.41100 48.59200 25.39000
C  31.42600 47.11100 28.29700
C  31.72700 47.43700 24.89700
O  31.51100 47.54100 23.69300
C  33.02000 46.84500 25.34300
N  27.10400 50.33600 24.43700
C  28.03400 49.80200 23.55200
C  27.92400 50.32500 22.07300
C  26.60200 51.17800 22.15300
C  26.27100 51.08200 23.65000
C  29.21000 50.96900 21.50700
C  25.34000 50.65700 21.33700
C  24.60800 51.76600 20.55900
N  25.19200 51.12800 26.38700
C  24.60400 51.74900 25.32100
C  23.43000 52.38000 25.75200
C  23.41900 52.15000 27.17800
C  24.52300 51.38300 27.51100
C  22.59800 53.26100 24.89000
C  22.72400 52.35800 28.36300
O  21.75400 53.02800 28.64100
C  23.43900 51.63900 29.48300
C  23.73100 52.48400 30.70800
O  24.66900 53.30600 30.84300
O  22.68300 52.44100 31.54400
C  22.63400 53.41600 32.66000
H  29.29300 48.00800 29.74400
H  29.64600 48.76600 23.14700
H  24.49000 52.20300 23.35500
H  25.87400 50.62000 31.47800
H  27.13900 48.24600 31.37300
H  28.99200 49.20700 32.21700
H  27.87800 50.61400 32.48800
H  28.93100 50.59200 31.12200
H  25.03300 47.78600 31.46000
H  23.80400 48.64400 30.60500
H  22.73900 49.32800 32.10100
H  23.99900 50.35200 32.91400
H  32.31600 47.74000 28.28700
H  31.57900 46.11500 27.88000
H  31.02400 47.07200 29.31000
H  33.57900 46.72100 24.41500
H  32.83600 45.94500 25.92900
H  33.58100 47.49100 26.01800
H  27.79800 49.48000 21.39700
H  26.86400 52.22000 21.97100
H  28.98400 52.00600 21.25800
H  29.73000 50.36700 20.76200
H  29.97400 50.98700 22.28300
H  24.68800 50.15900 22.05500
H  25.73500 49.98300 20.57700
H  23.61900 51.81800 21.01400
H  24.53200 51.42000 19.52800
H  25.06000 52.75600 20.61900
H  22.27500 54.06200 25.55500
H  21.69500 52.71600 24.61700
H  22.96000 53.66600 23.94500
H  22.83100 50.77900 29.76500
H  23.26500 54.29100 32.50400
H  23.07900 52.87200 33.49400
H  21.57800 53.66300 32.77000

