158

Mg -10.74400 37.84300 41.61200
C  -8.69500 35.02800 41.33300
C  -8.31700 39.67400 39.84600
C  -12.82400 40.51600 41.32700
C  -13.21200 35.84500 42.88400
N  -8.72000 37.37700 40.64600
C  -8.14000 36.13100 40.59800
C  -6.81400 36.22400 39.90600
C  -6.62800 37.77900 39.69700
C  -8.00600 38.28300 39.99100
C  -5.34200 38.41800 40.39800
C  -6.80500 35.44600 38.57500
C  -5.49800 34.59300 38.32600
H  -4.44200 35.15300 37.29000
N  -10.53200 39.82800 40.90400
C  -9.45300 40.33700 40.21400
C  -9.58000 41.73700 39.99300
C  -10.86800 42.10000 40.45200
C  -11.52300 40.78800 40.92600
C  -8.53900 42.56100 39.19700
C  -11.53500 43.46600 40.44800
O  -10.81000 44.45000 40.04600
C  -12.84500 43.76400 41.01900
N  -12.76400 38.13200 41.90500
C  -13.36900 39.33500 41.88600
C  -14.88100 39.23200 42.27800
C  -14.98800 37.73400 42.84300
C  -13.56900 37.15200 42.46000
C  -15.32500 40.36700 43.32900
C  -16.24300 37.00600 42.32900
C  -16.23000 36.04500 41.16800
N  -10.94500 35.84400 42.14500
C  -11.97900 35.21100 42.68900
C  -11.57000 33.78100 43.01300
C  -10.27100 33.68200 42.46700
C  -9.95100 34.97200 41.92600
C  -12.47400 32.77800 43.68000
C  -9.18900 32.80900 42.24800
O  -9.13000 31.65700 42.56800
C  -8.11400 33.64500 41.46300
C  -6.79300 33.56300 42.08700
O  -6.31800 32.49500 42.34100
O  -6.33200 34.74500 42.59400
C  -5.26000 34.73200 43.56900
H  -7.49200 40.20200 39.36200
H  -13.49100 41.37800 41.40100
H  -14.05600 35.19100 43.11500
H  -6.00200 35.95900 40.58300
H  -6.43300 38.07500 38.66600
H  -4.80800 37.73800 41.06200
H  -5.68800 39.18000 41.09700
H  -4.72500 38.97900 39.69600
H  -6.84200 36.10900 37.71100
H  -7.65200 34.76100 38.52900
H  -5.88300 33.64900 37.94100
H  -4.92700 34.35100 39.22200
H  -8.12700 43.17700 39.99700
H  -8.99600 43.13300 38.39000
H  -7.78900 41.93700 38.70900
H  -13.01100 43.36300 42.01900
H  -13.59400 43.43900 40.29700
H  -13.00300 44.84200 41.07000
H  -15.33500 39.31000 41.29000
H  -15.12500 37.76200 43.92400
H  -15.87800 41.14000 42.79600
H  -14.46900 40.84000 43.81100
H  -15.93600 39.99500 44.15100
H  -16.98000 37.76000 42.05200
H  -16.64000 36.42500 43.16100
H  -16.97200 36.38300 40.44500
H  -16.43500 35.00900 41.43800
H  -15.22600 36.07800 40.74300
H  -12.76500 32.01600 42.95700
H  -13.31300 33.32200 44.11600
H  -11.98300 32.19500 44.45900
H  -8.01800 33.23600 40.45700
H  -5.62900 34.82200 44.59100
H  -4.58400 35.57100 43.40500
H  -4.64200 33.83400 43.55700
Mg -12.90900 16.57200 42.81300
C  -9.78400 14.77300 42.63600
C  -11.31700 19.20800 41.48000
C  -15.96700 17.97700 42.70600
C  -14.42700 13.36200 43.59100
N  -10.77500 16.81800 42.06500
C  -9.70900 16.02100 42.02600
C  -8.52300 16.64900 41.36400
C  -9.01500 18.08200 41.11700
C  -10.50200 18.05000 41.54400
C  -8.06700 19.15600 41.79300
C  -8.06100 15.83000 40.06300
C  -6.46600 15.54100 39.97900
H  -6.04100 14.18800 39.31600
N  -13.60400 18.43100 42.15800
C  -12.78100 19.40300 41.66600
C  -13.61000 20.58100 41.38000
C  -14.91900 20.29400 41.76900
C  -14.91100 18.89000 42.27800
C  -13.10300 21.87400 40.87100
C  -16.06400 21.27000 41.64700
O  -15.85800 22.46800 41.37400
C  -17.47300 20.81400 42.04400
N  -14.99400 15.74200 42.99000
C  -15.98200 16.59000 43.07300
C  -17.28000 15.80200 43.46200
C  -16.87800 14.34500 43.58900
C  -15.29600 14.43500 43.37800
C  -18.22300 16.32300 44.64300
C  -17.50300 13.47100 42.54200
C  -18.67900 12.59100 42.98100
N  -12.30000 14.44000 43.24000
C  -13.03100 13.31900 43.44200
C  -12.02400 12.17700 43.47200
C  -10.74100 12.71900 43.33100
C  -10.95000 14.14000 43.10300
C  -12.30000 10.71500 43.69700
C  -9.29600 12.36400 43.31100
O  -8.66000 11.35400 43.55400
C  -8.62500 13.77600 42.87200
C  -7.67500 14.15800 43.99000
O  -7.95800 14.51000 45.12600
O  -6.39500 14.16200 43.53300
C  -5.35600 14.56500 44.47100
H  -10.70400 20.00100 41.04600
H  -17.03800 18.19300 42.70800
H  -14.92000 12.45000 43.93400
H  -7.67400 16.70100 42.04500
H  -8.93900 18.29600 40.05100
H  -7.66700 19.74400 40.96700
H  -7.35500 18.67800 42.46500
H  -8.78300 19.77300 42.33500
H  -8.20500 16.44800 39.17700
H  -8.68200 14.93500 40.08700
H  -6.02800 15.45100 40.97300
H  -6.07800 16.38600 39.41000
H  -13.73400 22.08200 40.00700
H  -12.04800 21.96100 40.60800
H  -13.22800 22.74400 41.51600
H  -17.89800 20.18700 41.26100
H  -18.02400 21.74000 42.20800
H  -17.49600 20.26700 42.98600
H  -17.89900 15.91900 42.57200
H  -17.06500 14.05100 44.62100
H  -19.10000 16.84900 44.26800
H  -17.61100 16.87000 45.36100
H  -18.59300 15.51200 45.27000
H  -16.82000 12.71000 42.16400
H  -17.75500 14.00000 41.62300
H  -18.34400 11.55400 42.97000
H  -19.49300 12.74000 42.27200
H  -19.11500 12.91800 43.92500
H  -13.32400 10.41000 43.91300
H  -11.66900 10.32400 44.49500
H  -11.94200 10.27100 42.76900
H  -8.03200 13.72400 41.95900
H  -5.73500 14.69300 45.48500
H  -4.78700 15.41500 44.09600
H  -4.52500 13.86600 44.56700

