158

Mg 16.98200 -1.34300 27.79400
C  15.81900 0.70700 30.26200
C  18.85700 -3.08000 30.22300
C  18.43400 -3.17300 25.33600
C  15.16400 0.49500 25.37500
N  17.43100 -1.00300 29.93300
C  16.67500 -0.25400 30.79900
C  16.94400 -0.58400 32.31900
C  18.15500 -1.57100 32.21000
C  18.22300 -1.95000 30.68100
C  19.50200 -1.04200 32.75200
C  15.75100 -1.29600 33.00900
C  15.71900 -1.33900 34.48400
H  16.96400 -0.84500 35.23500
N  18.33000 -2.99300 27.85000
C  18.95500 -3.54900 28.94700
C  19.72900 -4.70300 28.49200
C  19.57900 -4.75500 27.08700
C  18.74400 -3.62000 26.67500
C  20.31000 -5.64800 29.47800
C  20.29600 -5.74400 26.12900
O  20.13300 -5.69300 24.93800
C  21.09900 -6.94900 26.64800
N  16.73800 -1.42800 25.76000
C  17.52900 -2.19800 24.92200
C  17.30200 -1.81000 23.38300
C  16.12700 -0.79900 23.48800
C  15.96700 -0.52500 24.93100
C  18.55700 -1.29900 22.57700
C  14.77200 -1.25200 22.86700
C  14.11600 -0.30900 21.85600
N  15.81000 0.31800 27.77300
C  15.09700 0.92600 26.72600
C  14.33800 2.00900 27.29300
C  14.56900 1.95100 28.65200
C  15.55100 0.94500 28.86200
C  13.50000 3.04000 26.56000
C  14.17600 2.53100 29.90300
O  13.42200 3.46600 30.12800
C  14.93000 1.70600 31.03000
C  15.70900 2.43100 32.00700
O  16.71600 3.07400 31.79100
O  15.10600 2.31200 33.22100
C  15.43900 3.28700 34.25700
H  19.49800 -3.55900 30.96600
H  18.93200 -3.68000 24.50600
H  14.50000 1.00200 24.67200
H  17.24600 0.29900 32.88200
H  17.95300 -2.50900 32.72800
H  20.28700 -1.17600 32.00800
H  19.85200 -1.64200 33.59300
H  19.39800 0.02200 32.96200
H  15.75800 -2.35400 32.74300
H  14.81200 -0.86900 32.65700
H  15.50600 -2.34000 34.85800
H  14.84300 -0.78200 34.81700
H  19.99400 -6.63600 29.14200
H  20.01800 -5.57700 30.52600
H  21.39400 -5.54200 29.44700
H  21.50500 -7.61700 25.88900
H  20.37800 -7.63200 27.09600
H  21.92000 -6.75300 27.33800
H  16.94300 -2.66600 22.81100
H  16.46800 0.13500 23.04200
H  19.40600 -1.00800 23.19600
H  18.32700 -0.41200 21.98600
H  18.85300 -2.09900 21.89900
H  14.01800 -1.36600 23.64600
H  14.85700 -2.23800 22.41200
H  14.97000 0.26600 21.49900
H  13.37000 0.30200 22.36400
H  13.79200 -0.87000 20.97900
H  13.27000 2.61100 25.58500
H  14.07700 3.93300 26.31900
H  12.66500 3.39700 27.16300
H  14.15100 1.06400 31.44200
H  15.96400 4.16700 33.88500
H  16.07100 2.76300 34.97300
H  14.50600 3.51600 34.77200
Mg -1.80200 34.84600 27.23600
C  -3.65500 32.68900 29.48000
C  -0.70500 36.47900 29.92000
C  -0.31400 36.91400 25.16900
C  -3.31900 33.24100 24.58800
N  -2.38900 34.77600 29.43400
C  -2.95000 33.70000 30.08800
C  -2.73400 33.85700 31.62300
C  -1.88900 35.16500 31.74300
C  -1.66800 35.56000 30.27100
C  -2.49300 36.20800 32.66700
C  -1.95600 32.58100 32.16800
C  -2.66000 31.76300 33.34700
H  -1.96200 31.75800 34.65300
N  -0.48000 36.36600 27.53200
C  -0.13900 36.90200 28.70900
C  0.94700 37.83500 28.49700
C  1.02800 38.06400 27.09600
C  0.08200 37.10100 26.51500
C  1.69400 38.44900 29.63000
C  1.84100 39.02800 26.31700
O  1.80700 39.03900 25.12500
C  2.75700 40.04100 27.07900
N  -2.00200 35.17000 25.22000
C  -1.23500 36.08100 24.56100
C  -1.44900 36.02800 23.01500
C  -2.25600 34.68700 22.85300
C  -2.55700 34.31400 24.33800
C  -1.90300 37.35600 22.29700
C  -1.51500 33.56100 22.01900
C  -0.48200 32.75100 22.77400
N  -3.32000 33.36200 27.02700
C  -3.73300 32.73900 25.84600
C  -4.37300 31.54800 26.17400
C  -4.48200 31.50100 27.58500
C  -3.77600 32.61200 28.07500
C  -5.00000 30.60000 25.16100
C  -4.97200 30.79300 28.73000
O  -5.68000 29.76800 28.79500
C  -4.46300 31.53200 29.98600
C  -5.55900 31.99800 30.78600
O  -6.20000 33.06300 30.62800
O  -5.79500 31.11100 31.73800
C  -6.74800 31.56600 32.73800
H  -0.16700 36.90400 30.77000
H  0.16500 37.55800 24.42900
H  -3.48400 32.57900 23.73500
H  -3.74100 34.03800 31.99900
H  -0.84300 34.99200 31.99900
H  -3.46300 35.95100 33.09400
H  -2.74200 36.99400 31.95400
H  -1.76900 36.59900 33.38100
H  -1.06100 32.95700 32.66400
H  -1.64900 31.91900 31.35800
H  -2.86800 30.77000 32.94900
H  -3.63800 32.20400 33.54100
H  1.67600 37.79900 30.50400
H  1.20700 39.38500 29.90600
H  2.70300 38.75000 29.34800
H  3.56600 39.54800 27.61900
H  2.18000 40.49900 27.88200
H  3.21900 40.73900 26.38200
H  -0.48600 35.81300 22.55100
H  -3.22200 34.86600 22.38200
H  -1.15900 37.61300 21.54300
H  -1.88700 38.27100 22.88900
H  -2.93400 37.28000 21.95200
H  -0.95700 34.16600 21.30500
H  -2.24000 32.89500 21.55100
H  0.32300 32.76800 22.03900
H  -0.75300 31.70900 22.94500
H  -0.12900 33.20500 23.70000
H  -4.27000 30.04000 24.57600
H  -5.73300 31.22400 24.65000
H  -5.60600 29.95400 25.79700
H  -3.85400 30.80000 30.51500
H  -6.45100 32.44700 33.30700
H  -6.95900 30.73900 33.41600
H  -7.71400 31.92000 32.37900

