158

Mg 53.09000 25.02100 43.28100
C  50.77600 27.52600 42.71300
C  50.88700 22.68100 41.99800
C  55.64300 22.74600 42.81300
C  55.54200 27.43600 44.09500
N  51.09800 25.10300 42.45900
C  50.24700 26.20500 42.43700
C  48.87600 25.89800 41.93000
C  48.85900 24.25000 41.91000
C  50.33500 23.97800 42.21200
C  47.97100 23.65700 43.11900
C  48.45800 26.38000 40.48100
C  49.54700 26.29300 39.36400
H  49.33700 25.55200 38.08400
N  53.23200 22.95800 42.59000
C  52.19900 22.13500 42.27500
C  52.64300 20.82800 41.95200
C  54.01200 20.81700 42.05300
C  54.35100 22.21000 42.58800
C  51.72500 19.66900 41.52600
C  54.94800 19.65400 41.88200
O  54.54200 18.58700 41.49200
C  56.46400 19.73200 42.14800
N  55.23700 25.15600 43.49600
C  56.06600 24.03200 43.23500
C  57.64000 24.41200 43.55200
C  57.43500 25.86900 44.10800
C  55.96200 26.21800 43.83300
C  58.37300 23.43900 44.53100
C  58.54100 26.78200 43.50400
C  59.39700 27.55500 44.60000
N  53.16600 27.07100 43.45600
C  54.20000 27.92100 43.83200
C  53.58700 29.19800 44.14300
C  52.33900 29.10300 43.56200
C  52.08000 27.79100 43.25400
C  54.29300 30.43900 44.65900
C  51.05400 29.78400 43.37100
O  50.73200 30.93800 43.56800
C  50.04500 28.76700 42.76300
C  49.57500 29.38500 41.44800
O  50.31000 29.55100 40.41300
O  48.20400 29.66400 41.51800
C  47.56300 30.16000 40.33300
H  50.10100 21.99700 41.67200
H  56.52900 22.11400 42.71800
H  56.27700 28.11800 44.52800
H  48.20700 26.21100 42.73100
H  48.47000 23.79800 40.99800
H  47.62700 24.48600 43.73700
H  48.55600 22.93000 43.68300
H  47.12400 23.15300 42.65500
H  48.05900 27.39400 40.44400
H  47.59300 25.78100 40.19600
H  50.40500 25.78800 39.80800
H  49.87200 27.25400 38.96600
H  52.00500 19.27400 40.54900
H  50.71500 20.01000 41.29800
H  51.70900 18.79400 42.17600
H  56.95500 18.79900 41.87400
H  56.61600 20.12700 43.15200
H  56.79600 20.49600 41.44400
H  58.18700 24.33900 42.61200
H  57.58600 25.95700 45.18400
H  57.78000 22.54300 44.71800
H  58.50600 23.97300 45.47200
H  59.33600 23.18400 44.09000
H  58.07800 27.54000 42.87100
H  59.20400 26.24600 42.82500
H  59.08600 28.59900 44.55000
H  60.46900 27.41600 44.46000
H  59.17400 27.37700 45.65200
H  55.08600 30.69800 43.95800
H  54.74000 30.18100 45.62000
H  53.55100 31.23100 44.75300
H  49.15000 28.65200 43.37400
H  47.52900 29.41200 39.54000
H  48.16100 31.01900 40.02800
H  46.56500 30.52100 40.58300
Mg 6.66400 53.53800 39.59800
C  6.46100 49.81600 39.50600
C  10.00900 53.12500 38.85300
C  6.67300 56.71300 39.33100
C  3.22000 53.42500 40.09100
N  8.07600 51.70100 39.21000
C  7.78700 50.32900 39.35800
C  9.08400 49.48700 39.14000
C  10.21800 50.52400 39.32500
C  9.42400 51.86700 39.12300
C  10.94400 50.51900 40.69700
C  9.16800 48.80500 37.72700
C  8.92500 49.75600 36.52300
H  7.65300 49.69200 35.73500
N  8.11600 54.81900 39.03900
C  9.44500 54.44800 38.70200
C  10.08800 55.60700 38.38900
C  9.16800 56.75900 38.59500
C  7.94900 56.17700 39.06900
C  11.52400 55.66400 37.82200
C  9.53400 58.22500 38.34000
O  10.64700 58.50800 37.91300
C  8.59400 59.39200 38.61200
N  5.15500 54.86200 39.51300
C  5.44800 56.15400 39.61600
C  4.16600 57.04600 39.86800
C  3.11400 55.91500 40.19900
C  3.88400 54.63900 39.96800
C  4.30600 58.12600 41.00700
C  1.72900 56.01800 39.56700
C  0.57200 55.96500 40.54500
N  5.06200 51.93300 39.57600
C  3.73700 52.14800 39.90100
C  3.04500 50.85800 40.07300
C  4.11300 49.93100 39.95100
C  5.28300 50.62800 39.63700
C  1.57400 50.65200 40.44400
C  4.39200 48.58000 40.02700
O  3.64600 47.60100 40.13200
C  5.86900 48.42300 39.72400
C  6.00900 47.60900 38.57200
O  5.77500 47.93000 37.41800
O  6.46700 46.30800 38.91000
C  6.17100 45.13900 37.97600
H  11.08700 52.98700 38.74500
H  6.70600 57.80200 39.24600
H  2.16900 53.38000 40.38500
H  9.14200 48.65900 39.84600
H  10.98600 50.53300 38.55200
H  11.98900 50.39900 40.41000
H  10.83300 49.68300 41.38800
H  10.91400 51.40200 41.33500
H  8.35400 48.08100 37.71900
H  10.11800 48.27100 37.70300
H  9.78300 49.65900 35.85700
H  9.06100 50.76700 36.90600
H  12.24100 55.79100 38.63300
H  11.55500 56.48500 37.10600
H  11.89700 54.78600 37.29400
H  9.08200 60.35900 38.73200
H  8.25300 59.07000 39.59600
H  7.72000 59.35200 37.96200
H  4.05000 57.54400 38.90500
H  3.03700 55.89700 41.28600
H  4.40500 59.16400 40.68900
H  5.21900 57.76200 41.47800
H  3.51000 57.94900 41.73000
H  1.61400 55.18800 38.87000
H  1.69700 56.98200 39.05800
H  -0.38300 55.87600 40.02600
H  0.52100 56.91100 41.08500
H  0.56600 54.96100 40.97000
H  1.51000 49.59300 40.69000
H  0.82600 51.00800 39.73600
H  1.46300 51.25900 41.34300
H  6.24100 47.88200 40.59400
H  7.11000 44.76800 37.56500
H  5.34700 45.41200 37.31800
H  5.70600 44.34900 38.56600

