158

Mg 29.90800 58.30800 39.69000
C  27.30200 56.02200 38.97300
C  32.11600 55.96900 38.57300
C  32.31200 60.71400 40.01300
C  27.39200 60.67100 40.25300
N  29.71600 56.27000 39.03600
C  28.60400 55.57700 38.71000
C  28.99400 54.24600 38.10200
C  30.46100 54.07500 38.47900
C  30.82300 55.50300 38.73300
C  30.79700 53.04600 39.64500
C  28.70100 54.22000 36.62500
C  27.65800 53.30200 36.05800
H  26.83600 54.00100 34.96700
N  31.95900 58.32100 39.55000
C  32.66700 57.28900 38.95300
C  34.04100 57.65800 38.84400
C  34.16100 58.93300 39.38900
C  32.77600 59.40000 39.65400
C  35.12900 56.73000 38.12400
C  35.52100 59.68400 39.54300
O  36.60300 59.25300 39.13300
C  35.60000 61.02700 40.19100
N  29.83600 60.35900 40.18400
C  30.97600 61.16900 40.20400
C  30.54300 62.60900 40.42600
C  29.00700 62.59000 40.48800
C  28.74500 61.10600 40.22600
C  31.25400 63.32800 41.56800
C  28.20600 63.48200 39.52200
C  26.82600 63.99800 40.10000
N  27.70000 58.41800 39.56900
C  26.87900 59.40500 39.88100
C  25.49000 58.91400 39.80800
C  25.66500 57.63000 39.38300
C  27.01100 57.32300 39.31500
C  24.26300 59.64200 40.03900
C  24.84700 56.41600 39.07000
O  23.60700 56.29300 39.10300
C  25.91600 55.40000 38.67800
C  25.61500 54.09100 39.32500
O  25.96800 53.80900 40.46100
O  24.85800 53.32900 38.45300
C  24.36000 52.12700 39.07200
H  32.83700 55.27100 38.14200
H  33.04800 61.52000 40.02000
H  26.61500 61.42300 40.40500
H  28.45900 53.46100 38.63800
H  30.93900 53.70100 37.57300
H  30.09900 52.23200 39.84200
H  30.92200 53.62000 40.56300
H  31.73100 52.55800 39.36600
H  29.62300 54.07800 36.06100
H  28.38700 55.26000 36.52600
H  26.89500 52.94500 36.74900
H  28.19000 52.46500 35.60800
H  35.73800 56.24300 38.88600
H  35.76300 57.37000 37.51200
H  34.85400 55.93800 37.42800
H  35.10600 61.75700 39.54900
H  36.58500 61.26200 40.59200
H  35.02000 60.91600 41.10700
H  30.80100 63.22900 39.56800
H  28.80300 62.81100 41.53600
H  31.88200 62.58500 42.05900
H  30.54100 63.83200 42.22100
H  31.83200 64.13400 41.11400
H  27.90900 62.90900 38.64400
H  28.69900 64.39200 39.18200
H  26.09700 63.59800 39.39500
H  26.71800 65.08300 40.10300
H  26.56500 63.62900 41.09200
H  24.39900 60.72100 39.96200
H  23.92900 59.39400 41.04600
H  23.54800 59.42200 39.24600
H  25.68500 55.20500 37.63000
H  25.00100 51.75800 39.87200
H  24.10600 51.31900 38.38600
H  23.46000 52.34200 39.64700
Mg 36.34400 48.99900 24.55300
C  36.40600 47.22100 27.58000
C  35.09500 51.66600 26.30000
C  35.32800 50.46900 21.60200
C  37.15900 46.08900 23.00000
N  35.67200 49.32800 26.70800
C  36.01000 48.55100 27.78900
C  35.77600 49.28100 29.14800
C  35.49300 50.75500 28.66400
C  35.38200 50.59000 27.15000
C  34.22500 51.30700 29.31200
C  36.81800 49.03900 30.30300
C  36.47600 48.65900 31.71100
H  35.06900 48.79800 32.16900
N  35.51200 50.85200 24.00000
C  35.15500 51.85600 24.91700
C  34.66700 52.99600 24.14400
C  34.63700 52.64500 22.76400
C  35.13200 51.25200 22.74300
C  34.15900 54.19800 24.72000
C  34.05200 53.43900 21.54900
O  34.16100 53.11600 20.35300
C  33.66800 54.89400 21.74700
N  36.33000 48.36300 22.53400
C  35.82400 49.16700 21.51100
C  35.89000 48.30800 20.14700
C  36.78400 47.04600 20.56000
C  36.65400 47.10100 22.20500
C  34.53700 47.88700 19.65000
C  38.32600 47.04400 20.13700
C  39.28700 47.79500 21.06700
N  36.86500 47.13600 25.10100
C  37.14800 46.02000 24.34400
C  37.61900 44.95000 25.18600
C  37.26300 45.36000 26.50900
C  36.82300 46.66300 26.34200
C  38.09500 43.58600 24.76300
C  37.23500 44.98900 27.90200
O  37.50800 43.93200 28.43700
C  36.64200 46.10100 28.59800
C  35.31100 45.77500 29.21300
O  34.22900 46.21100 28.85500
O  35.54400 45.08400 30.35800
C  34.41100 44.70000 31.18600
H  34.93900 52.63300 26.78200
H  35.00600 50.86700 20.63800
H  37.54800 45.21200 22.47800
H  34.85500 48.77500 29.44100
H  36.29600 51.43300 28.95300
H  33.86300 50.73900 30.16900
H  33.44200 51.34200 28.55500
H  34.39500 52.27200 29.79000
H  37.20700 50.05600 30.35500
H  37.66600 48.44300 29.96700
H  37.07900 49.25400 32.39700
H  36.75000 47.60400 31.71200
H  34.80700 55.00000 24.36600
H  34.12300 54.11200 25.80600
H  33.13000 54.40200 24.42500
H  33.17500 55.29200 20.86000
H  34.52100 55.47300 22.10100
H  32.86300 55.02200 22.47000
H  36.16800 48.95000 19.31100
H  36.35400 46.10500 20.21700
H  33.88100 47.62200 20.48000
H  34.60200 46.92300 19.14400
H  34.08200 48.54900 18.91400
H  38.43000 47.65000 19.23700
H  38.70500 46.04500 19.92000
H  39.73300 47.16800 21.84000
H  38.90900 48.69700 21.54800
H  40.11200 48.00400 20.38600
H  38.69800 43.56000 23.85500
H  37.20200 43.03600 24.46500
H  38.68200 43.21800 25.60500
H  37.36000 46.33000 29.38600
H  33.99900 43.82600 30.68200
H  33.60600 45.43300 31.13500
H  34.64800 44.67000 32.25000

