158

Mg 1.23500 -1.24000 44.40100
C  4.49400 -0.30600 43.71400
C  0.12100 1.78200 43.31400
C  -1.88000 -2.54200 44.39000
C  2.46500 -4.50000 45.02000
N  2.20400 0.48300 43.52600
C  3.49800 0.66200 43.34000
C  3.79500 1.97200 42.60900
C  2.49400 2.68900 42.91400
C  1.52200 1.59500 43.27600
C  2.44800 3.76200 44.04300
C  4.03800 1.77000 41.07700
C  5.09900 2.72300 40.56200
H  4.92500 3.11900 39.06000
N  -0.67700 -0.47600 43.82100
C  -0.92300 0.82100 43.49900
C  -2.36600 1.00300 43.41300
C  -2.94100 -0.32500 43.62800
C  -1.86400 -1.20600 43.95500
C  -3.03000 2.34000 43.04600
C  -4.36600 -0.60500 43.47300
O  -5.16600 0.34200 43.43600
C  -5.03800 -2.01300 43.41000
N  0.44000 -3.30700 44.69700
C  -0.91800 -3.52900 44.62600
C  -1.27700 -5.02500 45.04400
C  0.15100 -5.62700 45.24600
C  1.08800 -4.44900 44.96000
C  -2.26600 -5.25100 46.26300
C  0.50300 -6.75400 44.22800
C  1.46700 -7.88500 44.80200
N  3.11500 -2.20800 44.54900
C  3.47000 -3.51600 44.90200
C  4.92600 -3.57300 45.12400
C  5.36600 -2.31000 44.57100
C  4.22000 -1.55300 44.30200
C  5.72800 -4.68500 45.50100
C  6.55200 -1.50900 44.20200
O  7.74400 -1.77000 44.29400
C  5.97400 -0.15400 43.59100
C  6.49700 0.99100 44.42000
O  6.28800 1.07500 45.61200
O  7.12200 1.95900 43.69200
C  7.63300 3.07100 44.49100
H  -0.12200 2.79200 42.97900
H  -2.84700 -3.04200 44.47200
H  2.83800 -5.46200 45.38000
H  4.55200 2.59100 43.09100
H  2.19500 3.25800 42.03400
H  3.40500 4.00900 44.50200
H  1.94300 3.32000 44.90100
H  1.78100 4.57000 43.74000
H  3.18400 1.85900 40.40600
H  4.42600 0.76000 40.94300
H  6.02000 2.14300 40.50200
H  5.32400 3.65000 41.08900
H  -3.96700 2.52200 43.57300
H  -3.22000 2.29100 41.97400
H  -2.24800 3.06500 43.27000
H  -6.07500 -1.96800 43.07600
H  -5.03500 -2.55700 44.35500
H  -4.39000 -2.68100 42.84300
H  -1.73400 -5.44500 44.14900
H  0.30800 -5.94700 46.27600
H  -2.60500 -4.26500 46.58000
H  -1.87200 -5.79100 47.12400
H  -3.14700 -5.79300 45.91900
H  0.97200 -6.36000 43.32700
H  -0.39700 -7.23800 43.84900
H  1.68600 -7.72500 45.85700
H  2.38500 -7.81500 44.22000
H  1.04700 -8.87900 44.64400
H  5.17800 -5.44800 46.05100
H  6.52900 -4.20300 46.06200
H  6.09600 -5.20600 44.61700
H  6.32300 -0.10800 42.55900
H  6.89300 3.79600 44.82900
H  8.40000 3.61400 43.93900
H  8.03600 2.69200 45.43000
Mg -12.90900 16.57200 42.81300
C  -9.78400 14.77300 42.63600
C  -11.31700 19.20800 41.48000
C  -15.96700 17.97700 42.70600
C  -14.42700 13.36200 43.59100
N  -10.77500 16.81800 42.06500
C  -9.70900 16.02100 42.02600
C  -8.52300 16.64900 41.36400
C  -9.01500 18.08200 41.11700
C  -10.50200 18.05000 41.54400
C  -8.06700 19.15600 41.79300
C  -8.06100 15.83000 40.06300
C  -6.46600 15.54100 39.97900
H  -6.04100 14.18800 39.31600
N  -13.60400 18.43100 42.15800
C  -12.78100 19.40300 41.66600
C  -13.61000 20.58100 41.38000
C  -14.91900 20.29400 41.76900
C  -14.91100 18.89000 42.27800
C  -13.10300 21.87400 40.87100
C  -16.06400 21.27000 41.64700
O  -15.85800 22.46800 41.37400
C  -17.47300 20.81400 42.04400
N  -14.99400 15.74200 42.99000
C  -15.98200 16.59000 43.07300
C  -17.28000 15.80200 43.46200
C  -16.87800 14.34500 43.58900
C  -15.29600 14.43500 43.37800
C  -18.22300 16.32300 44.64300
C  -17.50300 13.47100 42.54200
C  -18.67900 12.59100 42.98100
N  -12.30000 14.44000 43.24000
C  -13.03100 13.31900 43.44200
C  -12.02400 12.17700 43.47200
C  -10.74100 12.71900 43.33100
C  -10.95000 14.14000 43.10300
C  -12.30000 10.71500 43.69700
C  -9.29600 12.36400 43.31100
O  -8.66000 11.35400 43.55400
C  -8.62500 13.77600 42.87200
C  -7.67500 14.15800 43.99000
O  -7.95800 14.51000 45.12600
O  -6.39500 14.16200 43.53300
C  -5.35600 14.56500 44.47100
H  -10.70400 20.00100 41.04600
H  -17.03800 18.19300 42.70800
H  -14.92000 12.45000 43.93400
H  -7.67400 16.70100 42.04500
H  -8.93900 18.29600 40.05100
H  -7.66700 19.74400 40.96700
H  -7.35500 18.67800 42.46500
H  -8.78300 19.77300 42.33500
H  -8.20500 16.44800 39.17700
H  -8.68200 14.93500 40.08700
H  -6.02800 15.45100 40.97300
H  -6.07800 16.38600 39.41000
H  -13.73400 22.08200 40.00700
H  -12.04800 21.96100 40.60800
H  -13.22800 22.74400 41.51600
H  -17.89800 20.18700 41.26100
H  -18.02400 21.74000 42.20800
H  -17.49600 20.26700 42.98600
H  -17.89900 15.91900 42.57200
H  -17.06500 14.05100 44.62100
H  -19.10000 16.84900 44.26800
H  -17.61100 16.87000 45.36100
H  -18.59300 15.51200 45.27000
H  -16.82000 12.71000 42.16400
H  -17.75500 14.00000 41.62300
H  -18.34400 11.55400 42.97000
H  -19.49300 12.74000 42.27200
H  -19.11500 12.91800 43.92500
H  -13.32400 10.41000 43.91300
H  -11.66900 10.32400 44.49500
H  -11.94200 10.27100 42.76900
H  -8.03200 13.72400 41.95900
H  -5.73500 14.69300 45.48500
H  -4.78700 15.41500 44.09600
H  -4.52500 13.86600 44.56700

