158

Mg 7.42200 54.57800 41.45700
C  6.69400 51.22700 41.18400
C  10.59900 53.98200 40.35600
C  7.78000 57.99000 41.05600
C  4.04300 55.21800 42.00600
N  8.53800 52.75200 40.97100
C  8.01400 51.46100 40.81500
C  9.06200 50.45900 40.29400
C  10.35100 51.32200 40.38900
C  9.78200 52.76200 40.61600
C  11.45000 50.78100 41.33500
C  8.79200 49.89200 38.88400
C  8.35400 50.87600 37.75200
H  9.04600 50.76400 36.41200
N  8.97000 55.76200 40.69300
C  10.22000 55.31000 40.41900
C  11.07600 56.47300 40.28700
C  10.21200 57.61700 40.36000
C  8.95100 57.16900 40.78200
C  12.54800 56.38800 39.91900
C  10.67900 59.01800 40.12500
O  11.85400 59.21000 39.93100
C  9.71800 60.13300 40.07100
N  6.07100 56.27500 41.31000
C  6.47200 57.57200 41.32800
C  5.38100 58.62200 41.47300
C  4.15500 57.69300 41.70500
C  4.79300 56.30500 41.68500
C  5.74100 59.67800 42.57600
C  2.99600 57.95600 40.66500
C  3.26100 57.62900 39.14400
N  5.75900 53.52900 41.77900
C  4.44400 53.87200 42.05700
C  3.65000 52.71200 42.40000
C  4.56800 51.65800 42.07800
C  5.75200 52.21500 41.62400
C  2.16900 52.46200 42.77300
C  4.66200 50.19700 42.07400
O  3.88600 49.37600 42.53500
C  6.07900 49.88300 41.41200
C  5.84800 49.01600 40.20800
O  5.62200 49.46200 39.11600
O  5.72700 47.66300 40.52400
C  5.17400 46.86400 39.41300
H  11.62800 53.67800 40.15600
H  7.81000 59.07100 41.21000
H  2.97100 55.38100 42.13900
H  9.17400 49.67800 41.04700
H  10.83100 51.36900 39.41100
H  11.24300 49.73200 41.55000
H  11.42500 51.29600 42.29500
H  12.39400 50.95700 40.81900
H  8.00900 49.13500 38.92600
H  9.70700 49.32900 38.69800
H  8.34100 51.89500 38.13800
H  7.32700 50.55900 37.57500
H  12.85500 55.55900 39.28200
H  13.23600 56.43500 40.76300
H  12.86000 57.29100 39.39500
H  10.09000 60.97200 39.48300
H  9.30600 60.41600 41.03900
H  8.79600 59.84100 39.56800
H  5.26200 59.06900 40.48600
H  3.78200 57.78500 42.72500
H  6.68900 59.57200 43.10500
H  4.98200 59.57800 43.35200
H  5.68000 60.63000 42.04900
H  2.74300 59.01500 40.71400
H  2.14600 57.35600 40.99100
H  3.87000 56.79900 38.78800
H  3.27300 58.51600 38.51000
H  2.26400 57.28100 38.87700
H  1.58700 52.40200 41.85300
H  1.69400 53.26700 43.33400
H  1.92500 51.52400 43.27300
H  6.73800 49.43600 42.15500
H  5.63100 47.05600 38.44200
H  4.10800 47.04600 39.27200
H  5.26600 45.78200 39.51300
Mg 9.21000 49.00700 25.62700
C  6.83300 49.39000 28.15100
C  11.54500 50.60300 27.63800
C  11.34300 48.54600 23.26100
C  6.49500 48.60500 23.33400
N  9.22000 49.60400 27.74400
C  8.18600 49.54200 28.60700
C  8.66700 49.75900 30.02800
C  10.07000 50.40600 29.81800
C  10.36100 50.18400 28.26800
C  10.13800 51.92400 30.15200
C  8.57700 48.43300 30.82200
C  9.45300 48.26400 32.15900
H  8.92800 47.51200 33.38000
N  11.22400 49.53300 25.45300
C  12.04500 50.17500 26.34700
C  13.39700 50.09500 25.91200
C  13.37300 49.44100 24.57500
C  11.94400 49.17200 24.37000
C  14.63500 50.39900 26.80800
C  14.49400 49.03200 23.72100
O  14.41800 48.40600 22.63800
C  15.85100 49.18800 24.36400
N  8.94500 48.83300 23.53800
C  10.05500 48.49700 22.82700
C  9.70400 47.91900 21.45300
C  8.21500 48.21000 21.39900
C  7.80800 48.60000 22.82900
C  10.55400 48.46500 20.27100
C  7.35300 46.99200 20.86700
C  6.07700 47.24400 19.93500
N  7.08300 48.80500 25.71300
C  6.12800 48.76500 24.65400
C  4.80500 48.89100 25.17500
C  5.02600 49.07500 26.59000
C  6.47500 49.07400 26.82000
C  3.51100 48.98200 24.48200
C  4.33800 49.32500 27.81600
O  3.13600 49.36900 28.05700
C  5.44300 49.60800 28.91700
C  5.30100 48.63400 30.04000
O  5.60900 47.47000 29.96200
O  4.94900 49.27100 31.19000
C  4.84100 48.47200 32.43500
H  12.30300 50.94800 28.34400
H  12.08800 48.20200 22.53900
H  5.76300 48.51100 22.52900
H  7.93800 50.49000 30.37900
H  10.87400 49.92300 30.37400
H  9.41000 52.15200 30.93100
H  9.97200 52.41000 29.19100
H  11.08300 52.31000 30.53700
H  8.52500 47.62300 30.09500
H  7.63200 48.50100 31.36100
H  9.82700 49.25800 32.40500
H  10.35000 47.72500 31.85500
H  14.31600 50.82900 27.75700
H  15.32700 51.15500 26.43700
H  15.22800 49.53200 27.09900
H  15.98000 48.36600 25.06800
H  15.93000 50.22000 24.70400
H  16.61000 49.17500 23.58100
H  9.88900 46.85100 21.56700
H  8.14500 49.02700 20.68100
H  9.98300 49.09700 19.59100
H  10.77800 47.60100 19.64500
H  11.36500 49.10400 20.62200
H  6.92600 46.45300 21.71300
H  8.03600 46.29700 20.37900
H  5.92700 46.31800 19.37900
H  6.30700 48.07900 19.27300
H  5.24900 47.51800 20.59000
H  3.47100 48.03800 23.93800
H  3.54700 49.90500 23.90300
H  2.80000 48.94500 25.30800
H  5.29900 50.65300 29.19100
H  4.40600 47.49800 32.21200
H  4.31600 49.08400 33.16900
H  5.86500 48.44400 32.80700

