158

Mg 0.75800 -1.69400 43.78100
C  4.24800 -1.51200 42.90300
C  0.32700 1.29200 42.12500
C  -2.32900 -2.34500 43.88200
C  1.58600 -4.96300 45.07600
N  2.16800 -0.22600 42.74400
C  3.46800 -0.44900 42.41100
C  3.99400 0.70700 41.46200
C  2.83600 1.75600 41.55600
C  1.72100 0.90400 42.16100
C  3.14700 3.07300 42.33600
C  4.18200 0.13200 40.01800
C  5.36300 0.73500 39.27900
H  5.24600 1.41000 37.89000
N  -0.81300 -0.71900 43.03400
C  -0.80400 0.48700 42.45000
C  -2.20000 0.94800 42.26200
C  -2.97900 -0.16000 42.60100
C  -2.02400 -1.13700 43.18200
C  -2.63400 2.33500 41.80800
C  -4.48200 -0.19200 42.48200
O  -5.14200 0.85900 42.34800
C  -5.32300 -1.46100 42.55200
N  -0.24600 -3.36300 44.56000
C  -1.60500 -3.35600 44.49100
C  -2.22200 -4.61200 45.05900
C  -0.96300 -5.47400 45.40000
C  0.20800 -4.60500 44.89600
C  -3.36200 -4.62500 46.13100
C  -0.95200 -6.91900 44.75300
C  -0.03200 -7.94400 45.38700
N  2.52200 -2.93000 44.24200
C  2.70400 -4.17700 44.78500
C  4.09800 -4.47000 44.86300
C  4.77900 -3.53800 44.11300
C  3.75100 -2.60500 43.71000
C  4.75700 -5.77200 45.36500
C  6.08900 -3.13600 43.62800
O  7.24700 -3.60600 43.57100
C  5.71300 -1.87200 42.73300
C  6.62400 -0.65400 42.94600
O  6.63800 0.13500 43.83500
O  7.55200 -0.57400 41.91200
C  8.45000 0.60800 41.98500
H  0.11800 2.25200 41.65000
H  -3.39300 -2.50400 44.07400
H  1.86000 -5.96400 45.41600
H  4.86700 1.15600 41.93500
H  2.62300 2.03800 40.52500
H  3.26300 3.86000 41.59200
H  4.08500 2.87000 42.85300
H  2.35000 3.23500 43.06200
H  3.25000 0.29800 39.47800
H  4.19000 -0.95800 40.01000
H  6.18400 0.01900 39.26700
H  5.64200 1.60100 39.88000
H  -3.68600 2.57300 41.96400
H  -2.45300 2.60100 40.76700
H  -2.05600 3.02300 42.42500
H  -6.18900 -1.28800 41.91200
H  -5.77300 -1.55100 43.54100
H  -4.77500 -2.33700 42.20300
H  -2.56500 -5.02400 44.10900
H  -0.87100 -5.69700 46.46300
H  -4.30800 -4.86000 45.64300
H  -3.43400 -3.64000 46.59300
H  -3.26400 -5.25700 47.01400
H  -0.47000 -6.85700 43.77700
H  -1.93700 -7.38300 44.71000
H  -0.62300 -8.84100 45.57500
H  0.24400 -7.65600 46.40100
H  0.88400 -8.11200 44.82100
H  4.53600 -6.48800 44.57300
H  4.28600 -6.02000 46.31700
H  5.81900 -5.78100 45.61000
H  5.72200 -2.13500 41.67500
H  8.41000 0.95800 40.95400
H  9.48200 0.31700 42.18100
H  8.18500 1.47000 42.59800
Mg 47.31500 24.47700 28.45000
C  48.10600 26.84800 31.01200
C  46.39800 22.34600 31.06500
C  47.11400 22.10000 26.23500
C  48.51300 26.74000 26.12100
N  47.29900 24.63600 30.75100
C  47.48100 25.68300 31.58700
C  47.12100 25.47800 33.11300
C  46.69600 23.99400 33.00900
C  46.77500 23.62500 31.48100
C  47.70500 23.09900 33.88300
C  46.10300 26.48900 33.64600
C  46.46900 27.18000 34.98100
H  45.34100 27.43800 36.05600
N  46.77300 22.49400 28.58600
C  46.40200 21.84300 29.74300
C  45.89600 20.57000 29.35400
C  46.14400 20.38500 27.99500
C  46.70200 21.66900 27.55200
C  45.23800 19.55300 30.32600
C  45.85100 19.16500 27.12700
O  46.11000 19.09400 25.93200
C  45.16700 17.98000 27.68800
N  47.76500 24.40300 26.42000
C  47.58500 23.28100 25.71100
C  47.72600 23.60800 24.21700
C  48.03600 25.13200 24.28300
C  48.14800 25.44300 25.68300
C  48.89200 22.77500 23.63700
C  47.00100 25.99300 23.55400
C  45.49500 25.70500 23.76700
N  48.09500 26.40800 28.48000
C  48.53300 27.20000 27.41600
C  48.92200 28.43700 27.92400
C  48.76700 28.41600 29.35900
C  48.29700 27.07600 29.62600
C  49.46100 29.52500 27.00800
C  48.94200 29.06900 30.59700
O  49.33200 30.22000 30.80800
C  48.52600 28.09100 31.72600
C  49.70300 27.86600 32.69300
O  50.64400 27.11800 32.39600
O  49.49900 28.45400 33.95600
C  50.68000 28.58700 34.82700
H  46.07200 21.60100 31.79400
H  47.05600 21.29400 25.50100
H  48.66700 27.46000 25.31500
H  48.04000 25.51500 33.69800
H  45.68000 23.86900 33.38400
H  47.93900 23.64500 34.79700
H  48.64300 22.99100 33.33900
H  47.24000 22.13700 34.09800
H  45.11900 26.02800 33.73200
H  45.97500 27.30600 32.93700
H  46.90600 28.13300 34.68000
H  47.28300 26.69700 35.52200
H  44.93700 20.05600 31.24500
H  45.87700 18.72200 30.62500
H  44.27600 19.11200 30.06300
H  45.61100 17.64700 28.62600
H  45.13700 17.17400 26.95500
H  44.10700 18.19500 27.81700
H  46.85100 23.23600 23.68400
H  48.98200 25.26000 23.75700
H  48.32100 22.03600 23.07400
H  49.63900 22.39600 24.33500
H  49.49100 23.35600 22.93700
H  47.33000 25.75900 22.54200
H  47.07000 27.06500 23.74000
H  44.97700 25.23900 22.92900
H  44.93100 26.62100 23.94600
H  45.51000 25.10700 24.67800
H  49.34200 30.48500 27.51200
H  48.90400 29.56000 26.07200
H  50.49500 29.28700 26.76000
H  47.82200 28.66700 32.32600
H  50.64700 27.71800 35.48500
H  50.88600 29.46200 35.44300
H  51.52900 28.39600 34.17100

