158

Mg 55.32500 22.09500 44.39900
C  53.02500 24.88500 43.70900
C  53.09300 19.97700 43.09700
C  57.81300 19.79200 43.95700
C  57.72700 24.57300 45.18900
N  53.30700 22.47600 43.39400
C  52.50000 23.55700 43.29500
C  51.12100 23.17000 42.75700
C  51.14600 21.61600 42.90900
C  52.59400 21.31900 43.16100
C  50.22100 21.13400 44.06400
C  50.92100 23.65300 41.26200
C  52.10600 23.86400 40.34800
H  51.92400 24.85700 39.20700
N  55.46700 20.15900 43.63300
C  54.35600 19.43200 43.25000
C  54.74100 17.99900 43.14200
C  56.08700 17.94800 43.54100
C  56.57000 19.28100 43.67200
C  53.70800 16.89700 42.88000
C  56.85700 16.64100 43.62500
O  56.21900 15.62400 43.54900
C  58.33400 16.43700 43.84400
N  57.49300 22.20000 44.38500
C  58.24200 21.09000 44.20800
C  59.70700 21.42600 44.57400
C  59.68500 22.95200 44.89700
C  58.19400 23.29500 44.80800
C  60.31800 20.56700 45.70200
C  60.47200 23.91600 43.91400
C  61.82200 24.29400 44.39200
N  55.37900 24.25200 44.59300
C  56.45100 25.06300 45.03300
C  55.94100 26.43300 45.17200
C  54.62200 26.44600 44.55900
C  54.33000 25.08300 44.26600
C  56.81700 27.61600 45.49700
C  53.49900 27.27000 44.20100
O  53.29700 28.46000 44.39000
C  52.40900 26.28000 43.64600
C  51.84900 26.76900 42.28600
O  52.47600 27.03100 41.28700
O  50.51100 27.00900 42.39200
C  49.81900 27.68400 41.24000
H  52.35600 19.20400 42.86900
H  58.61500 19.05200 44.00300
H  58.50200 25.23700 45.57800
H  50.45200 23.71200 43.42600
H  50.69400 21.09300 42.06500
H  49.46200 20.48600 43.62700
H  49.67000 21.95900 44.51500
H  50.87400 20.70500 44.82400
H  50.24900 24.51100 41.29500
H  50.40900 22.80300 40.81100
H  52.36900 22.86300 40.00800
H  52.97200 24.20900 40.91500
H  53.53700 16.78300 41.81000
H  52.74300 17.28500 43.20800
H  53.75400 15.92300 43.36700
H  58.62800 16.85500 44.80700
H  58.82100 16.98700 43.03900
H  58.48900 15.36200 43.74400
H  60.36000 21.32100 43.70800
H  59.96200 23.09600 45.94100
H  61.38600 20.42000 45.54200
H  59.74000 19.66600 45.90900
H  60.37700 21.17900 46.60200
H  59.87600 24.75200 43.55000
H  60.52500 23.32900 42.99700
H  62.58700 23.87100 43.74100
H  62.04300 23.89300 45.38100
H  62.00400 25.36800 44.35300
H  57.51300 27.55300 46.33400
H  56.27800 28.56300 45.53600
H  57.42500 27.68700 44.59500
H  51.55000 26.24100 44.31700
H  49.96100 28.73400 41.49600
H  48.77700 27.36900 41.18800
H  50.30300 27.46800 40.28800
Mg 42.40700 42.04200 27.00300
C  41.57600 44.30100 29.64400
C  43.29300 39.71000 29.40600
C  43.88100 40.19900 24.58100
C  41.95200 44.74000 24.69000
N  42.35100 42.03600 29.29400
C  42.06100 43.07000 30.15300
C  42.21100 42.62800 31.65200
C  42.70800 41.21600 31.46700
C  42.84600 40.97300 29.96800
C  43.96200 40.71700 32.31600
C  40.96900 42.88800 32.59800
C  40.92000 42.06900 33.86700
H  40.92400 42.75800 35.24600
N  43.27900 40.18100 26.99600
C  43.48600 39.38800 28.06800
C  44.15000 38.22900 27.60100
C  44.41400 38.30800 26.21200
C  43.89700 39.61400 25.83200
C  44.49500 37.07500 28.42200
C  45.05200 37.38100 25.17800
O  44.97900 37.50800 23.96700
C  45.98200 36.24100 25.70600
N  42.98200 42.43000 24.98400
C  43.47300 41.44100 24.21100
C  43.65200 41.93600 22.78800
C  42.63900 43.18600 22.74900
C  42.53000 43.51900 24.26200
C  45.08800 42.35500 22.39100
C  41.34700 42.96400 21.94900
C  40.28900 42.04800 22.62900
N  41.78700 44.04000 27.08100
C  41.69300 45.02400 26.05500
C  41.30000 46.28000 26.66000
C  41.20300 46.01400 28.09900
C  41.54100 44.66600 28.23900
C  41.00600 47.55900 25.94900
C  40.94600 46.68400 29.39500
O  40.62600 47.83800 29.61900
C  41.17400 45.53800 30.47200
C  42.02900 46.13100 31.42900
O  43.17000 46.44000 31.15900
O  41.37000 46.52700 32.58800
C  41.95200 47.38200 33.62100
H  43.69700 38.94900 30.07700
H  44.20900 39.63800 23.70300
H  41.84100 45.60500 24.03400
H  42.93400 43.29600 32.12000
H  42.01000 40.51800 31.92900
H  44.10200 41.52500 33.03500
H  44.79500 40.58400 31.62600
H  43.79000 39.79300 32.86800
H  40.03300 42.63200 32.10200
H  41.06900 43.90500 32.97600
H  41.79500 41.42700 33.97300
H  40.03100 41.43900 33.90100
H  44.01400 37.01800 29.39900
H  45.55300 36.91100 28.63100
H  44.00700 36.22000 27.95400
H  46.59700 35.96000 24.85100
H  45.45000 35.31700 25.93200
H  46.70900 36.61200 26.42900
H  43.40400 41.26900 21.96200
H  43.16200 44.06600 22.37600
H  45.48700 41.85600 21.50800
H  45.76900 42.26700 23.23700
H  45.10100 43.38100 22.02300
H  41.57900 42.65400 20.93000
H  40.81800 43.91200 21.85000
H  40.89100 41.55000 23.38900
H  39.70800 41.38200 21.99200
H  39.58700 42.73900 23.09600
H  41.76100 47.89100 25.23500
H  40.86200 48.42500 26.59500
H  40.00500 47.47500 25.52600
H  40.20200 45.34400 30.92600
H  42.45800 46.63800 34.23700
H  41.11500 47.72400 34.23000
H  42.60900 48.01700 33.02600

