158

Mg 26.66100 50.21200 26.27700
C  25.04300 51.85100 28.91500
C  29.18400 49.29700 28.63000
C  28.66100 49.16000 23.75600
C  24.56600 51.84900 24.13600
N  27.01400 50.53700 28.52700
C  26.13100 51.14000 29.35600
C  26.53300 50.91300 30.79900
C  28.00000 50.34000 30.68800
C  28.07500 49.97400 29.18900
C  29.12600 51.28400 31.20400
C  25.46400 49.92300 31.44600
C  24.89000 50.43300 32.81700
H  25.74300 50.94300 33.95100
N  28.57500 49.19600 26.23100
C  29.44900 48.94400 27.28200
C  30.56500 48.22700 26.74700
C  30.50900 48.27900 25.32200
C  29.19600 48.89500 25.05300
C  31.75500 47.81900 27.60800
C  31.67500 47.99700 24.28700
O  31.49500 48.04200 23.10500
C  33.08900 47.71400 24.68900
N  26.71300 50.60800 24.26000
C  27.53400 49.88100 23.43400
C  27.05200 49.89600 21.99300
C  25.66400 50.73500 22.18200
C  25.61200 51.08800 23.63200
C  28.10400 50.40200 21.02700
C  24.27500 50.20200 21.60300
C  23.57300 51.10200 20.52400
N  25.04000 51.56300 26.41500
C  24.29200 52.20700 25.50000
C  23.22900 52.99200 26.07300
C  23.49000 52.90200 27.50400
C  24.62000 52.03800 27.60500
C  22.20000 53.82200 25.43800
C  23.09000 53.35200 28.80600
O  22.20500 54.05600 29.12800
C  24.15200 52.70400 29.82400
C  24.77900 53.73500 30.69300
O  25.85100 54.27500 30.50400
O  23.93400 54.01300 31.67300
C  24.49000 54.98100 32.62300
H  29.85300 48.93900 29.41500
H  29.23700 48.76500 22.91700
H  23.77500 52.22000 23.48200
H  26.44100 51.87800 31.29900
H  28.14500 49.35200 31.12400
H  28.74600 52.29700 31.33600
H  29.95400 51.44800 30.51300
H  29.48000 50.91300 32.16700
H  25.83700 48.90500 31.56400
H  24.58800 49.86000 30.80000
H  24.31300 49.54100 33.06100
H  24.22900 51.25300 32.53700
H  31.95100 46.75100 27.50900
H  31.63100 48.09900 28.65400
H  32.62700 48.44200 27.41300
H  33.49700 48.71300 24.83800
H  33.63900 47.20200 23.89900
H  33.16200 47.16000 25.62500
H  26.77500 48.87100 21.74800
H  25.87700 51.71700 21.76000
H  28.71600 49.73100 20.42400
H  28.71700 51.01900 21.68300
H  27.55300 51.08300 20.37800
H  23.57000 50.21200 22.43300
H  24.31000 49.16800 21.26200
H  22.70200 51.52000 21.03000
H  23.29200 50.50200 19.65800
H  24.26300 51.93500 20.38800
H  21.20300 53.41500 25.60900
H  22.29900 53.74600 24.35500
H  22.24300 54.83000 25.85000
H  23.60800 52.02000 30.47500
H  24.93600 55.83700 32.11700
H  25.17200 54.40000 33.24400
H  23.81200 55.35900 33.38700
Mg 5.66700 54.50300 40.93300
C  4.94000 51.04300 40.80000
C  9.05900 53.76600 40.72500
C  6.20900 57.76900 40.68500
C  2.15300 55.12000 41.19200
N  6.80000 52.69400 40.61800
C  6.35400 51.37200 40.69400
C  7.54500 50.40400 40.81400
C  8.68500 51.39400 41.28600
C  8.17400 52.71100 40.82600
C  9.15200 51.31100 42.77100
C  7.82800 49.74700 39.38300
C  7.73600 50.69100 38.16000
H  6.65000 50.29700 37.12600
N  7.41800 55.65800 40.59100
C  8.69000 55.14800 40.50100
C  9.55300 56.29300 40.38800
C  8.81300 57.54100 40.34500
C  7.40900 57.01900 40.56700
C  11.09800 56.15400 40.33100
C  9.30700 58.92600 40.13300
O  10.52500 59.02800 40.13900
C  8.39500 60.14800 39.97700
N  4.36000 56.25800 41.01400
C  4.80400 57.49700 40.87800
C  3.59800 58.55300 41.02400
C  2.34900 57.63100 41.18900
C  2.97300 56.26400 41.06500
C  3.84100 59.48700 42.23100
C  1.14600 57.91800 40.18000
C  -0.31000 58.07900 40.75200
N  3.85100 53.44900 40.81500
C  2.53500 53.76200 41.11500
C  1.69900 52.54800 41.24300
C  2.62000 51.52200 41.23800
C  3.90200 52.08300 40.92800
C  0.21900 52.46200 41.43400
C  2.78000 50.12000 41.44800
O  1.92700 49.31400 41.85100
C  4.24300 49.75700 41.06100
C  4.13400 48.84500 39.86100
O  3.45700 48.95100 38.84600
O  4.88000 47.68800 40.11400
C  5.00700 46.54500 39.17400
H  10.14200 53.64000 40.78700
H  6.42800 58.83000 40.82700
H  1.08700 55.34500 41.26500
H  7.34500 49.63200 41.55700
H  9.54100 50.97900 40.75400
H  10.16100 50.90900 42.68000
H  8.46900 50.93600 43.53400
H  9.29400 52.36000 43.03200
H  7.12300 48.92800 39.24400
H  8.84500 49.35500 39.34700
H  8.75700 50.57700 37.79600
H  7.66700 51.76500 38.33100
H  11.49500 56.43900 39.35700
H  11.52200 55.15600 40.22200
H  11.60800 56.64300 41.16000
H  9.04100 60.94600 39.61200
H  8.09700 60.53400 40.95200
H  7.55200 59.95800 39.31300
H  3.37500 59.18600 40.16600
H  1.90400 57.73300 42.17800
H  4.90900 59.40800 42.43300
H  3.22600 59.31600 43.11500
H  3.61800 60.50400 41.90700
H  1.13800 57.18200 39.37700
H  1.43900 58.79800 39.60900
H  -0.99200 57.34400 40.32400
H  -0.69800 59.09300 40.65600
H  -0.26800 57.85900 41.81800
H  0.02900 51.38900 41.41700
H  -0.25700 52.87200 40.54400
H  -0.10300 52.82400 42.41100
H  4.67400 49.12800 41.84000
H  4.10400 45.94500 39.05600
H  5.61000 45.85300 39.76300
H  5.64800 46.58800 38.29400

