158

Mg 26.45900 50.16700 26.55400
C  24.35100 51.02900 29.15300
C  29.04200 49.46400 28.79000
C  28.81200 50.00100 23.98700
C  24.17400 51.52100 24.21800
N  26.62100 50.17100 28.72200
C  25.55700 50.43900 29.61400
C  26.06600 50.37100 31.13900
C  27.53400 49.83100 30.90100
C  27.78900 49.84200 29.38200
C  28.65000 50.54600 31.67900
C  25.19500 49.45700 32.10900
C  24.88600 50.14000 33.52000
H  24.88100 49.16200 34.76700
N  28.63000 49.76200 26.42200
C  29.42300 49.44200 27.47100
C  30.71000 49.05600 27.02800
C  30.74600 49.32500 25.62000
C  29.39500 49.74900 25.25600
C  31.88000 48.52700 27.88900
C  31.86800 49.16700 24.55500
O  31.70800 49.31400 23.35800
C  33.17100 48.52300 24.90200
N  26.43400 50.55200 24.47200
C  27.50400 50.34300 23.56600
C  27.10300 50.63500 22.11600
C  25.59400 51.02400 22.23200
C  25.36700 51.00700 23.77500
C  28.06200 51.72100 21.55800
C  24.56500 50.05500 21.54600
C  23.63900 50.65200 20.48000
N  24.63700 51.05600 26.60700
C  23.84400 51.56600 25.58700
C  22.67400 52.21100 26.16500
C  22.88400 52.10100 27.60400
C  24.01200 51.33400 27.77000
C  21.61600 53.02800 25.50400
C  22.25600 52.33100 28.94400
O  21.20500 52.89500 29.15300
C  23.27400 51.65700 29.92600
C  23.69100 52.76800 30.82800
O  24.52700 53.58300 30.53000
O  22.90100 52.82300 31.96200
C  23.27200 53.73600 33.01000
H  29.81900 49.18200 29.50300
H  29.48300 49.95300 23.12700
H  23.53800 52.00900 23.47700
H  26.10900 51.37700 31.55600
H  27.71700 48.78400 31.14100
H  29.15400 49.80200 32.29600
H  28.25600 51.37500 32.26700
H  29.46600 51.00700 31.12300
H  25.81300 48.59100 32.34600
H  24.21900 49.35200 31.63500
H  23.97600 50.73400 33.44100
H  25.61200 50.94700 33.61200
H  31.57600 48.47600 28.93400
H  32.67400 49.25500 27.71700
H  32.14200 47.54600 27.49200
H  32.88900 47.48800 25.09700
H  33.59000 48.98100 25.79800
H  33.80900 48.58400 24.02100
H  27.20100 49.78900 21.43600
H  25.47200 52.06200 21.92200
H  28.91600 51.90700 22.21100
H  27.56800 52.68100 21.41000
H  28.49900 51.39700 20.61300
H  23.97500 49.53600 22.30100
H  25.19300 49.26400 21.13700
H  23.78800 50.05100 19.58300
H  23.80700 51.67300 20.13600
H  22.60900 50.41100 20.74000
H  20.77000 52.92000 26.18300
H  21.28700 52.59100 24.56100
H  21.97300 54.05200 25.39100
H  22.77500 50.85800 30.47400
H  23.64100 54.70900 32.68700
H  24.09700 53.21500 33.49800
H  22.63500 53.86700 33.88500
Mg 9.94000 47.42300 26.76800
C  7.90100 47.47900 29.62100
C  12.33100 49.08900 28.41500
C  11.66300 47.17400 23.97000
C  6.96800 46.61900 24.86400
N  9.99500 48.27400 28.75200
C  9.21300 48.04700 29.82600
C  9.84600 48.44000 31.20400
C  11.05300 49.30100 30.61800
C  11.18900 48.81200 29.18500
C  10.84800 50.83400 30.80300
C  10.30900 47.17200 31.94800
C  9.86300 47.09100 33.38800
H  9.87300 45.81900 34.15300
N  11.77700 47.96900 26.31600
C  12.70300 48.67600 27.12100
C  13.95900 48.68800 26.45200
C  13.81600 47.94000 25.25000
C  12.34300 47.72600 25.13200
C  15.26700 49.12100 27.09100
C  14.81800 47.51900 24.17300
O  14.54600 47.02900 23.08700
C  16.24100 47.78200 24.45600
N  9.32700 47.17100 24.68700
C  10.29200 46.94100 23.77500
C  9.73100 46.44100 22.48900
C  8.17500 46.34200 22.64900
C  8.09600 46.72900 24.20100
C  10.07300 47.28600 21.20200
C  7.63000 44.98200 22.35200
C  6.11400 44.88800 21.90800
N  7.80900 47.14800 27.08300
C  6.76800 46.76500 26.27200
C  5.55900 46.60300 27.03700
C  6.00900 46.71100 28.42400
C  7.34800 47.17800 28.37500
C  4.21900 46.22200 26.47300
C  5.55100 46.64500 29.77800
O  4.42800 46.39600 30.23100
C  6.83200 47.04000 30.64100
C  7.14100 45.81600 31.48200
O  7.99700 44.99700 31.17100
O  6.36100 45.76000 32.62900
C  6.47800 44.64800 33.49900
H  13.03100 49.72200 28.96400
H  12.23700 47.09100 23.04400
H  6.06600 46.45200 24.27300
H  9.18700 49.02400 31.84600
H  12.00700 49.09500 31.10400
H  10.13700 51.20600 31.54100
H  10.66300 51.29700 29.83300
H  11.81300 51.18000 31.17200
H  11.39900 47.20800 31.92300
H  10.04900 46.27600 31.38500
H  8.80600 47.28500 33.20400
H  10.23200 47.97000 33.91600
H  15.69000 48.18000 27.44200
H  14.95500 49.77700 27.90400
H  16.03500 49.68400 26.56100
H  16.78900 47.66000 23.52200
H  16.56900 47.14900 25.28000
H  16.40300 48.81700 24.75700
H  10.16700 45.44600 22.40500
H  7.70400 47.14200 22.07700
H  10.81000 48.02300 21.52100
H  9.23400 47.82000 20.75400
H  10.59700 46.69700 20.44900
H  7.78800 44.43800 23.28300
H  8.31100 44.51200 21.64300
H  5.59500 44.47800 22.77500
H  5.98800 44.18800 21.08300
H  5.59000 45.80800 21.64700
H  3.63300 47.09400 26.18300
H  3.66500 45.77700 27.30000
H  4.36100 45.59900 25.59000
H  6.60800 47.76900 31.42000
H  7.43700 44.13300 33.43800
H  5.72100 43.87400 33.37500
H  6.45000 45.15400 34.46300

