158

Mg 30.48300 57.63700 39.75400
C  27.68800 55.62300 38.70500
C  32.50600 55.11800 38.58500
C  32.82700 59.90700 39.58200
C  28.08400 60.19000 40.08700
N  30.13200 55.59700 38.68600
C  28.89300 55.02000 38.39100
C  29.14600 53.54900 37.87800
C  30.64900 53.41700 38.14800
C  31.18700 54.75100 38.46600
C  31.18800 52.34000 39.02300
C  28.61400 53.14200 36.43200
C  29.00100 54.09500 35.27300
H  27.94400 54.29500 34.11700
N  32.47400 57.47200 39.39300
C  33.15700 56.37800 38.87600
C  34.55700 56.68900 38.76300
C  34.71000 58.08700 39.10300
C  33.32400 58.55400 39.37000
C  35.61600 55.75100 38.24700
C  36.11400 58.77400 39.25500
O  37.17900 58.20300 38.95500
C  36.27200 60.27200 39.61500
N  30.51000 59.80000 39.87200
C  31.60500 60.50600 39.77400
C  31.39100 62.04900 40.04400
C  29.86400 62.03600 40.37100
C  29.42000 60.62600 40.07900
C  32.27100 62.69300 41.10000
C  29.07000 63.12300 39.60200
C  28.05100 64.01000 40.39500
N  28.36600 57.85900 39.60800
C  27.53400 58.94700 39.74500
C  26.14000 58.52300 39.53700
C  26.20800 57.18600 39.20400
C  27.52800 56.91600 39.21600
C  24.96200 59.34900 39.72800
C  25.42400 56.03100 38.96100
O  24.23200 55.87200 39.12200
C  26.32500 54.92900 38.53600
C  26.11000 53.82800 39.45000
O  26.37000 53.81100 40.62200
O  25.67700 52.70100 38.66900
C  25.40400 51.48000 39.45400
H  33.13800 54.24600 38.40600
H  33.60600 60.66600 39.48000
H  27.30600 60.94600 40.20900
H  28.56400 52.94900 38.57800
H  31.01900 53.27300 37.13300
H  31.84100 52.82100 39.75100
H  31.69700 51.60900 38.39400
H  30.47200 51.74900 39.59300
H  27.53100 53.01900 36.41600
H  29.10100 52.20300 36.16800
H  29.90600 53.63400 34.87900
H  29.14900 55.06800 35.74200
H  36.57900 55.70400 38.75500
H  35.80200 55.91900 37.18600
H  35.17800 54.75400 38.26900
H  37.34200 60.44700 39.73300
H  35.87000 60.26400 40.62800
H  35.71800 60.94500 38.96200
H  31.50700 62.44200 39.03400
H  29.73600 62.26600 41.42800
H  33.12400 62.02400 41.21000
H  31.77700 62.69500 42.07100
H  32.55700 63.65300 40.67100
H  28.56400 62.67400 38.74600
H  29.78900 63.81700 39.16700
H  28.27600 64.06800 41.46000
H  27.11500 63.45600 40.31700
H  28.06700 64.99800 39.93500
H  25.30300 60.07800 40.46300
H  24.20300 58.78500 40.27000
H  24.67800 59.89400 38.82700
H  26.12500 54.68800 37.49300
H  26.30000 50.86200 39.49500
H  24.55100 51.01800 38.95600
H  25.18100 51.81100 40.46900
Mg 17.04400 52.28800 26.13500
C  18.85900 50.89800 28.69000
C  14.55800 53.13800 28.29800
C  15.03700 53.25200 23.50600
C  19.28100 50.87400 23.78700
N  16.73600 51.97800 28.21900
C  17.69900 51.59500 29.12300
C  17.30900 52.00300 30.50300
C  15.73700 52.05800 30.29400
C  15.62700 52.51500 28.84600
C  15.04000 50.67900 30.39600
C  18.09800 53.29400 31.05000
C  18.27400 53.34600 32.57300
H  17.42800 52.40400 33.41400
N  15.08700 53.21700 25.93100
C  14.24400 53.47400 26.96200
C  13.07500 54.10500 26.41700
C  13.19700 54.17300 25.01400
C  14.49100 53.56500 24.73200
C  11.84900 54.51300 27.25400
C  12.26500 54.76000 23.97200
O  12.44900 54.69700 22.75600
C  11.08100 55.50100 24.38900
N  17.07500 51.93700 23.88300
C  16.21200 52.61400 23.06000
C  16.56300 52.38500 21.57700
C  18.01800 51.75400 21.68900
C  18.14200 51.48100 23.19300
C  15.50500 51.42900 20.86700
C  19.10400 52.70500 21.20300
C  19.15600 54.11100 21.88300
N  18.69200 51.10200 26.14500
C  19.46000 50.55500 25.11700
C  20.58500 49.87400 25.78000
C  20.41200 49.94100 27.16700
C  19.24000 50.69800 27.33100
C  21.79500 49.29100 25.13700
C  20.91800 49.61700 28.52600
O  21.89300 49.03600 28.85600
C  19.86300 50.25600 29.56600
C  19.51700 49.11800 30.52400
O  19.03300 48.06100 30.12400
O  19.83300 49.41500 31.84700
C  19.50900 48.40300 32.77400
H  13.73200 53.26400 29.00000
H  14.60900 53.74200 22.62900
H  20.10400 50.57100 23.13600
H  17.43300 51.11800 31.12700
H  15.13500 52.72300 30.91300
H  14.16100 50.81100 31.02700
H  15.67900 49.91500 30.83900
H  14.72800 50.29000 29.42700
H  17.53400 54.20900 30.86900
H  19.04200 53.36700 30.51000
H  18.05100 54.32500 32.99700
H  19.30800 53.08900 32.80500
H  11.67500 55.58500 27.16500
H  11.97000 54.36600 28.32700
H  10.93500 54.00200 26.94900
H  10.46900 55.92100 23.59100
H  11.47300 56.37200 24.91500
H  10.52800 54.78900 25.00200
H  16.58500 53.29300 20.97400
H  17.99500 50.75100 21.26100
H  14.77200 51.02500 21.56600
H  16.05300 50.57100 20.47800
H  14.93700 51.99300 20.12800
H  18.81500 52.93400 20.17800
H  20.06400 52.18900 21.23000
H  19.83200 54.82400 21.41100
H  19.78000 53.92100 22.75600
H  18.19000 54.57700 22.07400
H  21.70000 48.20900 25.04800
H  22.57300 49.57200 25.84600
H  21.91000 49.77800 24.16900
H  20.46100 50.96400 30.14000
H  18.49100 48.05600 32.59200
H  19.63700 48.76300 33.79400
H  20.26700 47.62000 32.79200

