158

Mg -0.57400 7.39500 26.05700
C  -0.07500 9.55300 28.95000
C  -0.63400 4.82900 28.25300
C  -0.64300 5.49000 23.43300
C  -0.18500 10.21200 24.15400
N  -0.50200 7.23300 28.37200
C  -0.34000 8.24800 29.32600
C  -0.44100 7.62500 30.77100
C  -0.35600 6.09400 30.46100
C  -0.52200 6.03100 28.90100
C  0.97900 5.32700 30.90100
C  -1.66300 8.19500 31.43700
C  -1.29900 8.76900 32.78600
H  -1.82300 8.04900 34.04900
N  -0.69400 5.45300 25.89300
C  -0.79800 4.50700 26.90500
C  -0.87000 3.12300 26.32900
C  -0.89100 3.30500 24.92900
C  -0.79200 4.81100 24.71200
C  -0.93100 1.95000 27.27300
C  -0.75500 2.28200 23.85400
O  -0.68200 2.56200 22.66900
C  -0.75200 0.91400 24.22600
N  -0.23300 7.83500 24.05300
C  -0.42700 6.83200 23.11200
C  -0.63900 7.37200 21.69500
C  -0.61100 8.93100 21.92000
C  -0.32800 9.04600 23.41700
C  0.42900 6.86300 20.63000
C  -1.82500 9.76800 21.30400
C  -2.73100 10.48000 22.37200
N  -0.26900 9.43100 26.40500
C  -0.09600 10.47600 25.51800
C  0.14700 11.73400 26.20000
C  0.20100 11.36900 27.49500
C  -0.06400 9.99100 27.61600
C  0.44700 13.06500 25.53300
C  0.58700 11.88900 28.74600
O  1.09200 12.94600 29.08700
C  0.32400 10.73700 29.75900
C  1.55900 10.39100 30.51000
O  2.52800 9.70800 30.15300
O  1.42600 11.03100 31.68500
C  2.51300 11.07400 32.57600
H  -0.64700 4.02800 28.99500
H  -0.92800 4.85200 22.59400
H  -0.02300 11.04700 23.46900
H  0.52700 7.81900 31.23400
H  -1.25100 5.58000 30.81000
H  0.85600 4.46600 31.55800
H  1.59200 6.13000 31.30900
H  1.44600 4.77100 30.08700
H  -2.32600 7.35900 31.66100
H  -2.09100 9.04000 30.89700
H  -1.56800 9.82400 32.84600
H  -0.21800 8.74200 32.92200
H  0.06600 1.58400 27.52000
H  -1.50400 1.16100 26.78600
H  -1.44000 2.25500 28.18700
H  -0.15500 0.76800 25.12600
H  -0.31300 0.31300 23.43000
H  -1.77300 0.64900 24.50000
H  -1.65700 7.14600 21.37600
H  0.33700 9.32700 21.55500
H  -0.03400 6.43300 19.74200
H  1.12500 6.13300 21.04300
H  1.04200 7.65500 20.20100
H  -2.47000 9.17100 20.65800
H  -1.37600 10.56200 20.70700
H  -2.96600 9.73600 23.13300
H  -3.63600 10.84300 21.88400
H  -2.25300 11.28800 22.92600
H  1.02700 13.02200 24.61000
H  1.10400 13.53600 26.26500
H  -0.38900 13.73100 25.32200
H  -0.37600 11.13300 30.49500
H  2.56500 12.10800 32.91800
H  3.51500 10.71700 32.33800
H  2.26300 10.50800 33.47300
Mg 1.39900 41.92900 25.19400
C  2.58400 41.64700 28.42800
C  -1.73000 40.52800 26.35200
C  0.37900 41.64100 22.09400
C  4.61300 43.02300 24.15700
N  0.57600 41.21300 27.21700
C  1.22400 41.31200 28.35500
C  0.34300 41.06200 29.58100
C  -1.11100 40.63900 28.90700
C  -0.79300 40.75000 27.38300
C  -1.63400 39.19100 29.21200
C  0.25500 42.28700 30.60800
C  -1.11500 42.66700 31.28700
H  -1.73200 41.51000 32.10700
N  -0.40100 41.19900 24.36800
C  -1.57400 40.70000 24.95700
C  -2.57600 40.52000 23.88800
C  -1.96300 40.78300 22.67300
C  -0.60700 41.24900 22.98100
C  -3.92900 40.09000 24.24100
C  -2.43400 40.36600 21.26700
O  -1.67800 40.54500 20.30000
C  -3.77100 39.74700 21.00800
N  2.43000 42.10400 23.34600
C  1.74700 42.01200 22.19300
C  2.64000 42.27400 20.99300
C  3.89300 42.96100 21.67400
C  3.64300 42.69400 23.20600
C  2.77800 41.04200 20.14300
C  4.21100 44.40400 21.25300
C  3.05000 45.42100 21.41600
N  3.28900 42.31100 26.07200
C  4.45400 42.84200 25.53400
C  5.46200 42.88800 26.60200
C  4.81700 42.40000 27.75100
C  3.45800 42.10300 27.35400
C  6.80800 43.55600 26.50300
C  4.95900 42.15400 29.07700
O  5.87600 42.28200 29.78700
C  3.55100 41.60200 29.60100
C  3.81900 40.23500 30.19400
O  4.59700 39.41400 29.75500
O  3.12900 40.09400 31.34200
C  2.98300 38.80400 31.93900
H  -2.71400 40.20100 26.69800
H  0.21700 41.64900 21.01400
H  5.58000 43.37700 23.79200
H  0.63200 40.20500 30.19000
H  -1.88600 41.37600 29.11600
H  -0.84400 38.63700 29.72000
H  -1.83200 38.64600 28.28900
H  -2.49800 39.34700 29.85800
H  0.65800 43.16500 30.10300
H  0.99700 42.06500 31.37500
H  -1.93800 42.94000 30.62600
H  -0.95500 43.43300 32.04600
H  -4.37000 40.89400 24.83000
H  -3.90400 39.27600 24.96500
H  -4.57000 39.97700 23.36600
H  -4.06300 38.95700 21.70100
H  -3.75500 39.34100 19.99700
H  -4.39300 40.63800 20.93000
H  2.24600 43.05600 20.34400
H  4.77000 42.34700 21.46900
H  2.31600 40.21700 20.68500
H  3.82600 40.87100 19.89400
H  2.22900 41.05200 19.20200
H  4.55400 44.27100 20.22700
H  5.11400 44.76300 21.74700
H  2.59200 45.36900 22.40300
H  2.35200 45.51800 20.58400
H  3.46500 46.42500 21.32500
H  6.93800 44.35700 27.23000
H  6.91200 43.92300 25.48200
H  7.54500 42.77500 26.68500
H  3.14500 42.26100 30.36800
H  1.90400 38.65300 31.97100
H  3.45300 38.94300 32.91300
H  3.59000 38.04000 31.45200

