158

Mg 53.90300 23.13600 44.64000
C  51.57100 25.69700 44.01600
C  51.77200 20.79300 43.69100
C  56.49800 20.94900 44.26400
C  56.35000 25.62400 45.43100
N  51.97900 23.26800 43.84800
C  51.13100 24.40300 43.61700
C  49.77400 23.94600 43.12800
C  49.77700 22.41000 43.49000
C  51.23700 22.12500 43.67400
C  48.99900 22.06100 44.80000
C  49.48900 24.24100 41.64200
C  48.03300 24.14300 41.27100
H  47.76900 23.51300 39.90600
N  54.05200 21.05100 44.09000
C  53.03000 20.24900 43.75700
C  53.52600 18.90200 43.59300
C  54.92300 18.89600 43.90400
C  55.25500 20.31600 44.07500
C  52.57700 17.78700 43.21100
C  55.81500 17.70300 43.89600
O  55.31100 16.57100 43.84000
C  57.27300 17.74400 44.01100
N  56.10200 23.29800 44.68700
C  56.91200 22.25600 44.49200
C  58.44800 22.60900 44.80000
C  58.34100 24.08200 45.30700
C  56.82500 24.36800 45.19900
C  59.19100 21.54600 45.77700
C  59.25000 25.04000 44.51600
C  60.20900 25.85500 45.48200
N  53.91700 25.24300 44.93300
C  55.00100 26.11800 45.28300
C  54.44600 27.41900 45.40500
C  53.10600 27.30100 44.92700
C  52.84200 25.97400 44.57700
C  55.12000 28.53300 45.98900
C  51.85600 27.99100 44.76100
O  51.55200 29.10000 45.20600
C  50.77400 26.99800 44.07600
C  50.47100 27.59900 42.73200
O  51.28900 28.17000 42.00400
O  49.14100 27.41600 42.46100
C  48.57400 27.94900 41.23700
H  51.06200 19.96800 43.77900
H  57.34600 20.27200 44.14100
H  57.04800 26.41100 45.72600
H  49.01800 24.49700 43.68600
H  49.41800 21.76000 42.69200
H  48.19900 22.74300 45.08600
H  49.75600 22.25700 45.56000
H  48.58800 21.05600 44.89100
H  50.01200 23.52300 41.01100
H  49.83900 25.24600 41.41000
H  47.56300 25.12600 41.31500
H  47.49500 23.55000 42.01100
H  52.19700 17.84000 42.19100
H  51.74500 17.62800 43.89800
H  53.01600 16.79600 43.10000
H  57.48700 18.22500 44.96600
H  57.65100 18.22000 43.10700
H  57.67500 16.73000 44.01200
H  58.87900 22.66700 43.80100
H  58.45500 24.02100 46.39000
H  59.87000 20.96500 45.15200
H  58.48500 20.86700 46.25500
H  59.67400 22.05900 46.60800
H  58.66200 25.75300 43.93700
H  59.93900 24.40900 43.95600
H  61.23200 25.47900 45.46800
H  59.70000 25.99200 46.43600
H  60.32200 26.86100 45.07800
H  56.05300 28.65700 45.44000
H  55.37300 28.39500 47.04100
H  54.54200 29.44000 45.81300
H  49.90800 26.89000 44.72900
H  49.02600 27.56100 40.32400
H  48.64800 29.03400 41.16400
H  47.51300 27.69500 41.23800
Mg 29.38800 57.77700 40.68500
C  26.38100 56.14800 39.75300
C  31.01000 55.12000 39.28300
C  32.16700 59.59400 40.90600
C  27.46500 60.67300 41.10600
N  28.75400 55.78000 39.84500
C  27.52200 55.46000 39.38300
C  27.48700 54.41600 38.24600
C  28.87600 53.84400 38.65800
C  29.65400 54.97000 39.30000
C  28.82400 52.63200 39.66500
C  27.36200 55.00100 36.75700
C  26.04100 54.69900 36.00700
H  26.06900 54.40800 34.49900
N  31.34500 57.25300 40.38300
C  31.79200 56.15700 39.77500
C  33.27400 56.22800 39.78900
C  33.69100 57.47100 40.18200
C  32.38700 58.14000 40.51900
C  34.14500 55.11100 39.23100
C  35.08600 58.04800 40.22700
O  36.02200 57.34100 39.93000
C  35.44500 59.58000 40.50100
N  29.73300 59.83500 40.84700
C  30.97100 60.36900 41.05300
C  30.96200 61.91000 41.22100
C  29.46800 62.12900 41.44700
C  28.81600 60.79900 41.11700
C  32.06600 62.49500 42.23500
C  28.76500 63.24300 40.60500
C  28.54200 62.87300 39.12100
N  27.32200 58.26500 40.69400
C  26.69300 59.46500 40.87900
C  25.25300 59.18700 40.91300
C  25.10000 57.91800 40.43600
C  26.43500 57.41900 40.34100
C  24.23200 60.30200 41.15300
C  24.07800 57.00800 40.10100
O  22.82900 57.15800 40.13300
C  24.82800 55.77100 39.51100
C  24.40600 54.48800 40.19200
O  24.41000 54.23700 41.44800
O  23.69600 53.63400 39.34000
C  22.77000 52.85800 40.13400
H  31.52600 54.27800 38.81800
H  33.08700 60.15200 41.09000
H  26.80600 61.51500 41.32600
H  26.59700 53.84700 38.51300
H  29.44000 53.46300 37.80700
H  27.81200 52.40900 40.00300
H  29.21800 52.90300 40.64500
H  29.36900 51.73500 39.37000
H  28.15600 54.76400 36.04800
H  27.49700 56.06600 36.94900
H  25.37900 55.55300 36.14700
H  25.50900 53.93300 36.57000
H  33.65600 54.21400 39.61100
H  35.11900 54.96200 39.69800
H  34.01600 55.19300 38.15200
H  35.30400 59.87800 41.54000
H  35.05300 60.25000 39.73500
H  36.50700 59.69800 40.29000
H  31.27500 62.37600 40.28700
H  29.31300 62.39500 42.49200
H  32.85000 62.99000 41.66100
H  32.40500 61.65600 42.84300
H  31.43200 63.21300 42.75400
H  29.46600 64.07700 40.60600
H  27.78600 63.54300 40.97900
H  28.95900 61.92800 38.77400
H  28.99400 63.64700 38.50000
H  27.49700 62.98100 38.82800
H  24.28500 60.99000 40.30900
H  24.53900 60.81800 42.06200
H  23.21900 59.92200 41.28700
H  24.49600 55.77300 38.47300
H  22.14300 52.43600 39.34900
H  22.19900 53.46900 40.83300
H  23.27100 52.05100 40.66900

