158

Mg 34.85400 49.16900 25.11400
C  34.96900 47.46300 28.14300
C  33.27500 51.81700 26.63900
C  34.47600 50.59500 22.02200
C  36.21700 46.28300 23.57700
N  33.97600 49.44800 27.19700
C  34.28800 48.68900 28.34000
C  33.95200 49.46900 29.62400
C  33.26100 50.87200 29.07700
C  33.56600 50.75500 27.53400
C  31.77600 50.87600 29.21600
C  35.21700 49.73200 30.53700
C  34.88900 50.26600 31.96800
H  33.49200 50.13500 32.55200
N  33.98700 50.95800 24.41100
C  33.41100 51.92800 25.23900
C  32.93500 52.91900 24.35000
C  33.16100 52.58700 23.00600
C  33.96600 51.33200 23.10300
C  32.32600 54.09200 25.04700
C  32.73300 53.20200 21.71300
O  32.79600 52.66700 20.62400
C  31.97000 54.62400 21.86600
N  35.42800 48.57000 23.11100
C  35.14000 49.36500 22.02900
C  35.76400 48.70200 20.73100
C  36.42200 47.42400 21.30800
C  35.98900 47.41600 22.77100
C  34.80300 48.42200 19.54100
C  37.97500 47.30300 21.02300
C  38.22700 46.06300 20.22200
N  35.43800 47.28300 25.69700
C  35.90800 46.20300 24.94200
C  36.15400 45.05800 25.84800
C  35.91800 45.55000 27.14700
C  35.38000 46.87800 26.97200
C  36.44500 43.69000 25.40600
C  35.99000 45.28000 28.50300
O  36.30900 44.30500 29.15200
C  35.24200 46.42400 29.21000
C  34.05800 45.92200 29.79100
O  33.10400 45.42300 29.18200
O  34.18100 46.13600 31.14100
C  33.09700 45.64400 31.98300
H  32.87300 52.63200 27.24400
H  34.35300 51.01500 21.02200
H  36.65800 45.42800 23.06100
H  33.24800 48.89500 30.22700
H  33.74800 51.79400 29.39600
H  31.53400 50.06400 29.90100
H  31.13000 50.75600 28.34600
H  31.51400 51.81800 29.69900
H  35.67700 50.54900 29.98000
H  35.98200 48.95600 30.58200
H  35.16000 51.32200 31.99100
H  35.56800 49.84900 32.71200
H  31.27000 54.01000 25.30500
H  32.49500 54.95600 24.40400
H  32.80900 54.36900 25.98400
H  31.72600 54.90000 20.84000
H  32.69600 55.34900 22.23600
H  31.12400 54.45700 22.53300
H  36.61000 49.29200 20.37700
H  35.93300 46.51600 20.95400
H  34.65900 47.35100 19.39800
H  35.29800 48.84700 18.66800
H  33.80500 48.79800 19.76500
H  38.54700 47.24200 21.94900
H  38.42400 48.06200 20.38200
H  38.75100 46.34800 19.30900
H  37.32100 45.58800 19.84700
H  38.95300 45.36600 20.63900
H  36.10300 43.08400 26.24500
H  37.51200 43.58800 25.20800
H  35.85700 43.51200 24.50600
H  36.00200 46.75900 29.91600
H  32.50600 44.79500 31.64200
H  32.31800 46.36400 32.23300
H  33.50700 45.42500 32.96900
Mg -5.31400 24.97500 26.52500
C  -3.86100 26.99600 29.02200
C  -6.52900 22.73600 28.94500
C  -6.90700 23.46700 24.04100
C  -4.20900 27.50000 24.19100
N  -5.28100 24.99500 28.67100
C  -4.61400 25.87900 29.54100
C  -4.90300 25.50600 31.02700
C  -5.65700 24.08800 30.91000
C  -5.86100 23.89300 29.38200
C  -4.81600 22.98300 31.67100
C  -5.82300 26.61400 31.73900
C  -5.49700 26.88600 33.15200
H  -6.53000 26.45400 34.18500
N  -6.41600 23.30600 26.46700
C  -6.84500 22.48500 27.54000
C  -7.64400 21.40500 27.05600
C  -7.69900 21.59000 25.61500
C  -6.92300 22.84800 25.31200
C  -8.28000 20.36500 27.80700
C  -8.46300 20.74000 24.53900
O  -8.53700 21.12300 23.37900
C  -9.14800 19.50200 24.88200
N  -5.53100 25.42100 24.43100
C  -6.25500 24.60200 23.67300
C  -6.41600 25.14900 22.21600
C  -5.76200 26.60700 22.39400
C  -5.19100 26.58400 23.81400
C  -5.63500 24.39300 21.08500
C  -6.81200 27.75200 22.19500
C  -6.55800 28.75700 21.12000
N  -4.09800 26.81900 26.48000
C  -3.70200 27.65500 25.50400
C  -2.83800 28.71400 25.99900
C  -2.91600 28.55000 27.41500
C  -3.74900 27.37100 27.65800
C  -2.13200 29.64500 25.10100
C  -2.55300 29.08300 28.68800
O  -1.90000 30.05200 28.98100
C  -3.08700 28.11500 29.80100
C  -1.99300 27.53300 30.69400
O  -1.21100 26.62000 30.49400
O  -2.09200 28.21900 31.84900
C  -1.21000 27.68600 32.89000
H  -6.79700 22.06400 29.76300
H  -7.45600 23.01300 23.21300
H  -3.93100 28.31400 23.51700
H  -3.94100 25.25800 31.47500
H  -6.60100 24.20800 31.44100
H  -5.10300 22.92600 32.72100
H  -3.74000 22.98700 31.50000
H  -5.07100 22.02500 31.21900
H  -6.88200 26.44900 31.53900
H  -5.55100 27.56900 31.29000
H  -5.32200 27.93800 33.38000
H  -4.56100 26.47500 33.53100
H  -9.36000 20.32000 27.67100
H  -7.98600 20.56900 28.83700
H  -7.89400 19.41900 27.42700
H  -9.94200 19.82000 25.55800
H  -8.36100 18.87200 25.29700
H  -9.64300 19.07900 24.00800
H  -7.47300 25.17600 21.95000
H  -4.96300 26.81100 21.68100
H  -6.13500 23.43900 20.91400
H  -4.62100 24.10600 21.36300
H  -5.68000 25.09600 20.25300
H  -6.95600 28.38100 23.07400
H  -7.78000 27.33300 21.92100
H  -6.91100 28.36700 20.16500
H  -5.51000 29.04100 21.02900
H  -7.23900 29.59000 21.29700
H  -2.55600 30.63900 25.24200
H  -2.07700 29.28000 24.07600
H  -1.11700 29.61400 25.49600
H  -3.71100 28.70300 30.47400
H  -0.13100 27.60300 32.76600
H  -1.58100 26.66500 32.98700
H  -1.44900 28.13600 33.85400

