158

Mg -3.17100 17.06000 27.07500
C  -3.55400 14.87000 29.84700
C  -3.17700 19.74100 29.35400
C  -2.89000 19.09800 24.55300
C  -3.45100 14.32900 25.02800
N  -3.16200 17.27300 29.37400
C  -3.33400 16.24400 30.26300
C  -3.33600 16.78500 31.67400
C  -3.36300 18.33900 31.46200
C  -3.22800 18.48500 29.97100
C  -4.50800 19.22300 32.25100
C  -2.14600 16.25500 32.53500
C  -1.70700 16.98400 33.74700
H  -1.55700 16.10200 35.02700
N  -2.91000 19.09100 27.00300
C  -2.99300 20.02700 28.00700
C  -2.85500 21.33300 27.45400
C  -2.57500 21.12600 26.08800
C  -2.84700 19.71200 25.81900
C  -2.92000 22.57400 28.31800
C  -2.10500 22.07200 25.02300
O  -1.81600 21.75600 23.87700
C  -1.78800 23.45500 25.39800
N  -3.22300 16.71700 25.13000
C  -3.09800 17.76600 24.27400
C  -3.16400 17.25700 22.78300
C  -3.17600 15.70000 22.93900
C  -3.28600 15.53500 24.45000
C  -4.21100 17.85600 21.78600
C  -2.11700 14.86100 22.26200
C  -0.67800 15.04400 22.78500
N  -3.39600 14.97200 27.33100
C  -3.50200 14.00600 26.36900
C  -3.75000 12.73100 26.98100
C  -3.80600 13.01500 28.39900
C  -3.53800 14.39900 28.51700
C  -3.91900 11.37400 26.34600
C  -3.99400 12.47200 29.74800
O  -4.20200 11.34900 30.16700
C  -3.86700 13.65100 30.74000
C  -2.70500 13.22400 31.56500
O  -1.54600 13.36700 31.29400
O  -3.19400 12.63700 32.77600
C  -2.16900 11.89500 33.50200
H  -3.37100 20.60000 30.00000
H  -2.87600 19.66600 23.62100
H  -3.83200 13.49800 24.43000
H  -4.18200 16.32400 32.18300
H  -2.44000 18.73700 31.88200
H  -4.92700 19.89900 31.50700
H  -4.04600 19.81900 33.03800
H  -5.24800 18.53000 32.65300
H  -1.29800 16.04100 31.88500
H  -2.69100 15.43200 32.99600
H  -2.48900 17.72200 33.92200
H  -0.74300 17.45800 33.55600
H  -3.35500 22.40300 29.30300
H  -3.65900 23.21400 27.83700
H  -1.96900 23.10500 28.36000
H  -2.68100 23.86800 25.86800
H  -1.36000 23.98000 24.54400
H  -1.01700 23.54900 26.16200
H  -2.21100 17.46300 22.29500
H  -4.12700 15.32100 22.56300
H  -3.70100 18.32800 20.94600
H  -4.81600 18.66400 22.19700
H  -4.72800 17.10400 21.19000
H  -2.20400 14.96800 21.18000
H  -2.35600 13.81400 22.44400
H  -0.11500 15.57400 22.01600
H  -0.20600 14.12800 23.13900
H  -0.79300 15.66800 23.67200
H  -4.88600 11.26700 25.85400
H  -4.00800 10.58300 27.09100
H  -3.16700 11.23000 25.57100
H  -4.67700 13.77000 31.46000
H  -1.36700 11.61100 32.82100
H  -2.60400 10.99100 33.92800
H  -1.73700 12.50900 34.29200
Mg 44.39600 4.89800 46.77700
C  42.43600 7.65700 47.02700
C  41.50400 3.07800 46.09300
C  46.22500 2.09000 45.97700
C  47.23800 6.84600 46.54300
N  42.21700 5.38600 46.72500
C  41.71100 6.59200 46.79000
C  40.16400 6.60600 46.64400
C  39.87800 5.07700 46.25500
C  41.27400 4.43300 46.43800
C  38.72100 4.54400 47.17500
C  39.59000 7.56600 45.50400
C  40.37300 7.82500 44.17000
H  39.81000 7.14800 42.89600
N  43.95900 2.82500 46.30900
C  42.69000 2.30600 46.02500
C  42.74600 0.91000 45.63400
C  44.12700 0.56400 45.56800
C  44.87100 1.84500 45.99800
C  41.54100 0.05500 45.42200
C  44.67700 -0.82400 45.29400
O  43.88300 -1.69700 45.08500
C  46.10200 -1.23100 45.22500
N  46.44900 4.49000 46.33400
C  46.96000 3.28300 46.10800
C  48.49600 3.35500 46.10800
C  48.79500 4.82700 46.49700
C  47.43900 5.44200 46.51300
C  49.09700 2.27800 47.04400
C  49.78200 5.60900 45.48000
C  51.28800 5.16300 45.53700
N  44.87600 6.90500 46.84200
C  46.03800 7.56000 46.73700
C  45.85400 8.97400 46.90300
C  44.44100 9.11200 47.05800
C  43.91000 7.79700 47.03000
C  46.81300 10.03600 46.91200
C  43.31000 10.02000 47.30000
O  43.28700 11.23000 47.67800
C  42.01000 9.12400 47.25000
C  41.18500 9.24800 48.42600
O  41.11600 8.43800 49.37900
O  40.38000 10.35400 48.32300
C  39.47800 10.72600 49.42700
H  40.56200 2.61600 45.79100
H  46.83900 1.21500 45.75700
H  48.08500 7.51900 46.69100
H  39.69000 6.86300 47.59100
H  39.55000 5.04900 45.21600
H  38.12900 5.42200 47.43700
H  39.14800 4.10200 48.07500
H  38.21200 3.83100 46.52700
H  39.49700 8.58500 45.87800
H  38.59200 7.20800 45.25300
H  41.37600 7.42600 44.31900
H  40.35200 8.91400 44.15000
H  41.53400 -0.01000 44.33400
H  40.55400 0.40100 45.72800
H  41.67900 -0.94400 45.83600
H  46.25900 -2.27000 44.93400
H  46.51200 -1.14300 46.23100
H  46.62400 -0.57200 44.53100
H  48.80000 3.02900 45.11300
H  49.15300 4.86800 47.52600
H  50.17900 2.27700 46.91200
H  48.74300 1.30100 46.71600
H  48.75400 2.27800 48.07900
H  49.70900 6.67300 45.70600
H  49.43300 5.44800 44.46000
H  51.79000 5.08000 44.57300
H  51.49800 4.27600 46.13500
H  51.84300 5.93200 46.07500
H  46.82600 10.57100 47.86100
H  46.49900 10.78700 46.18700
H  47.87200 9.91100 46.68600
H  41.43300 9.56900 46.43900
H  40.17200 11.15100 50.15100
H  38.90800 9.84100 49.70900
H  38.90400 11.61200 49.15400

