158

Mg -2.73800 17.68800 26.99700
C  -3.23200 15.50700 29.58700
C  -3.35500 20.25200 29.20700
C  -2.25700 19.85100 24.51700
C  -2.39700 15.00600 24.78800
N  -3.08400 17.86800 29.15900
C  -3.25700 16.78600 30.01000
C  -3.63900 17.30300 31.44500
C  -4.05100 18.77000 31.23800
C  -3.48700 18.98800 29.79000
C  -5.57600 19.06800 31.39600
C  -2.67300 16.92700 32.52800
C  -2.35700 17.79000 33.69500
H  -1.89600 17.19700 34.94000
N  -2.69300 19.77600 26.94500
C  -2.97600 20.70000 27.91700
C  -2.57600 22.05000 27.43000
C  -2.19200 21.91000 26.07400
C  -2.37600 20.46100 25.76900
C  -2.58100 23.26700 28.36000
C  -1.64300 22.95000 25.15300
O  -1.39600 22.77000 23.96000
C  -1.48200 24.29200 25.65100
N  -2.61200 17.46700 24.86800
C  -2.23900 18.53000 24.13400
C  -1.97300 18.17000 22.66400
C  -1.89000 16.62100 22.83600
C  -2.37800 16.32800 24.22600
C  -3.11900 18.64100 21.66000
C  -0.44800 16.06800 22.64000
C  0.54200 16.27400 23.80000
N  -2.98700 15.68700 27.03100
C  -2.79400 14.70900 26.09500
C  -3.01600 13.42800 26.69300
C  -3.18700 13.70600 28.00500
C  -3.11200 15.06700 28.19800
C  -3.11100 12.08700 26.03100
C  -3.46100 13.03400 29.25500
O  -3.66500 11.87600 29.50900
C  -3.46800 14.18000 30.35900
C  -2.35300 13.85800 31.31500
O  -1.23900 14.30200 31.15300
O  -2.88400 13.16100 32.39200
C  -2.00900 13.09700 33.55100
H  -3.51000 21.09000 29.89000
H  -2.02900 20.55200 23.71100
H  -2.35700 14.11400 24.16000
H  -4.45100 16.63200 31.72400
H  -3.45700 19.41900 31.88100
H  -5.79000 19.39400 32.41400
H  -6.03500 18.09100 31.24700
H  -5.96600 19.70600 30.60400
H  -1.66500 16.80900 32.12900
H  -3.10800 16.07200 33.04400
H  -3.25800 18.38800 33.83300
H  -1.59200 18.53100 33.46700
H  -3.21300 24.09800 28.04600
H  -1.57900 23.68700 28.26400
H  -2.91900 23.00100 29.36100
H  -0.68800 24.18400 26.39000
H  -2.42900 24.64400 26.06000
H  -1.03000 24.92800 24.89000
H  -0.99100 18.62200 22.52100
H  -2.45700 16.16000 22.02800
H  -2.80900 19.49200 21.05400
H  -3.97100 19.05500 22.20000
H  -3.54000 17.83000 21.06600
H  0.01300 16.72100 21.89900
H  -0.44400 15.05500 22.23800
H  0.07800 16.29200 24.78600
H  0.87100 17.29200 23.59300
H  1.30300 15.51100 23.63400
H  -2.40700 12.04400 25.19900
H  -4.06800 11.91700 25.53900
H  -3.06300 11.24500 26.72100
H  -4.35000 14.16200 30.99900
H  -1.03200 12.68500 33.29700
H  -2.49000 12.38500 34.22200
H  -1.73100 14.08500 33.91800
Mg 50.84800 46.93000 41.24600
C  47.62800 47.47700 40.23200
C  50.44100 43.66600 40.09500
C  54.18000 46.44800 41.53700
C  51.13100 50.14800 42.36600
N  49.17400 45.75000 40.21300
C  47.99100 46.18600 39.83300
C  47.09600 45.12900 39.19900
C  47.96800 43.80400 39.46400
C  49.27100 44.41500 39.99600
C  47.35800 42.78200 40.41600
C  46.79800 45.41100 37.71900
C  45.37400 45.24200 37.32200
H  45.04100 44.15300 36.27700
N  52.06300 45.29000 40.92900
C  51.72000 43.99900 40.52500
C  52.85200 43.13900 40.58000
C  53.94000 43.85200 41.04000
C  53.41200 45.26400 41.26000
C  52.92200 41.66000 40.05000
C  55.27800 43.33600 41.21200
O  55.59100 42.18000 40.88200
C  56.35800 44.17700 41.70100
N  52.46000 48.15400 41.74300
C  53.72800 47.69800 41.87100
C  54.65300 48.87300 42.35000
C  53.62200 50.04100 42.59300
C  52.29700 49.39900 42.27100
C  55.59700 48.71700 43.55600
C  53.85400 51.35600 41.81900
C  53.98100 52.65400 42.71600
N  49.57800 48.54000 41.39600
C  49.82900 49.82500 41.86700
C  48.58900 50.64000 41.65700
C  47.72300 49.75700 41.01900
C  48.32700 48.50500 40.89900
C  48.44000 52.04200 41.86800
C  46.42500 49.59100 40.34400
O  45.67900 50.46500 40.01200
C  46.28200 48.18200 39.83400
C  45.02500 47.51900 40.30800
O  44.97500 46.78900 41.27700
O  43.91900 47.97300 39.58500
C  42.64600 47.28300 39.81200
H  50.34900 42.62400 39.77800
H  55.25600 46.26500 41.56900
H  51.23000 51.20800 42.60800
H  46.18100 45.08500 39.79000
H  48.14900 43.32900 38.50000
H  46.43000 43.21000 40.79600
H  48.06500 42.61600 41.22900
H  47.16600 41.86600 39.85800
H  47.40500 44.84600 37.01100
H  47.09700 46.44900 37.57300
H  44.86900 46.13800 36.96200
H  44.88600 45.03600 38.27500
H  53.23900 41.69800 39.00800
H  51.88000 41.34500 40.09700
H  53.56900 40.96700 40.58900
H  56.17000 44.82200 42.55900
H  56.66800 44.81600 40.87400
H  57.19400 43.56200 42.03500
H  55.18800 49.00400 41.41000
H  53.68700 50.18000 43.67200
H  55.38100 47.65900 43.70100
H  55.29500 49.29400 44.43000
H  56.61800 48.83700 43.19300
H  53.07400 51.54700 41.08100
H  54.75000 51.24000 41.20800
H  53.14600 53.30800 42.46500
H  54.92800 53.13100 42.46400
H  53.93100 52.35300 43.76200
H  49.33700 52.56500 42.20000
H  47.74400 52.23000 42.68700
H  48.07600 52.58600 40.99600
H  46.22700 48.16800 38.74500
H  41.94200 47.54000 39.02100
H  42.35700 47.60700 40.81100
H  42.82100 46.20800 39.86400

