158

Mg 35.48900 1.71800 29.81000
C  33.16400 2.71100 32.20700
C  37.87800 1.71300 32.39700
C  37.94900 1.37200 27.56800
C  33.16100 1.94900 27.35700
N  35.57100 2.43500 32.08000
C  34.44500 2.56400 32.81000
C  34.76900 2.73700 34.30800
C  36.27400 2.67600 34.32800
C  36.57400 2.15800 32.87600
C  37.21100 3.87000 34.74400
C  33.98400 1.62500 35.08000
C  33.41300 2.07800 36.45600
H  34.04100 3.26600 37.18000
N  37.59100 1.45900 29.96100
C  38.36000 1.56500 31.10200
C  39.71500 1.19500 30.75800
C  39.77900 1.10000 29.37800
C  38.40800 1.37600 28.89100
C  40.89600 1.07700 31.81100
C  41.06600 0.78600 28.46900
O  40.88700 0.63700 27.26000
C  42.47600 0.73400 29.07800
N  35.55300 1.63100 27.80000
C  36.66300 1.44300 27.00700
C  36.30300 1.24000 25.49900
C  34.75500 1.00700 25.59500
C  34.47200 1.58600 27.04700
C  36.88700 2.35300 24.66400
C  34.35800 -0.45700 25.36300
C  33.95400 -0.88100 23.92100
N  33.46600 2.22000 29.71400
C  32.69000 2.37500 28.62000
C  31.33900 2.62200 29.12500
C  31.44100 2.82900 30.52500
C  32.78400 2.58500 30.83100
C  30.18200 2.84400 28.24000
C  30.75200 3.22200 31.77700
O  29.64000 3.61900 31.99700
C  31.83600 3.18800 32.89400
C  31.97500 4.58500 33.30700
O  32.71700 5.40100 32.76800
O  31.10800 4.84700 34.38400
C  31.14000 6.26300 34.81800
H  38.55800 1.71400 33.25100
H  38.69300 1.31700 26.77100
H  32.54700 1.86700 26.45800
H  34.38800 3.73700 34.51700
H  36.49600 1.86100 35.01700
H  36.66800 4.81100 34.83700
H  37.96300 4.11800 33.99500
H  37.63100 3.79100 35.74600
H  34.71200 0.82600 35.22300
H  33.17000 1.15700 34.52600
H  33.57500 1.19700 37.07700
H  32.33200 2.14900 36.33900
H  40.43500 1.18000 32.79300
H  41.63800 1.87300 31.75800
H  41.40900 0.11700 31.86700
H  42.62700 -0.13000 29.72400
H  42.57100 1.69100 29.59200
H  43.29000 0.65000 28.35800
H  36.82100 0.34000 25.16800
H  34.22800 1.68300 24.92200
H  36.21200 2.92000 24.02300
H  37.71800 1.91400 24.11100
H  37.38500 3.09600 25.28600
H  33.57000 -0.71600 26.07100
H  35.19300 -1.02500 25.77200
H  34.80500 -0.74600 23.25400
H  33.09400 -0.25800 23.67700
H  33.64700 -1.91600 24.07300
H  29.85000 1.87300 27.87100
H  30.46600 3.49200 27.41100
H  29.41700 3.42300 28.75600
H  31.58800 2.51400 33.71400
H  32.07800 6.49400 35.32200
H  30.27100 6.47400 35.44100
H  30.95200 6.95000 33.99200
Mg 47.64200 43.77800 42.32600
C  44.23900 42.72000 42.20400
C  48.56900 40.36600 42.24300
C  50.73700 44.76000 42.22200
C  46.48200 47.03100 41.94100
N  46.50800 41.80000 42.24300
C  45.15100 41.63300 42.24000
C  44.73200 40.11300 42.23100
C  46.19700 39.43500 42.40400
C  47.14500 40.56200 42.26500
C  46.33300 38.52600 43.63200
C  43.82600 39.57400 41.11200
C  43.98900 40.26300 39.72000
H  43.97500 39.32500 38.50700
N  49.43500 42.73100 42.24800
C  49.59600 41.36900 42.14400
C  51.01500 41.14000 42.07100
C  51.70700 42.35800 41.89700
C  50.64000 43.35000 42.14600
C  51.63300 39.78500 42.12200
C  53.17000 42.52600 41.73400
O  53.86900 41.51900 41.59000
C  53.88400 43.86400 41.61700
N  48.49400 45.64400 42.10400
C  49.76800 45.71600 42.36400
C  50.26800 47.22200 42.29700
C  48.88500 48.04200 42.18400
C  47.89300 46.87900 42.00400
C  51.06000 47.64600 43.61400
C  48.80500 49.17400 41.15900
C  48.10900 50.42500 41.66400
N  45.77700 44.75500 41.99500
C  45.48800 46.07000 41.91800
C  44.03200 46.32500 41.93900
C  43.52900 45.02300 42.09200
C  44.60800 44.08500 42.10300
C  43.40000 47.74200 41.88600
C  42.29900 44.22200 42.32200
O  41.12800 44.60900 42.48700
C  42.78300 42.71800 42.43400
C  42.26500 42.26800 43.77600
O  41.35000 41.46600 43.97100
O  42.98200 42.88200 44.83000
C  42.73700 42.36900 46.17900
H  48.71800 39.28800 42.14900
H  51.78400 45.06200 42.14000
H  46.15200 48.07200 41.96100
H  44.22800 40.07700 43.19700
H  46.37500 38.73300 41.59000
H  47.22300 38.82200 44.18800
H  46.47400 37.55700 43.15500
H  45.44000 38.53500 44.25800
H  42.77400 39.59100 41.39900
H  43.92400 38.49000 41.04000
H  44.88200 40.88900 39.71400
H  43.21100 41.02500 39.75500
H  52.40200 39.91000 42.88500
H  52.17900 39.51900 41.21800
H  50.90800 38.98100 42.24900
H  53.41900 44.55900 40.91800
H  54.86300 43.53800 41.26400
H  54.01400 44.35900 42.57900
H  50.86700 47.45700 41.41800
H  48.59200 48.53700 43.11000
H  51.94400 48.24300 43.39100
H  51.49500 46.73200 44.01700
H  50.52200 48.24000 44.35300
H  48.13200 48.79000 40.39300
H  49.82900 49.30900 40.81200
H  47.71400 50.84000 40.73600
H  48.81500 51.17600 42.01800
H  47.26700 50.24100 42.33200
H  42.31300 47.75200 41.96500
H  43.59000 48.14100 40.89000
H  43.84300 48.39700 42.63700
H  42.27500 42.23700 41.59900
H  43.22200 41.44100 46.48000
H  41.72700 42.32900 46.58700
H  43.26900 43.11600 46.76900

