158

Mg 26.20500 0.39600 29.62200
C  28.00000 0.20800 32.64100
C  23.31200 0.80100 31.53300
C  24.39500 0.21600 26.76000
C  28.99200 -0.50100 27.82100
N  25.70200 0.32500 31.92800
C  26.64600 0.44800 32.92200
C  26.00100 0.81200 34.25500
C  24.42700 0.87600 33.92000
C  24.44200 0.64900 32.31900
C  23.53300 0.09800 34.87300
C  26.62900 2.14900 34.77600
C  27.35600 1.99200 36.09300
H  26.81500 2.84900 37.28400
N  24.09300 0.45500 29.18400
C  23.05600 0.50800 30.12000
C  21.77500 0.43000 29.39700
C  22.06100 0.22800 28.00500
C  23.55900 0.32400 27.95300
C  20.44300 0.48100 30.15600
C  21.08900 -0.06100 26.81800
O  21.50800 -0.19500 25.66700
C  19.64100 -0.10500 26.99100
N  26.59000 -0.05800 27.56300
C  25.71800 0.00200 26.54900
C  26.38300 -0.08300 25.16300
C  27.82200 -0.45800 25.58700
C  27.86100 -0.31900 27.06600
C  25.67300 -1.06700 24.15600
C  28.94400 0.34500 24.79000
C  29.18900 1.74900 25.14800
N  28.12800 -0.03500 30.03300
C  29.17000 -0.39300 29.20600
C  30.30000 -0.72200 30.01500
C  29.94400 -0.42600 31.34500
C  28.57600 -0.04900 31.30700
C  31.64900 -1.19300 29.44700
C  30.44200 -0.41200 32.74600
O  31.46600 -0.85600 33.22600
C  29.17600 0.11100 33.66800
C  29.14600 -0.79400 34.80000
O  28.41400 -1.81800 34.88200
O  29.91600 -0.37100 35.80400
C  29.80000 -1.08400 37.08600
H  22.45200 1.19600 32.07800
H  23.89500 -0.00600 25.81500
H  29.86300 -0.82100 27.24600
H  26.14400 -0.06900 34.88200
H  24.02900 1.87200 34.11300
H  22.96100 -0.62000 34.28500
H  22.87500 0.81900 35.35800
H  24.05400 -0.45600 35.65400
H  25.86100 2.90900 34.91800
H  27.43200 2.64000 34.22600
H  28.38800 2.28300 35.89800
H  27.26800 0.95000 36.40000
H  20.58200 1.07800 31.05800
H  19.97800 -0.45600 30.46300
H  19.78400 1.00000 29.46000
H  19.20200 -0.16300 25.99500
H  19.32300 0.83300 27.44700
H  19.37100 -0.94300 27.63400
H  26.44500 0.84100 24.58700
H  27.93600 -1.54200 25.55900
H  24.73000 -1.37300 24.60900
H  26.22800 -1.99500 24.01700
H  25.60100 -0.59800 23.17500
H  28.57400 0.40600 23.76700
H  29.85500 -0.24000 24.65900
H  30.25200 1.92500 25.31500
H  28.67000 2.07100 26.05000
H  28.73000 2.46400 24.46500
H  31.69200 -0.89100 28.40100
H  31.74200 -2.27200 29.57200
H  32.50700 -0.68100 29.88100
H  29.38200 1.13400 33.98200
H  29.97500 -2.15600 36.99500
H  28.80700 -0.94300 37.51200
H  30.45700 -0.63600 37.83100
Mg 26.06800 52.29200 25.56100
C  23.94200 52.95300 28.37900
C  28.46700 51.48100 27.76300
C  28.20100 52.33100 22.97300
C  23.56600 53.52000 23.45200
N  26.21600 52.36200 27.90000
C  25.18800 52.48700 28.75700
C  25.60600 52.05400 30.17900
C  27.12700 51.62000 29.95800
C  27.33700 51.82600 28.46100
C  28.09600 52.47100 30.81400
C  24.82500 50.94600 30.93400
C  24.25800 51.24600 32.34900
H  24.74500 50.47800 33.62500
N  28.11500 52.00700 25.42500
C  28.90900 51.65100 26.40500
C  30.21400 51.34600 25.85300
C  30.15900 51.57900 24.40300
C  28.81700 51.98300 24.22500
C  31.36100 50.67000 26.72500
C  31.22600 51.34100 23.32700
O  31.09500 51.59900 22.14800
C  32.54300 51.01900 23.83700
N  25.95800 52.79700 23.55400
C  26.93700 52.71400 22.62400
C  26.48200 53.17900 21.18600
C  24.95300 53.14600 21.40800
C  24.81500 53.20200 22.91700
C  26.98100 54.58100 20.78600
C  24.33800 51.86200 20.82600
C  23.92600 51.89200 19.38900
N  24.16600 53.05800 25.72100
C  23.19400 53.39500 24.75200
C  21.95100 53.71200 25.46600
C  22.23600 53.56900 26.85300
C  23.56200 53.15300 26.97500
C  20.64500 53.97200 24.81100
C  21.62700 53.61600 28.17900
O  20.54900 53.97700 28.63000
C  22.76800 53.11200 29.16500
C  22.86800 54.24200 30.10100
O  23.61200 55.20100 30.03400
O  22.04700 54.01000 31.15000
C  22.22700 54.86300 32.42400
H  29.19600 51.01000 28.42700
H  28.73100 52.36500 22.01900
H  22.77000 53.80800 22.76200
H  25.50000 52.99500 30.71900
H  27.30600 50.58200 30.23600
H  28.77500 51.85700 31.40600
H  27.51100 53.15900 31.42500
H  28.75800 53.09000 30.20900
H  25.43000 50.08300 31.21200
H  23.94300 50.72300 30.33400
H  23.17000 51.19000 32.39200
H  24.44000 52.29800 32.56800
H  31.73400 49.79300 26.19600
H  31.12900 50.40900 27.75700
H  32.21400 51.34300 26.81700
H  32.53700 49.97900 24.16500
H  32.76500 51.74600 24.61800
H  33.27600 51.27100 23.07100
H  26.72400 52.43400 20.42800
H  24.46300 54.01400 20.96700
H  26.90400 54.50300 19.70100
H  28.03500 54.58800 21.06200
H  26.41100 55.41300 21.20000
H  23.36900 51.77000 21.31700
H  24.89000 50.99700 21.19500
H  24.36400 52.70500 18.81000
H  22.84700 51.84600 19.23700
H  24.29400 51.02000 18.85000
H  20.70900 53.61900 23.78200
H  20.48900 55.03700 24.64300
H  19.90700 53.44100 25.41300
H  22.57600 52.24800 29.80100
H  22.91700 54.27400 33.02900
H  21.23300 54.96700 32.85900
H  22.57500 55.88000 32.24500

