158

Mg 0.38800 7.70900 26.31700
C  1.03200 9.88900 28.96000
C  0.78200 5.02700 28.69200
C  0.10300 5.63300 23.84700
C  0.74000 10.36700 24.11300
N  0.94600 7.43600 28.55100
C  0.98900 8.55100 29.43700
C  1.24500 8.06300 30.85700
C  1.16800 6.49000 30.74800
C  0.94400 6.25500 29.23900
C  2.38200 5.76100 31.31400
C  0.11600 8.57000 31.83100
C  0.49000 8.59100 33.35000
H  1.72200 7.88500 33.87400
N  0.35000 5.63600 26.28400
C  0.43600 4.71400 27.34400
C  0.29400 3.36600 26.87800
C  0.08300 3.49400 25.42900
C  0.19700 4.93900 25.14300
C  0.43600 2.12800 27.80600
C  -0.11700 2.41800 24.36700
O  -0.39300 2.67300 23.18700
C  -0.10500 1.03000 24.77500
N  0.65900 7.97400 24.19400
C  0.29600 6.92700 23.41800
C  0.03700 7.36200 22.02200
C  0.42700 8.86000 22.05200
C  0.55600 9.12800 23.52300
C  0.68200 6.53800 20.87800
C  -0.57100 9.81300 21.31500
C  -2.01400 9.82800 21.77600
N  0.69700 9.63300 26.48600
C  0.75600 10.63000 25.52000
C  0.89500 11.91100 26.08600
C  0.93900 11.63200 27.46700
C  0.90600 10.23400 27.63900
C  0.97000 13.23600 25.36400
C  1.05100 12.29600 28.76900
O  1.19200 13.49500 28.99500
C  1.24500 11.18100 29.79900
C  2.46100 11.14800 30.63900
O  3.59900 11.18300 30.20800
O  2.12000 11.30000 31.98300
C  3.17600 11.23200 33.00000
H  0.73500 4.21300 29.41800
H  -0.18000 5.00400 23.00100
H  0.93000 11.15900 23.38500
H  2.15100 8.46500 31.31000
H  0.28000 6.03300 31.18300
H  2.79700 5.24700 30.44700
H  2.03700 5.02100 32.03600
H  3.06100 6.44500 31.82200
H  -0.78500 7.98000 31.66300
H  -0.20700 9.55800 31.50300
H  -0.43600 8.32100 33.85800
H  0.56700 9.61600 33.71300
H  0.33300 1.13600 27.36600
H  -0.35600 2.19800 28.55100
H  1.36900 2.25700 28.35400
H  -0.52300 0.31600 24.06500
H  -0.67400 0.90100 25.69700
H  0.92700 0.77000 25.00900
H  -1.04000 7.19800 21.96600
H  1.32400 9.00900 21.45100
H  1.39600 5.84900 21.33000
H  1.29000 7.18000 20.24000
H  0.04200 5.99200 20.18600
H  -0.65000 9.46700 20.28500
H  -0.23200 10.84800 21.26100
H  -2.76800 9.60700 21.02000
H  -2.14600 10.85600 22.11200
H  -2.24600 9.14900 22.59700
H  0.20100 13.25200 24.59100
H  1.93300 13.23300 24.85400
H  0.94100 14.14200 25.97000
H  0.41700 11.25200 30.50400
H  3.10200 10.48200 33.78700
H  3.22700 12.18800 33.52200
H  4.10200 11.03500 32.45900
Mg 25.30800 1.30200 29.92600
C  27.29600 0.90500 32.87500
C  22.62400 1.54400 31.79900
C  23.54900 1.46100 27.01200
C  28.15200 0.68900 28.05400
N  25.04300 1.16000 32.04300
C  25.94600 1.09800 33.09600
C  25.29800 1.34000 34.49900
C  23.75100 1.40500 34.07100
C  23.79500 1.31500 32.51700
C  22.85700 0.33900 34.70500
C  25.88200 2.60500 35.22300
C  26.31200 2.41700 36.73600
H  25.61700 3.25700 37.82300
N  23.29800 1.41700 29.48000
C  22.35100 1.59200 30.42600
C  21.07700 1.90600 29.73900
C  21.36200 1.71300 28.34800
C  22.80300 1.58100 28.26200
C  19.78200 2.30300 30.52400
C  20.36500 1.61800 27.18900
O  20.78800 1.50500 26.01400
C  18.88400 1.72100 27.44100
N  25.77200 1.01100 27.81400
C  24.90900 1.23100 26.85900
C  25.59500 1.28900 25.43800
C  27.03100 1.33000 25.78600
C  27.03000 0.93300 27.27500
C  25.12400 0.21400 24.35400
C  27.74600 2.60600 25.30700
C  27.58300 3.89500 26.17200
N  27.29900 0.77000 30.31500
C  28.29800 0.54700 29.42800
C  29.52300 0.23000 30.18100
C  29.19800 0.36500 31.53200
C  27.82300 0.67400 31.57200
C  30.84000 -0.25800 29.62100
C  29.63200 0.32500 32.92300
O  30.76100 0.08900 33.33800
C  28.44100 0.75600 33.85100
C  28.09600 -0.30500 34.82400
O  27.31700 -1.16900 34.67700
O  28.88900 -0.11700 35.92800
C  28.62800 -1.05200 36.99500
H  21.72400 1.58300 32.41700
H  23.13300 1.57300 26.00800
H  29.09400 0.62800 27.50400
H  25.52900 0.48600 35.13500
H  23.28300 2.35100 34.34100
H  23.51100 -0.52200 34.84500
H  22.05900 0.02600 34.03200
H  22.52000 0.66300 35.69000
H  25.07300 3.33300 35.27300
H  26.73800 3.12400 34.79100
H  27.36200 2.70300 36.80000
H  26.22300 1.37600 37.04800
H  19.38300 3.21800 30.08700
H  19.96700 2.46000 31.58700
H  19.09900 1.47100 30.35700
H  18.54200 1.37400 28.41600
H  18.44200 1.12100 26.64600
H  18.58700 2.76000 27.29800
H  25.43100 2.19800 24.86000
H  27.47800 0.43900 25.34400
H  24.46700 -0.46500 24.89800
H  25.91300 -0.37100 23.88200
H  24.48500 0.72600 23.63400
H  27.47000 2.80100 24.27100
H  28.78400 2.27300 25.34500
H  28.53600 4.19100 26.61200
H  26.99700 3.68000 27.06600
H  27.18500 4.70500 25.56200
H  31.52700 -0.19000 30.46400
H  30.98400 0.37500 28.74500
H  30.80100 -1.26900 29.21500
H  28.68900 1.60200 34.49100
H  29.06100 -0.80600 37.96500
H  28.90900 -2.06200 36.69800
H  27.57200 -1.11900 37.25900

