158

Mg 42.87300 4.27100 47.52600
C  40.38400 6.67600 46.96600
C  40.44600 1.86900 47.44100
C  45.18500 1.91400 47.05900
C  45.17300 6.74300 46.32800
N  40.69100 4.30500 47.16300
C  39.84800 5.34600 47.00000
C  38.37700 4.97000 46.74800
C  38.43100 3.43900 47.36800
C  39.96900 3.11800 47.30900
C  37.92900 3.35900 48.80200
C  37.90000 5.10400 45.26600
C  36.91300 6.24200 44.83500
H  37.36700 6.97800 43.59600
N  42.83400 2.15300 47.47500
C  41.75000 1.33800 47.50600
C  42.18500 -0.05300 47.36300
C  43.57400 -0.08300 47.31100
C  43.90800 1.33600 47.22700
C  41.20400 -1.11500 47.28000
C  44.48000 -1.27300 47.24800
O  43.98000 -2.40600 47.37000
C  45.96600 -1.24400 47.12200
N  44.93000 4.36500 46.67000
C  45.67700 3.22900 46.84700
C  47.14200 3.49000 46.37000
C  47.13600 5.09000 46.20800
C  45.68300 5.40900 46.37100
C  48.42200 3.02700 47.08800
C  47.75400 5.67700 44.93100
C  46.98400 5.86300 43.54200
N  42.83400 6.36500 47.09300
C  43.88100 7.24300 46.70300
C  43.34500 8.61200 46.69000
C  41.94000 8.45000 46.73900
C  41.72300 7.06600 47.01200
C  44.13900 9.81700 46.47200
C  40.74200 9.17000 46.78500
O  40.55500 10.39600 46.69000
C  39.64300 8.06600 46.83700
C  38.60500 8.34700 47.86900
O  38.73800 8.28700 49.11800
O  37.48000 8.92200 47.27000
C  36.64200 9.64100 48.24000
H  39.61000 1.17700 47.56200
H  45.91300 1.13500 46.82100
H  45.89700 7.48300 45.98200
H  37.75100 5.62400 47.35600
H  37.90100 2.69500 46.77400
H  37.44500 4.30200 49.05500
H  38.73800 3.11400 49.49000
H  37.23100 2.52200 48.83500
H  37.46700 4.13200 45.03100
H  38.79300 5.19400 44.64600
H  36.68400 7.01000 45.57300
H  35.97600 5.71800 44.64600
H  41.45600 -1.71000 46.40300
H  40.17800 -0.77300 47.14000
H  41.34200 -1.70700 48.18500
H  46.38800 -0.53500 47.83500
H  46.10600 -0.86700 46.10900
H  46.37600 -2.22000 47.38200
H  47.21300 3.14500 45.33800
H  47.67300 5.63100 46.98800
H  49.26700 2.98200 46.40000
H  48.40100 1.98800 47.41700
H  48.71600 3.72000 47.87600
H  48.60100 5.04800 44.65700
H  48.10800 6.67300 45.19900
H  45.93200 5.72900 43.79200
H  47.26100 5.08100 42.83500
H  47.32400 6.79600 43.09200
H  44.90100 9.75800 47.24800
H  43.67700 10.78800 46.65200
H  44.51000 9.85500 45.44700
H  39.11200 7.99100 45.88700
H  36.24300 8.85800 48.88400
H  35.82200 10.17300 47.75600
H  37.09500 10.42400 48.84900
Mg 47.77200 16.45900 28.70800
C  45.45500 15.80300 31.19000
C  49.41500 18.60700 30.81200
C  49.89600 17.15500 26.21800
C  45.73900 14.77400 26.42200
N  47.41300 17.21200 30.71500
C  46.44700 16.73300 31.61400
C  46.65700 17.21000 33.02600
C  47.78900 18.30700 32.83300
C  48.24700 18.05400 31.39100
C  47.27500 19.81100 32.99100
C  47.11900 16.00700 33.98900
C  46.75400 16.08000 35.47900
H  47.90000 16.03700 36.52000
N  49.41700 17.75400 28.54900
C  49.98500 18.54600 29.55200
C  51.15500 19.17900 29.07100
C  51.39800 18.62800 27.76000
C  50.21300 17.78600 27.47100
C  52.04800 20.18700 29.85600
C  52.59700 18.75600 26.83900
O  52.68000 18.20100 25.73000
C  53.76200 19.58200 27.29900
N  47.76000 16.09600 26.54700
C  48.83500 16.37400 25.78100
C  48.68500 15.83700 24.34800
C  47.39500 14.92000 24.44600
C  46.94400 15.19900 25.85900
C  48.49800 17.03400 23.35800
C  47.55100 13.48100 24.02900
C  47.47400 12.33900 25.04300
N  46.00500 15.52900 28.74200
C  45.26800 14.88600 27.73100
C  44.01800 14.35500 28.30500
C  44.04800 14.66900 29.67500
C  45.27100 15.31200 29.87700
C  42.90400 13.63100 27.53100
C  43.27600 14.64600 30.85800
O  42.14600 14.37300 31.11400
C  44.27800 15.32700 31.93200
C  43.51300 16.33000 32.70600
O  43.16400 17.36700 32.25400
O  43.40600 15.91900 34.04400
C  42.50900 16.83300 34.83900
H  49.89700 19.18800 31.60200
H  50.70300 17.15900 25.48200
H  45.09400 14.20000 25.75400
H  45.79100 17.79700 33.33300
H  48.62200 18.29600 33.53500
H  46.19400 19.94500 32.98700
H  47.67100 20.36600 32.14000
H  47.78200 20.13500 33.90000
H  48.20600 15.99900 33.92200
H  46.73600 15.04700 33.64100
H  46.15000 15.20700 35.72700
H  46.13500 16.97600 35.51800
H  51.39000 20.59800 30.62100
H  52.24600 20.97000 29.12500
H  52.88300 19.60300 30.24600
H  53.50600 20.64000 27.34000
H  54.55800 19.38700 26.58100
H  54.05900 19.23800 28.29000
H  49.60500 15.33900 24.04200
H  46.54700 15.30400 23.87900
H  49.06200 16.80600 22.45300
H  48.87100 17.96700 23.78000
H  47.46200 17.05700 23.01900
H  48.49700 13.39700 23.49400
H  46.73400 13.20600 23.36300
H  46.93700 12.64700 25.94000
H  48.45000 11.97300 25.36000
H  46.86900 11.47100 24.77700
H  42.82200 12.62800 27.94800
H  43.17400 13.35200 26.51200
H  41.92700 14.11500 27.55200
H  44.65800 14.61600 32.66600
H  42.50900 16.41600 35.84600
H  41.46300 16.82500 34.53100
H  42.97500 17.81500 34.91200

