158

Mg 2.35900 -2.08600 44.84700
C  5.68100 -1.33300 44.06200
C  1.59000 0.69600 42.57000
C  -0.81600 -3.00100 44.72200
C  3.38700 -5.12800 46.17200
N  3.58700 -0.52500 43.36100
C  4.88300 -0.48600 43.28300
C  5.33500 0.64700 42.34100
C  4.00900 1.36600 41.90300
C  2.96300 0.48400 42.67900
C  3.89500 2.87000 42.30300
C  6.36700 0.07600 41.24800
C  7.66000 0.86400 41.05000
H  8.03600 1.23700 39.68000
N  0.65100 -1.19200 44.00000
C  0.55000 -0.05600 43.14800
C  -0.77500 0.20100 42.90800
C  -1.57300 -0.81300 43.48200
C  -0.61700 -1.75300 44.09700
C  -1.21000 1.42300 42.21900
C  -3.12600 -0.93600 43.49500
O  -3.88600 -0.14900 42.89700
C  -3.78600 -2.01200 44.19100
N  1.38400 -3.80800 45.42000
C  0.04100 -3.91800 45.40400
C  -0.39800 -5.35500 45.96900
C  0.97300 -5.93600 46.31000
C  2.01200 -4.93400 45.95700
C  -1.30300 -5.19400 47.21700
C  1.19700 -7.42800 45.83900
C  1.57000 -8.53500 46.84900
N  4.13500 -3.00500 45.18500
C  4.45300 -4.25200 45.91900
C  5.86900 -4.27500 46.15300
C  6.36500 -3.15500 45.48600
C  5.32200 -2.44000 44.90800
C  6.68500 -5.30500 46.94000
C  7.58600 -2.46400 45.25500
O  8.69900 -2.75900 45.58100
C  7.20600 -1.16500 44.33000
C  7.62200 0.00200 44.97300
O  7.45100 0.27100 46.14600
O  8.08600 0.86400 43.99500
C  8.15700 2.34100 44.35400
H  1.39600 1.53200 41.89400
H  -1.79300 -3.48100 44.64000
H  3.69200 -6.08600 46.59800
H  5.77800 1.31500 43.08000
H  3.88300 1.37700 40.82100
H  3.37500 3.42100 41.52000
H  4.92900 3.21500 42.30700
H  3.43400 2.91600 43.28900
H  5.80200 0.03600 40.31700
H  6.60200 -0.95700 41.50400
H  8.38200 0.10800 41.36000
H  7.72500 1.74200 41.69300
H  -0.57300 1.65600 41.36600
H  -1.36800 2.24000 42.92200
H  -2.17500 1.09600 41.83300
H  -3.71700 -2.91000 43.57600
H  -4.82000 -1.67100 44.22600
H  -3.40100 -2.08400 45.20800
H  -0.88500 -5.83400 45.12000
H  1.01600 -5.90800 47.39900
H  -1.26800 -4.18500 47.62600
H  -1.07200 -5.89100 48.02200
H  -2.30100 -5.32700 46.80100
H  1.90300 -7.33200 45.01400
H  0.25200 -7.73300 45.39000
H  0.82000 -9.32600 46.86000
H  1.82800 -8.03300 47.78200
H  2.51200 -8.97500 46.52200
H  7.44700 -4.80400 47.53700
H  7.15900 -6.00800 46.25400
H  6.00200 -5.81300 47.62000
H  7.71900 -1.31600 43.38000
H  7.19100 2.81500 44.17800
H  8.84000 2.81800 43.65100
H  8.62600 2.60200 45.30300
Mg 24.35800 -4.77600 45.83600
C  26.69600 -2.61400 44.34800
C  21.94900 -3.63400 43.73200
C  22.41600 -7.38900 47.01300
C  26.92700 -5.98000 47.87600
N  24.39000 -3.36300 44.20500
C  25.41100 -2.56300 43.74300
C  24.99700 -1.75200 42.52500
C  23.48200 -1.75400 42.67000
C  23.20000 -2.99000 43.60400
C  22.83000 -0.49200 43.28700
C  25.66700 -2.24600 41.23600
C  26.23500 -1.13000 40.31900
H  25.74400 -1.20400 38.78800
N  22.46500 -5.48800 45.41900
C  21.60600 -4.81000 44.51000
C  20.36000 -5.48600 44.46600
C  20.42700 -6.56000 45.37900
C  21.79300 -6.52900 46.01000
C  19.29900 -4.86400 43.57600
C  19.24000 -7.50700 45.76500
O  18.15700 -7.39200 45.20900
C  19.31500 -8.55900 46.88500
N  24.68300 -6.53600 47.11500
C  23.65300 -7.35400 47.58400
C  24.17300 -8.43800 48.54300
C  25.55000 -7.87900 48.93300
C  25.70400 -6.69700 47.98100
C  23.23300 -8.82600 49.75800
C  26.68600 -8.93800 48.76600
C  27.47000 -9.33000 50.07200
N  26.37400 -4.35500 46.16200
C  27.33200 -4.96900 47.03200
C  28.58000 -4.29900 46.75200
C  28.36900 -3.37500 45.75000
C  27.02800 -3.42700 45.40500
C  29.89900 -4.79300 47.43900
C  29.04600 -2.42100 44.87300
O  30.22600 -2.07000 44.75200
C  27.95300 -1.91900 43.88100
C  27.90500 -0.41700 43.79000
O  27.46400 0.34000 44.63400
O  28.48800 0.00700 42.59600
C  28.24700 1.43500 42.31100
H  21.15900 -3.20100 43.11500
H  21.77100 -8.21400 47.32300
H  27.85200 -6.32500 48.34300
H  25.24600 -0.69200 42.55400
H  23.11600 -1.89800 41.65400
H  21.85200 -0.80900 43.65100
H  22.44100 0.14700 42.49300
H  23.42700 0.04600 44.02300
H  24.85400 -2.76600 40.72900
H  26.38700 -2.98900 41.58000
H  27.32200 -1.19500 40.29100
H  26.13600 -0.09300 40.64000
H  18.45800 -5.54400 43.44300
H  19.79000 -4.63600 42.63000
H  19.04000 -3.91600 44.04900
H  18.35200 -9.02200 47.09600
H  19.57900 -8.07000 47.82300
H  19.99200 -9.38600 46.66900
H  24.34800 -9.34700 47.96700
H  25.48800 -7.50200 49.95400
H  23.21300 -9.91100 49.86500
H  22.20600 -8.56100 49.50600
H  23.44700 -8.37600 50.72800
H  27.51500 -8.44000 48.26400
H  26.40200 -9.79500 48.15500
H  27.05200 -10.29200 50.37100
H  27.21000 -8.64900 50.88200
H  28.54800 -9.32300 49.91200
H  30.20200 -5.73500 46.98200
H  29.87600 -4.99500 48.51000
H  30.72200 -4.15400 47.11900
H  28.27700 -2.37300 42.94500
H  27.29300 1.83800 42.65100
H  28.29400 1.68100 41.25000
H  29.05400 2.04900 42.71100

