158

Mg 42.15300 41.71500 26.48100
C  41.06200 43.95800 28.89100
C  43.38100 39.70000 28.90600
C  43.05400 39.72500 23.96600
C  41.58300 44.27100 23.96300
N  42.15100 41.85500 28.60400
C  41.50600 42.75800 29.41500
C  41.62700 42.41200 30.95600
C  42.46600 41.07900 30.88700
C  42.66500 40.83200 29.37200
C  43.72800 41.03100 31.75100
C  40.31100 42.33200 31.67800
C  40.26800 43.04900 33.06100
H  39.58400 42.25100 34.17700
N  43.14600 39.94800 26.44400
C  43.56900 39.29700 27.56600
C  44.15100 38.02000 27.20300
C  43.91200 37.88300 25.75100
C  43.35200 39.21600 25.30200
C  44.83200 37.00600 28.16500
C  44.17700 36.75500 24.81700
O  43.80200 36.69200 23.63900
C  44.78000 35.45200 25.37400
N  42.44400 42.09400 24.28000
C  42.80600 40.99600 23.51500
C  42.65700 41.24900 22.01000
C  42.43200 42.80200 21.97300
C  42.15900 43.13300 23.48400
C  43.87800 40.78900 21.13200
C  41.37900 43.40100 20.99300
C  42.07400 44.32400 19.95500
N  41.40900 43.63200 26.37900
C  41.25300 44.56000 25.34000
C  40.77700 45.80900 25.89500
C  40.59900 45.55200 27.32200
C  41.01800 44.28000 27.56700
C  40.57600 47.15500 25.21100
C  40.24800 46.23700 28.54800
O  39.94300 47.38800 28.75900
C  40.42500 45.09800 29.67100
C  41.42700 45.61800 30.73100
O  42.63000 45.70200 30.57100
O  40.83500 46.07600 31.88800
C  41.51000 46.80000 32.94200
H  43.83500 38.98400 29.59500
H  43.19100 38.98100 23.17800
H  41.35100 45.03800 23.22200
H  42.20200 43.14400 31.52300
H  41.88100 40.21700 31.20900
H  43.58900 41.76300 32.54700
H  44.71100 41.33200 31.38900
H  43.80500 40.04500 32.20800
H  39.96700 41.30500 31.80200
H  39.55300 42.68300 30.97800
H  39.73500 44.00000 33.05600
H  41.26700 43.21600 33.46300
H  44.11100 36.21700 28.37900
H  45.26700 37.51800 29.02300
H  45.70400 36.59200 27.65800
H  44.26100 35.29400 26.32000
H  45.85500 35.49000 25.55200
H  44.49900 34.59600 24.76100
H  41.77300 40.70500 21.67600
H  43.42400 43.16600 21.70500
H  44.57800 40.24300 21.76400
H  44.39500 41.61900 20.65100
H  43.52700 40.12300 20.34300
H  40.64300 44.02900 21.49500
H  40.73800 42.66400 20.51100
H  42.17200 43.73000 19.04600
H  43.11600 44.50200 20.22100
H  41.54400 45.25300 19.74600
H  40.99300 47.10800 24.20500
H  40.89600 47.97100 25.85800
H  39.51600 47.18200 24.95800
H  39.46800 44.95100 30.17200
H  41.37700 46.30900 33.90600
H  41.06900 47.79700 32.98300
H  42.54300 47.14100 32.87500
Mg -12.01400 37.69300 41.92500
C  -10.23900 34.70000 41.29600
C  -9.39800 39.44500 40.55800
C  -14.09700 40.31900 41.68300
C  -14.64100 35.77600 42.95900
N  -9.99100 37.12600 41.11600
C  -9.50500 35.84700 40.90900
C  -8.09700 35.98700 40.21600
C  -7.71300 37.48500 40.39800
C  -9.12500 38.09200 40.79200
C  -6.53700 37.81100 41.41700
C  -8.12800 35.44200 38.72000
C  -6.97200 34.49900 38.52200
H  -5.79200 35.10500 37.79700
N  -11.76400 39.59600 41.25500
C  -10.60800 40.15600 40.73800
C  -10.81500 41.58600 40.50400
C  -12.23000 41.74600 40.56300
C  -12.78500 40.52300 41.14100
C  -9.67800 42.55400 40.00300
C  -12.94000 43.00500 40.20100
O  -12.21500 43.92600 39.78700
C  -14.36100 43.29200 40.36600
N  -14.14800 38.04600 42.38700
C  -14.74700 39.24600 42.26800
C  -16.29400 39.22400 42.48500
C  -16.38300 37.69800 43.09300
C  -15.00500 37.12400 42.75100
C  -16.90900 40.20500 43.46600
C  -17.53900 36.80500 42.45400
C  -17.84400 36.95300 40.96000
N  -12.39500 35.71900 42.14600
C  -13.46200 35.06800 42.71200
C  -13.18900 33.64700 42.79700
C  -11.92800 33.44700 42.22600
C  -11.48500 34.73000 41.81800
C  -14.11300 32.67200 43.46400
C  -10.87000 32.42300 41.83500
O  -10.79600 31.21200 41.90500
C  -9.71200 33.29500 41.14900
C  -8.35200 33.01100 41.71100
O  -7.49800 32.35700 41.15500
O  -8.23600 33.52000 43.02200
C  -7.25600 32.90300 43.86800
H  -8.58900 40.00400 40.08300
H  -14.72300 41.21300 41.63900
H  -15.51200 35.17900 43.24000
H  -7.48400 35.40700 40.90600
H  -7.30600 37.81500 39.44300
H  -6.94200 37.85200 42.42800
H  -6.02600 38.76700 41.30300
H  -5.73900 37.09400 41.22400
H  -8.11200 36.23100 37.96900
H  -9.04900 34.86100 38.66900
H  -7.31300 33.60500 37.99800
H  -6.48200 34.16200 39.43500
H  -9.71300 42.69100 38.92200
H  -8.66600 42.15500 40.07700
H  -9.79700 43.53800 40.45800
H  -14.91700 42.42900 40.00000
H  -14.75600 44.09700 39.74700
H  -14.53300 43.52300 41.41800
H  -16.80000 39.28800 41.52200
H  -16.55400 37.66900 44.16900
H  -17.66200 40.82500 42.97900
H  -16.17500 40.72200 44.08300
H  -17.42400 39.64900 44.25000
H  -18.44400 37.01800 43.02400
H  -17.34800 35.73800 42.56700
H  -17.01600 37.51200 40.52400
H  -18.79000 37.48200 40.84200
H  -18.01400 35.98200 40.49500
H  -15.02300 32.38100 42.93800
H  -14.31700 33.17300 44.41000
H  -13.56600 31.77100 43.74100
H  -9.75700 32.99800 40.10100
H  -7.30200 31.82400 43.72100
H  -7.45300 33.21600 44.89400
H  -6.25000 33.23600 43.61200

