158

Mg 41.21800 8.46500 30.04700
C  43.07300 9.86700 32.68900
C  38.89500 7.44900 32.23500
C  39.48200 7.54700 27.49400
C  44.02700 9.26200 27.88500
N  41.05700 8.62900 32.27200
C  41.85400 9.24700 33.13500
C  41.27900 9.24200 34.60000
C  40.03600 8.32800 34.40700
C  39.93900 8.16900 32.85600
C  40.09100 7.04400 35.29000
C  41.02300 10.72000 35.06700
C  40.29500 10.67400 36.44300
H  40.86600 11.60100 37.58200
N  39.46100 7.48500 29.90500
C  38.64100 7.12900 30.94100
C  37.51600 6.37300 30.36100
C  37.53200 6.66000 28.97000
C  38.85200 7.22800 28.71400
C  36.56300 5.76100 31.23500
C  36.37400 6.57700 27.93000
O  36.46000 7.09400 26.82700
C  35.13500 5.88700 28.34400
N  41.79700 8.24500 27.99300
C  40.80400 7.92800 27.13700
C  41.33600 7.93000 25.70300
C  42.81600 8.33500 25.89500
C  42.91800 8.59200 27.35200
C  41.04800 6.62000 24.93500
C  43.12100 9.62700 25.01800
C  42.53500 10.95000 25.41700
N  43.19200 9.39200 30.12700
C  44.19800 9.63700 29.23800
C  45.16200 10.45500 29.84600
C  44.77200 10.55000 31.16300
C  43.57500 9.89200 31.31100
C  46.35400 11.08200 29.19300
C  45.12900 11.19000 32.37300
O  46.04800 11.97600 32.59300
C  44.18300 10.65300 33.43500
C  44.91300 9.89600 34.55000
O  45.67600 8.98100 34.31700
O  44.34500 10.24600 35.78300
C  44.82800 9.51300 36.90900
H  38.14800 7.12800 32.96300
H  38.91800 7.16200 26.64200
H  44.81900 9.60500 27.21600
H  41.98300 8.81000 35.31000
H  39.21300 8.89200 34.84400
H  40.70100 7.22100 36.17600
H  40.48900 6.09700 34.92700
H  39.02900 6.90100 35.49200
H  40.40400 11.29400 34.37700
H  41.98000 11.23200 35.16100
H  40.42100 9.68700 36.88800
H  39.23200 10.87000 36.30000
H  36.99600 5.69600 32.23300
H  36.27600 4.75900 30.91300
H  35.66700 6.36300 31.38500
H  35.35300 4.87500 28.68600
H  34.44700 5.79100 27.50400
H  34.69200 6.36700 29.21700
H  40.74900 8.71400 25.22400
H  43.54700 7.53200 25.80500
H  40.61700 5.86600 25.59400
H  41.88700 6.15100 24.42100
H  40.26200 6.82100 24.20600
H  42.76600 9.48800 23.99700
H  44.19500 9.81000 24.98600
H  42.09500 11.02600 26.41100
H  41.89700 11.39600 24.65500
H  43.39200 11.62400 25.40300
H  45.96200 11.65500 28.35200
H  46.94600 10.29300 28.72900
H  46.91300 11.76300 29.83500
H  43.63900 11.46500 33.91700
H  44.63900 10.27200 37.66700
H  45.91500 9.43500 36.93200
H  44.33600 8.55800 37.09200
Mg 6.34800 54.22700 39.46600
C  5.97200 50.79300 39.55500
C  9.66600 53.83800 38.77200
C  6.47300 57.52100 38.72500
C  2.89100 54.51100 39.83900
N  7.60800 52.49100 39.01100
C  7.25800 51.15900 39.15100
C  8.54500 50.27600 38.84200
C  9.66000 51.35700 39.03700
C  8.95800 52.69200 38.91000
C  10.60700 51.28200 40.28700
C  8.60500 49.70200 37.45100
C  8.26800 50.70300 36.35400
H  6.89100 50.57200 35.61000
N  7.87200 55.51200 38.90700
C  9.15300 55.15500 38.70400
C  9.97900 56.31000 38.42600
C  9.06900 57.45200 38.46700
C  7.72400 56.87800 38.68000
C  11.56100 56.32500 38.22200
C  9.34900 58.96100 38.48900
O  10.55500 59.32800 38.42700
C  8.43400 60.10200 38.74700
N  4.83100 55.78200 39.23300
C  5.20800 57.09100 39.00300
C  4.02000 58.05500 39.23800
C  2.80000 57.09800 39.15000
C  3.51600 55.68800 39.41900
C  4.22500 58.73900 40.61800
C  2.11500 57.05900 37.76400
C  0.60000 57.17500 37.82600
N  4.69200 52.91200 39.61800
C  3.38600 53.16300 39.90100
C  2.63500 51.91000 40.10700
C  3.61100 50.92400 39.98600
C  4.82600 51.61500 39.67300
C  1.22400 51.63100 40.58700
C  3.92700 49.50400 40.04300
O  3.18400 48.57800 40.34400
C  5.44300 49.34300 39.76500
C  5.62300 48.44900 38.61600
O  5.25100 48.68400 37.45400
O  6.37300 47.34800 39.03400
C  6.40100 46.29100 38.04700
H  10.73200 53.61000 38.70600
H  6.51400 58.59400 38.52300
H  1.81900 54.48000 40.04300
H  8.76200 49.47900 39.55200
H  10.40600 51.28100 38.24500
H  11.62600 51.63700 40.13200
H  10.64300 50.31800 40.79600
H  10.37400 51.99600 41.07700
H  7.91600 48.86100 37.36600
H  9.60000 49.29700 37.27100
H  9.13400 50.52100 35.71800
H  8.47600 51.74000 36.61800
H  12.03400 57.26700 37.94400
H  11.90900 55.57000 37.51600
H  11.94200 56.08100 39.21300
H  8.00400 60.44500 37.80600
H  9.01400 60.93000 39.15500
H  7.62400 59.90300 39.44900
H  3.99400 58.83300 38.47500
H  2.12800 57.20500 40.00100
H  4.83800 59.63200 40.50200
H  4.77800 57.99900 41.19700
H  3.36000 59.04400 41.20700
H  2.49900 56.17400 37.25800
H  2.45000 57.78700 37.02500
H  0.37300 57.74000 38.73000
H  -0.00700 56.27000 37.84300
H  0.13900 57.61200 36.94000
H  0.96300 50.58400 40.43300
H  0.49600 52.20400 40.01200
H  1.19900 51.81900 41.66000
H  5.99100 48.86100 40.57500
H  6.95600 45.43100 38.42000
H  6.78600 46.71600 37.12000
H  5.46500 45.82800 37.73500

