158

Mg 43.30000 3.83100 47.98800
C  41.53800 6.63300 47.45700
C  40.43300 2.04600 47.34600
C  45.16200 1.01900 47.38400
C  46.32100 5.79300 47.72500
N  41.19100 4.31200 47.18800
C  40.72700 5.53300 47.24200
C  39.17500 5.53600 47.15300
C  38.74600 4.04900 47.31000
C  40.20100 3.42200 47.35500
C  38.08100 3.67700 48.65000
C  38.60900 6.17800 45.84500
C  37.01900 6.14700 45.70100
H  36.54800 6.01600 44.24600
N  42.86900 1.74200 47.68000
C  41.63300 1.30500 47.42200
C  41.76700 -0.13900 47.23500
C  43.13600 -0.54100 47.48200
C  43.83600 0.80100 47.54800
C  40.52000 -1.01300 47.00600
C  43.62700 -1.99400 47.50000
O  42.90300 -2.92100 47.30500
C  45.04200 -2.29100 47.77300
N  45.51800 3.49600 47.34100
C  45.91700 2.16600 47.41700
C  47.46000 2.13800 47.39300
C  47.81300 3.67800 47.50400
C  46.49500 4.42700 47.51500
C  48.19500 1.24600 48.46500
C  48.72500 4.22300 46.37300
C  49.91500 5.12400 46.89900
N  43.93800 5.77400 47.90800
C  45.11300 6.46600 47.80500
C  44.86200 7.83800 47.77400
C  43.47000 7.94600 47.66900
C  42.93400 6.67900 47.75200
C  45.80600 8.82700 47.70000
C  42.40300 8.95700 47.48500
O  42.54300 10.17800 47.31600
C  41.08400 8.18300 47.41100
C  40.16800 8.56100 48.53000
O  39.89000 7.78000 49.46600
O  39.63600 9.86200 48.33900
C  38.75300 10.36400 49.43000
H  39.51500 1.45500 47.34100
H  45.74000 0.10300 47.24300
H  47.26100 6.31500 47.91800
H  38.68800 6.05900 47.97600
H  38.08800 3.66500 46.53100
H  38.81400 3.17900 49.28300
H  37.27300 2.95800 48.51600
H  37.76800 4.56700 49.19600
H  39.08500 5.71900 44.97800
H  38.87400 7.23400 45.89000
H  36.57800 7.06000 46.10200
H  36.57200 5.33500 46.27300
H  40.64200 -1.85700 46.32700
H  39.76000 -0.49900 46.41700
H  40.15400 -1.41000 47.95400
H  45.62200 -2.19000 46.85600
H  45.02100 -3.21600 48.34800
H  45.36300 -1.52300 48.47800
H  47.84100 1.88300 46.40400
H  48.33200 3.92500 48.43000
H  47.50300 0.71200 49.11700
H  48.89600 1.92400 48.95200
H  48.80300 0.46100 48.01700
H  48.12600 4.77300 45.64700
H  49.28700 3.47000 45.82100
H  50.86700 4.81500 46.46800
H  49.98000 5.07200 47.98600
H  49.71400 6.16300 46.63600
H  46.16200 8.84200 46.67000
H  46.68500 8.55400 48.28500
H  45.37300 9.80600 47.90400
H  40.45100 8.36500 46.54200
H  38.86100 9.77600 50.34200
H  37.71400 10.48900 49.12600
H  39.14200 11.35400 49.66900
Mg 42.48700 41.63500 26.35500
C  42.08900 43.84800 29.08500
C  43.47400 39.29400 28.67600
C  43.91500 39.77900 23.82600
C  42.10200 44.29000 24.16400
N  42.68200 41.55100 28.71000
C  42.47300 42.55500 29.57700
C  42.44000 42.06700 31.04600
C  42.91200 40.59600 30.82500
C  43.08700 40.42300 29.33000
C  44.17800 40.11100 31.61500
C  40.98400 42.30500 31.65200
C  40.65800 41.34200 32.79500
H  39.83700 41.77600 34.06800
N  43.39700 39.78300 26.21000
C  43.62300 38.92500 27.32500
C  43.97900 37.60900 26.79500
C  44.16800 37.76400 25.40300
C  43.78500 39.15200 25.07900
C  44.14100 36.41200 27.69100
C  44.62500 36.76500 24.40800
O  45.00700 37.05900 23.28500
C  44.61200 35.32800 24.77400
N  42.92300 42.04900 24.22600
C  43.45500 41.03800 23.44100
C  43.34100 41.44900 21.92100
C  42.56600 42.85500 22.01200
C  42.47200 43.08600 23.54100
C  44.61500 41.44700 20.98500
C  41.17700 42.94500 21.37700
C  40.28700 41.74000 21.71400
N  42.06300 43.56600 26.54900
C  41.81900 44.51100 25.59300
C  41.40500 45.73300 26.22600
C  41.50400 45.48000 27.55700
C  41.92300 44.17400 27.72700
C  41.09200 46.97300 25.46100
C  41.39700 46.21700 28.83500
O  41.14800 47.33700 29.11800
C  41.65900 45.05300 29.93100
C  42.78200 45.51000 30.80000
O  43.95600 45.63900 30.40400
O  42.46200 45.67100 32.12500
C  43.45900 46.31500 32.95600
H  43.56500 38.45300 29.36600
H  44.26600 39.12500 23.02600
H  41.94700 45.18100 23.55200
H  43.16000 42.63500 31.63500
H  42.12600 39.85500 30.97400
H  45.08000 40.19300 31.00900
H  44.10300 39.05300 31.86400
H  44.24200 40.73800 32.50500
H  40.18200 42.52800 30.94800
H  41.09000 43.23800 32.20500
H  41.54700 40.73300 32.95700
H  39.90100 40.70700 32.33400
H  43.33900 35.68100 27.58800
H  44.03700 36.66100 28.74700
H  45.11700 35.95500 27.52700
H  43.75500 35.02900 25.37800
H  45.48300 35.21400 25.41900
H  44.76100 34.72800 23.87600
H  42.67500 40.80000 21.35300
H  43.30100 43.50500 21.53700
H  44.38100 41.10200 19.97700
H  45.43000 40.80200 21.31500
H  45.07000 42.40300 20.72700
H  41.29900 43.08900 20.30300
H  40.82400 43.82800 21.90900
H  40.24600 40.97300 20.94100
H  39.34800 42.22900 21.97600
H  40.70300 41.12200 22.51000
H  40.83100 47.76100 26.16700
H  40.23800 46.84100 24.79600
H  41.99300 47.33900 24.96900
H  40.85100 44.83800 30.63000
H  44.31400 45.64800 33.07300
H  42.87000 46.51000 33.85200
H  43.83500 47.26300 32.57200

