158

Mg 48.20900 14.37100 28.12100
C  45.77300 14.39300 30.69900
C  50.27100 16.43300 29.94400
C  50.12200 14.86700 25.25300
C  46.12300 12.29400 26.29300
N  47.93700 15.48300 30.07800
C  46.96600 15.18400 31.03500
C  47.47500 15.57400 32.42900
C  48.72800 16.45700 32.13600
C  49.06200 16.10500 30.62500
C  48.60200 17.96200 32.25300
C  47.76900 14.40200 33.46300
C  47.14700 14.62600 34.87400
H  48.16700 14.99000 35.93600
N  49.94100 15.53700 27.62700
C  50.67500 16.26100 28.56400
C  51.76300 16.92600 27.88200
C  51.74200 16.51200 26.49800
C  50.54500 15.61100 26.38900
C  52.68900 17.97000 28.53100
C  52.65500 16.84100 25.39500
O  52.56300 16.32000 24.27200
C  53.78100 17.77400 25.54700
N  48.12200 13.62500 26.08700
C  48.94000 13.98700 25.10200
C  48.70200 13.17300 23.81200
C  47.41000 12.30200 24.14400
C  47.21600 12.77000 25.60100
C  48.61100 14.11000 22.54900
C  47.65500 10.71500 24.00600
C  48.06700 9.92800 25.23200
N  46.29600 13.57400 28.37800
C  45.56900 12.72900 27.51000
C  44.36500 12.31100 28.04600
C  44.40700 13.01800 29.29000
C  45.55300 13.74100 29.46500
C  43.27600 11.54500 27.42300
C  43.61500 13.26500 30.47000
O  42.49200 12.95400 30.79100
C  44.58500 13.92100 31.53400
C  43.87800 14.94600 32.34300
O  43.52800 16.01700 32.03400
O  43.66100 14.48000 33.61200
C  42.89700 15.38900 34.46400
H  50.87000 17.18200 30.46500
H  50.74900 15.03500 24.37500
H  45.43400 11.64200 25.75200
H  46.70000 16.21800 32.84300
H  49.57400 16.11000 32.72800
H  49.04300 18.33400 33.17700
H  47.57200 18.27800 32.08900
H  48.98700 18.42600 31.34500
H  48.83000 14.38600 33.71200
H  47.33500 13.46100 33.12400
H  46.71700 13.66800 35.16700
H  46.28400 15.27200 34.71000
H  52.61100 17.79800 29.60400
H  52.47100 19.01600 28.31700
H  53.65400 17.54400 28.25500
H  53.40200 18.75900 25.82100
H  54.20700 17.91200 24.55300
H  54.59700 17.47300 26.20500
H  49.61900 12.60200 23.67200
H  46.52100 12.49800 23.54400
H  47.85700 13.78300 21.83300
H  49.44900 13.91000 21.88200
H  48.60400 15.17700 22.77100
H  48.46300 10.60900 23.28200
H  46.71600 10.31400 23.62600
H  47.26700 9.29900 25.62000
H  48.26000 10.61100 26.05900
H  48.85800 9.24000 24.93400
H  43.03700 10.63500 27.97300
H  43.56200 11.33400 26.39200
H  42.40800 12.20400 27.43500
H  44.85300 13.14600 32.25300
H  41.95300 15.67500 33.99900
H  43.36400 16.32100 34.78400
H  42.68700 14.71500 35.29400
Mg 30.01800 58.79500 39.11900
C  27.32600 56.86500 38.09800
C  32.04700 56.20500 37.71500
C  32.49500 60.97300 38.96500
C  27.71500 61.56800 39.11100
N  29.75500 56.76700 38.07500
C  28.54400 56.24100 37.78400
C  28.63900 54.85000 36.94600
C  30.13600 54.52300 37.19300
C  30.73300 55.87400 37.71500
C  30.42000 53.39000 38.23100
C  28.22700 55.06100 35.41200
C  27.10300 54.33300 34.69400
H  26.31500 55.17700 33.66000
N  32.00800 58.56600 38.62300
C  32.67500 57.44800 38.10400
C  34.00400 57.76100 37.90100
C  34.20400 59.07600 38.38800
C  32.93000 59.63700 38.68300
C  34.95400 56.82200 37.18600
C  35.50200 59.82000 38.42300
O  36.45200 59.26500 37.85700
C  35.78100 61.17800 39.09700
N  30.09100 61.00100 39.14200
C  31.27700 61.64800 39.15200
C  31.11000 63.16800 39.06800
C  29.53600 63.30000 38.97700
C  29.06800 61.83200 39.08300
C  31.88900 64.01500 40.15300
C  29.03600 64.00200 37.71800
C  28.08700 65.14100 37.89100
N  27.92200 59.18200 38.84500
C  27.13500 60.28100 38.90400
C  25.70700 59.89600 38.90500
C  25.69300 58.59300 38.66000
C  27.09900 58.19100 38.55700
C  24.52400 60.77200 38.89800
C  24.90500 57.35900 38.49600
O  23.69000 57.24900 38.55300
C  25.86800 56.29100 37.97500
C  25.65000 55.11700 38.96900
O  26.21300 55.02200 40.03200
O  24.77500 54.13000 38.46200
C  24.38600 52.97300 39.30200
H  32.63600 55.34400 37.39000
H  33.40600 61.56900 39.05300
H  27.07800 62.44600 39.24200
H  28.00900 54.11200 37.44300
H  30.66400 54.21100 36.29200
H  31.08000 53.75800 39.01700
H  30.81500 52.48600 37.76600
H  29.47400 53.19300 38.73400
H  29.05800 54.73700 34.78600
H  28.03900 56.12700 35.28200
H  26.39800 53.86300 35.37900
H  27.58300 53.50800 34.16800
H  35.41800 57.27000 36.30700
H  34.53400 55.88000 36.83400
H  35.75900 56.50200 37.84700
H  36.83700 61.20200 39.36600
H  35.26900 61.38100 40.03800
H  35.53400 61.99200 38.41600
H  31.48600 63.37800 38.06700
H  29.20000 63.77100 39.90100
H  32.95600 63.79400 40.18100
H  31.29900 63.88000 41.05900
H  31.78600 65.07900 39.94100
H  28.61900 63.28000 37.01500
H  29.87200 64.48800 37.21700
H  28.32800 66.02300 37.29700
H  27.88400 65.29900 38.95000
H  27.14900 64.75500 37.49100
H  24.50900 61.48000 39.72600
H  23.60200 60.22000 39.08100
H  24.62300 61.37500 37.99500
H  25.68300 56.03300 36.93200
H  23.84600 53.18800 40.22400
H  25.11200 52.16300 39.37100
H  23.66100 52.51400 38.63000

