158

Mg 34.83700 3.31700 29.81500
C  32.69800 4.24500 32.45200
C  37.49100 3.29500 31.96200
C  36.72800 2.67900 27.20900
C  32.04300 3.78200 27.67300
N  35.03600 3.83100 32.03800
C  33.99900 3.99200 32.93500
C  34.54000 3.97300 34.36600
C  36.09000 3.78800 34.17100
C  36.27800 3.67700 32.60300
C  36.94700 4.98000 34.72100
C  33.89700 2.76900 35.16500
C  33.44800 3.12500 36.65000
H  34.14600 4.23600 37.48000
N  36.82300 2.94300 29.65200
C  37.78900 2.96300 30.62300
C  39.02900 2.50200 30.02100
C  38.84900 2.51200 28.62900
C  37.43600 2.65700 28.47500
C  40.27400 2.26500 30.78000
C  39.86900 2.46700 27.40100
O  39.59000 2.56800 26.26100
C  41.38300 2.44700 27.72700
N  34.40400 3.34700 27.68100
C  35.42000 3.05000 26.79400
C  34.89000 2.96100 25.39700
C  33.41100 3.15100 25.57200
C  33.24600 3.42800 27.05600
C  35.54300 4.02600 24.39600
C  32.56400 1.89500 25.11300
C  31.13100 2.18700 24.66600
N  32.80300 3.99100 29.94900
C  31.81600 4.13500 29.04000
C  30.59400 4.46500 29.64900
C  30.90900 4.52700 30.96100
C  32.27300 4.32300 31.06100
C  29.29700 4.72600 28.90600
C  30.29900 4.75500 32.28300
O  29.17900 5.00900 32.66500
C  31.54000 4.58600 33.29200
C  31.56500 5.92200 33.95100
O  32.16800 6.86100 33.45300
O  31.01300 5.76000 35.20500
C  31.17500 6.85200 36.14700
H  38.34900 3.11700 32.61300
H  37.26300 2.44600 26.28600
H  31.11000 3.79800 27.10600
H  34.23700 4.87700 34.89600
H  36.52600 2.93300 34.68700
H  36.42200 5.57800 35.46600
H  37.25800 5.63500 33.90700
H  37.86100 4.56800 35.15000
H  34.60300 1.95100 35.31100
H  33.06600 2.32300 34.61800
H  33.40500 2.19500 37.21600
H  32.42000 3.41700 36.43200
H  40.84100 1.40000 30.43400
H  39.95000 2.14900 31.81400
H  40.91600 3.12800 30.60500
H  41.90500 2.70300 26.80500
H  41.68700 1.42300 27.94500
H  41.61200 3.11200 28.56000
H  35.04500 1.93800 25.05400
H  33.20500 4.12800 25.13400
H  34.79100 4.55400 23.81000
H  36.03300 3.52400 23.56200
H  36.23700 4.67900 24.92500
H  32.67400 1.14300 25.89400
H  33.10800 1.42100 24.29500
H  30.45600 1.99000 25.49900
H  30.75300 1.46500 23.94100
H  30.91500 3.20400 24.33700
H  28.67600 3.83100 28.94100
H  29.46000 4.89200 27.84100
H  28.73600 5.46400 29.47900
H  31.28900 3.85800 34.06400
H  30.25800 7.43100 36.25800
H  31.96900 7.53800 35.85500
H  31.42200 6.44700 37.12900
Mg 54.39400 24.80000 44.25100
C  51.61500 26.92600 43.47900
C  52.46800 22.10500 42.95800
C  57.03400 23.03500 44.15100
C  56.30300 27.69000 45.00800
N  52.24200 24.50600 43.27200
C  51.41200 25.58300 43.06800
C  50.16000 24.99200 42.33100
C  50.27700 23.43900 42.49100
C  51.75400 23.33200 42.95800
C  49.18000 22.77700 43.46700
C  49.91300 25.50400 40.81900
C  48.40800 25.48500 40.42900
H  48.03900 25.15600 38.96000
N  54.70200 22.82300 43.70100
C  53.79700 21.88000 43.27200
C  54.49800 20.58500 43.19200
C  55.89800 20.76500 43.57300
C  55.89500 22.22900 43.81500
C  53.71900 19.31500 42.71400
C  57.05100 19.77700 43.66400
O  56.84000 18.58300 43.39600
C  58.46800 20.14200 43.99100
N  56.43700 25.37500 44.36700
C  57.32000 24.33800 44.46100
C  58.74300 24.91100 44.59100
C  58.54200 26.43600 44.95400
C  57.04400 26.57600 44.79600
C  59.58100 24.12700 45.66300
C  59.31100 27.44800 44.09600
C  60.18400 28.51400 44.89000
N  54.06900 26.83400 44.42200
C  54.91700 27.84800 44.79900
C  54.05800 29.02200 45.08600
C  52.75400 28.69400 44.56900
C  52.86400 27.39100 44.13700
C  54.43100 30.29100 45.84200
C  51.38500 29.17600 44.31800
O  50.92700 30.20700 44.61400
C  50.62000 28.09500 43.45400
C  50.39500 28.73800 42.11100
O  51.12600 29.04000 41.20100
O  49.07400 28.75900 41.96200
C  48.57900 29.31400 40.66900
H  51.83200 21.32400 42.53700
H  58.00900 22.54400 44.15400
H  56.76100 28.47500 45.61400
H  49.34500 25.38200 42.94000
H  50.09500 22.94900 41.53500
H  49.64400 22.46700 44.40300
H  48.80400 21.87400 42.98700
H  48.39000 23.50100 43.67000
H  50.57300 24.92300 40.17400
H  50.29300 26.50800 40.63100
H  48.04100 26.51100 40.47400
H  47.89900 24.71100 41.00400
H  54.32200 18.86200 41.92700
H  52.65100 19.48200 42.58000
H  53.62800 18.54300 43.47800
H  58.78300 20.89000 43.26300
H  59.16300 19.30800 43.90100
H  58.62600 20.55300 44.98800
H  59.30000 24.83700 43.65700
H  58.90900 26.61300 45.96500
H  58.89300 23.48900 46.21800
H  60.08300 24.72300 46.42500
H  60.29100 23.44100 45.20100
H  58.58100 28.09900 43.61600
H  59.94600 26.91200 43.39100
H  59.81800 29.47900 44.53800
H  61.23100 28.37600 44.62000
H  59.95200 28.34100 45.94000
H  53.74800 31.12300 45.67300
H  55.45300 30.55900 45.57500
H  54.33700 29.98500 46.88400
H  49.69900 27.67800 43.86200
H  48.89200 28.72200 39.81000
H  48.72600 30.39300 40.63200
H  47.50000 29.25100 40.81100

