158

Mg -0.66400 6.94400 26.39000
C  0.43400 9.05300 28.88500
C  -0.63200 4.35000 28.60300
C  -1.68100 4.94600 23.88500
C  -0.11600 9.50000 24.02600
N  -0.22100 6.76500 28.49500
C  0.16300 7.79500 29.38200
C  0.12800 7.29800 30.82600
C  0.08000 5.73300 30.70200
C  -0.25400 5.57300 29.18200
C  1.41700 5.06400 31.08500
C  -1.17200 7.99400 31.51100
C  -1.36900 7.81700 32.99400
H  -0.22200 7.16100 33.68400
N  -1.09300 4.89700 26.23100
C  -1.02100 3.98000 27.26100
C  -1.46200 2.69200 26.77400
C  -1.90800 2.88600 25.44000
C  -1.62100 4.31000 25.15900
C  -1.27300 1.54000 27.54200
C  -2.42700 1.89200 24.36700
O  -2.80700 2.22100 23.23700
C  -2.41900 0.43800 24.68600
N  -0.64400 7.13000 24.20400
C  -1.23100 6.20900 23.48900
C  -1.33300 6.64200 21.95600
C  -0.72000 8.13900 22.02300
C  -0.48800 8.29900 23.55400
C  -0.64100 5.73700 20.88000
C  -1.66000 9.24400 21.38600
C  -2.85900 9.66900 22.26800
N  0.07300 8.81200 26.40700
C  0.18300 9.78000 25.41000
C  0.61900 11.02000 25.92100
C  0.76000 10.77000 27.33400
C  0.41500 9.46700 27.51800
C  0.68500 12.30800 25.12700
C  1.15800 11.42300 28.55200
O  1.67800 12.55000 28.68400
C  0.84700 10.33400 29.68100
C  2.00100 10.19700 30.52300
O  3.11500 9.73500 30.28500
O  1.71000 10.62700 31.75200
C  2.84000 11.11600 32.53500
H  -0.67000 3.54200 29.33700
H  -1.94600 4.31000 23.03800
H  -0.10200 10.32500 23.31200
H  0.95500 7.71700 31.40100
H  -0.65700 5.22800 31.32600
H  2.24000 5.77200 30.98300
H  1.72000 4.47100 30.22300
H  1.37400 4.62200 32.08100
H  -2.06600 7.58500 31.04100
H  -1.10800 9.03700 31.19900
H  -2.23800 7.17000 33.10700
H  -1.53700 8.83700 33.34000
H  -0.33300 1.43700 28.08500
H  -1.26200 0.70300 26.84300
H  -2.01200 1.40600 28.33200
H  -3.19800 0.38100 25.44700
H  -1.41900 0.16000 25.01700
H  -2.63100 -0.21000 23.83500
H  -2.39700 6.64100 21.71700
H  0.16400 8.29100 21.40300
H  -0.39900 4.70600 21.13600
H  0.27300 6.18700 20.49300
H  -1.33200 5.63800 20.04300
H  -2.16800 8.87900 20.49400
H  -1.14700 10.18200 21.17700
H  -2.54400 10.54400 22.83800
H  -3.14600 8.86200 22.94200
H  -3.74200 9.86000 21.65900
H  1.18000 13.05700 25.74500
H  -0.22600 12.82000 24.81800
H  1.35100 12.10300 24.28900
H  0.00100 10.71200 30.25500
H  3.45000 10.24500 32.77300
H  2.43700 11.56400 33.44400
H  3.38900 11.84900 31.94400
Mg 10.20300 47.11700 26.04400
C  8.09000 47.33700 28.65300
C  12.74400 48.59300 27.85300
C  12.34200 47.10900 23.23700
C  7.57400 46.72400 23.87800
N  10.42300 47.77600 28.04000
C  9.46800 47.67400 29.00000
C  10.00200 48.19600 30.36500
C  11.27900 48.97200 29.86600
C  11.51000 48.44000 28.49300
C  10.90700 50.47800 29.67000
C  10.25000 47.13400 31.44300
C  9.81800 47.35600 32.91100
H  9.76400 46.01100 33.64500
N  12.26800 47.59900 25.66100
C  13.13500 48.04200 26.61700
C  14.47600 48.09400 26.06400
C  14.42500 47.63700 24.71900
C  12.97400 47.40800 24.48500
C  15.69100 48.41900 26.80000
C  15.55700 47.39900 23.68400
O  15.33700 47.10900 22.50900
C  16.97900 47.68700 24.08200
N  10.00200 46.86000 23.90200
C  10.98700 46.80200 23.01500
C  10.48900 46.42700 21.64000
C  8.94900 46.33600 21.78800
C  8.83200 46.61800 23.28100
C  10.91600 47.24500 20.41200
C  8.29200 44.97800 21.23300
C  6.82000 45.07000 20.82100
N  8.14800 46.96300 26.21800
C  7.17700 46.77500 25.23000
C  5.87000 46.70000 25.90100
C  6.14200 46.97100 27.22200
C  7.54700 47.09200 27.37300
C  4.56600 46.32200 25.31700
C  5.61500 46.99800 28.56900
O  4.48900 46.84600 28.92900
C  6.80400 47.25300 29.54000
C  6.92300 46.03800 30.39700
O  7.44000 44.97700 30.05200
O  6.43000 46.32600 31.66700
C  6.54800 45.26600 32.68400
H  13.48600 49.15900 28.42000
H  12.83400 47.17100 22.26500
H  6.61700 46.68400 23.35400
H  9.27700 48.90800 30.75900
H  12.16300 48.71700 30.45100
H  11.32400 51.06200 30.49000
H  9.83400 50.66800 29.64400
H  11.28900 50.83100 28.71100
H  11.32100 46.99600 31.59000
H  9.86000 46.20500 31.02700
H  8.82500 47.80600 32.92600
H  10.55000 47.97500 33.43000
H  15.51100 48.39400 27.87400
H  16.21000 49.33600 26.52000
H  16.42600 47.61700 26.72200
H  17.16900 47.00300 24.91000
H  17.05300 48.70800 24.45600
H  17.59100 47.51300 23.19700
H  10.84100 45.45600 21.29200
H  8.47800 47.17000 21.26800
H  11.07800 48.20000 20.91100
H  10.07800 47.21600 19.71500
H  11.82200 46.95600 19.87800
H  8.42900 44.27500 22.05400
H  8.86200 44.66600 20.35800
H  6.34300 44.36100 21.49800
H  6.51300 44.67700 19.85200
H  6.36400 46.05400 20.93500
H  4.75600 46.06400 24.27500
H  3.94400 47.19300 25.52000
H  4.25700 45.40900 25.82700
H  6.60000 48.19000 30.05900
H  6.89200 45.93300 33.47500
H  7.23800 44.43900 32.51400
H  5.60700 44.77500 32.93200

