158

Mg 45.98600 25.30900 28.26700
C  46.83100 27.36700 30.91100
C  45.04900 22.89700 30.69100
C  45.13400 23.27300 25.76800
C  47.36800 27.56800 26.02800
N  45.94700 25.09800 30.57100
C  46.29000 26.13900 31.44800
C  46.14300 25.74900 32.94300
C  45.78100 24.15000 32.81500
C  45.56600 24.05400 31.27000
C  46.76600 23.27200 33.56000
C  45.15600 26.67500 33.66500
C  45.54300 27.01100 35.09000
H  44.52900 27.27800 36.17400
N  45.11700 23.45400 28.23400
C  44.83100 22.60200 29.29700
C  44.19000 21.42500 28.79400
C  44.26000 21.45000 27.38800
C  44.89800 22.71900 27.04100
C  43.66400 20.31400 29.66600
C  43.91500 20.31600 26.41800
O  44.13700 20.40000 25.19400
C  43.25200 19.03200 26.93600
N  46.14900 25.44700 26.16000
C  45.71200 24.51600 25.33900
C  46.07700 24.85100 23.89300
C  46.54300 26.33600 24.00800
C  46.71700 26.50800 25.51800
C  47.10500 23.93700 23.10500
C  45.48100 27.46100 23.54800
C  46.00100 28.46700 22.49500
N  47.10100 26.94200 28.36300
C  47.59900 27.81200 27.41700
C  48.26200 28.90300 28.10100
C  47.86000 28.77100 29.40900
C  47.21900 27.56900 29.60200
C  49.02200 30.06200 27.58400
C  48.16200 29.40200 30.67400
O  48.75400 30.46200 30.92600
C  47.25000 28.58500 31.69900
C  48.12100 28.43700 32.92200
O  49.06500 27.68500 32.96100
O  47.82400 29.42500 33.89600
C  48.87200 29.67900 34.93600
H  44.75200 22.23200 31.50500
H  44.82600 22.66700 24.91400
H  47.67800 28.37200 25.35800
H  47.08600 25.86700 33.47800
H  44.81800 24.08100 33.32200
H  46.24800 22.67000 34.30600
H  47.59000 23.86800 33.95400
H  47.18000 22.46900 32.95000
H  44.24700 26.08400 33.77800
H  44.88000 27.49800 33.00600
H  46.17600 27.89400 35.00400
H  46.06600 26.14800 35.50200
H  42.57500 20.31400 29.64400
H  43.93400 20.43500 30.71500
H  44.17200 19.39000 29.38900
H  44.01100 18.46500 27.47600
H  42.86800 18.44800 26.10000
H  42.50000 19.43900 27.61100
H  45.12800 24.91100 23.36200
H  47.48100 26.56400 23.50100
H  47.83000 24.50100 22.51700
H  46.59000 23.35000 22.34400
H  47.60100 23.18800 23.72100
H  45.09300 28.07400 24.36000
H  44.59700 26.96600 23.14700
H  47.07300 28.33100 22.35200
H  45.87600 29.52300 22.73600
H  45.61700 28.33400 21.48400
H  49.82600 30.13800 28.31600
H  48.42800 30.94400 27.82300
H  49.32400 30.00000 26.53900
H  46.33600 29.13800 31.91700
H  49.90500 29.47000 34.65900
H  48.60600 28.96500 35.71600
H  48.77700 30.74200 35.15800
Mg 1.60500 43.36600 26.92000
C  3.34400 43.34000 29.98400
C  -1.04900 41.95600 28.67100
C  0.13400 42.87100 23.93500
C  4.49700 44.52500 25.49600
N  1.22800 42.77600 29.12100
C  2.02900 43.03100 30.14800
C  1.28600 42.76100 31.50700
C  -0.10300 41.97600 30.99500
C  -0.00700 42.30500 29.49500
C  -0.01000 40.55400 31.36200
C  1.06100 43.90800 32.50600
C  1.60500 43.64900 34.00700
H  0.60300 43.26400 35.07400
N  -0.23100 42.65200 26.41400
C  -1.19800 42.16600 27.30900
C  -2.45900 41.82300 26.54300
C  -2.15900 42.20700 25.15600
C  -0.71900 42.64600 25.15200
C  -3.72600 41.18400 27.09500
C  -3.06900 42.10000 23.92300
O  -2.61800 42.54000 22.86200
C  -4.57300 41.71400 24.02400
N  2.24800 43.55700 25.00100
C  1.47300 43.32800 23.87500
C  2.29300 43.63500 22.55100
C  3.48500 44.43300 23.10000
C  3.40000 44.24600 24.60900
C  2.58800 42.36300 21.66600
C  3.52100 45.99200 22.63200
C  4.54800 46.28400 21.46500
N  3.56200 43.90100 27.51600
C  4.59400 44.28500 26.82900
C  5.74700 44.28600 27.61100
C  5.35000 43.90500 28.86300
C  3.99700 43.73700 28.77300
C  7.18200 44.63700 27.14600
C  5.77300 43.66000 30.18200
O  6.90000 43.79700 30.61300
C  4.46100 43.30500 31.04100
C  4.69100 42.06200 31.85000
O  4.74900 40.89700 31.40800
O  4.85600 42.42800 33.20200
C  4.93200 41.37900 34.21400
H  -1.96300 41.68800 29.20500
H  -0.42300 42.66800 23.01800
H  5.38700 44.93400 25.01200
H  1.99900 42.13800 32.04700
H  -0.92100 42.49500 31.49400
H  0.56700 40.12300 30.54300
H  -1.03100 40.18100 31.28200
H  0.36600 40.38600 32.37100
H  -0.02300 43.94400 32.60800
H  1.39400 44.81800 32.00600
H  2.17000 44.51700 34.34800
H  2.30000 42.81000 33.99500
H  -3.76700 41.20000 28.18400
H  -3.81500 40.14500 26.77900
H  -4.55700 41.78800 26.73000
H  -4.69400 40.68300 24.35500
H  -5.01300 41.78900 23.03000
H  -4.98900 42.46000 24.70200
H  1.72100 44.35800 21.96800
H  4.37300 44.01900 22.62200
H  3.66400 42.23900 21.54400
H  2.22200 42.31600 20.64000
H  2.14600 41.54300 22.23300
H  3.83400 46.47900 23.55600
H  2.50200 46.29700 22.39300
H  5.09900 47.22400 21.46900
H  4.08100 46.18600 20.48500
H  5.28200 45.47800 21.46400
H  7.88200 44.42100 27.95200
H  7.15100 45.68600 26.85200
H  7.57500 44.10300 26.28100
H  4.34200 44.08700 31.79100
H  4.76100 40.41900 33.72600
H  4.24000 41.69500 34.99400
H  5.92300 41.32000 34.66300

