158

Mg 16.82900 -1.22100 28.54200
C  15.82600 0.53400 31.30900
C  18.96200 -2.96600 30.57200
C  18.18300 -2.59600 25.77100
C  14.95600 0.86500 26.48200
N  17.32000 -1.14000 30.72700
C  16.82400 -0.43000 31.65000
C  17.31500 -0.81500 33.04700
C  18.63900 -1.60000 32.75100
C  18.36400 -1.88900 31.30600
C  20.06200 -1.10100 33.13600
C  16.28900 -1.39800 34.02000
C  16.31800 -0.77300 35.44600
H  17.61600 -0.22100 35.93000
N  18.28600 -2.68500 28.28700
C  19.06300 -3.34800 29.21900
C  19.99500 -4.25700 28.47000
C  19.68400 -4.21500 27.10800
C  18.69100 -3.14000 26.97800
C  21.06300 -5.13800 29.22900
C  20.26800 -5.07600 25.90400
O  19.89600 -5.07800 24.72700
C  21.39800 -6.02400 26.13800
N  16.55600 -0.98400 26.37900
C  17.25100 -1.61000 25.48100
C  16.86200 -1.18400 24.06800
C  15.69600 -0.25700 24.27800
C  15.75000 -0.04200 25.80200
C  18.09500 -0.60600 23.16800
C  14.26700 -0.70600 23.85000
C  14.02300 -0.66800 22.34200
N  15.67300 0.37500 28.74100
C  14.93200 1.09500 27.85000
C  14.07200 2.10400 28.55200
C  14.38600 1.83600 29.90300
C  15.37400 0.81100 29.98500
C  13.12400 3.17300 27.93000
C  14.07700 2.20100 31.29700
O  13.20800 2.98900 31.70700
C  14.98600 1.44000 32.20000
C  15.88200 2.41200 32.82100
O  16.93200 2.76400 32.39300
O  15.25800 2.90000 33.94600
C  16.11800 3.80500 34.75600
H  19.69000 -3.56400 31.12500
H  18.55500 -3.05900 24.85500
H  14.48300 1.62200 25.85300
H  17.72600 0.09500 33.48700
H  18.44900 -2.52100 33.30200
H  20.57500 -0.78800 32.22600
H  20.61700 -1.88400 33.65400
H  19.93300 -0.24100 33.79300
H  16.33500 -2.48300 34.11100
H  15.30800 -1.29700 33.55500
H  16.02400 -1.50600 36.19700
H  15.58800 0.03200 35.36800
H  21.21600 -4.86700 30.27400
H  21.99300 -4.81300 28.76400
H  20.86600 -6.20800 29.17200
H  22.34200 -5.50900 26.31700
H  21.51600 -6.59100 25.21400
H  21.11700 -6.71200 26.93500
H  16.46200 -2.11700 23.67100
H  15.96600 0.68700 23.80600
H  18.59100 -1.44900 22.68700
H  18.85900 -0.22700 23.84800
H  17.61200 0.09800 22.49000
H  13.54900 0.00600 24.25600
H  14.07600 -1.76000 24.05100
H  13.37100 0.13800 22.00500
H  13.67900 -1.64700 22.00700
H  14.95700 -0.45300 21.82500
H  13.61600 3.56600 27.04000
H  12.96600 4.06800 28.53200
H  12.20400 2.66800 27.63500
H  14.39400 0.92200 32.95500
H  16.02100 3.52000 35.80300
H  15.81200 4.83400 34.57100
H  17.16600 3.67600 34.48600
Mg 42.13100 41.25900 26.89400
C  41.58000 43.57800 29.58100
C  43.28300 39.11900 29.30900
C  42.91600 39.21200 24.53600
C  41.35100 43.73000 24.62100
N  42.42000 41.32600 29.28200
C  42.01200 42.33300 30.07300
C  42.04500 41.94600 31.58000
C  42.82600 40.49300 31.46200
C  42.84300 40.30600 29.93900
C  44.16600 40.19300 32.18200
C  40.56700 41.98000 32.16500
C  40.26700 42.83300 33.37900
H  39.58700 42.27900 34.66100
N  43.03900 39.39500 26.89200
C  43.27400 38.58700 27.98200
C  43.77000 37.34100 27.51200
C  43.70600 37.29100 26.10700
C  43.19000 38.68900 25.78600
C  44.27600 36.31200 28.44800
C  43.88300 36.13600 25.13400
O  43.61600 36.35300 23.96600
C  44.33300 34.74300 25.57300
N  42.23500 41.54200 24.99800
C  42.42900 40.43500 24.21300
C  42.15400 40.67700 22.76000
C  41.71900 42.17500 22.77600
C  41.70100 42.49000 24.22200
C  43.33800 40.32200 21.74400
C  40.36200 42.31300 22.10100
C  39.13200 41.82100 22.89100
N  41.48400 43.23400 27.01600
C  41.27700 44.16400 25.99300
C  40.85400 45.44500 26.57200
C  40.92200 45.15300 27.97000
C  41.35300 43.85600 28.20600
C  40.47700 46.70800 25.78800
C  40.73900 45.83800 29.26200
O  40.37700 46.97200 29.53100
C  41.15000 44.82300 30.30900
C  42.22000 45.31500 31.18100
O  43.35400 45.57400 30.79100
O  41.75700 45.47700 32.40200
C  42.61900 46.17700 33.35200
H  43.65300 38.47500 30.10900
H  42.94000 38.49100 23.71600
H  41.09500 44.42500 23.81800
H  42.73900 42.59600 32.11200
H  42.17600 39.73200 31.89500
H  44.44200 40.96500 32.90000
H  45.01200 39.98200 31.52800
H  43.97300 39.27300 32.73500
H  40.26000 40.97200 32.44300
H  39.98800 42.33400 31.31100
H  39.55800 43.53700 32.94400
H  41.20400 43.36100 33.55400
H  44.15300 36.58000 29.49800
H  45.35800 36.20500 28.38300
H  43.93400 35.34200 28.08700
H  43.61100 34.22200 26.20200
H  45.13900 34.83700 26.30000
H  44.70800 34.32500 24.63900
H  41.34500 40.04300 22.39500
H  42.47600 42.76800 22.26200
H  43.96900 39.49400 22.06700
H  44.02200 41.16900 21.68600
H  42.85600 40.04100 20.80700
H  40.39000 41.76700 21.15800
H  40.17800 43.35700 21.84900
H  38.59600 41.15700 22.21200
H  38.66500 42.57100 23.52800
H  39.48100 41.06600 23.59600
H  40.84100 46.81200 24.76600
H  40.91700 47.50300 26.39000
H  39.39100 46.80000 25.81400
H  40.21000 44.49300 30.75200
H  42.14600 47.11300 33.64800
H  43.60300 46.47900 32.99500
H  42.65800 45.75000 34.35500

