158

Mg 41.10700 9.49200 29.47000
C  43.27800 10.30700 32.04600
C  38.71400 8.54400 31.78500
C  39.42200 7.94900 26.94200
C  43.58500 10.44200 27.23300
N  41.08900 9.22800 31.57700
C  42.07700 9.68900 32.44100
C  41.40300 9.77400 33.89700
C  40.10200 9.06000 33.70500
C  39.92400 8.96600 32.24500
C  40.16000 7.62100 34.22300
C  41.25400 11.29700 34.40900
C  42.06000 11.75200 35.69400
H  41.32000 12.36200 36.84800
N  39.30300 8.45900 29.34000
C  38.46000 8.26500 30.43500
C  37.23500 7.62400 29.89600
C  37.39900 7.48000 28.55100
C  38.76200 7.91300 28.21300
C  36.08300 7.13700 30.68400
C  36.36500 7.01400 27.54400
O  36.64100 6.76100 26.40300
C  34.87000 7.15800 27.89100
N  41.54200 9.20300 27.43900
C  40.69200 8.49800 26.65800
C  41.11900 8.57200 25.16000
C  42.50100 9.26000 25.31800
C  42.49000 9.71700 26.76600
C  41.16900 7.24800 24.45700
C  42.70100 10.42500 24.34600
C  44.07100 10.42300 23.55000
N  43.02600 10.24800 29.56800
C  43.89400 10.59400 28.54000
C  45.11000 11.12500 29.14200
C  44.95200 10.98900 30.48200
C  43.64200 10.47500 30.70400
C  46.17200 11.74600 28.38500
C  45.51200 11.28600 31.80100
O  46.64300 11.65300 32.14400
C  44.42300 10.86100 32.85200
C  44.92600 9.92700 33.89900
O  45.16400 8.72800 33.72100
O  45.20500 10.58200 35.06100
C  45.76900 9.71000 36.17000
H  37.87500 8.32900 32.45000
H  38.94200 7.36900 26.15200
H  44.30500 10.84700 26.51900
H  41.98000 9.13300 34.56400
H  39.18700 9.41600 34.17800
H  40.90000 7.52700 35.01800
H  40.23100 6.85500 33.45100
H  39.23500 7.33100 34.72200
H  40.18600 11.51300 34.39800
H  41.52800 12.09400 33.71700
H  42.75500 12.53100 35.37900
H  42.74000 10.97500 36.04200
H  36.39200 7.03200 31.72400
H  35.64000 6.22100 30.29400
H  35.29600 7.88700 30.76400
H  34.30500 7.19500 26.96000
H  34.68100 8.13100 28.34500
H  34.52300 6.34600 28.53100
H  40.36100 9.16200 24.64600
H  43.23900 8.46200 25.24300
H  40.61900 6.58300 25.12300
H  42.19200 6.90100 24.30900
H  40.63500 7.37000 23.51500
H  42.65700 11.33700 24.94200
H  41.89000 10.47100 23.61900
H  44.50000 11.42200 23.62100
H  43.91100 10.20400 22.49400
H  44.72600 9.67700 24.00000
H  45.84000 12.38500 27.56700
H  46.89200 11.09600 27.88700
H  46.68900 12.43900 29.05000
H  43.94800 11.68500 33.38500
H  46.36100 8.84900 35.86000
H  44.88500 9.34000 36.69000
H  46.31400 10.33100 36.88100
Mg 16.43300 52.04100 26.40000
C  18.42100 50.40400 28.85600
C  14.31900 53.06400 28.83300
C  14.57100 53.32100 23.99600
C  18.61200 50.76200 23.97000
N  16.47200 51.65800 28.62100
C  17.34600 51.09700 29.43600
C  17.11800 51.45500 30.94200
C  15.61000 51.92800 30.89700
C  15.46300 52.28100 29.37100
C  14.65600 50.72000 31.27200
C  18.10100 52.53600 31.49900
C  18.43400 52.49600 32.98300
H  17.58800 51.63000 33.88300
N  14.64600 53.07200 26.40400
C  13.99700 53.44200 27.50100
C  13.04400 54.42200 27.14800
C  12.96300 54.48800 25.73000
C  14.01500 53.54100 25.30200
C  12.23000 55.17500 28.27600
C  12.04300 55.21500 24.75900
O  12.13000 55.11900 23.57900
C  11.05100 56.18500 25.24100
N  16.60200 51.98800 24.36100
C  15.69400 52.60400 23.56700
C  16.05300 52.54600 22.07400
C  17.44000 51.86000 22.11900
C  17.50800 51.54800 23.54800
C  14.94300 51.83200 21.25000
C  18.59300 52.64400 21.45900
C  19.66100 53.45700 22.26400
N  18.18200 50.89100 26.32400
C  18.93400 50.42000 25.33900
C  20.15400 49.71800 25.81000
C  19.99900 49.73300 27.19300
C  18.76400 50.39600 27.48700
C  21.30400 49.08100 25.10300
C  20.60100 49.37700 28.47100
O  21.67000 48.82800 28.68100
C  19.59000 49.80600 29.60700
C  19.15000 48.55200 30.34300
O  18.18000 47.85400 29.99000
O  19.96800 48.43600 31.48200
C  19.45900 47.70100 32.65200
H  13.69700 53.45500 29.64100
H  13.97300 53.74700 23.18800
H  19.26200 50.34900 23.19700
H  17.30200 50.52700 31.48200
H  15.43400 52.71000 31.63700
H  13.79900 50.63600 30.60400
H  14.32500 51.02200 32.26600
H  15.09700 49.72600 31.34400
H  17.81600 53.57400 31.32900
H  19.04500 52.25500 31.03300
H  18.45800 53.49700 33.41500
H  19.39000 51.98900 33.11500
H  12.93300 55.73100 28.89700
H  11.60500 54.44800 28.79500
H  11.54700 55.92900 27.88600
H  10.76100 56.83600 24.41600
H  11.39800 56.89400 25.99200
H  10.18600 55.63000 25.60300
H  16.03500 53.55200 21.65700
H  17.35200 50.86900 21.67500
H  15.41100 51.05400 20.64800
H  14.42900 52.53100 20.59100
H  14.15200 51.36000 21.83200
H  18.23100 53.39800 20.76000
H  19.11100 51.86000 20.90600
H  19.43000 53.35500 23.32400
H  19.62600 54.53700 22.12300
H  20.68100 53.13100 22.06100
H  21.38200 49.72800 24.23000
H  21.21500 48.08600 24.66700
H  22.18700 49.07900 25.74400
H  20.03900 50.39500 30.40700
H  19.65500 48.30600 33.53700
H  20.07500 46.80300 32.70300
H  18.40300 47.44100 32.58000

