158

Mg 50.15400 45.32100 40.57000
C  46.74200 45.34400 39.43200
C  50.34500 42.08800 40.07200
C  53.38600 45.58000 41.24700
C  49.82300 48.95800 40.51600
N  48.67500 43.94800 39.77300
C  47.33500 44.09800 39.45900
C  46.81200 42.74300 38.99800
C  47.80800 41.70200 39.69800
C  49.03200 42.61100 39.82600
C  47.35700 41.17700 41.08600
C  46.75500 42.68200 37.43300
C  45.40600 42.29100 36.80700
H  45.09800 42.86000 35.42000
N  51.63600 43.97800 40.79500
C  51.48800 42.66200 40.62800
C  52.76100 41.94900 40.82600
C  53.63400 42.91800 41.37400
C  52.94000 44.27100 41.17200
C  52.99100 40.45700 40.65000
C  55.01100 42.67000 41.96700
O  55.52200 41.56300 41.99400
C  55.76900 43.86800 42.67600
N  51.39000 47.00300 40.90400
C  52.75100 46.83400 41.26100
C  53.37800 48.31100 41.45400
C  52.27100 49.31400 41.03700
C  51.09300 48.39400 40.72900
C  53.96900 48.46700 42.86200
C  52.56400 50.23300 39.80200
C  52.47800 51.75200 40.11500
N  48.61900 46.88500 40.20500
C  48.65700 48.28800 40.19300
C  47.33100 48.77900 39.74400
C  46.45700 47.72500 39.62900
C  47.37300 46.56100 39.79900
C  46.98000 50.18400 39.74000
C  45.08500 47.23600 39.43900
O  44.01900 47.83900 39.47200
C  45.24600 45.65400 39.33800
C  44.45500 44.99900 40.40300
O  44.84900 44.68200 41.54600
O  43.12600 45.05400 40.01600
C  42.14700 44.95400 41.11700
H  50.44000 41.01200 39.91100
H  54.46100 45.70300 41.39100
H  49.72400 50.03900 40.40400
H  45.84200 42.47100 39.41300
H  48.05700 40.86300 39.04900
H  46.26800 41.20400 41.12800
H  47.77300 41.79000 41.88500
H  47.67100 40.13500 41.14700
H  47.49700 42.07500 36.91500
H  46.95300 43.71000 37.13100
H  44.61100 42.41100 37.54300
H  45.50900 41.21600 36.66000
H  53.96400 40.04500 40.91400
H  52.72400 40.18300 39.62900
H  52.30800 39.93600 41.32100
H  55.14000 44.38300 43.40200
H  56.11700 44.48900 41.85000
H  56.65400 43.43400 43.14000
H  54.21400 48.42100 40.76300
H  52.02000 49.93100 41.90000
H  54.08300 47.48200 43.31400
H  53.30200 49.08300 43.46600
H  54.88600 49.04500 42.75000
H  51.90700 49.95800 38.97600
H  53.61700 50.06700 39.57300
H  52.03900 52.19200 39.22000
H  53.46700 52.10100 40.41000
H  51.84200 52.09500 40.93200
H  46.94100 50.58400 40.75300
H  46.02500 50.30600 39.22700
H  47.72700 50.69100 39.13000
H  44.82800 45.37800 38.37000
H  41.10600 45.06500 40.81200
H  42.37400 45.74500 41.83100
H  42.23700 43.99900 41.63400
Mg 48.87400 34.20000 26.41900
C  46.70100 33.01500 28.81300
C  49.42600 37.11400 28.23200
C  50.57100 35.39100 23.77300
C  47.86400 31.46300 24.38100
N  48.10900 35.00600 28.29200
C  47.40400 34.22800 29.21200
C  47.66200 34.74700 30.61600
C  48.00700 36.25200 30.31400
C  48.58000 36.12800 28.87400
C  46.79000 37.29200 30.47300
C  48.72600 34.07400 31.51200
C  48.35300 33.82200 32.92600
H  47.35900 34.73200 33.70000
N  49.96300 36.02400 26.04400
C  50.11700 37.05700 26.95000
C  50.89900 38.08000 26.26700
C  51.24500 37.60300 25.04200
C  50.62000 36.25700 24.92800
C  51.22100 39.43300 26.89100
C  52.14900 38.13700 23.97700
O  52.56500 37.50300 22.97900
C  52.60300 39.57200 24.13300
N  49.06800 33.60300 24.31000
C  49.94200 34.20900 23.53500
C  50.17900 33.47300 22.19200
C  49.37500 32.13200 22.46800
C  48.73200 32.44000 23.80300
C  49.72600 34.32600 20.95400
C  50.10300 30.76500 22.48500
C  51.38800 30.64100 21.59200
N  47.65700 32.51400 26.53500
C  47.26800 31.49300 25.65400
C  46.41900 30.56500 26.34700
C  46.10100 31.15600 27.57600
C  46.90800 32.32500 27.64200
C  46.07300 29.20700 25.82300
C  45.38300 31.01600 28.76800
O  44.74000 30.05900 29.19200
C  45.73500 32.23300 29.61600
C  46.26200 31.66500 30.86400
O  47.33500 31.11700 31.07900
O  45.28700 31.84700 31.82400
C  45.39100 31.03100 33.02400
H  49.71600 37.97400 28.83900
H  51.11200 35.78100 22.90800
H  47.62200 30.56200 23.81400
H  46.74600 34.61600 31.19300
H  48.78700 36.52600 31.02400
H  45.92500 36.90800 31.01300
H  46.50600 37.55500 29.45400
H  47.19100 38.11300 31.06800
H  49.64100 34.66000 31.59900
H  49.07100 33.18100 30.99000
H  49.30500 33.62500 33.42000
H  48.01500 32.79000 33.01500
H  50.87500 39.52600 27.92100
H  50.76600 40.15300 26.21100
H  52.26300 39.75400 26.91800
H  53.55800 39.63100 24.65500
H  51.87700 40.27000 24.55000
H  52.71500 40.00100 23.13700
H  51.25400 33.30700 22.13000
H  48.61500 32.02900 21.69400
H  49.38400 35.32300 21.23000
H  48.97800 33.76800 20.39000
H  50.59500 34.30900 20.29600
H  49.51800 29.88700 22.20600
H  50.44200 30.74700 23.52100
H  52.30700 30.94200 22.09400
H  51.27500 31.09700 20.60800
H  51.55600 29.58800 21.36500
H  45.01000 29.20100 25.58100
H  46.27100 28.56900 26.68500
H  46.83900 28.97500 25.08400
H  44.85700 32.85900 29.77400
H  45.74600 30.05300 32.69800
H  44.57200 30.93000 33.73600
H  46.15900 31.41600 33.69500

