158

Mg 6.90200 53.59700 41.75600
C  6.57100 50.06600 41.25700
C  10.08100 53.41600 40.49200
C  7.06400 56.94100 41.76300
C  3.60500 53.65900 43.07600
N  8.09900 51.96900 40.83700
C  7.77300 50.64800 40.63600
C  8.97800 49.89700 39.94100
C  10.19600 50.88400 40.18200
C  9.44400 52.22300 40.51500
C  11.11200 50.38600 41.39300
C  8.82300 49.37900 38.42900
C  7.81900 50.15200 37.58500
H  7.04000 49.32500 36.43200
N  8.34500 55.04500 41.12200
C  9.62300 54.74500 40.72700
C  10.36500 55.99000 40.60000
C  9.44500 57.03600 40.77600
C  8.20400 56.33800 41.22000
C  11.79300 56.12700 40.17200
C  9.63900 58.53800 40.53200
O  10.70000 58.94200 40.05700
C  8.49700 59.53800 40.68700
N  5.44900 55.09400 42.27500
C  5.81000 56.39900 42.30900
C  4.76700 57.23500 43.00500
C  3.58800 56.20900 43.21700
C  4.22900 54.88300 42.85900
C  5.04700 57.97100 44.28200
C  2.26600 56.40900 42.46700
C  1.48300 57.65000 43.02900
N  5.33000 52.21200 42.20000
C  4.09400 52.38400 42.73800
C  3.56700 51.04100 42.94500
C  4.51200 50.12000 42.41600
C  5.56800 50.89800 41.93600
C  2.32400 50.72100 43.62200
C  4.75300 48.70600 42.28200
O  4.08400 47.79800 42.66300
C  6.13200 48.61800 41.45300
C  5.77300 47.94700 40.21800
O  4.97800 48.46300 39.45700
O  6.39600 46.78700 40.00800
C  5.89900 46.16400 38.78600
H  11.13400 53.33600 40.21400
H  7.00300 58.02800 41.85600
H  2.66200 53.63100 43.62500
H  9.09800 48.95700 40.48100
H  10.78700 51.03400 39.27800
H  11.24600 51.15900 42.15000
H  12.08900 50.04500 41.05100
H  10.67400 49.50400 41.85900
H  8.61300 48.31400 38.53000
H  9.76100 49.51000 37.88800
H  8.47300 50.89300 37.12700
H  7.10000 50.70300 38.19000
H  11.90300 56.21600 39.09200
H  12.39000 55.26300 40.46800
H  12.35400 56.94400 40.62600
H  8.28500 59.79700 41.72500
H  7.63000 59.16400 40.14300
H  8.63000 60.51900 40.23000
H  4.34600 57.88000 42.23300
H  3.24500 56.05000 44.23900
H  6.11000 57.84200 44.48300
H  4.67000 57.53100 45.20500
H  4.80300 59.02800 44.38000
H  1.61000 55.54200 42.55100
H  2.52900 56.60400 41.42800
H  1.85900 58.21300 43.88300
H  0.49700 57.38000 43.40500
H  1.28200 58.43000 42.29500
H  1.80500 50.00400 42.98600
H  1.76800 51.65800 43.65800
H  2.31900 50.36700 44.65300
H  6.73000 47.91900 42.03800
H  6.21100 46.73900 37.91500
H  4.84000 45.90800 38.82000
H  6.43500 45.21500 38.76400
Mg -11.53800 16.31700 40.53100
C  -8.39300 14.95700 39.91200
C  -10.24200 19.37500 39.62600
C  -14.64100 17.55100 40.19600
C  -12.83300 13.10800 40.81900
N  -9.51100 17.05700 39.80500
C  -8.39900 16.35800 39.68200
C  -7.13300 17.21700 39.40000
C  -7.75700 18.65000 39.57000
C  -9.26900 18.36400 39.74500
C  -7.21600 19.57200 40.69500
C  -6.61400 16.86600 37.93600
C  -5.16500 17.22700 37.61000
H  -4.81000 17.70600 36.21200
N  -12.29000 18.27100 40.18300
C  -11.58300 19.37000 39.74000
C  -12.51000 20.46800 39.54400
C  -13.80800 20.01600 39.95900
C  -13.64200 18.54500 40.11600
C  -12.05300 21.87300 39.26600
C  -15.01200 20.90500 40.01900
O  -14.96200 22.12300 39.75800
C  -16.26400 20.29500 40.62900
N  -13.44300 15.43300 40.38900
C  -14.55600 16.15700 40.23700
C  -15.81900 15.24700 40.16100
C  -15.21200 13.76200 40.28500
C  -13.76400 14.10100 40.52800
C  -16.88700 15.55900 41.30800
C  -15.28900 12.87400 38.95700
C  -16.00200 11.53600 39.08400
N  -10.83700 14.39800 40.61400
C  -11.44300 13.19100 40.80000
C  -10.45800 12.15700 40.71200
C  -9.21500 12.80300 40.39100
C  -9.51300 14.16000 40.32300
C  -10.81800 10.69800 40.89200
C  -7.84700 12.57400 40.13500
O  -7.24300 11.52000 40.08700
C  -7.23100 13.93200 39.80300
C  -6.23900 14.10000 40.92800
O  -6.52700 14.52600 42.01400
O  -4.98000 13.96800 40.40200
C  -3.85600 14.51600 41.20100
H  -9.89500 20.41000 39.63000
H  -15.66300 17.89400 40.01900
H  -13.26700 12.11200 40.92400
H  -6.38400 17.03300 40.17000
H  -7.74500 19.13500 38.59400
H  -6.25300 19.16700 41.00600
H  -7.84800 19.60200 41.58300
H  -7.23400 20.57800 40.27500
H  -7.26800 17.29100 37.17500
H  -6.68100 15.77900 37.91000
H  -4.54800 16.36300 37.85400
H  -4.92600 18.07000 38.25800
H  -12.54700 22.25400 38.37200
H  -11.00000 21.89200 38.98400
H  -12.33400 22.50300 40.11100
H  -16.90600 21.15400 40.82300
H  -16.06100 19.71000 41.52600
H  -16.74400 19.63800 39.90400
H  -16.28500 15.39300 39.18700
H  -15.70200 13.19000 41.07300
H  -17.17800 14.66800 41.86500
H  -17.74600 15.85700 40.70600
H  -16.48100 16.23200 42.06400
H  -14.30100 12.78700 38.50500
H  -15.79100 13.43900 38.17000
H  -15.41600 10.72600 38.65200
H  -17.05200 11.63100 38.80600
H  -16.20800 11.20300 40.10100
H  -9.84700 10.21300 40.79700
H  -11.50500 10.35100 40.12000
H  -11.19500 10.47600 41.89100
H  -6.72600 13.83600 38.84200
H  -3.06500 14.85400 40.53100
H  -3.42300 13.78700 41.88600
H  -4.14600 15.46000 41.66300

