158

Mg 17.77400 -1.90000 26.11200
C  16.81400 -0.08100 29.04200
C  19.50000 -4.00600 28.28500
C  18.72500 -3.47800 23.37700
C  16.31200 0.62400 24.19400
N  18.24600 -1.82500 28.39500
C  17.61800 -1.16700 29.36000
C  17.96500 -1.68000 30.78400
C  19.09100 -2.76300 30.43900
C  18.89000 -2.89900 28.94800
C  20.56100 -2.41300 30.85300
C  16.75700 -2.28500 31.60300
C  16.76100 -1.95500 33.14800
H  18.10400 -1.98200 33.84600
N  18.83900 -3.64000 25.87300
C  19.46900 -4.40200 26.84200
C  20.09300 -5.55800 26.14700
C  19.88000 -5.41000 24.66000
C  19.20300 -4.15300 24.60900
C  20.85100 -6.66600 26.86000
C  20.31100 -6.33900 23.53000
O  19.97000 -6.09600 22.38100
C  21.09900 -7.60900 23.92700
N  17.72500 -1.36700 24.07300
C  18.08800 -2.22400 23.08500
C  18.00500 -1.52700 21.70400
C  17.00200 -0.32400 21.99000
C  17.02300 -0.32800 23.52200
C  19.37100 -1.16800 21.10600
C  15.59400 -0.42300 21.39400
C  15.19300 0.74700 20.43100
N  16.74600 -0.20800 26.48100
C  16.07600 0.63100 25.58900
C  15.29200 1.54700 26.27100
C  15.56700 1.35600 27.63100
C  16.45700 0.22200 27.67900
C  14.38600 2.55700 25.61500
C  15.38200 1.86200 28.99300
O  14.83500 2.90400 29.40100
C  16.12500 0.87700 29.94400
C  17.11500 1.65800 30.73300
O  17.97600 2.40100 30.25700
O  17.06300 1.43900 32.12200
C  17.90200 2.18800 33.03300
H  20.05100 -4.65500 28.96900
H  19.04600 -3.93800 22.44000
H  15.83500 1.40500 23.59800
H  18.46500 -0.87100 31.31600
H  18.89600 -3.72400 30.91400
H  20.61500 -1.36400 31.14700
H  21.26300 -2.39400 30.01900
H  20.94500 -3.04300 31.65500
H  16.81200 -3.37300 31.59800
H  15.76000 -2.04100 31.23700
H  16.19100 -2.76400 33.60600
H  16.36000 -0.97600 33.41300
H  20.99300 -6.62700 27.94000
H  21.84700 -6.62400 26.42000
H  20.48700 -7.64800 26.55900
H  20.51600 -8.18700 24.64400
H  22.05800 -7.25100 24.29900
H  21.18700 -8.19500 23.01100
H  17.46800 -2.25300 21.09300
H  17.40800 0.63600 21.67100
H  19.67900 -0.14000 21.29800
H  19.18700 -1.32300 20.04300
H  20.20900 -1.74300 21.49900
H  14.83200 -0.53400 22.16500
H  15.46500 -1.38700 20.90200
H  14.28600 1.22700 20.79800
H  15.06800 0.31700 19.43700
H  15.97000 1.49100 20.25600
H  13.46600 2.02200 25.38300
H  14.91500 3.04800 24.79800
H  14.09400 3.31300 26.34500
H  15.48200 0.32600 30.63100
H  17.26600 2.90200 33.55800
H  18.69500 2.83200 32.65400
H  18.42200 1.39900 33.57500
Mg 0.07700 42.52900 25.89800
C  2.51100 42.24200 28.33600
C  -2.31700 41.62900 28.21400
C  -2.25400 42.68100 23.39300
C  2.64800 42.86900 23.49200
N  0.18500 41.89000 27.98400
C  1.20900 42.04000 28.85200
C  0.85100 41.64500 30.35100
C  -0.71400 41.33400 30.19100
C  -0.96700 41.56200 28.64300
C  -1.22200 39.99300 30.78800
C  1.23200 42.77100 31.35800
C  1.53000 42.17200 32.74500
H  0.79700 40.85000 33.21800
N  -1.98300 42.14900 25.76200
C  -2.79400 41.83000 26.85400
C  -4.14200 41.60100 26.42600
C  -4.15300 41.98600 25.01100
C  -2.77900 42.33200 24.64800
C  -5.34800 41.24500 27.20800
C  -5.28800 41.95800 24.07100
O  -5.21200 42.39700 22.92900
C  -6.66100 41.53700 24.49100
N  0.20700 42.89000 23.80900
C  -0.94500 42.91500 23.01600
C  -0.55500 43.13600 21.52900
C  1.00800 43.52100 21.59200
C  1.34800 43.12700 23.04500
C  -0.92200 42.03100 20.58300
C  1.39200 45.03500 21.31300
C  0.52500 46.19900 21.85500
N  2.16000 42.53300 25.86700
C  3.03200 42.64600 24.85400
C  4.42400 42.56300 25.46500
C  4.22500 42.51400 26.76200
C  2.83400 42.43100 26.97900
C  5.74000 42.46500 24.70500
C  4.91300 42.40100 28.02800
O  6.12500 42.35600 28.34000
C  3.81600 42.18800 29.03600
C  4.08300 40.97400 29.84300
O  4.01500 39.85900 29.37100
O  4.42600 41.22500 31.15500
C  4.64500 40.02600 31.94200
H  -3.12600 41.27700 28.85800
H  -2.82200 42.79100 22.46700
H  3.40100 43.16300 22.75900
H  1.50100 40.79700 30.56900
H  -1.31200 42.08200 30.71200
H  -0.37100 39.39200 31.10700
H  -1.74700 39.34600 30.08600
H  -1.95800 40.11500 31.58300
H  0.47100 43.54400 31.46800
H  2.16300 43.29100 31.13200
H  1.25600 42.91600 33.49300
H  2.60100 42.02000 32.88100
H  -6.02100 42.09500 27.32100
H  -5.00200 40.89500 28.18100
H  -5.90300 40.39400 26.81300
H  -6.74500 40.46700 24.67700
H  -7.33500 41.72400 23.65500
H  -6.92700 42.23400 25.28600
H  -1.09700 44.03600 21.23800
H  1.64300 42.89900 20.96000
H  -1.41700 41.18600 21.06200
H  -0.02700 41.70300 20.05600
H  -1.64500 42.53200 19.93900
H  1.65900 45.22100 20.27300
H  2.35700 45.18200 21.79800
H  0.30500 46.95500 21.10200
H  1.00300 46.61800 22.74000
H  -0.40600 45.75900 22.21300
H  6.63400 42.50300 25.32700
H  5.81900 43.39400 24.14100
H  5.92100 41.52800 24.17900
H  3.91700 43.08800 29.64300
H  3.64100 39.63600 32.10700
H  5.18200 40.45700 32.78700
H  5.31400 39.27600 31.51900

