158

Mg 40.81000 8.82700 29.83900
C  42.77900 9.89300 32.61400
C  38.72100 7.48000 31.96400
C  39.00300 7.88100 27.23800
C  43.22200 10.23900 27.67000
N  40.73700 8.80300 32.08500
C  41.60200 9.27300 33.01900
C  41.09500 9.01900 34.49000
C  39.74800 8.34000 34.23800
C  39.74900 8.10200 32.65900
C  39.50400 7.14600 35.01300
C  40.96000 10.36000 35.29000
C  40.03400 10.28100 36.58800
H  40.37600 11.13900 37.76800
N  39.12800 7.78100 29.63400
C  38.41200 7.27000 30.64900
C  37.26600 6.47200 30.23900
C  37.10200 6.84000 28.87700
C  38.46300 7.53700 28.50200
C  36.35600 5.68200 31.19300
C  36.00100 6.67200 27.87800
O  36.05800 7.24100 26.77800
C  34.76500 5.95400 28.25300
N  40.96700 9.21900 27.76000
C  40.16300 8.61400 26.86400
C  40.63800 8.80800 25.42200
C  41.91300 9.64500 25.63400
C  42.03500 9.73300 27.09600
C  40.91400 7.41900 24.66400
C  41.99000 11.05600 25.01100
C  41.47000 12.26800 25.76800
N  42.66200 9.80300 30.05900
C  43.50900 10.28200 29.08300
C  44.68500 10.88200 29.76900
C  44.43300 10.68300 31.16000
C  43.16600 10.12700 31.24300
C  45.87600 11.48300 29.05000
C  45.05300 10.85000 32.49100
O  46.17100 11.19500 32.78600
C  43.89800 10.47100 33.46400
C  44.47900 9.48900 34.39400
O  45.02900 8.46400 34.10000
O  44.39400 9.88500 35.68500
C  44.79700 8.98300 36.73600
H  37.96600 7.06100 32.63300
H  38.53900 7.45200 26.34800
H  44.00500 10.54200 26.97200
H  41.64400 8.25200 35.03700
H  38.96400 9.07800 34.40500
H  39.57500 6.27300 34.36500
H  38.49200 7.17100 35.41700
H  40.22500 6.88400 35.78800
H  40.48000 11.03000 34.57700
H  41.91400 10.76500 35.62700
H  39.93400 9.32200 37.09600
H  39.08800 10.48200 36.08400
H  35.69300 6.46100 31.56900
H  37.01800 5.24300 31.93900
H  35.75400 4.89800 30.73200
H  35.01000 4.98200 28.67900
H  34.20700 5.98600 27.31700
H  34.14100 6.45400 28.99300
H  39.86500 9.34800 24.87400
H  42.73700 8.99900 25.33100
H  41.67000 6.93200 25.28000
H  41.19900 7.61300 23.63000
H  40.06100 6.74100 24.69500
H  41.40300 11.05000 24.09300
H  43.06800 11.15400 24.88600
H  40.95300 12.03900 26.70000
H  40.79200 12.78400 25.08800
H  42.34100 12.89900 25.94700
H  46.73400 10.81600 28.96800
H  46.02000 12.33900 29.71000
H  45.56400 11.91600 28.09900
H  43.56400 11.36200 33.99600
H  45.33200 8.05300 36.54500
H  43.91900 8.74900 37.33800
H  45.42200 9.51300 37.45500
Mg 6.01100 54.56600 40.44900
C  5.90800 51.04900 40.65100
C  9.29700 54.09600 39.34200
C  5.97800 57.75200 39.89000
C  2.63400 54.52900 41.61700
N  7.38400 52.70200 39.85500
C  7.14100 51.44100 40.15900
C  8.38700 50.55700 39.86500
C  9.54200 51.57500 39.66700
C  8.69100 52.90200 39.55800
C  10.46900 51.67800 40.85300
C  8.29400 49.73200 38.53400
C  7.35000 50.17600 37.39400
H  7.92800 50.42300 36.04700
N  7.36900 55.77900 39.65700
C  8.72500 55.44300 39.36300
C  9.44200 56.61700 39.01600
C  8.51800 57.77600 39.13300
C  7.22400 57.15100 39.57900
C  10.85500 56.61900 38.50500
C  8.79900 59.21700 38.78200
O  9.85300 59.58700 38.35100
C  7.76300 60.31200 38.87400
N  4.44900 55.88400 40.54100
C  4.82400 57.23900 40.37500
C  3.60800 58.12800 40.62300
C  2.59900 57.13300 41.29000
C  3.21400 55.76800 41.08600
C  3.90400 59.42100 41.40600
C  1.25300 57.23200 40.62900
C  0.17900 57.53700 41.68700
N  4.52700 53.12200 40.90300
C  3.24100 53.22700 41.46300
C  2.78700 51.94500 42.03800
C  3.81000 51.04700 41.73300
C  4.74600 51.79300 40.95800
C  1.56800 51.66800 42.94000
C  4.32000 49.70400 41.93500
O  3.93300 48.68400 42.49200
C  5.58300 49.64200 41.10200
C  5.24900 48.64300 40.00100
O  4.88000 48.96200 38.87900
O  5.56400 47.39200 40.39300
C  5.14400 46.30100 39.43100
H  10.36700 53.95900 39.17700
H  5.88600 58.81000 39.63300
H  1.61500 54.56200 42.00600
H  8.54300 49.88100 40.70600
H  10.18500 51.49800 38.79000
H  10.20800 52.30500 41.70500
H  11.44200 51.89800 40.41300
H  10.45000 50.69100 41.31500
H  7.83100 48.80400 38.87100
H  9.26400 49.48300 38.10400
H  6.85700 51.11800 37.63600
H  6.61000 49.38300 37.29100
H  10.84000 57.12300 37.53900
H  11.18800 55.60300 38.29400
H  11.58700 57.17300 39.09200
H  8.27200 61.26400 38.72200
H  7.52800 60.29800 39.93800
H  6.92100 60.23700 38.18600
H  3.23500 58.44400 39.64900
H  2.56900 57.28700 42.36800
H  3.21500 59.38200 42.25000
H  3.52000 60.24600 40.80700
H  4.98100 59.51600 41.54600
H  1.05300 56.36500 39.99900
H  1.10100 58.08600 39.96900
H  -0.56900 56.75900 41.53200
H  -0.25400 58.53000 41.57100
H  0.48800 57.35400 42.71700
H  1.48400 50.59300 43.09900
H  0.64900 51.91800 42.41000
H  1.59200 52.41700 43.73200
H  6.35000 49.12900 41.68200
H  5.04700 45.36900 39.98800
H  5.82900 46.14900 38.59700
H  4.16500 46.58800 39.04700

