158

Mg 16.87800 53.14400 26.62700
C  18.88500 51.55100 29.05000
C  14.84400 54.15100 29.13700
C  14.75000 54.28600 24.27500
C  18.96500 51.93500 24.17200
N  16.92100 52.73200 28.82400
C  17.84700 52.29500 29.62100
C  17.57600 52.47100 31.08400
C  16.15200 53.08600 31.03900
C  15.90100 53.34500 29.53400
C  15.02200 52.32100 31.73500
C  18.62900 53.36800 31.74300
C  18.59600 53.57000 33.25500
H  17.75000 52.66100 33.98700
N  15.06400 54.11500 26.66900
C  14.45300 54.56400 27.85200
C  13.35400 55.41300 27.47300
C  13.31800 55.49500 26.02000
C  14.48500 54.67400 25.63100
C  12.58600 56.10400 28.47900
C  12.43900 56.28700 25.04500
O  12.52800 56.29000 23.77100
C  11.55700 57.37900 25.68400
N  16.76200 53.00300 24.55200
C  15.80300 53.44700 23.76800
C  16.05500 53.29400 22.25700
C  17.54600 52.73200 22.21800
C  17.80500 52.64700 23.76500
C  15.02500 52.37400 21.52900
C  18.60900 53.52800 21.50800
C  18.69600 55.03700 21.81300
N  18.60000 51.92000 26.55800
C  19.33400 51.43900 25.50600
C  20.42700 50.62500 25.96000
C  20.30600 50.58700 27.37700
C  19.16200 51.36900 27.66600
C  21.39000 49.82800 25.13900
C  20.82600 50.02400 28.56600
O  21.71900 49.18600 28.75900
C  19.97600 50.63500 29.78900
C  19.44300 49.41800 30.59000
O  18.67400 48.58800 30.12900
O  19.90900 49.34900 31.89200
C  19.21800 48.40000 32.73900
H  14.29900 54.62100 29.95800
H  13.98000 54.53600 23.54300
H  19.52400 51.60800 23.29300
H  17.44600 51.52200 31.60300
H  16.20200 53.99300 31.64100
H  15.28800 51.43800 32.31600
H  14.25200 51.97000 31.04800
H  14.65400 52.92900 32.56100
H  18.55400 54.31400 31.20700
H  19.61800 53.09300 31.37700
H  18.34300 54.61000 33.46200
H  19.58600 53.47200 33.70100
H  12.82800 56.00500 29.53700
H  11.54600 55.83900 28.28600
H  12.72600 57.17200 28.31100
H  11.19000 57.99400 24.86300
H  12.10300 57.92200 26.45500
H  10.67700 56.93400 26.14800
H  16.01200 54.23400 21.70600
H  17.56400 51.68600 21.91200
H  14.85800 52.58400 20.47200
H  14.12200 52.24700 22.12600
H  15.39300 51.34800 21.55500
H  18.54300 53.44900 20.42300
H  19.63800 53.17400 21.56600
H  18.14700 55.59800 21.05700
H  19.73000 55.30800 22.02900
H  18.16400 55.16500 22.75500
H  21.62200 48.88600 25.63500
H  22.32600 50.34800 24.93500
H  20.93200 49.61800 24.17200
H  20.66200 51.21700 30.40400
H  19.71800 48.46800 33.70400
H  19.25200 47.37100 32.38200
H  18.20900 48.74900 32.95800
Mg 0.90300 43.20600 25.62800
C  2.84100 42.99100 28.50600
C  -1.86100 42.43000 27.73700
C  -0.99400 42.55000 22.88800
C  3.69400 43.29600 23.67300
N  0.49800 43.00300 27.92100
C  1.46600 42.96300 28.87700
C  0.83500 42.74300 30.24800
C  -0.62500 42.54400 29.94500
C  -0.67300 42.63400 28.41900
C  -1.47200 41.41000 30.62200
C  1.17900 43.99600 31.14100
C  1.46600 43.71500 32.59900
H  0.89000 42.45300 33.33700
N  -1.14300 42.77100 25.36300
C  -2.11500 42.58200 26.35100
C  -3.40900 42.69800 25.72300
C  -3.19100 42.67200 24.24100
C  -1.71600 42.59300 24.11000
C  -4.71000 42.83800 26.51100
C  -4.25000 42.69400 23.18500
O  -3.94600 42.66200 22.00300
C  -5.70400 42.73500 23.52500
N  1.32700 42.82000 23.55900
C  0.35700 42.70900 22.60400
C  0.91600 42.97900 21.20900
C  2.47400 43.38300 21.51500
C  2.53600 43.11000 23.01200
C  0.77900 41.85300 20.13400
C  2.91700 44.81500 21.20200
C  4.20000 44.99400 20.49500
N  2.86800 43.27100 25.93100
C  3.89100 43.28000 25.06100
C  5.18400 43.14900 25.73100
C  4.78500 43.08100 27.11000
C  3.40000 43.17700 27.19300
C  6.56000 43.21700 25.12600
C  5.30900 42.91300 28.44300
O  6.45900 42.79100 28.78900
C  4.04600 42.97400 29.40600
C  4.13500 41.74000 30.25100
O  4.34200 40.60300 29.82100
O  3.98800 42.09800 31.59200
C  4.20300 40.99700 32.47100
H  -2.72600 42.32700 28.39600
H  -1.65100 42.45400 22.02100
H  4.59500 43.41300 23.06700
H  1.30800 41.84100 30.63600
H  -1.13500 43.45400 30.25800
H  -2.35500 41.86400 31.07100
H  -0.82400 40.91500 31.34500
H  -1.79000 40.70400 29.85400
H  0.32800 44.67600 31.10800
H  1.91200 44.71300 30.77300
H  1.02900 44.56100 33.13000
H  2.55300 43.76300 32.66200
H  -5.33400 43.66800 26.17900
H  -4.59400 42.82100 27.59500
H  -5.24900 41.93900 26.21400
H  -6.24700 42.87300 22.59000
H  -5.82200 43.67000 24.07300
H  -6.02400 41.86300 24.09600
H  0.37700 43.85600 20.85000
H  3.12800 42.71500 20.95400
H  0.16200 41.01100 20.44900
H  1.74300 41.38100 19.94800
H  0.30800 42.24400 19.23200
H  2.86100 45.38700 22.12800
H  2.13000 45.26000 20.59300
H  4.10100 45.74600 19.71300
H  4.38600 44.13000 19.85700
H  5.04700 45.28200 21.11900
H  6.69000 42.44900 24.36400
H  7.29800 42.92100 25.87200
H  6.81400 44.17100 24.66400
H  4.04800 43.80200 30.11500
H  5.23400 40.64400 32.42600
H  3.58400 40.10000 32.45400
H  4.16700 41.42200 33.47400

