158

Mg 55.65500 23.16700 44.50100
C  53.12000 25.57400 43.55900
C  53.49800 20.78700 43.46700
C  58.12400 21.02300 44.89700
C  57.71600 25.75500 45.44100
N  53.54300 23.21300 43.64700
C  52.74600 24.25100 43.30400
C  51.34700 23.78200 42.82800
C  51.37500 22.34800 43.28000
C  52.88600 22.06900 43.43800
C  50.56800 21.98100 44.59100
C  51.08100 24.08000 41.31600
C  49.58800 24.10000 40.88100
H  49.26000 23.19400 39.73900
N  55.81400 21.17300 44.11900
C  54.80600 20.38700 43.71100
C  55.34700 19.02500 43.62000
C  56.73700 19.06000 44.02700
C  56.97300 20.46700 44.33300
C  54.50900 17.90600 43.12600
C  57.67500 17.87100 43.96500
O  57.31700 16.75900 43.59000
C  59.12900 18.00300 44.28900
N  57.72400 23.35200 45.03400
C  58.45400 22.28900 45.31800
C  59.88700 22.75300 45.78000
C  59.70100 24.25600 46.16200
C  58.29200 24.50500 45.43300
C  60.50600 21.85100 46.90100
C  60.76800 25.23100 45.66000
C  61.10200 26.50300 46.50400
N  55.52900 25.19700 44.37600
C  56.44900 26.13700 44.94200
C  55.90900 27.49900 44.81500
C  54.59800 27.25400 44.26300
C  54.39500 25.87200 44.07100
C  56.56700 28.76000 45.26100
C  53.42100 28.00400 43.99500
O  53.20900 29.25400 44.16800
C  52.40500 26.97900 43.36300
C  52.14900 27.27600 41.92600
O  52.94500 27.47000 41.05400
O  50.77300 27.28000 41.77100
C  50.36800 27.97900 40.52400
H  52.91100 19.89100 43.25800
H  59.09100 20.51900 44.95800
H  58.20800 26.52600 46.03900
H  50.45000 24.15300 43.32400
H  50.87500 21.74900 42.51900
H  51.18800 21.35500 45.23300
H  49.66100 21.48100 44.25400
H  50.40400 22.92600 45.11000
H  51.49800 23.17000 40.88400
H  51.72200 24.95400 41.20600
H  49.17700 25.09000 40.68500
H  49.11400 23.70700 41.78100
H  54.43500 17.91900 42.03800
H  53.51200 17.83300 43.55800
H  54.86800 16.91900 43.41800
H  59.46100 18.52700 43.39300
H  59.59400 17.02600 44.41900
H  59.16900 18.58400 45.21000
H  60.54200 22.62600 44.91800
H  59.57300 24.34000 47.24100
H  59.81600 21.18600 47.42100
H  61.03400 22.45000 47.64300
H  61.27100 21.23400 46.43000
H  60.57600 25.52500 44.62900
H  61.65900 24.61200 45.55500
H  61.19700 27.45500 45.98100
H  62.03100 26.20300 46.98900
H  60.38800 26.66900 47.31000
H  57.07500 29.20700 44.40700
H  57.42700 28.55400 45.89900
H  55.89200 29.31300 45.91400
H  51.42200 26.92700 43.83000
H  51.13400 28.59400 40.05200
H  49.50400 28.57400 40.81900
H  49.99000 27.33800 39.72800
Mg 26.72400 51.16300 26.43900
C  24.96700 52.33200 29.17300
C  29.16700 50.08600 28.67700
C  28.57100 50.17200 23.75400
C  24.63500 52.98900 24.35600
N  26.94200 51.23900 28.70600
C  26.05900 51.60200 29.65500
C  26.42200 51.18500 31.05200
C  27.86800 50.63000 30.85200
C  27.98100 50.66100 29.30700
C  29.00800 51.40100 31.51900
C  25.35500 50.23400 31.72300
C  24.81400 50.71700 33.08000
H  25.86800 51.19000 34.10800
N  28.41800 50.02100 26.24100
C  29.29300 49.66500 27.31000
C  30.38800 48.87900 26.66600
C  30.08500 48.69400 25.31400
C  28.97000 49.66700 25.02400
C  31.40800 48.12800 27.50800
C  30.71400 47.87600 24.22300
O  30.22900 47.76800 23.07500
C  31.95500 47.16500 24.49900
N  26.67800 51.58200 24.33500
C  27.55900 51.03400 23.42700
C  27.15600 51.43100 21.98000
C  25.75200 52.22500 22.21300
C  25.68100 52.24600 23.75000
C  28.28300 52.28900 21.29800
C  24.39700 51.66100 21.59200
C  24.18400 51.97300 20.15100
N  25.14200 52.41100 26.69300
C  24.36500 53.06700 25.75900
C  23.21200 53.64300 26.36700
C  23.46300 53.45700 27.72400
C  24.64200 52.68500 27.89300
C  22.22500 54.42400 25.65500
C  22.94300 53.77800 29.01900
O  21.96600 54.45700 29.37400
C  23.88100 53.03700 30.00000
C  24.40600 54.14600 30.97500
O  25.22100 55.04300 30.74100
O  23.68100 54.03500 32.15900
C  23.83800 55.03900 33.20600
H  29.83300 49.70000 29.45200
H  29.29400 50.00500 22.95400
H  23.94900 53.40800 23.61700
H  26.41200 52.06300 31.69700
H  27.92300 49.64900 31.32400
H  29.81700 50.73800 31.82700
H  28.65500 51.80400 32.46800
H  29.37400 52.07400 30.74400
H  25.77600 49.23500 31.84200
H  24.56600 50.14200 30.97600
H  24.22200 49.96400 33.59800
H  24.20900 51.57600 32.78800
H  31.24300 47.05900 27.37300
H  31.43700 48.52200 28.52400
H  32.30300 48.43100 26.96500
H  32.76500 47.77000 24.90700
H  32.32700 46.66600 23.60400
H  31.74300 46.40100 25.24700
H  27.02700 50.54600 21.35700
H  25.98200 53.22800 21.85300
H  28.72000 53.04200 21.95500
H  27.88400 52.86000 20.46000
H  28.95600 51.63000 20.74900
H  23.49900 51.93900 22.14300
H  24.48000 50.57400 21.62600
H  24.29900 51.08900 19.52400
H  24.82400 52.81100 19.87500
H  23.17500 52.33200 19.94900
H  22.73800 55.38100 25.55900
H  21.24400 54.45400 26.13000
H  22.02700 54.08000 24.64000
H  23.29000 52.29600 30.53800
H  24.04700 56.05500 32.87300
H  24.50400 54.63500 33.96800
H  22.87100 55.18000 33.68800

