158

Mg 2.10500 -1.28000 44.05100
C  5.37200 -0.08600 43.63400
C  0.96300 1.49900 42.25300
C  -0.91800 -2.72200 43.52900
C  3.27200 -4.23700 45.14100
N  3.07200 0.40400 42.90200
C  4.40300 0.81900 43.03700
C  4.66100 2.14400 42.29600
C  3.24800 2.64500 42.01600
C  2.33400 1.43400 42.33100
C  2.90900 3.95900 42.84800
C  5.55100 2.00700 41.09000
C  5.31100 0.81000 40.10100
H  5.77900 0.88500 38.68200
N  0.20100 -0.63600 43.23800
C  -0.04400 0.54200 42.56500
C  -1.47300 0.69100 42.36700
C  -2.05300 -0.56000 42.66300
C  -0.90700 -1.37700 43.14900
C  -2.06000 2.00100 41.82700
C  -3.47000 -0.91200 42.40200
O  -4.21500 -0.00400 42.02500
C  -4.03500 -2.26600 42.56700
N  1.31000 -3.24000 44.25200
C  0.01900 -3.57100 44.09500
C  -0.38800 -4.92900 44.66100
C  0.92900 -5.34100 45.32100
C  1.94600 -4.22800 44.88800
C  -1.64800 -4.84900 45.61200
C  1.33500 -6.73000 44.93100
C  1.67000 -7.67100 46.11400
N  3.87400 -2.01500 44.51800
C  4.29100 -3.23100 45.02500
C  5.66800 -3.28700 45.29100
C  6.13400 -2.12000 44.69600
C  5.05500 -1.32000 44.30300
C  6.47500 -4.38300 45.98200
C  7.36100 -1.35500 44.35300
O  8.49600 -1.65000 44.49800
C  6.82900 0.03100 43.72200
C  7.23400 0.99300 44.67800
O  7.23800 0.88300 45.90600
O  7.36300 2.15900 43.95800
C  7.39800 3.46800 44.70700
H  0.62900 2.47800 41.90200
H  -1.86900 -3.21600 43.31800
H  3.61500 -5.17000 45.59300
H  5.10100 2.77100 43.07100
H  3.11800 2.95200 40.97800
H  3.79200 4.51600 43.16300
H  2.39000 3.74500 43.78200
H  2.21700 4.56200 42.26000
H  6.58500 2.01000 41.43500
H  5.27600 2.91500 40.55400
H  4.24500 0.61600 40.22000
H  5.92100 -0.03500 40.41700
H  -2.19400 1.98500 40.74500
H  -1.37000 2.84400 41.81000
H  -3.06200 2.23100 42.19100
H  -5.12000 -2.18800 42.50400
H  -3.77600 -2.51300 43.59600
H  -3.58400 -2.92800 41.82800
H  -0.48300 -5.62500 43.82800
H  0.97000 -5.35400 46.41000
H  -2.36600 -4.12200 45.23300
H  -1.33300 -4.49600 46.59400
H  -2.19800 -5.78600 45.71000
H  2.26200 -6.61500 44.36800
H  0.57500 -7.19300 44.30200
H  2.74900 -7.79100 46.22100
H  1.14000 -8.59300 45.87800
H  1.29100 -7.31100 47.07000
H  7.28800 -3.90400 46.52700
H  6.93000 -5.08000 45.27800
H  5.82000 -4.94600 46.64800
H  7.38700 0.16400 42.79500
H  7.97600 3.39200 45.62700
H  6.41600 3.91400 44.86900
H  7.90500 4.08200 43.96200
Mg 49.71800 45.37700 43.16400
C  46.46900 45.97600 41.96000
C  49.72100 42.38200 41.37800
C  53.08600 45.17500 43.64200
C  49.80800 48.78300 44.16200
N  48.29000 44.42500 41.74900
C  47.02200 44.77300 41.54400
C  46.42700 43.90500 40.48200
C  47.18300 42.56100 40.71400
C  48.49200 43.12500 41.29400
C  46.42900 41.54100 41.58300
C  46.63900 44.61300 39.08000
C  45.38400 45.04100 38.22700
H  45.17100 44.19200 36.99100
N  51.20100 43.92300 42.67600
C  50.94700 42.73500 41.97800
C  52.19900 41.96800 41.85600
C  53.13800 42.74500 42.54600
C  52.54100 44.03200 42.93700
C  52.37100 40.73200 41.13500
C  54.48600 42.28100 42.84500
O  54.81600 41.10900 42.57500
C  55.53100 43.07600 43.64500
N  51.27000 46.75600 43.89200
C  52.55500 46.41200 44.06700
C  53.43600 47.64800 44.46900
C  52.31900 48.64700 44.80800
C  51.05800 48.05900 44.19100
C  54.43400 47.40000 45.68100
C  52.57000 50.07700 44.23700
C  52.29500 51.28400 45.09400
N  48.35500 47.07300 43.21800
C  48.54300 48.38800 43.67600
C  47.35600 49.12000 43.42400
C  46.47700 48.23300 42.81300
C  47.16900 46.99500 42.66000
C  47.35700 50.57700 43.70600
C  45.10500 48.10500 42.30400
O  44.19200 48.88700 42.21900
C  45.12200 46.65600 41.58500
C  43.87400 45.98700 42.12300
O  43.84100 45.30900 43.17900
O  42.77800 46.08700 41.25900
C  41.49900 45.43600 41.56200
H  49.68200 41.42300 40.85600
H  54.11700 45.15700 44.00200
H  49.80400 49.84300 44.42500
H  45.37000 43.76800 40.70700
H  47.51500 42.06800 39.80000
H  46.25500 40.62900 41.01200
H  45.47700 41.84700 42.01700
H  47.10100 41.25900 42.39300
H  47.32400 43.98500 38.50900
H  47.12600 45.58600 39.14100
H  45.42400 46.06600 37.85900
H  44.52800 44.87200 38.88100
H  52.15300 39.94800 41.86000
H  53.37900 40.59800 40.74200
H  51.63400 40.52200 40.36000
H  56.45200 42.49500 43.68800
H  55.03500 43.12200 44.61400
H  55.78500 44.04200 43.20900
H  54.00400 47.96100 43.59200
H  52.11400 48.71300 45.87700
H  55.36000 47.97100 45.75400
H  54.62300 46.33000 45.76300
H  54.03800 47.62000 46.67200
H  51.92000 50.16500 43.36600
H  53.58200 50.16300 43.84200
H  51.44200 51.87500 44.76000
H  53.08000 52.03700 45.16200
H  52.00000 51.04900 46.11700
H  47.62000 50.81700 44.73700
H  46.36500 50.90500 43.39500
H  48.01500 51.03400 42.96700
H  44.98100 46.82900 40.51800
H  40.82400 46.20500 41.93800
H  41.49100 44.66100 42.32800
H  41.06700 44.98100 40.67000

