158

Mg 41.26500 7.29100 29.36500
C  43.14800 8.46500 32.06800
C  39.04800 5.98400 31.61100
C  39.45100 6.21300 26.77300
C  43.96400 7.97700 27.24800
N  41.11600 7.19700 31.59700
C  41.86400 7.88700 32.46500
C  41.22500 7.97100 33.82700
C  40.22200 6.77200 33.73600
C  40.13900 6.58200 32.24200
C  40.67900 5.42400 34.42400
C  40.68000 9.31200 34.14300
C  40.58700 9.68000 35.59800
H  41.53300 10.72200 36.30200
N  39.52200 6.27100 29.22400
C  38.71500 5.83400 30.21600
C  37.55600 5.18400 29.57700
C  37.54800 5.39100 28.20900
C  38.91600 5.95600 28.02200
C  36.55300 4.42200 30.50200
C  36.49800 5.06700 27.24400
O  36.58800 5.04100 26.04200
C  35.11000 4.85400 27.81400
N  41.71800 6.91600 27.33500
C  40.72100 6.62600 26.48800
C  41.10500 6.79700 24.98400
C  42.49600 7.45800 25.08200
C  42.84400 7.38500 26.66800
C  40.98300 5.55200 24.07400
C  42.58400 8.94600 24.48500
C  42.13600 10.12800 25.42100
N  43.18100 8.12800 29.55800
C  44.15600 8.29900 28.62700
C  45.26000 9.01700 29.21400
C  44.87600 9.14300 30.57900
C  43.63400 8.55300 30.76700
C  46.40100 9.64500 28.51800
C  45.29600 9.74100 31.84200
O  46.27000 10.39400 32.16000
C  44.10300 9.33800 32.80000
C  44.61700 8.66000 34.00300
O  44.44700 7.44400 34.28400
O  45.44200 9.48800 34.78800
C  45.88500 8.82300 36.01600
H  38.28800 5.58000 32.28300
H  38.73100 5.96900 25.98900
H  44.66800 8.19300 26.44200
H  42.05600 7.79700 34.51000
H  39.26400 7.06700 34.16400
H  40.11900 5.16700 35.32300
H  41.75000 5.56000 34.57700
H  40.60400 4.56800 33.75500
H  39.68900 9.45800 33.71400
H  41.30400 9.99300 33.56400
H  40.56500 8.77700 36.20800
H  39.58200 10.09900 35.66200
H  37.09300 4.06200 31.37800
H  36.08400 3.55700 30.03300
H  35.78500 5.13000 30.81500
H  35.16800 3.83200 28.18700
H  34.39300 5.06600 27.02100
H  34.97200 5.53400 28.65600
H  40.42400 7.50600 24.51200
H  43.30000 6.90200 24.59900
H  40.22400 4.83300 24.38100
H  41.96300 5.07500 24.07000
H  40.73200 5.89300 23.06900
H  41.97700 8.85800 23.58400
H  43.49400 9.15500 23.92400
H  41.85000 9.84400 26.43400
H  41.30400 10.56400 24.86700
H  42.91100 10.89500 25.44200
H  46.26600 10.14300 27.55800
H  47.18900 8.89300 28.48200
H  46.90900 10.38500 29.13700
H  43.68600 10.28800 33.13500
H  45.05300 8.63900 36.69600
H  46.56600 9.52600 36.49700
H  46.46900 7.92400 35.82200
Mg -3.21500 35.03600 27.22800
C  -4.14000 32.87300 29.85000
C  -1.72300 37.14100 29.65300
C  -2.54800 37.15700 24.86100
C  -4.90200 32.93100 24.97400
N  -3.14400 35.01600 29.54400
C  -3.50600 33.97100 30.30900
C  -3.23200 34.30800 31.72500
C  -2.62700 35.76200 31.68200
C  -2.38100 35.99600 30.19600
C  -3.57800 36.84500 32.29200
C  -2.29600 33.21800 32.39800
C  -2.74700 32.40600 33.66500
H  -1.93100 32.62200 34.94400
N  -2.13300 36.80500 27.24800
C  -1.56500 37.46100 28.34800
C  -1.04000 38.73100 27.78400
C  -1.16900 38.74500 26.39700
C  -2.00300 37.53600 26.10900
C  -0.28100 39.70000 28.75800
C  -0.75000 39.70700 25.30500
O  -0.80200 39.62400 24.07800
C  -0.03700 40.93700 25.89400
N  -3.69600 35.08500 25.16500
C  -3.23100 36.06900 24.39100
C  -3.50900 35.81500 22.92300
C  -4.34700 34.54000 22.96800
C  -4.33000 34.14900 24.45900
C  -4.10000 36.94700 22.06900
C  -3.76900 33.36600 22.10900
C  -2.41500 32.68400 22.52000
N  -4.33300 33.29800 27.36300
C  -4.83600 32.50200 26.35700
C  -5.40700 31.29800 26.92000
C  -5.13100 31.44800 28.24800
C  -4.47000 32.60900 28.50800
C  -6.19500 30.27800 26.16800
C  -5.42300 30.76800 29.46800
O  -6.07800 29.75900 29.75300
C  -4.70500 31.70200 30.63000
C  -5.87300 32.05300 31.51500
O  -6.73200 32.85500 31.18700
O  -5.79500 31.33700 32.71400
C  -6.70200 31.80000 33.71200
H  -1.27500 37.82500 30.37600
H  -2.47600 37.93300 24.09700
H  -5.16900 32.14800 24.26100
H  -4.16100 34.27300 32.29300
H  -1.64400 35.88000 32.13900
H  -3.04300 37.33300 33.10700
H  -4.50700 36.43300 32.68500
H  -3.84400 37.70400 31.67600
H  -1.33800 33.72900 32.49100
H  -2.16200 32.50800 31.58300
H  -2.66600 31.35600 33.38300
H  -3.78000 32.69700 33.86000
H  -0.18800 39.36500 29.79100
H  -0.59800 40.73900 28.66700
H  0.71600 39.65600 28.31900
H  0.86300 40.61000 26.41600
H  -0.73300 41.34500 26.62700
H  0.28300 41.56300 25.06100
H  -2.56000 35.68400 22.40100
H  -5.35500 34.68300 22.58100
H  -5.17300 36.80200 21.94200
H  -3.53200 37.14300 21.15900
H  -4.01800 37.93500 22.52300
H  -3.61100 33.72800 21.09300
H  -4.55000 32.61300 22.00000
H  -2.48400 31.60300 22.39300
H  -2.19300 32.90300 23.56400
H  -1.61000 33.10600 21.91900
H  -5.63600 29.41400 25.81000
H  -6.48800 30.81200 25.26300
H  -7.01700 29.89800 26.77400
H  -3.94200 31.11500 31.14100
H  -6.10200 32.53200 34.25200
H  -7.00000 30.97100 34.35500
H  -7.63300 32.18100 33.29500

