158

Mg 1.54600 -1.59000 43.64100
C  4.90800 -0.79100 42.76600
C  0.54600 1.20100 41.97000
C  -1.57700 -2.76000 43.99400
C  2.74200 -4.82900 44.76700
N  2.63800 -0.09100 42.37300
C  3.96100 0.17600 42.32000
C  4.27500 1.47300 41.67300
C  2.89800 2.20300 41.57400
C  1.94300 1.00700 41.94800
C  2.59900 3.45200 42.40800
C  4.95800 1.40800 40.27900
C  4.64900 0.16900 39.42100
H  4.41300 0.34300 37.87000
N  -0.26800 -0.84700 43.19400
C  -0.48300 0.36700 42.54500
C  -1.89100 0.49400 42.22300
C  -2.57400 -0.62200 42.83200
C  -1.48400 -1.45600 43.40400
C  -2.39600 1.54100 41.33600
C  -4.08600 -0.86200 42.79100
O  -4.78900 0.01600 42.31800
C  -4.76900 -1.95000 43.59100
N  0.71700 -3.58700 44.15800
C  -0.66800 -3.65800 44.37600
C  -1.02200 -5.06100 44.93600
C  0.42800 -5.82200 45.06500
C  1.33400 -4.66100 44.65700
C  -2.08600 -5.22700 46.01700
C  0.61500 -7.04100 44.17000
C  1.26400 -8.20800 44.91800
N  3.43900 -2.56500 43.94600
C  3.75500 -3.83400 44.44700
C  5.17000 -3.98800 44.41400
C  5.64800 -2.79300 43.77500
C  4.55300 -1.98600 43.54100
C  5.78700 -5.24900 44.77300
C  6.79400 -2.15400 43.28100
O  7.99200 -2.41800 43.33900
C  6.39700 -0.83700 42.61600
C  7.06900 0.31500 43.07900
O  7.82900 1.00600 42.40800
O  6.93800 0.39000 44.45600
C  7.67400 1.43300 45.17300
H  0.19400 2.12900 41.51300
H  -2.57600 -3.18700 44.10800
H  3.14100 -5.75300 45.19300
H  5.01400 1.96800 42.30400
H  2.56000 2.39000 40.55500
H  3.37600 3.65400 43.14500
H  1.62900 3.19900 42.83500
H  2.36600 4.21100 41.66100
H  6.03800 1.33500 40.40500
H  4.68300 2.28900 39.69800
H  3.69000 -0.26200 39.71000
H  5.33300 -0.67200 39.53800
H  -3.46600 1.57200 41.12800
H  -1.81700 1.44600 40.41700
H  -2.20800 2.51100 41.79700
H  -5.84500 -1.95500 43.42000
H  -4.50200 -2.01900 44.64600
H  -4.32300 -2.75900 43.01300
H  -1.50700 -5.60200 44.12400
H  0.66600 -6.04800 46.10400
H  -2.84200 -5.96800 45.75700
H  -2.62100 -4.28400 46.13400
H  -1.56300 -5.50600 46.93100
H  1.27400 -6.79000 43.33800
H  -0.28700 -7.40300 43.67800
H  1.18700 -8.00500 45.98600
H  2.31900 -8.26300 44.64900
H  0.75700 -9.16800 44.82200
H  5.81900 -5.81000 43.83900
H  5.42100 -5.86000 45.59900
H  6.75200 -4.89500 45.13500
H  6.68100 -0.97500 41.57300
H  8.17000 2.23400 44.62500
H  8.50200 0.87700 45.61100
H  7.13600 1.91700 45.98800
Mg 45.95800 16.63600 27.13100
C  44.34100 16.38400 30.23200
C  48.31700 18.70600 28.55300
C  46.83800 17.67700 23.97600
C  43.15800 15.01500 25.74200
N  46.22200 17.52700 29.16700
C  45.54200 17.17300 30.29800
C  46.22000 17.70000 31.56800
C  47.40500 18.60500 30.93000
C  47.38600 18.19200 29.45800
C  47.17300 20.07600 31.20700
C  46.61100 16.70300 32.57700
C  46.74500 17.15600 34.10600
H  46.54700 18.64500 34.50900
N  47.50900 17.81700 26.33900
C  48.36600 18.55500 27.10100
C  49.35300 19.15500 26.23400
C  48.95200 18.87900 24.89400
C  47.70900 18.16700 25.00300
C  50.59700 19.97600 26.67300
C  49.54100 19.41400 23.63800
O  49.00100 19.20200 22.51600
C  50.79900 20.19500 23.61300
N  45.19900 16.31500 25.11700
C  45.70200 16.85000 23.98400
C  45.05300 16.34800 22.80000
C  44.09900 15.22400 23.42700
C  44.08100 15.65300 24.84000
C  44.41200 17.58700 22.07500
C  44.62700 13.73000 23.39100
C  43.68200 12.74800 22.63400
N  44.10700 15.85000 27.79800
C  43.16000 15.08900 27.15600
C  42.07700 14.70900 28.08200
C  42.51200 15.12200 29.30800
C  43.78500 15.80100 29.08900
C  40.73400 14.20500 27.65100
C  42.23800 15.21400 30.70200
O  41.21000 14.89000 31.34400
C  43.36800 16.06800 31.39600
C  42.76400 17.19000 32.31100
O  42.39700 18.28400 31.95800
O  42.72500 16.66900 33.57800
C  42.30700 17.57300 34.65500
H  49.18200 19.16200 29.03800
H  47.12400 17.78700 22.92800
H  42.48800 14.34600 25.19700
H  45.42700 18.28900 32.03000
H  48.34400 18.37900 31.43700
H  46.18700 20.11700 31.67000
H  47.13700 20.77100 30.36800
H  47.89800 20.30900 31.98600
H  47.59700 16.35000 32.27400
H  45.91700 15.86700 32.48200
H  47.78100 16.91400 34.34200
H  46.09600 16.52200 34.71000
H  51.47200 19.50100 26.22900
H  50.64200 20.10900 27.75400
H  50.57500 20.99700 26.29100
H  50.74800 21.14500 24.14500
H  50.81900 20.60200 22.60200
H  51.63100 19.52900 23.84100
H  45.73400 15.97600 22.03500
H  43.05400 15.18000 23.12100
H  44.55900 18.51400 22.62900
H  43.33200 17.44100 22.04300
H  44.72900 17.79900 21.05400
H  44.87700 13.31900 24.36900
H  45.54500 13.73100 22.80300
H  44.11200 12.50100 21.66300
H  42.71600 13.00000 22.19700
H  43.52300 11.83600 23.20900
H  40.63700 14.50900 26.60900
H  39.91200 14.72900 28.13800
H  40.70500 13.11800 27.72300
H  43.89300 15.37000 32.04800
H  42.86600 18.50800 34.62600
H  42.49700 17.07600 35.60600
H  41.22300 17.67600 34.61300

