158

Mg 1.27700 7.97600 26.81300
C  1.70500 10.25900 29.27500
C  1.82700 5.41400 29.09300
C  0.85500 5.69300 24.34900
C  1.21800 10.51800 24.46400
N  1.59300 7.92000 28.89400
C  1.77500 8.96200 29.74400
C  1.81600 8.52800 31.18600
C  2.13100 6.98700 31.08800
C  1.79700 6.74800 29.57900
C  3.53500 6.42400 31.56400
C  0.41400 8.75400 31.91200
C  0.55800 8.89600 33.45600
H  1.71800 8.24400 34.22700
N  1.40400 5.81900 26.67300
C  1.63700 4.96400 27.78200
C  1.59900 3.60000 27.34800
C  1.32800 3.64600 25.93400
C  1.17100 5.11200 25.62400
C  1.72200 2.42000 28.24700
C  1.18400 2.49900 24.94000
O  1.05900 2.62000 23.68600
C  1.20700 1.06700 25.44700
N  1.13600 8.07200 24.71300
C  0.77100 6.99400 23.90500
C  0.28500 7.38700 22.48000
C  0.38900 9.00800 22.61900
C  0.90800 9.24400 23.99000
C  1.23400 6.77600 21.44100
C  -0.88200 9.73900 22.30100
C  -0.72400 10.77600 21.22600
N  1.52400 9.91600 26.73700
C  1.45400 10.87900 25.73800
C  1.65900 12.16800 26.28700
C  1.81400 12.01500 27.69100
C  1.62000 10.64100 27.94600
C  1.67300 13.48200 25.60500
C  2.15100 12.69400 28.92300
O  2.45500 13.83200 29.22300
C  2.00700 11.52600 30.01000
C  3.06400 11.59000 31.05300
O  4.23800 11.79300 30.87600
O  2.59100 11.43200 32.29900
C  3.63300 11.47700 33.36400
H  2.18200 4.70500 29.84400
H  0.85400 4.95200 23.54700
H  1.09900 11.38200 23.80700
H  2.67100 8.94100 31.72100
H  1.35600 6.44600 31.63000
H  4.07900 7.25400 32.01500
H  4.16900 5.94900 30.81700
H  3.32200 5.63000 32.28000
H  -0.18400 7.89400 31.61000
H  -0.01700 9.66700 31.50100
H  -0.39200 8.49700 33.81200
H  0.49500 9.96300 33.66800
H  0.81200 2.12400 28.76900
H  2.52200 2.67200 28.94200
H  2.18600 1.56000 27.76500
H  2.26000 0.80200 25.54100
H  0.75700 0.48100 24.64600
H  0.71900 0.92900 26.41200
H  -0.69500 6.92500 22.36000
H  1.13100 9.36700 21.90500
H  2.13800 6.31200 21.83600
H  1.41900 7.51100 20.65800
H  0.69100 5.93800 21.00300
H  -1.27500 10.30600 23.14500
H  -1.71400 9.09900 22.00700
H  -1.48700 10.70900 20.45100
H  0.24000 10.68600 20.72600
H  -0.68400 11.71900 21.77200
H  2.02800 13.48300 24.57400
H  2.51200 13.99500 26.07600
H  0.69500 13.95600 25.68900
H  1.08300 11.88900 30.46100
H  3.95200 12.49700 33.58300
H  4.44500 10.77600 33.17000
H  3.18800 11.10700 34.28800
Mg -9.26600 18.27700 42.96500
C  -5.81100 17.58000 42.98100
C  -8.47400 21.42900 42.13900
C  -12.47500 18.67000 42.48700
C  -9.75200 14.74100 43.14100
N  -7.34400 19.34600 42.56200
C  -6.06200 18.93000 42.69300
C  -5.04000 20.02200 42.45000
C  -5.98500 21.29000 42.45900
C  -7.37700 20.70000 42.36700
C  -5.82600 22.23200 43.72300
C  -4.08200 20.00700 41.18000
C  -4.36600 19.09100 39.96000
H  -3.96500 19.61900 38.53200
N  -10.31800 19.93500 42.50700
C  -9.83700 21.10100 42.09700
C  -10.97100 21.97200 41.68400
C  -12.19800 21.17200 41.95900
C  -11.67600 19.85500 42.32500
C  -10.82500 23.41900 41.29700
C  -13.61600 21.63300 41.74500
O  -13.81100 22.79100 41.38400
C  -14.89900 20.73300 41.88300
N  -10.94800 16.84400 42.71500
C  -12.12100 17.37600 42.70200
C  -13.18200 16.19300 42.82000
C  -12.25700 14.97500 42.77500
C  -10.85500 15.54600 42.86600
C  -14.16200 16.18100 44.00500
C  -12.30000 14.18000 41.36900
C  -12.88700 12.75700 41.40300
N  -8.10600 16.49700 42.98200
C  -8.41600 15.17700 43.17700
C  -7.19300 14.39200 43.48700
C  -6.09500 15.27800 43.29700
C  -6.75800 16.56600 43.10100
C  -7.09800 12.86900 43.72900
C  -4.68100 15.45100 43.26700
O  -3.71100 14.67400 43.28400
C  -4.42500 16.97400 43.13600
C  -3.61000 17.39300 44.36300
O  -2.45500 17.69200 44.51200
O  -4.50700 17.60300 45.41600
C  -3.95600 18.13500 46.70100
H  -8.18700 22.44600 41.86300
H  -13.54300 18.86100 42.35700
H  -9.93500 13.71100 43.45300
H  -4.44700 20.04900 43.36400
H  -5.75600 21.91400 41.59500
H  -5.11000 21.81600 44.43100
H  -6.79600 22.11100 44.20400
H  -5.58800 23.24500 43.39800
H  -3.08000 19.78600 41.54800
H  -3.99700 21.02300 40.79300
H  -5.44200 18.91700 39.97000
H  -3.77000 18.17900 39.94600
H  -11.77100 23.96000 41.28900
H  -10.25700 23.43000 40.36600
H  -10.11700 23.80900 42.02900
H  -15.08400 20.15000 42.78600
H  -14.85100 19.96100 41.11500
H  -15.81700 21.30800 41.76500
H  -13.87700 16.19700 41.98100
H  -12.39400 14.18200 43.51100
H  -14.02600 17.04700 44.65300
H  -14.09900 15.25100 44.57100
H  -15.20700 16.25900 43.70500
H  -11.30400 14.05300 40.94700
H  -12.88100 14.81200 40.69700
H  -12.44900 12.05100 40.69700
H  -13.92900 12.87300 41.10500
H  -12.71100 12.44000 42.43100
H  -7.98800 12.30200 43.45800
H  -6.94100 12.78400 44.80400
H  -6.18900 12.50600 43.25000
H  -3.84800 17.16600 42.23200
H  -2.93200 17.88100 46.97400
H  -4.58000 17.65400 47.45400
H  -4.05900 19.20000 46.91000

