158

Mg -1.71600 17.89700 27.38600
C  -2.53600 15.81000 29.99700
C  -2.61100 20.61900 29.37600
C  -1.19400 19.94100 24.77200
C  -1.32000 15.16000 25.28600
N  -2.37700 18.16900 29.50400
C  -2.74100 17.20400 30.35400
C  -3.10500 17.79100 31.72000
C  -3.44200 19.29700 31.29100
C  -2.80500 19.38700 29.98000
C  -4.90200 19.72500 31.25400
C  -1.95300 17.69700 32.71500
C  -2.19800 17.14000 34.12200
H  -1.01500 16.98400 35.05100
N  -1.62700 19.93300 27.20800
C  -1.97600 20.93300 28.14600
C  -1.78200 22.25000 27.56400
C  -1.40100 22.09700 26.19400
C  -1.36300 20.62400 26.02500
C  -2.19900 23.47900 28.33100
C  -1.23300 23.16600 25.03500
O  -0.81800 22.79600 23.94600
C  -1.29600 24.55300 25.45300
N  -1.40700 17.61300 25.25900
C  -1.16700 18.58000 24.39900
C  -0.97400 18.09900 23.01400
C  -0.80700 16.57700 23.22500
C  -1.21000 16.38600 24.69900
C  -2.08700 18.47800 21.97600
C  0.66600 16.00400 22.89800
C  1.85400 16.67600 23.65900
N  -1.94400 15.90100 27.53300
C  -1.72500 14.89300 26.64900
C  -1.80100 13.62900 27.34400
C  -2.09300 13.89600 28.66700
C  -2.16900 15.37100 28.72400
C  -1.85100 12.28800 26.73900
C  -2.37500 13.30000 29.92900
O  -2.34900 12.13900 30.31000
C  -2.67300 14.53400 30.82800
C  -1.65100 14.34600 31.90100
O  -0.49600 14.70000 31.78800
O  -2.16900 13.69700 32.95500
C  -1.22600 13.04600 33.88400
H  -2.88200 21.41200 30.07700
H  -0.88900 20.58000 23.94000
H  -1.11900 14.27800 24.67300
H  -3.97000 17.30300 32.16900
H  -3.00400 19.99000 32.01000
H  -5.51500 18.86200 31.51100
H  -5.17500 20.11400 30.27200
H  -5.11900 20.42400 32.06200
H  -1.66000 18.71100 32.98700
H  -1.13700 17.14100 32.25400
H  -2.50900 16.12100 33.89200
H  -2.97300 17.74400 34.59300
H  -1.35500 24.16700 28.38000
H  -2.50700 23.29600 29.36000
H  -3.06300 23.88400 27.80300
H  -2.30300 24.85100 25.74600
H  -0.98000 25.19000 24.62700
H  -0.51600 24.69800 26.20000
H  -0.02100 18.55200 22.74300
H  -1.44500 16.01500 22.54300
H  -2.80800 19.14600 22.44800
H  -2.57800 17.73000 21.35400
H  -1.52200 19.10600 21.28700
H  0.90500 16.32000 21.88300
H  0.69700 14.91500 22.88500
H  1.54100 17.20000 24.56200
H  2.56100 17.29100 23.10300
H  2.45000 15.81700 23.96900
H  -2.73800 11.76500 27.09500
H  -0.92500 11.76800 26.98500
H  -2.02500 12.45900 25.67700
H  -3.65100 14.49900 31.30900
H  -1.27900 11.97400 33.69200
H  -1.56200 13.17200 34.91300
H  -0.17700 13.31300 33.75600
Mg 35.05400 49.81600 26.27600
C  35.43900 47.75500 28.98800
C  33.94800 52.26400 28.30200
C  34.05900 51.45400 23.53500
C  36.12800 47.13300 24.16100
N  34.68900 49.97200 28.41800
C  34.90600 48.97200 29.30700
C  34.76800 49.52600 30.74000
C  33.93300 50.83700 30.44500
C  34.14100 51.05000 28.97600
C  32.40500 50.92000 30.98800
C  36.20500 49.87200 31.29500
C  36.42400 49.44400 32.80500
H  36.33800 50.55600 33.88300
N  34.37000 51.73900 25.97200
C  34.00300 52.58900 26.91700
C  33.75500 53.94200 26.30800
C  33.65000 53.61100 24.90100
C  34.06800 52.19900 24.74400
C  33.59800 55.19400 27.08900
C  33.38600 54.58600 23.63300
O  33.42100 54.16900 22.47200
C  32.98800 56.08600 23.89500
N  35.01500 49.24200 24.14700
C  34.55100 50.13100 23.27700
C  34.62000 49.61300 21.82500
C  35.50100 48.26800 21.90100
C  35.61200 48.19700 23.47700
C  33.26700 49.35600 21.01400
C  36.98100 48.32700 21.36700
C  37.46600 47.00100 20.75000
N  35.61600 47.73500 26.44700
C  36.10000 46.84700 25.55100
C  36.47400 45.63500 26.26000
C  36.30300 45.97600 27.62000
C  35.71300 47.26000 27.68200
C  36.98200 44.38100 25.66700
C  36.35800 45.42600 28.94900
O  36.79900 44.38600 29.41400
C  35.86700 46.57500 29.86600
C  34.87900 46.12900 30.87600
O  33.81900 45.53900 30.60300
O  35.39700 46.26700 32.16100
C  34.70700 45.41500 33.17400
H  33.44100 53.08500 28.81300
H  33.57100 51.91800 22.67500
H  36.56300 46.44200 23.43600
H  34.11300 48.83700 31.27300
H  34.35900 51.71700 30.92600
H  31.65000 50.72500 30.22700
H  32.27100 51.99100 31.14400
H  32.19700 50.38100 31.91200
H  36.30700 50.94900 31.16200
H  36.93100 49.37600 30.65100
H  37.42700 49.02400 32.88400
H  35.72000 48.65200 33.05900
H  34.56200 55.69300 27.19200
H  33.38500 54.98400 28.13700
H  32.96600 55.93600 26.60200
H  32.00900 56.21600 24.35600
H  32.92200 56.62900 22.95200
H  33.78800 56.61200 24.41500
H  35.27700 50.17400 21.16100
H  34.86900 47.44600 21.56600
H  33.23700 48.37800 20.53500
H  33.33600 50.08900 20.21000
H  32.35700 49.48900 21.60000
H  37.72100 48.50000 22.14900
H  37.20700 49.12700 20.66200
H  37.67000 47.15000 19.69000
H  36.61900 46.31600 20.80700
H  38.36100 46.64800 21.26200
H  37.96700 44.62000 25.26500
H  36.38100 44.11900 24.79600
H  36.95000 43.53100 26.34900
H  36.77200 46.98800 30.31200
H  34.08800 44.65400 32.69900
H  34.03800 45.97400 33.82800
H  35.32200 44.85000 33.87400

