158

Mg -1.45200 18.21200 27.34400
C  -2.39700 15.93700 29.90000
C  -1.79900 20.76000 29.39900
C  -0.49300 20.18000 24.72700
C  -1.72200 15.46900 24.99900
N  -1.88300 18.24400 29.40500
C  -2.18900 17.25700 30.35000
C  -2.32700 17.78300 31.76400
C  -2.33400 19.38200 31.48600
C  -1.93800 19.50900 30.02200
C  -3.61500 20.21700 31.97200
C  -1.06300 17.36800 32.67100
C  -1.45900 16.52500 33.83800
H  -0.92000 16.65100 35.28900
N  -1.05200 20.16700 27.19000
C  -1.32500 21.06800 28.12100
C  -0.89100 22.43700 27.62100
C  -0.30700 22.16700 26.32400
C  -0.55300 20.80400 25.99800
C  -1.06400 23.71000 28.41800
C  0.15300 23.11400 25.29600
O  0.79100 22.88600 24.29000
C  0.09600 24.57000 25.67000
N  -1.42400 17.94900 25.04300
C  -0.83300 18.94100 24.25600
C  -0.59700 18.46700 22.80200
C  -0.95100 16.86400 22.93000
C  -1.32300 16.69300 24.42700
C  -1.33800 19.38300 21.82100
C  0.16200 15.87100 22.59400
C  1.49800 16.09600 23.39000
N  -2.03700 16.13800 27.32800
C  -2.01700 15.17500 26.33600
C  -2.34300 13.91700 26.93500
C  -2.59600 14.14000 28.30000
C  -2.28200 15.50800 28.50700
C  -2.51900 12.62200 26.11400
C  -3.05400 13.59900 29.51900
O  -3.55600 12.56100 29.83700
C  -2.95300 14.70300 30.66000
C  -2.05600 14.06600 31.54500
O  -0.84700 14.00100 31.47800
O  -2.84800 13.49200 32.51800
C  -2.23700 12.61900 33.53700
H  -1.90000 21.67200 29.99000
H  -0.06900 20.71700 23.87600
H  -1.86000 14.65500 24.28500
H  -3.27400 17.42700 32.17000
H  -1.47200 19.79900 32.00700
H  -4.15700 20.68700 31.15200
H  -3.24800 21.00500 32.63000
H  -4.30400 19.62400 32.57400
H  -0.53200 18.18600 33.15900
H  -0.31600 16.82000 32.09500
H  -1.12500 15.54500 33.49600
H  -2.54200 16.56200 33.95900
H  -0.18400 24.05300 28.96100
H  -1.83000 23.61900 29.18800
H  -1.41500 24.49000 27.74200
H  0.70700 24.73600 26.55700
H  -0.97300 24.78400 25.69700
H  0.72700 25.18600 25.03000
H  0.45000 18.54800 22.51000
H  -1.88900 16.73500 22.39000
H  -1.97900 20.08400 22.35700
H  -1.96800 18.83900 21.11700
H  -0.64800 19.96200 21.20700
H  0.34600 16.12100 21.55000
H  -0.18900 14.85900 22.79500
H  2.15100 15.22300 23.41500
H  1.26500 16.38300 24.41500
H  2.07500 16.90300 22.93800
H  -1.67300 12.50600 25.43600
H  -3.46400 12.45900 25.59600
H  -2.27600 11.76700 26.74400
H  -3.96200 14.89600 31.02500
H  -2.97600 11.95900 33.98900
H  -1.76300 13.26200 34.27900
H  -1.42400 12.04000 33.09800
Mg -11.13400 38.49500 41.30200
C  -9.06200 35.93600 40.40900
C  -8.79100 40.77800 40.11100
C  -13.47300 40.89500 41.36300
C  -13.61400 36.12900 42.24300
N  -9.12800 38.41900 40.48800
C  -8.49900 37.23800 40.15000
C  -7.17500 37.47600 39.39400
C  -7.00700 39.05500 39.51600
C  -8.34900 39.46000 40.17900
C  -5.70800 39.56500 40.22300
C  -7.19600 36.88300 37.95400
C  -6.01100 35.98900 37.53400
H  -5.28500 36.46600 36.24900
N  -11.15400 40.58000 40.82600
C  -10.06200 41.27700 40.38700
C  -10.44900 42.68300 40.20500
C  -11.89500 42.79300 40.52300
C  -12.24400 41.39100 40.90000
C  -9.43200 43.76100 39.64900
C  -12.80400 44.02200 40.40800
O  -12.30300 45.09400 40.01700
C  -14.28900 44.06900 40.64000
N  -13.23100 38.43500 41.82800
C  -13.93600 39.57600 41.72800
C  -15.38300 39.36300 42.02500
C  -15.48600 37.80600 42.27000
C  -14.04100 37.41000 42.15500
C  -15.96000 40.18900 43.19500
C  -16.32500 37.08800 41.16700
C  -17.88500 37.15300 41.37000
N  -11.30800 36.42100 41.33900
C  -12.31100 35.65400 41.84000
C  -11.86800 34.27700 41.94400
C  -10.62700 34.29000 41.30800
C  -10.32600 35.61700 41.01500
C  -12.72800 33.18000 42.48200
C  -9.48800 33.53200 40.83100
O  -9.24500 32.33900 40.97500
C  -8.38900 34.60300 40.31700
C  -7.17400 34.41000 41.10100
O  -6.53500 33.40800 40.95000
O  -6.91100 35.41900 42.02900
C  -5.84700 35.17500 43.03000
H  -7.98400 41.44900 39.80900
H  -14.18700 41.72000 41.38900
H  -14.33700 35.39000 42.59500
H  -6.38400 37.06800 40.02200
H  -7.00200 39.57600 38.55900
H  -5.94100 40.19900 41.07900
H  -5.25100 40.28100 39.54000
H  -5.03900 38.73600 40.45100
H  -7.20800 37.69800 37.23000
H  -8.11400 36.33200 37.75300
H  -6.32100 34.94400 37.53500
H  -5.17200 36.06000 38.22600
H  -9.85700 44.18600 38.73900
H  -8.38600 43.48300 39.51700
H  -9.48400 44.69300 40.21000
H  -14.53300 44.24700 41.68700
H  -14.77500 43.20300 40.19200
H  -14.75300 44.90000 40.10800
H  -15.91400 39.61700 41.10700
H  -15.83000 37.68100 43.29700
H  -16.51900 39.64400 43.95600
H  -16.71100 40.85600 42.77300
H  -15.17500 40.76800 43.68200
H  -16.03700 36.03800 41.21700
H  -16.09900 37.55000 40.20600
H  -18.43400 37.29200 40.43900
H  -18.17500 37.98200 42.01500
H  -18.19400 36.22300 41.84900
H  -12.12900 32.27900 42.61200
H  -13.58300 32.90900 41.86300
H  -13.05600 33.32600 43.51100
H  -8.19300 34.33900 39.27800
H  -4.98900 35.54000 42.46500
H  -5.71500 34.21200 43.52400
H  -5.89100 35.99400 43.74800

