158

Mg 0.75600 7.09000 25.22500
C  1.55400 9.17500 28.02500
C  0.89100 4.41300 27.19800
C  0.19800 5.30600 22.48500
C  1.28500 9.90600 23.17900
N  1.20300 6.85500 27.36000
C  1.36200 7.80300 28.36700
C  1.33700 7.19600 29.69000
C  1.11800 5.66600 29.40900
C  1.15200 5.60500 27.88200
C  2.18800 4.71400 30.07500
C  0.17000 7.74700 30.54200
C  0.41400 7.97300 32.08100
H  1.64000 7.47900 32.81000
N  0.58500 5.11200 24.89200
C  0.68500 4.15200 25.83400
C  0.45200 2.89100 25.24300
C  0.21400 3.05400 23.85400
C  0.27500 4.54300 23.65700
C  0.51700 1.56900 26.05800
C  -0.01700 2.07400 22.73800
O  -0.37000 2.44900 21.61400
C  -0.00600 0.59500 22.94300
N  0.83100 7.52200 23.17100
C  0.32600 6.62400 22.30200
C  0.13600 7.23900 20.83600
C  0.33000 8.69700 21.15800
C  0.82600 8.75700 22.62900
C  1.29600 6.64100 19.90200
C  -0.94800 9.58500 21.10300
C  -1.18600 10.38600 19.81200
N  1.35700 9.06400 25.47500
C  1.56600 10.08400 24.53400
C  1.93900 11.35500 25.16400
C  1.87500 10.97200 26.58000
C  1.55600 9.63200 26.66000
C  2.13000 12.64300 24.53700
C  2.06300 11.58500 27.91400
O  2.30900 12.70200 28.28000
C  1.64300 10.42200 28.95100
C  2.65900 10.36200 29.98700
O  3.72900 9.74000 29.78700
O  2.35000 11.24900 30.98800
C  3.37200 11.37900 32.06000
H  0.81900 3.55700 27.87200
H  -0.28000 4.84000 21.62000
H  1.29100 10.79400 22.54300
H  2.26100 7.44600 30.21100
H  0.08000 5.40600 29.61700
H  3.03000 4.38500 29.46600
H  1.61600 3.87800 30.47700
H  2.66200 5.21800 30.91700
H  -0.75500 7.17300 30.49400
H  -0.18900 8.68200 30.11300
H  -0.45500 7.46000 32.49200
H  0.42600 9.03200 32.33900
H  -0.23900 0.87000 25.69900
H  0.18700 1.73100 27.08400
H  1.54000 1.21700 26.19000
H  -0.85400 0.22500 23.51900
H  0.89300 0.37200 23.51700
H  0.02600 -0.01300 22.03800
H  -0.86000 6.94100 20.50700
H  1.08500 9.16500 20.52700
H  1.88800 5.87000 20.39500
H  1.82400 7.35600 19.27100
H  0.73400 5.98200 19.23900
H  -0.97400 10.25800 21.96000
H  -1.77900 8.90900 21.30300
H  -2.04800 10.13600 19.19300
H  -0.34700 10.28300 19.12400
H  -1.18800 11.43900 20.09100
H  3.02100 12.70800 23.91300
H  2.35200 13.32100 25.36100
H  1.22900 12.88100 23.97000
H  0.70000 10.65000 29.44800
H  4.03700 12.22700 31.89100
H  4.06500 10.53800 32.04200
H  2.91900 11.33000 33.05000
Mg 9.18300 47.00400 27.20600
C  7.48300 46.49100 30.25300
C  12.07100 47.50300 28.95700
C  10.64400 48.18800 24.37500
C  6.19600 47.17300 25.55400
N  9.76500 46.76400 29.54500
C  8.85000 46.63400 30.55800
C  9.56100 46.97300 31.88600
C  10.97000 47.52600 31.41700
C  10.97700 47.24200 29.85700
C  11.33400 48.96100 31.77900
C  9.68600 45.80700 32.91300
C  9.37500 46.16000 34.34600
H  9.70800 45.01200 35.32900
N  11.08800 47.69800 26.77700
C  12.16700 47.68200 27.57000
C  13.40700 47.89600 26.74300
C  12.95400 48.12100 25.42000
C  11.53900 47.94900 25.45600
C  14.85900 47.87600 27.27700
C  13.78500 48.36000 24.18800
O  13.24000 48.58700 23.12000
C  15.33900 48.28200 24.26200
N  8.45300 47.60600 25.22400
C  9.30800 48.01400 24.24700
C  8.56300 48.20200 22.89000
C  7.12700 47.66400 23.26500
C  7.22600 47.43300 24.72800
C  8.52400 49.75100 22.39700
C  6.76100 46.39600 22.51800
C  5.35700 46.45100 21.83400
N  7.23200 46.73100 27.70900
C  6.10600 46.79600 26.94500
C  4.90200 46.71000 27.79000
C  5.45300 46.48300 29.05300
C  6.85800 46.56200 29.00300
C  3.41100 46.61300 27.29100
C  5.05800 46.19900 30.43200
O  3.96100 46.02400 30.95300
C  6.37000 46.25800 31.27300
C  6.55800 45.00200 31.97200
O  6.66600 43.90100 31.47700
O  6.49000 45.20900 33.33400
C  6.46300 43.91400 34.08700
H  12.92100 47.65600 29.62600
H  10.99200 48.51900 23.39400
H  5.26500 47.33400 25.00600
H  8.94300 47.71700 32.38900
H  11.72100 46.89600 31.89500
H  11.57300 49.67200 30.98800
H  12.19400 48.87200 32.44300
H  10.59600 49.41500 32.44000
H  10.69500 45.40100 32.98400
H  9.01200 45.02500 32.56300
H  8.34400 46.47000 34.51600
H  9.88900 47.09500 34.57100
H  15.44700 47.08300 26.81600
H  14.78400 47.65700 28.34200
H  15.21300 48.89600 27.12500
H  15.86700 48.89800 24.99100
H  15.56700 48.76000 23.30900
H  15.67700 47.24600 24.24600
H  8.99900 47.50800 22.17100
H  6.38800 48.46500 23.26900
H  9.45900 50.24500 22.66000
H  7.67000 50.26800 22.83500
H  8.52500 49.73700 21.30700
H  6.76600 45.47000 23.09200
H  7.49800 46.32100 21.71900
H  5.40000 46.32000 20.75200
H  4.81000 47.37900 22.00700
H  4.92800 45.56600 22.30300
H  2.79500 45.90600 27.84700
H  3.26200 46.29800 26.25800
H  2.95600 47.57600 27.51900
H  6.28700 47.13700 31.91200
H  7.30900 43.26500 33.86200
H  5.58200 43.29600 33.91300
H  6.43100 44.12000 35.15700

