158

Mg 9.64000 3.82700 27.77400
C  10.85100 2.26900 30.57000
C  7.96100 6.11600 29.75900
C  8.18800 5.28100 25.00900
C  10.96500 1.30600 25.66300
N  9.49300 4.09000 29.91500
C  10.06200 3.40100 30.94000
C  9.66500 3.98300 32.32200
C  8.64200 5.06100 31.96500
C  8.78600 5.23300 30.41900
C  7.24000 4.72100 32.43800
C  10.98600 4.56300 32.95500
C  10.78700 5.37800 34.26000
H  11.68800 4.91300 35.42200
N  8.37100 5.58200 27.44500
C  7.76300 6.36800 28.41900
C  6.86100 7.25900 27.76200
C  6.92800 7.01700 26.33300
C  7.89200 5.90000 26.17300
C  5.89100 8.05400 28.54700
C  6.19500 7.71900 25.14600
O  6.18400 7.41200 23.94400
C  5.31700 8.91200 25.53100
N  9.43900 3.25700 25.71600
C  8.90600 4.06200 24.73800
C  9.28500 3.59200 23.35400
C  9.82600 2.16700 23.59000
C  10.21100 2.30400 25.02100
C  8.25100 3.72100 22.21400
C  11.09100 1.84300 22.76300
C  11.03800 0.58200 21.94200
N  10.66000 2.14700 27.97400
C  11.10500 1.21600 27.02900
C  11.77800 0.18400 27.77700
C  11.84400 0.66000 29.16000
C  11.01800 1.79400 29.26000
C  12.41800 -1.08300 27.26000
C  12.36300 0.30600 30.46900
O  13.07500 -0.61900 30.80000
C  11.77000 1.40300 31.45600
C  11.01100 0.73300 32.52400
O  10.23200 -0.16400 32.31600
O  11.50600 1.16300 33.73600
C  11.15000 0.33400 34.86000
H  7.50600 6.80200 30.47600
H  7.75800 5.74300 24.11700
H  11.30500 0.40100 25.15600
H  9.31500 3.18400 32.97500
H  8.77700 5.98300 32.53000
H  6.53300 5.02500 31.66500
H  7.12700 5.30300 33.35200
H  7.09200 3.66400 32.66100
H  11.57200 5.20400 32.29600
H  11.51100 3.64100 33.20100
H  9.73800 5.28900 34.54500
H  10.99800 6.43700 34.11100
H  6.25000 9.08300 28.55000
H  5.74800 7.78400 29.59300
H  4.89300 8.10100 28.11100
H  5.89700 9.56700 26.18100
H  4.51400 8.36600 26.02800
H  4.90800 9.44400 24.67200
H  10.17100 4.21000 23.21000
H  8.97600 1.51100 23.40400
H  7.24300 4.10000 22.38200
H  8.02800 2.74900 21.77500
H  8.64400 4.43000 21.48500
H  11.92600 1.81100 23.46300
H  11.16900 2.69400 22.08700
H  11.52400 0.67400 20.97100
H  10.02800 0.22600 21.73900
H  11.55800 -0.17100 22.53400
H  13.45600 -0.88400 26.99300
H  11.93700 -1.42000 26.34200
H  12.31900 -1.90000 27.97500
H  12.54700 1.99400 31.94200
H  10.64700 -0.61200 34.66000
H  10.62900 0.97900 35.56700
H  12.06200 0.02800 35.37300
Mg -11.03000 39.79000 41.49000
C  -10.39900 36.54800 40.55900
C  -7.97400 40.85400 40.33000
C  -12.19900 42.90500 41.28200
C  -14.40300 38.64000 42.38100
N  -9.38800 38.78900 40.50800
C  -9.38400 37.45600 40.19000
C  -8.03400 37.08200 39.49800
C  -7.31700 38.49000 39.40300
C  -8.19100 39.43800 40.18300
C  -5.77200 38.54100 39.87700
C  -8.27200 36.27700 38.13200
C  -7.44000 36.61500 36.89100
H  -6.78400 35.57100 36.08600
N  -10.15500 41.65900 41.04800
C  -8.90300 41.87400 40.61600
C  -8.71600 43.28600 40.34500
C  -9.90800 43.92800 40.70600
C  -10.85200 42.84300 40.96800
C  -7.39000 43.98300 40.03600
C  -10.11500 45.51800 40.76800
O  -9.25500 46.29900 40.36900
C  -11.32500 46.19300 41.50500
N  -12.95900 40.57600 41.74400
C  -13.15200 41.94700 41.57300
C  -14.56400 42.41600 41.91800
C  -15.15400 41.06100 42.45500
C  -14.13700 40.01300 42.16600
C  -14.68900 43.55100 42.94900
C  -16.53300 40.57700 41.81200
C  -17.64200 40.18200 42.88500
N  -12.16700 37.97100 41.65600
C  -13.44200 37.67500 42.08000
C  -13.58100 36.21300 42.07700
C  -12.44600 35.73600 41.46800
C  -11.62700 36.85100 41.23300
C  -14.86500 35.45000 42.37900
C  -11.71500 34.60200 41.02400
O  -11.99600 33.43600 41.19800
C  -10.45800 35.06800 40.28900
C  -9.27400 34.29800 40.81700
O  -8.61700 34.49800 41.85600
O  -9.00100 33.27900 39.89700
C  -8.00800 32.31000 40.34300
H  -7.01100 41.15400 39.91100
H  -12.70700 43.85800 41.11700
H  -15.28700 38.22500 42.86900
H  -7.50400 36.36500 40.12500
H  -7.34300 38.78400 38.35400
H  -5.49200 37.51900 40.13300
H  -5.72400 39.08600 40.82000
H  -5.15300 39.02800 39.12400
H  -9.29700 36.47700 37.82200
H  -8.15700 35.23200 38.41900
H  -6.60700 37.23400 37.22500
H  -8.14400 37.17100 36.27200
H  -7.14600 43.94800 38.97500
H  -6.56700 43.53700 40.59400
H  -7.33200 45.02700 40.34400
H  -11.57900 45.78600 42.48300
H  -12.20000 46.10400 40.86100
H  -11.03900 47.24100 41.41500
H  -15.02900 42.77900 41.00100
H  -15.26500 41.10500 43.53800
H  -15.24900 44.39600 42.54800
H  -13.72700 43.93800 43.28600
H  -15.21400 43.16200 43.82100
H  -16.37500 39.69800 41.18800
H  -17.01800 41.30900 41.16500
H  -18.53800 40.71100 42.55900
H  -17.29900 40.50300 43.86900
H  -17.89800 39.12600 42.79000
H  -15.69700 36.05000 42.01100
H  -14.93000 35.29900 43.45700
H  -15.00600 34.50300 41.85900
H  -10.68900 34.98200 39.22800
H  -7.67100 31.64500 39.54700
H  -8.48400 31.88300 41.22600
H  -7.16400 32.95800 40.57600

