158

Mg 23.90000 -6.34600 46.54100
C  26.02300 -3.99300 45.13700
C  21.41900 -5.37000 44.42500
C  21.87400 -9.21400 47.18500
C  26.58200 -7.76600 48.12700
N  23.76700 -4.88600 44.94200
C  24.75600 -4.00800 44.56100
C  24.22500 -3.07400 43.55700
C  22.68000 -3.22700 43.67400
C  22.61700 -4.59000 44.36200
C  21.87400 -2.09400 44.40600
C  24.87900 -3.33400 42.17100
C  25.48400 -2.16000 41.42400
H  24.51000 -1.64200 40.34300
N  21.88800 -7.15500 45.98500
C  21.08200 -6.53600 45.07100
C  19.89700 -7.27600 44.77400
C  19.94300 -8.41100 45.66500
C  21.24500 -8.30300 46.31100
C  18.81900 -7.02000 43.64200
C  18.84600 -9.41200 45.77200
O  17.88400 -9.50600 45.01100
C  18.86500 -10.38500 46.95700
N  24.12800 -8.13800 47.63000
C  23.20400 -9.20100 47.79000
C  23.80100 -10.39100 48.57200
C  25.33800 -9.98200 48.72000
C  25.35700 -8.54500 48.13700
C  23.02400 -10.70500 49.89600
C  26.33800 -10.88500 48.10200
C  26.17600 -12.42700 48.38800
N  25.97900 -6.01500 46.67400
C  26.88400 -6.64600 47.43300
C  28.12000 -5.85100 47.33500
C  27.82600 -4.80300 46.51000
C  26.49500 -4.95300 46.07500
C  29.44100 -6.28300 48.05300
C  28.33200 -3.56900 45.98600
O  29.38300 -2.94300 46.28900
C  27.14400 -2.96600 45.00700
C  26.76500 -1.62100 45.43900
O  25.90600 -1.26500 46.23000
O  27.46100 -0.68800 44.71600
C  27.25800 0.72600 45.11000
H  20.55800 -4.88700 43.95800
H  21.40200 -10.19400 47.27400
H  27.42000 -8.22000 48.66100
H  24.50900 -2.08000 43.90300
H  22.24200 -3.17000 42.67700
H  22.49400 -1.67100 45.19600
H  20.92100 -2.43700 44.81000
H  21.68500 -1.29400 43.69100
H  24.27900 -3.86600 41.43300
H  25.62400 -4.11100 42.34200
H  26.43100 -2.35100 40.92000
H  25.62600 -1.32900 42.11500
H  19.27200 -6.42400 42.85100
H  18.02700 -6.39500 44.05500
H  18.35800 -7.89800 43.18900
H  17.82700 -10.59100 47.22100
H  19.30800 -9.87800 47.81400
H  19.40500 -11.26500 46.60700
H  23.73900 -11.30100 47.97500
H  25.53000 -9.89300 49.78900
H  21.98900 -10.78800 49.56400
H  23.30600 -9.97500 50.65400
H  23.22200 -11.66300 50.37600
H  27.33400 -10.60900 48.44700
H  26.36800 -10.66600 47.03400
H  26.17700 -13.02200 47.47500
H  25.23900 -12.66400 48.89200
H  26.97800 -12.82500 49.01100
H  29.25400 -6.03100 49.09700
H  30.34900 -5.78100 47.72000
H  29.55800 -7.36500 48.10600
H  27.63600 -2.90800 44.03600
H  27.52600 0.91900 46.14800
H  26.21800 1.04300 45.03300
H  27.78900 1.37500 44.41300
Mg 40.48100 9.64600 28.59100
C  42.19700 10.58200 31.53700
C  38.24300 7.89300 30.86200
C  38.68100 8.70700 25.96800
C  43.14400 10.69600 26.57200
N  40.26600 9.21300 31.00500
C  41.05900 9.79800 31.90700
C  40.57600 9.38300 33.32900
C  39.62600 8.19600 33.09600
C  39.36200 8.46600 31.59300
C  40.22900 6.80100 33.38500
C  39.99000 10.58500 34.11400
C  40.46100 10.70900 35.55600
H  40.88300 12.13600 35.89600
N  38.74200 8.57700 28.44700
C  38.02500 7.86800 29.40600
C  36.80800 7.28700 28.81200
C  36.80500 7.56300 27.39300
C  38.12100 8.34600 27.25700
C  35.79300 6.54200 29.65000
C  35.79300 7.26300 26.29600
O  35.94500 7.50100 25.08800
C  34.45300 6.75900 26.74600
N  40.96200 9.66400 26.53700
C  39.95200 9.36600 25.69200
C  40.43100 9.59500 24.19700
C  41.76100 10.33000 24.36600
C  42.03500 10.24100 25.88200
C  40.46900 8.31100 23.30300
C  41.93700 11.70700 23.72900
C  41.23800 12.89600 24.24400
N  42.35800 10.44500 28.93400
C  43.33700 10.83800 28.00600
C  44.31800 11.55200 28.81400
C  43.90300 11.52100 30.17700
C  42.71000 10.78200 30.22800
C  45.53500 12.14700 28.22200
C  44.22800 12.02400 31.55900
O  45.14900 12.72300 32.01900
C  43.16200 11.39200 32.46100
C  43.77100 10.39800 33.47000
O  44.27000 9.31000 33.22100
O  43.77600 10.94700 34.73000
C  44.18900 10.08000 35.84500
H  37.64100 7.21200 31.46800
H  38.03900 8.54900 25.09900
H  43.83000 11.11300 25.83200
H  41.45500 8.97800 33.83100
H  38.76100 8.25400 33.75700
H  41.28100 6.95500 33.62600
H  40.29700 6.28500 32.42700
H  39.72800 6.17700 34.12500
H  38.91400 10.42400 34.18400
H  40.21900 11.52300 33.60900
H  41.26400 10.04300 35.87200
H  39.57500 10.54000 36.16700
H  35.97200 6.36100 30.71000
H  35.63000 5.58300 29.15800
H  34.87500 7.11900 29.75500
H  33.95100 6.47600 25.82100
H  33.82000 7.57700 27.08900
H  34.54600 5.97200 27.49400
H  39.69500 10.28600 23.78600
H  42.56300 9.70900 23.96500
H  39.40400 8.22100 23.09000
H  40.65600 7.38900 23.85400
H  41.13100 8.38500 22.44100
H  41.75000 11.53800 22.66900
H  43.00000 11.89300 23.87800
H  40.59600 13.23700 23.43200
H  41.90300 13.71900 24.50700
H  40.56800 12.69700 25.08100
H  45.65000 13.05800 28.81000
H  45.40000 12.38300 27.16700
H  46.34300 11.41600 28.26400
H  42.72500 12.14700 33.11400
H  43.81600 10.51100 36.77400
H  45.27500 10.13400 35.92500
H  44.01300 9.00800 35.76100

