158

Mg 0.18600 7.93300 26.12700
C  1.16400 9.83800 29.07400
C  -0.06100 5.18200 28.14400
C  -0.41400 6.23300 23.32200
C  0.96000 10.76900 24.28200
N  0.58500 7.60900 28.38500
C  0.80900 8.50100 29.41100
C  0.56900 7.89800 30.80700
C  0.35600 6.36700 30.50500
C  0.29800 6.33900 28.89800
C  1.36900 5.40600 31.12500
C  -0.64900 8.50600 31.52700
C  -0.38700 8.72500 33.04400
H  0.75000 8.27500 33.95900
N  -0.10500 5.94700 25.78500
C  -0.31000 4.98900 26.74000
C  -0.77100 3.72700 26.09800
C  -0.71700 3.96800 24.69700
C  -0.40300 5.45400 24.52200
C  -1.24800 2.42300 26.82900
C  -1.16500 3.07100 23.49600
O  -1.09400 3.37900 22.31700
C  -1.67600 1.66100 23.78000
N  0.28800 8.39700 24.08100
C  -0.10700 7.57200 23.07200
C  -0.12500 8.27200 21.73600
C  0.16800 9.77100 22.06700
C  0.41700 9.67600 23.63900
C  0.85200 7.64400 20.79400
C  -0.79100 10.89000 21.63900
C  -1.63600 10.76200 20.34500
N  0.97300 9.79500 26.47500
C  1.24900 10.83300 25.60400
C  1.67500 11.93900 26.36800
C  1.58800 11.62900 27.69000
C  1.20000 10.30600 27.71500
C  2.30500 13.25400 25.81400
C  1.80300 12.08600 29.02800
O  2.19500 13.19500 29.35200
C  1.49800 10.96400 30.00500
C  2.65700 10.67800 30.95800
O  3.75600 10.29800 30.63400
O  2.34700 11.15000 32.19300
C  3.46500 11.23300 33.11300
H  -0.20100 4.42700 28.92000
H  -0.64600 5.63200 22.44000
H  1.10300 11.70800 23.74400
H  1.44500 8.00700 31.44600
H  -0.61000 6.01200 30.86500
H  2.03000 5.94800 31.80100
H  1.93600 4.96100 30.30700
H  0.99300 4.54600 31.68000
H  -1.42800 7.74400 31.50800
H  -1.10300 9.42500 31.15700
H  -1.30000 8.35800 33.51300
H  -0.41500 9.81100 33.13200
H  -1.40100 2.60500 27.89200
H  -0.53700 1.61500 26.65500
H  -2.24600 2.16400 26.47500
H  -0.84500 1.04000 24.11700
H  -1.94300 1.25700 22.80400
H  -2.60400 1.74700 24.34500
H  -1.14300 8.17600 21.36000
H  1.15800 10.04300 21.70100
H  1.86300 7.79500 21.17300
H  0.76800 8.00300 19.76800
H  0.69000 6.56800 20.86200
H  -0.05200 11.67500 21.48100
H  -1.41200 11.27300 22.44900
H  -1.28000 10.05300 19.59700
H  -1.63500 11.72800 19.84100
H  -2.63300 10.38000 20.56400
H  2.90000 12.94700 24.95400
H  3.02500 13.64400 26.53300
H  1.64100 14.07600 25.54700
H  0.57400 11.29800 30.47800
H  4.02000 12.03900 32.63400
H  4.14000 10.38100 33.18600
H  3.08600 11.53700 34.08900
Mg 40.62900 9.20000 30.00400
C  42.49900 10.56700 32.68100
C  38.17200 8.35300 32.10800
C  39.09800 7.73400 27.39900
C  43.30700 9.99700 27.94400
N  40.42400 9.38900 32.23000
C  41.26800 9.99000 33.10200
C  40.81700 9.71800 34.54800
C  39.37000 8.99600 34.32700
C  39.29200 8.86600 32.77800
C  39.26200 7.57100 34.98600
C  40.66700 11.03000 35.42700
C  40.80600 10.94200 36.98300
H  40.67000 12.21800 37.85300
N  38.80100 8.27400 29.73400
C  37.86600 8.16100 30.69000
C  36.70100 7.63600 30.08100
C  36.89500 7.55000 28.68200
C  38.30900 7.89100 28.48800
C  35.45600 7.34100 30.89000
C  35.91400 7.07300 27.55700
O  36.35500 6.88400 26.45700
C  34.46800 6.67700 27.89400
N  41.19400 8.82300 27.92900
C  40.34200 8.21800 27.12300
C  40.92800 8.09100 25.65400
C  42.24400 8.86600 25.90900
C  42.24000 9.32000 27.36400
C  40.87000 6.63100 24.91700
C  42.42200 9.98900 24.83200
C  41.68700 11.30500 24.96300
N  42.52500 10.07700 30.18800
C  43.49300 10.36300 29.26300
C  44.62700 10.97700 29.91200
C  44.26500 11.17900 31.25000
C  42.97500 10.55800 31.37700
C  45.84400 11.48900 29.29500
C  44.63400 11.70700 32.54900
O  45.55400 12.35900 32.88000
C  43.49100 11.34000 33.54200
C  44.09900 10.37300 34.57500
O  44.43800 9.20800 34.37100
O  44.35300 10.97000 35.77800
C  44.92500 10.12400 36.87300
H  37.35500 8.19000 32.81300
H  38.75900 7.28400 26.46300
H  44.13900 10.19500 27.26500
H  41.51100 9.00000 34.98400
H  38.53500 9.60900 34.66700
H  40.20900 7.33900 35.47400
H  39.21400 6.76000 34.26000
H  38.48900 7.55200 35.75400
H  39.61500 11.28700 35.30000
H  41.22500 11.93800 35.19700
H  41.81200 10.53800 37.10400
H  40.18600 10.18500 37.46300
H  35.64000 7.49100 31.95400
H  35.16900 6.29400 30.80000
H  34.58500 7.86600 30.49700
H  33.90600 7.46700 28.39300
H  34.35700 5.70100 28.36600
H  34.06200 6.72600 26.88300
H  40.32300 8.76200 25.04300
H  42.97600 8.06800 25.78300
H  40.57800 5.87900 25.65000
H  41.83400 6.41100 24.45900
H  40.15100 6.64500 24.09800
H  42.16800 9.54200 23.87100
H  43.45500 10.31400 24.95400
H  42.32900 11.92100 25.59200
H  40.77300 11.26300 25.55600
H  41.41300 11.75100 24.00700
H  46.71200 11.54700 29.95200
H  45.61200 12.54300 29.13700
H  46.01800 10.92900 28.37700
H  43.17200 12.21500 34.10900
H  44.33700 9.21000 36.95900
H  44.71100 10.72900 37.75400
H  45.99900 10.01100 36.72800

