158

Mg 25.38700 1.28400 29.86500
C  27.26200 1.40500 32.79200
C  22.56000 1.87200 31.91200
C  23.50900 1.17000 27.09700
C  28.19100 0.52200 27.86500
N  24.96000 1.46700 32.19600
C  25.92700 1.61900 33.13100
C  25.40500 1.88900 34.51000
C  23.78900 1.84600 34.20900
C  23.71100 1.75900 32.63900
C  22.93800 0.70500 34.73000
C  25.90500 3.20100 35.21900
C  26.84900 3.09000 36.45000
H  26.65800 4.06100 37.56900
N  23.34700 1.48600 29.55600
C  22.39000 1.67700 30.54500
C  21.13300 1.60400 29.89800
C  21.35000 1.45300 28.48000
C  22.78300 1.37400 28.27900
C  19.80200 1.53200 30.65800
C  20.36300 1.25800 27.40600
O  20.64800 0.99400 26.24300
C  18.92900 1.37500 27.70500
N  25.80300 0.66300 27.67700
C  24.80500 0.81800 26.76800
C  25.32500 0.83600 25.33500
C  26.90500 0.65200 25.58300
C  27.01900 0.50200 27.12200
C  24.73800 -0.22000 24.38200
C  27.82400 1.66000 24.86700
C  28.71500 1.11300 23.75000
N  27.32000 0.96600 30.23000
C  28.40800 0.68800 29.28800
C  29.68100 0.67000 30.03500
C  29.25900 0.94200 31.37500
C  27.81300 1.06300 31.50100
C  31.09000 0.45100 29.55500
C  29.76500 1.05800 32.69200
O  30.88600 0.91800 33.08000
C  28.49900 1.37500 33.65600
C  28.40300 0.33600 34.61300
O  27.68800 -0.67600 34.62400
O  29.08300 0.64200 35.76100
C  28.77800 -0.23000 37.01100
H  21.66900 2.05300 32.51800
H  22.92800 1.05900 26.17900
H  28.98800 0.60900 27.12400
H  25.66200 0.99200 35.07200
H  23.29300 2.74000 34.58800
H  22.23700 0.29400 34.00300
H  22.45000 1.12500 35.61000
H  23.57200 -0.14100 34.99400
H  25.03500 3.79000 35.50900
H  26.48400 3.74600 34.47300
H  27.88100 3.21500 36.12400
H  26.84100 2.07700 36.85400
H  19.43000 0.52700 30.46200
H  19.09900 2.31100 30.36200
H  19.90900 1.55800 31.74200
H  18.65200 0.48700 28.27300
H  18.38000 1.45400 26.76600
H  18.64600 2.22100 28.33100
H  25.04100 1.81500 24.94700
H  27.28100 -0.28000 25.16100
H  25.48100 -0.88600 23.94400
H  24.05700 0.02800 23.56800
H  24.02600 -0.70900 25.04700
H  28.42900 2.10900 25.65500
H  27.28800 2.51100 24.44600
H  29.76300 1.16000 24.04600
H  28.62900 1.79300 22.90200
H  28.48000 0.11700 23.37400
H  31.26000 0.90800 28.58000
H  31.36100 -0.60400 29.54100
H  31.65300 1.00500 30.30600
H  28.74100 2.36100 34.05300
H  28.91400 -1.29100 36.80200
H  27.74600 -0.01500 37.28800
H  29.43600 0.06100 37.83000
Mg 4.46400 53.87800 40.46100
C  4.69900 50.44200 40.87500
C  7.58700 53.80900 38.86000
C  4.11500 57.08000 39.73400
C  1.28600 53.81500 42.07500
N  5.83600 52.26500 39.74300
C  5.75200 50.93300 40.13600
C  6.99200 50.17100 39.69600
C  8.06500 51.33700 39.40500
C  7.10100 52.54600 39.30500
C  9.22800 51.50400 40.33000
C  6.83200 49.23000 38.47200
C  5.74100 49.45000 37.44500
H  6.11700 49.60400 36.01400
N  5.64300 55.24900 39.31700
C  6.90500 55.04800 38.82300
C  7.44100 56.32000 38.42000
C  6.43500 57.32800 38.69000
C  5.30300 56.58000 39.20900
C  8.87600 56.52200 38.02600
C  6.60300 58.87300 38.56900
O  7.73300 59.28300 38.27400
C  5.56400 59.92900 38.93800
N  2.79500 55.21500 40.65500
C  3.01100 56.52600 40.38500
C  1.90000 57.41500 40.99400
C  0.89200 56.31500 41.58800
C  1.68100 55.04000 41.44500
C  2.41100 58.32500 42.16400
C  -0.45300 56.19700 40.82900
C  -1.39000 57.29300 40.57500
N  3.15300 52.49300 41.37200
C  1.97100 52.59400 42.00000
C  1.68300 51.38100 42.72900
C  2.73900 50.48000 42.33000
C  3.60500 51.18400 41.46700
C  0.56700 51.07700 43.60700
C  3.19300 49.16500 42.42200
O  2.71700 48.13700 42.95000
C  4.35900 49.02400 41.38800
C  3.88700 48.14400 40.22000
O  3.24000 48.60600 39.26600
O  4.31300 46.81000 40.27800
C  3.93700 45.94700 39.13600
H  8.64900 53.79800 38.60500
H  4.02400 58.16800 39.73500
H  0.33800 53.85400 42.61600
H  7.43300 49.65300 40.54700
H  8.38200 51.18500 38.37300
H  9.08500 52.38800 40.95100
H  10.18500 51.68200 39.84000
H  9.37400 50.59600 40.91500
H  6.72400 48.23700 38.90800
H  7.74100 49.19500 37.87200
H  5.08800 50.25700 37.77700
H  5.17900 48.51900 37.51900
H  8.89700 56.76300 36.96300
H  9.37800 55.56400 37.88600
H  9.47900 57.31200 38.47500
H  5.92500 60.82700 38.43700
H  5.57300 60.06000 40.02000
H  4.59300 59.63700 38.53900
H  1.39100 58.03200 40.25200
H  0.78200 56.47000 42.66200
H  3.43600 58.12400 42.47500
H  1.65900 58.31000 42.95300
H  2.30500 59.37400 41.88800
H  -0.98300 55.38100 41.32000
H  -0.26100 55.79900 39.83300
H  -2.38600 56.89300 40.76200
H  -1.34700 57.61200 39.53300
H  -1.12600 58.14000 41.20900
H  -0.36600 51.50500 43.24100
H  0.83300 51.47600 44.58600
H  0.48600 50.00300 43.77100
H  5.22500 48.54200 41.84200
H  2.85400 45.89800 39.01900
H  4.32900 44.96400 39.39700
H  4.39200 46.40300 38.25600

