158

Mg 24.84400 1.81600 30.07400
C  27.04000 1.81500 32.90300
C  22.24700 2.05500 32.20100
C  22.87800 1.69300 27.31700
C  27.68200 1.13300 28.08700
N  24.64800 2.00200 32.37400
C  25.67100 1.97600 33.27400
C  25.14800 2.11000 34.72400
C  23.63700 2.03300 34.46500
C  23.48200 2.03100 32.92700
C  22.87000 0.87500 35.15700
C  25.78300 3.38800 35.34900
C  26.65500 3.07700 36.63100
H  26.54200 4.16200 37.72000
N  22.83800 1.94800 29.76300
C  21.91800 1.90400 30.79600
C  20.57100 1.79700 30.18300
C  20.75200 1.61200 28.77000
C  22.17800 1.75000 28.57500
C  19.24200 1.86000 30.97800
C  19.71600 1.43200 27.64600
O  20.01000 1.46400 26.47900
C  18.29800 1.37800 28.03400
N  25.24500 1.50900 28.00500
C  24.28300 1.62200 27.04500
C  24.90700 1.35300 25.63000
C  26.42800 1.44900 25.90500
C  26.53200 1.38500 27.43400
C  24.43600 0.02200 24.92800
C  27.06100 2.77200 25.37200
C  26.35700 4.10100 25.71400
N  26.86300 1.43300 30.31300
C  27.91100 1.21300 29.37500
C  29.18400 0.96600 30.08800
C  28.82800 1.23200 31.42900
C  27.41700 1.50700 31.51000
C  30.52100 0.57200 29.40600
C  29.41800 1.40400 32.81400
O  30.55600 1.44600 33.25900
C  28.20900 1.61000 33.82800
C  28.10900 0.38000 34.72100
O  27.61000 -0.73600 34.50500
O  28.76800 0.68600 35.88700
C  29.00800 -0.41600 36.89400
H  21.37800 2.20800 32.84300
H  22.25300 1.52800 26.43700
H  28.51200 0.85600 27.43300
H  25.49100 1.23200 35.27100
H  23.31200 2.98600 34.88200
H  22.13400 0.45800 34.47000
H  22.45300 1.23600 36.09800
H  23.51700 0.00300 35.25900
H  24.99800 4.12500 35.52400
H  26.37100 3.93100 34.60900
H  27.69300 2.92900 36.33100
H  26.37600 2.10900 37.04800
H  18.76000 2.83500 31.06000
H  19.40200 1.60900 32.02600
H  18.54900 1.13800 30.54700
H  17.68600 1.56200 27.15100
H  18.13300 2.30200 28.58800
H  18.08900 0.41500 28.50200
H  24.72900 2.15800 24.91600
H  27.07500 0.71500 25.42500
H  25.15500 -0.79100 24.83100
H  24.28800 0.42600 23.92700
H  23.49200 -0.25600 25.39700
H  27.19000 2.67900 24.29400
H  28.08100 2.85700 25.74700
H  26.38800 4.81200 24.88900
H  27.03500 4.44500 26.49500
H  25.36000 3.98800 26.14100
H  31.23000 0.46900 30.22600
H  30.86600 1.35800 28.73300
H  30.42300 -0.27900 28.73200
H  28.41300 2.54000 34.35900
H  28.29100 -0.17800 37.68100
H  29.96300 -0.21500 37.38100
H  28.87600 -1.40400 36.45400
Mg 47.91100 16.21800 28.25300
C  46.06400 16.04700 31.24000
C  50.34500 17.94900 29.98300
C  49.38300 16.85100 25.33500
C  45.19100 14.88400 26.61800
N  48.04900 17.18900 30.38800
C  47.29300 16.76600 31.42100
C  47.86200 17.32200 32.77300
C  49.19800 18.04500 32.28400
C  49.15300 17.82300 30.76300
C  49.22300 19.56900 32.64500
C  48.07800 16.32300 33.92900
C  47.43300 16.49600 35.28700
H  47.17300 17.88100 35.87700
N  49.61500 17.20700 27.71900
C  50.53100 17.73000 28.60700
C  51.70200 18.06700 27.82000
C  51.48900 17.82400 26.48100
C  50.08900 17.34800 26.46000
C  52.97900 18.38700 28.51300
C  52.38200 18.16600 25.33800
O  51.97300 18.05000 24.15200
C  53.76600 18.82000 25.54700
N  47.29300 15.89500 26.18800
C  48.17300 16.13100 25.18600
C  47.52600 15.74500 23.84900
C  46.10600 15.26000 24.23900
C  46.22800 15.26400 25.75000
C  47.64100 16.79800 22.69400
C  45.60800 13.87400 23.75400
C  44.62900 13.77900 22.61400
N  46.15200 15.42400 28.79500
C  45.14400 14.90600 28.02600
C  43.96700 14.58100 28.86400
C  44.32900 14.99500 30.14400
C  45.59400 15.50200 30.06600
C  42.63500 14.17100 28.35100
C  43.85100 15.02000 31.43100
O  42.86500 14.48800 31.88000
C  44.96900 15.68000 32.27000
C  44.44500 16.78200 33.13000
O  44.54100 17.91100 32.76800
O  43.80100 16.32400 34.23800
C  42.92800 17.31700 34.89800
H  51.18000 18.27900 30.60400
H  50.01100 16.74200 24.44800
H  44.36600 14.39700 26.09200
H  47.22600 18.17900 32.99200
H  50.11700 17.59400 32.65800
H  48.74000 20.25100 31.94600
H  50.19100 20.03200 32.83400
H  48.68200 19.79100 33.56500
H  49.14100 16.21700 34.14600
H  47.73500 15.37200 33.52100
H  48.15400 15.97500 35.91700
H  46.49100 15.94700 35.28600
H  53.67500 17.69000 28.04500
H  52.95000 18.08100 29.55900
H  53.15200 19.45300 28.37100
H  54.16500 19.13300 24.58200
H  54.47300 18.05400 25.86700
H  53.65000 19.63700 26.25900
H  48.03200 14.82700 23.55100
H  45.51100 16.08200 23.84300
H  47.96200 16.25300 21.80600
H  48.42200 17.51500 22.94800
H  46.72700 17.38100 22.59200
H  45.18200 13.36300 24.61700
H  46.52900 13.38700 23.43200
H  45.20600 13.42100 21.76100
H  44.15100 14.74800 22.47800
H  43.92000 12.97700 22.82300
H  42.45900 13.10200 28.46700
H  42.41400 14.53800 27.34900
H  41.81300 14.68100 28.85200
H  45.31900 14.98700 33.03500
H  42.62000 18.12800 34.23800
H  43.47700 17.68200 35.76600
H  41.98300 16.82900 35.13600

