158

Mg 54.94400 23.68300 44.96700
C  52.61100 26.13600 43.85400
C  52.88400 21.28800 43.67400
C  57.45900 21.54200 45.41300
C  57.06300 26.31500 46.01500
N  53.10800 23.70600 43.68000
C  52.32400 24.83900 43.31200
C  51.14600 24.34600 42.36400
C  51.07800 22.83400 42.83100
C  52.45100 22.56800 43.44200
C  49.96700 22.47200 43.84200
C  51.37300 24.61000 40.79700
C  50.38100 25.61300 40.09800
H  49.57800 25.08400 38.94500
N  55.16200 21.60900 44.56700
C  54.12600 20.73600 44.14300
C  54.58400 19.40700 44.19000
C  55.94600 19.47900 44.58300
C  56.23300 20.93900 44.85300
C  53.72200 18.14100 43.82100
C  56.88100 18.34700 44.75400
O  56.51500 17.20300 44.41700
C  58.26900 18.43500 45.21200
N  57.14900 23.97500 45.49700
C  57.90900 22.90400 45.70000
C  59.24800 23.32500 46.23400
C  59.11600 24.86500 46.58700
C  57.70600 25.08700 45.99700
C  59.72600 22.45600 47.52500
C  60.17500 25.84200 46.01000
C  61.55100 25.88400 46.80500
N  54.82400 25.74000 45.11000
C  55.75300 26.70400 45.51100
C  55.20500 27.96000 45.47600
C  53.91200 27.80700 44.89500
C  53.79700 26.42500 44.55800
C  55.89200 29.18900 46.12800
C  52.71100 28.53000 44.46500
O  52.50500 29.72700 44.60400
C  51.83900 27.46700 43.84000
C  51.39400 27.80700 42.50900
O  52.04000 27.78700 41.47300
O  50.04700 28.18400 42.43300
C  49.62000 28.91600 41.16600
H  52.15600 20.51900 43.40500
H  58.31600 20.90400 45.64100
H  57.71200 27.15400 46.27700
H  50.23700 24.77800 42.78300
H  50.86800 22.17200 41.99100
H  49.81100 21.39900 43.73300
H  49.02100 22.93800 43.56700
H  50.19000 22.87100 44.83100
H  51.29200 23.61400 40.36200
H  52.37800 24.99300 40.62200
H  50.89900 26.54000 39.85100
H  49.62500 25.89000 40.83200
H  54.30300 17.23000 43.67600
H  53.06900 18.25300 42.95600
H  53.16400 17.97000 44.74200
H  58.97100 18.99500 44.59400
H  58.61600 17.40200 45.17000
H  58.44600 18.73000 46.24700
H  59.92200 23.16600 45.39300
H  59.05700 24.93400 47.67400
H  59.74500 23.09900 48.40400
H  60.66200 21.95300 47.27900
H  59.01500 21.63700 47.63600
H  59.88100 26.89200 46.00100
H  60.41800 25.54000 44.99100
H  61.76800 24.99500 47.39800
H  61.47800 26.72400 47.49700
H  62.40700 25.97600 46.13700
H  56.98000 29.23400 46.17900
H  55.43800 29.25000 47.11700
H  55.49100 30.06300 45.61300
H  51.02600 27.23700 44.53000
H  48.91500 29.69800 41.44800
H  49.17900 28.21700 40.45700
H  50.54600 29.25300 40.69900
Mg -10.22400 17.62200 41.15300
C  -6.84100 17.57100 41.09800
C  -10.14500 21.07700 40.64400
C  -13.57100 17.75400 40.57700
C  -10.35700 14.19600 41.03600
N  -8.63000 19.13000 40.83800
C  -7.31600 18.84200 40.84700
C  -6.57500 20.10500 40.54400
C  -7.61400 21.29000 40.91100
C  -8.86300 20.49100 40.90300
C  -7.35300 22.02200 42.20700
C  -6.06300 20.18100 39.07400
C  -4.64800 19.70900 38.85000
H  -4.34400 18.75700 37.66400
N  -11.63400 19.17200 40.64600
C  -11.37300 20.49200 40.51600
C  -12.65200 21.22800 40.29900
C  -13.65100 20.31700 40.32700
C  -12.99300 19.01200 40.51500
C  -12.73800 22.72200 40.14200
C  -15.12600 20.54900 40.18800
O  -15.43400 21.73000 40.08400
C  -16.14100 19.58200 40.29300
N  -11.75300 16.12100 40.88800
C  -13.03100 16.46600 40.75400
C  -13.92900 15.20600 40.91800
C  -12.90300 14.02500 40.87100
C  -11.61600 14.81900 40.92400
C  -14.76500 15.25600 42.16400
C  -12.96500 13.01300 39.69400
C  -12.31400 13.49300 38.38600
N  -8.87200 16.12900 41.14500
C  -9.08300 14.75000 41.10000
C  -7.78100 14.09900 41.00800
C  -6.90800 15.13900 41.12800
C  -7.56100 16.38400 41.16700
C  -7.61700 12.64900 40.88000
C  -5.49500 15.50400 41.16100
O  -4.52300 14.75400 41.16600
C  -5.37600 17.11300 41.14400
C  -4.69400 17.59000 42.37500
O  -3.54000 17.23800 42.58200
O  -5.48700 18.35300 43.16900
C  -4.80600 19.08100 44.27300
H  -10.13500 22.16600 40.56500
H  -14.64700 17.65800 40.41600
H  -10.47400 13.12100 40.88300
H  -5.74500 20.10500 41.25100
H  -7.79100 21.93200 40.04800
H  -6.28000 22.13800 42.36500
H  -7.84900 21.51100 43.03200
H  -7.87700 22.97600 42.16200
H  -6.33300 21.14900 38.65200
H  -6.67800 19.45100 38.54700
H  -4.01200 19.37000 39.66800
H  -4.16700 20.63000 38.51800
H  -13.24000 22.87000 39.18600
H  -11.79800 23.25700 40.00900
H  -13.39100 23.11600 40.92100
H  -16.06500 18.89800 39.44800
H  -17.14200 20.01400 40.30900
H  -15.93900 19.11400 41.25600
H  -14.60100 15.14600 40.06200
H  -13.08700 13.36900 41.72200
H  -14.39600 15.95200 42.91800
H  -14.83200 14.27100 42.62500
H  -15.74900 15.62200 41.86800
H  -14.01800 12.82200 39.48700
H  -12.55100 12.07900 40.07300
H  -11.41900 12.93000 38.12100
H  -12.19500 14.57600 38.41100
H  -12.96700 13.37400 37.52200
H  -8.25600 12.25700 40.08900
H  -7.89600 12.04400 41.74300
H  -6.59900 12.33100 40.65500
H  -4.85700 17.50500 40.27000
H  -5.38600 18.89600 45.17700
H  -4.88400 20.15900 44.12900
H  -3.79200 18.74500 44.48800

