158

Mg 42.96100 3.35300 47.19900
C  41.06200 6.20600 47.19000
C  40.05600 1.50900 47.08400
C  44.77200 0.55300 46.11700
C  45.85500 5.30200 46.43500
N  40.83000 3.84900 47.14300
C  40.22200 5.12100 47.21200
C  38.66900 4.96400 47.37400
C  38.44300 3.40200 47.63700
C  39.88600 2.87600 47.21200
C  37.97500 3.03400 49.05500
C  37.73900 5.58800 46.26500
C  38.16700 5.41400 44.78900
H  38.02500 6.63600 43.84300
N  42.48900 1.29000 46.76400
C  41.19800 0.76200 46.77700
C  41.25100 -0.61600 46.52600
C  42.62500 -0.98400 46.11800
C  43.36900 0.28600 46.43300
C  39.97700 -1.43200 46.62600
C  43.16400 -2.30100 45.55000
O  42.35000 -3.22600 45.37400
C  44.65700 -2.59100 45.15700
N  44.95400 3.02000 46.26300
C  45.45800 1.77500 46.11100
C  46.94500 1.78200 45.97100
C  47.32000 3.32900 45.88000
C  45.97300 3.96500 46.10700
C  47.54600 0.97200 47.15000
C  48.05600 3.71700 44.52200
C  49.58900 3.93000 44.60600
N  43.49000 5.32200 47.12400
C  44.66800 6.05000 46.85500
C  44.46900 7.44800 47.08900
C  43.04800 7.53600 47.27000
C  42.49600 6.22800 47.14400
C  45.33200 8.64700 46.80200
C  41.93800 8.51400 47.42200
O  41.98400 9.75800 47.36200
C  40.63500 7.65200 47.42300
C  39.95200 7.96300 48.74900
O  40.17000 7.41200 49.79100
O  38.83600 8.66300 48.43700
C  37.86600 8.81100 49.49600
H  39.11400 0.95700 47.07700
H  45.36300 -0.34300 45.91700
H  46.70800 5.95800 46.25100
H  38.49000 5.54800 48.27700
H  37.73100 2.97000 46.93400
H  37.13500 2.35400 48.91600
H  37.57400 3.91300 49.56100
H  38.75600 2.55100 49.64200
H  37.55100 6.65900 46.32800
H  36.78200 5.09800 46.44200
H  37.55100 4.59700 44.41300
H  39.20300 5.07600 44.77300
H  39.39800 -1.11400 45.75900
H  39.39600 -1.29700 47.53800
H  40.14500 -2.49700 46.46800
H  45.39100 -2.49600 45.95700
H  44.91200 -1.82700 44.42300
H  44.64500 -3.59000 44.72000
H  47.27400 1.10000 45.18700
H  47.99700 3.55200 46.70500
H  47.88400 0.04600 46.68500
H  46.93700 0.76200 48.02900
H  48.46000 1.47000 47.47500
H  47.68000 4.60900 44.02100
H  47.91500 2.86200 43.86000
H  49.91700 4.89900 44.22900
H  50.08600 3.25300 43.91200
H  49.88000 3.78400 45.64600
H  46.26600 8.36100 46.31900
H  45.52900 9.16400 47.74100
H  44.78400 9.25500 46.08100
H  40.07200 7.93700 46.53500
H  38.21100 9.63600 50.12000
H  37.71500 7.91600 50.09900
H  36.89200 9.08500 49.08900
Mg 26.41200 50.78100 26.96200
C  24.44900 51.93900 29.59500
C  28.89200 50.14900 29.22900
C  28.53100 50.10800 24.39600
C  23.99000 51.65200 24.66200
N  26.58100 51.00400 29.11100
C  25.62600 51.30700 30.04600
C  25.97000 50.85100 31.50000
C  27.52300 50.53200 31.31800
C  27.68000 50.54100 29.78500
C  28.55200 51.41100 31.96900
C  25.10700 49.63400 32.00400
C  23.99700 49.97600 33.05600
H  24.08500 49.45100 34.52700
N  28.40000 50.25200 26.88800
C  29.25300 49.99000 27.94000
C  30.54000 49.61300 27.42900
C  30.50500 49.82500 25.97900
C  29.10200 50.10800 25.65400
C  31.63900 49.22500 28.39200
C  31.60800 49.64100 24.91800
O  31.41000 49.72500 23.75900
C  32.98500 49.39200 25.41700
N  26.30700 50.97600 24.78700
C  27.24100 50.51300 23.96400
C  26.73900 50.21800 22.54600
C  25.26400 50.74600 22.61600
C  25.14000 51.06200 24.08800
C  27.61000 50.79900 21.42300
C  24.14700 49.78100 22.11000
C  23.01100 50.39500 21.34400
N  24.66100 51.74000 27.09700
C  23.76400 52.04000 26.03400
C  22.53200 52.62600 26.68000
C  22.85000 52.53100 28.07100
C  24.11100 52.11200 28.25100
C  21.28400 53.05600 26.08900
C  22.21900 52.88700 29.36100
O  21.10400 53.33000 29.63600
C  23.22400 52.46400 30.47000
C  23.61800 53.45200 31.46100
O  24.59600 54.11300 31.51500
O  22.59800 53.42400 32.40100
C  22.80600 54.33700 33.49800
H  29.61300 49.96400 30.02800
H  29.14100 49.81300 23.54100
H  23.13900 51.79200 23.99200
H  25.81800 51.68600 32.18400
H  27.71300 49.49900 31.60600
H  29.41700 51.61500 31.33800
H  28.99100 50.85200 32.79600
H  28.11500 52.32500 32.36900
H  25.80100 48.95400 32.49800
H  24.58000 49.30700 31.10800
H  23.00600 49.75000 32.66100
H  23.95700 51.06400 33.10100
H  31.06100 48.83400 29.22900
H  32.04400 50.14900 28.80600
H  32.45100 48.54600 28.13100
H  33.04600 48.41100 25.88700
H  33.28800 50.08900 26.19900
H  33.72800 49.44600 24.62100
H  26.72200 49.14300 22.36200
H  25.22600 51.72600 22.14000
H  28.37300 51.46600 21.82500
H  27.04400 51.34100 20.66500
H  28.16900 49.97000 20.98900
H  23.59300 49.29000 22.91000
H  24.55000 48.94600 21.53600
H  23.04300 50.14600 20.28400
H  23.08300 51.47700 21.46000
H  22.06300 50.05000 21.75600
H  21.33600 54.12100 25.86500
H  20.46000 52.89100 26.78300
H  21.06300 52.46000 25.20400
H  22.85700 51.59300 31.01200
H  23.13100 55.34700 33.24700
H  23.59800 53.97900 34.15500
H  21.83500 54.56800 33.93700

