158

Mg 41.23400 41.16300 26.88000
C  40.27200 43.58400 29.12100
C  42.06300 38.97500 29.36200
C  42.25200 38.75300 24.59100
C  40.71000 43.42900 24.26800
N  41.13700 41.28900 28.94100
C  40.61700 42.34300 29.70200
C  40.66900 41.92700 31.24500
C  41.40100 40.57100 31.30500
C  41.55600 40.25800 29.77200
C  42.65700 40.28800 32.17200
C  39.32000 42.05100 32.01300
C  39.44200 42.66900 33.38900
H  38.65200 42.11900 34.65000
N  41.96800 39.07900 26.95100
C  42.27400 38.45800 28.08900
C  42.66800 37.12000 27.73400
C  42.77600 37.00300 26.32500
C  42.29700 38.27300 25.86900
C  43.14500 36.21800 28.80000
C  43.29300 35.85200 25.48300
O  43.36800 35.91800 24.27700
C  43.75000 34.56400 26.10400
N  41.54100 41.17100 24.76900
C  41.81500 39.98900 24.09000
C  41.78700 40.29700 22.48200
C  41.21300 41.73400 22.46200
C  41.16200 42.16600 23.94600
C  43.17900 40.17700 21.88300
C  39.84900 41.82400 21.68400
C  38.60300 41.39000 22.54100
N  40.69800 43.17700 26.65200
C  40.49300 43.94800 25.54700
C  40.10800 45.30900 25.89200
C  39.97100 45.22000 27.34000
C  40.40700 43.92800 27.74800
C  39.91900 46.47300 24.94400
C  39.59400 45.91000 28.61600
O  39.14200 47.02100 28.85700
C  39.75600 44.87200 29.75500
C  40.78000 45.41200 30.59300
O  41.88200 45.92700 30.27900
O  40.19200 45.50000 31.82500
C  41.01600 46.32700 32.75700
H  42.31100 38.32900 30.20700
H  42.51600 38.13200 23.73200
H  40.23600 44.03500 23.49300
H  41.35700 42.65200 31.68000
H  40.65600 39.84400 31.62900
H  42.64200 40.93100 33.05300
H  43.61800 40.45800 31.68700
H  42.51200 39.32800 32.66700
H  38.94200 41.05100 32.22500
H  38.55600 42.48500 31.36800
H  39.12800 43.71300 33.39000
H  40.48900 42.64200 33.69200
H  43.18800 36.63400 29.80700
H  44.14200 35.85000 28.55900
H  42.41300 35.41100 28.83000
H  43.01400 33.97200 26.65000
H  44.71600 34.75600 26.57200
H  44.17100 34.01000 25.26500
H  41.17900 39.51900 22.02000
H  41.93600 42.40800 22.00100
H  43.38200 40.98900 21.18500
H  43.26700 39.23300 21.34600
H  43.92800 40.06900 22.66900
H  39.81600 41.24000 20.76400
H  39.74100 42.87700 21.42300
H  38.78000 41.19600 23.59900
H  38.20300 40.46200 22.13400
H  37.92100 42.23400 22.43400
H  38.88300 46.62400 24.64300
H  40.50900 46.34200 24.03600
H  40.37900 47.33800 25.42200
H  38.84100 44.71100 30.32500
H  42.08500 46.43700 32.57000
H  40.80200 46.08400 33.79800
H  40.67200 47.36100 32.73200
Mg 0.27100 44.04400 25.94000
C  2.47800 43.86200 28.64300
C  -2.31200 43.62700 28.24000
C  -1.82800 43.88400 23.49400
C  2.96800 44.35900 23.82100
N  0.11600 43.93000 28.18400
C  1.16300 43.80500 29.01800
C  0.58900 43.68800 30.45300
C  -0.92000 43.30300 30.32800
C  -1.06500 43.67000 28.80100
C  -1.25600 41.75900 30.64800
C  0.85300 44.99800 31.24800
C  1.38300 44.70800 32.66800
H  0.63700 43.68200 33.50600
N  -1.76500 43.85200 25.89100
C  -2.64800 43.73600 26.93200
C  -4.04500 43.69700 26.49400
C  -3.93000 43.81300 25.04700
C  -2.45600 43.87500 24.76300
C  -5.30500 43.56600 27.39000
C  -5.01400 43.91200 24.03400
O  -4.78600 43.97600 22.84700
C  -6.53600 43.98500 24.46500
N  0.63700 43.88700 23.92000
C  -0.45100 43.87200 23.11400
C  -0.02900 44.03000 21.66800
C  1.50400 44.45200 21.74800
C  1.71100 44.21700 23.21500
C  -0.24900 42.79700 20.78800
C  1.80800 45.88200 21.20500
C  2.14400 45.78800 19.67100
N  2.41000 44.01100 26.14300
C  3.35800 44.15800 25.17300
C  4.65600 44.08500 25.77400
C  4.38100 44.03100 27.14500
C  2.99600 43.90400 27.30100
C  6.02600 44.00100 25.03600
C  4.89600 43.88200 28.50500
O  6.06900 43.93200 28.91700
C  3.70500 43.88000 29.50100
C  3.83200 42.72700 30.39300
O  3.68000 41.60500 29.98600
O  4.35500 43.05900 31.65800
C  4.79300 41.94600 32.48600
H  -3.08600 43.57100 29.00900
H  -2.47900 43.89200 22.61800
H  3.66900 44.59800 23.01800
H  1.20300 42.84800 30.77600
H  -1.50100 44.07300 30.83700
H  -0.32900 41.26200 30.93200
H  -1.63300 41.39400 29.69300
H  -1.93900 41.67300 31.49400
H  -0.05200 45.58500 31.40600
H  1.61600 45.59500 30.75000
H  1.45700 45.69800 33.11600
H  2.45600 44.57200 32.53500
H  -5.79800 44.51400 27.60200
H  -4.97800 43.22000 28.37000
H  -5.97900 42.82500 26.96100
H  -6.83800 42.98300 24.77000
H  -7.00900 44.41900 23.58500
H  -6.58800 44.64700 25.33000
H  -0.62800 44.81800 21.21200
H  2.18300 43.74100 21.27700
H  0.51800 42.48400 20.08100
H  -1.07800 42.97900 20.10400
H  -0.54900 41.93900 21.39000
H  2.73400 46.28900 21.61000
H  0.96300 46.56800 21.24900
H  1.68700 46.67000 19.22100
H  1.56700 44.92200 19.34800
H  3.19800 45.70000 19.41000
H  6.77500 44.42200 25.70700
H  5.89900 44.60600 24.13800
H  6.30500 42.97500 24.79500
H  3.80400 44.77000 30.12200
H  5.86500 41.78700 32.36600
H  4.23800 41.01200 32.39800
H  4.69500 42.20400 33.54100

