158

Mg 26.04600 -0.57600 28.66500
C  27.87900 -0.78500 31.70100
C  23.23000 -0.71900 30.56000
C  24.31900 -0.46400 25.85100
C  29.07800 -1.00300 27.04800
N  25.65200 -0.85300 30.91500
C  26.52500 -0.69600 31.91700
C  25.76800 -0.36200 33.20400
C  24.27600 -0.58900 32.84400
C  24.36400 -0.76300 31.31500
C  23.47100 -1.61000 33.63600
C  26.14600 0.96900 33.93100
C  26.81000 0.76000 35.26300
H  26.44200 1.74300 36.37600
N  24.08700 -0.61800 28.22100
C  23.00700 -0.60100 29.14700
C  21.70000 -0.38800 28.46600
C  22.03000 -0.28400 27.10700
C  23.56700 -0.39200 27.00900
C  20.40300 -0.19200 29.18300
C  21.14300 0.05600 25.99600
O  21.50400 0.09200 24.82900
C  19.65900 0.41500 26.22000
N  26.63600 -0.96100 26.78500
C  25.74200 -0.70800 25.78800
C  26.38400 -0.79000 24.42800
C  27.90800 -0.71300 24.76400
C  27.89400 -0.88400 26.29200
C  25.94900 -1.97000 23.60400
C  28.74800 0.50600 24.28300
C  28.25500 1.87200 24.78500
N  28.10600 -0.94800 29.20900
C  29.16800 -1.13300 28.46800
C  30.31700 -1.20500 29.25600
C  29.88700 -1.08400 30.55400
C  28.53000 -0.93000 30.48700
C  31.68300 -1.47200 28.78900
C  30.29300 -1.08900 31.96500
O  31.37400 -1.39700 32.39300
C  28.96500 -0.78400 32.76300
C  28.76700 -1.78300 33.78200
O  28.08300 -2.83100 33.63500
O  29.42500 -1.45100 34.95100
C  29.21900 -2.47200 35.95900
H  22.28000 -0.66600 31.09600
H  23.76300 -0.41800 24.91300
H  30.03700 -1.13700 26.54300
H  26.02000 -1.12800 33.93700
H  23.72000 0.34000 32.97200
H  22.64500 -0.97300 33.95400
H  23.97400 -2.12900 34.45200
H  23.09600 -2.39700 32.98100
H  25.26400 1.60900 33.96800
H  26.86100 1.44700 33.26200
H  27.89200 0.80000 35.14400
H  26.54300 -0.25600 35.55500
H  19.91900 0.70400 28.79500
H  20.61200 -0.08100 30.24700
H  19.90000 -1.13900 28.98500
H  19.23400 0.62700 25.23900
H  19.55400 1.27600 26.88100
H  19.20200 -0.51700 26.55200
H  26.05200 0.15900 24.00800
H  28.34100 -1.57400 24.25500
H  25.09700 -1.67400 22.99200
H  25.74900 -2.84600 24.22100
H  26.75000 -2.32100 22.95400
H  28.89200 0.38100 23.21000
H  29.76100 0.32700 24.64400
H  27.93000 1.79800 25.82300
H  27.51800 2.35800 24.14500
H  29.03900 2.62900 24.81300
H  31.53900 -2.18900 27.98100
H  32.34900 -1.92700 29.52200
H  32.18100 -0.61600 28.33200
H  29.07200 0.21400 33.18800
H  29.70000 -3.37400 35.58000
H  28.15500 -2.62400 36.14100
H  29.71200 -2.19700 36.89100
Mg 40.62500 8.40600 29.33500
C  42.19100 9.65900 32.08900
C  38.27900 6.95900 31.26000
C  39.39000 6.77600 26.56700
C  43.37900 9.27300 27.36200
N  40.28300 8.31400 31.44400
C  40.93000 9.14200 32.36200
C  40.13500 9.15800 33.66200
C  38.89500 8.17900 33.43300
C  39.17500 7.75600 31.97400
C  38.58600 6.97900 34.37600
C  39.67800 10.55800 34.10000
C  38.78300 10.72200 35.31400
H  39.42800 11.39900 36.53200
N  39.00700 7.08600 28.99500
C  38.23900 6.55100 29.91200
C  37.27500 5.75700 29.27900
C  37.49700 5.79300 27.88900
C  38.76600 6.53200 27.78400
C  36.28800 4.74900 30.06400
C  36.74700 5.06200 26.78600
O  37.18800 4.79100 25.64800
C  35.32200 4.59400 27.08300
N  41.35000 7.95200 27.29300
C  40.56800 7.44200 26.33400
C  41.22900 7.49700 24.87700
C  42.37800 8.42600 25.14900
C  42.33500 8.58200 26.70300
C  41.67200 6.11800 24.34600
C  42.08700 9.92100 24.64700
C  40.66500 10.45100 24.45200
N  42.47200 9.17200 29.64500
C  43.41200 9.60100 28.76800
C  44.45200 10.37200 29.40400
C  44.01800 10.35700 30.74500
C  42.75800 9.65900 30.81600
C  45.67300 10.82500 28.67400
C  44.34100 10.83200 32.10600
O  45.35300 11.40600 32.57100
C  43.16200 10.45200 33.01900
C  43.60300 9.70300 34.26500
O  43.76200 8.45400 34.34000
O  43.76800 10.62300 35.29100
C  44.03600 10.10500 36.60300
H  37.44600 6.55200 31.83600
H  38.80200 6.39800 25.72700
H  44.19300 9.69100 26.76800
H  40.78400 8.67600 34.39400
H  38.00200 8.79500 33.32300
H  39.35500 6.98300 35.14800
H  38.59200 6.00800 33.88100
H  37.58100 7.22200 34.72200
H  39.07500 11.02200 33.31900
H  40.52200 11.19200 34.37500
H  38.39000 9.77000 35.67100
H  37.88000 11.30100 35.11900
H  35.39300 5.36100 30.17800
H  36.66500 4.54900 31.06600
H  36.16100 3.82600 29.49800
H  34.92400 4.30900 26.10900
H  34.81200 5.48400 27.45100
H  35.28300 3.63900 27.60700
H  40.57900 7.86600 24.08400
H  43.29500 7.96400 24.78400
H  42.76000 6.07500 24.40600
H  41.39700 6.02400 23.29500
H  41.38400 5.36000 25.07300
H  42.46000 9.92400 23.62300
H  42.65300 10.61400 25.27100
H  39.94800 9.79800 24.94900
H  40.35400 10.55600 23.41200
H  40.63700 11.44400 24.90100
H  46.00500 10.15700 27.87900
H  46.46400 10.75600 29.42000
H  45.57000 11.87200 28.38900
H  42.81200 11.43600 33.33200
H  43.27200 10.36500 37.33500
H  44.98400 10.43000 37.03100
H  43.95600 9.01800 36.59900

