158

Mg 7.82500 2.04200 28.08100
C  9.24000 0.79500 31.17100
C  5.75500 3.97300 30.01000
C  6.25100 2.78800 25.35000
C  9.47700 -0.52400 26.47200
N  7.53400 2.28100 30.30900
C  8.31000 1.81600 31.36400
C  8.00800 2.57200 32.73500
C  6.73000 3.36600 32.30500
C  6.63800 3.27100 30.77000
C  5.41300 2.71000 32.89100
C  9.24800 3.47800 33.14000
C  9.54500 3.60300 34.68100
H  8.58200 3.06500 35.76000
N  6.21900 3.23400 27.68200
C  5.51800 4.03000 28.57800
C  4.69200 5.02900 27.83800
C  4.80800 4.68600 26.46700
C  5.72100 3.49900 26.46300
C  3.91900 6.18600 28.60100
C  4.39900 5.40600 25.16300
O  4.65200 5.07200 23.97500
C  3.30800 6.49900 25.34500
N  7.73200 1.12400 26.18000
C  7.12600 1.67700 25.19500
C  7.25600 0.98900 23.81300
C  8.26500 -0.11800 24.31200
C  8.53100 0.16200 25.74800
C  5.92500 0.50300 23.32200
C  9.54200 -0.29000 23.33700
C  10.60100 0.80300 23.45000
N  9.09500 0.37200 28.66600
C  9.75300 -0.49200 27.86600
C  10.75600 -1.21600 28.63300
C  10.50700 -0.81200 29.94800
C  9.44100 0.12300 29.97600
C  11.74200 -2.14000 28.17400
C  11.03100 -0.98800 31.33500
O  11.85200 -1.84500 31.76600
C  10.22900 0.07700 32.17400
C  9.53100 -0.66600 33.29700
O  8.59800 -1.46600 33.15700
O  10.00700 -0.28500 34.55700
C  9.30600 -1.04400 35.65100
H  5.20700 4.66600 30.65300
H  5.72400 3.05700 24.43200
H  10.08300 -1.31100 26.01800
H  7.88800 1.84200 33.53600
H  6.94700 4.39200 32.60100
H  4.79700 3.43400 33.42400
H  5.70000 1.94700 33.61400
H  4.73600 2.17800 32.22200
H  9.08700 4.48400 32.75300
H  10.03400 3.05700 32.51300
H  9.65200 4.67000 34.87700
H  10.56100 3.20800 34.67600
H  2.85600 5.95600 28.66800
H  4.01000 7.09500 28.00500
H  4.40100 6.42000 29.55000
H  2.66700 6.67800 24.48200
H  3.89900 7.36600 25.63800
H  2.75100 6.41800 26.27900
H  7.73000 1.63400 23.07400
H  7.81800 -1.10900 24.22500
H  5.08000 0.48800 24.01000
H  5.87100 -0.51200 22.92700
H  5.66700 1.19800 22.52300
H  9.22500 -0.43800 22.30500
H  9.88100 -1.26000 23.70200
H  10.35000 1.54600 24.20800
H  10.93000 1.34000 22.56000
H  11.49600 0.43300 23.95000
H  12.57000 -2.09200 28.88100
H  11.94800 -1.87400 27.13700
H  11.33800 -3.15200 28.13900
H  10.86700 0.72800 32.77200
H  9.96400 -1.85900 35.95400
H  8.25200 -1.32100 35.61100
H  9.12500 -0.37800 36.49400
Mg -11.89900 17.33100 39.63400
C  -8.57000 15.89200 39.60700
C  -10.42100 20.44400 39.13700
C  -14.85500 18.56400 38.74900
C  -13.04300 14.06800 39.45900
N  -9.69600 18.04100 39.41100
C  -8.54400 17.33900 39.49700
C  -7.35100 18.26200 39.49200
C  -8.00600 19.65700 39.67600
C  -9.52700 19.39100 39.46800
C  -7.76300 20.38700 41.03700
C  -6.60700 18.08700 38.08900
C  -5.17400 17.57200 38.18400
H  -4.92000 16.28900 37.50500
N  -12.68800 19.23200 39.19000
C  -11.85800 20.39300 39.00400
C  -12.68000 21.55100 38.80600
C  -14.01600 21.03100 38.53000
C  -13.90800 19.57800 38.78700
C  -12.14700 22.94600 38.87000
C  -15.28200 21.73900 38.07100
O  -15.25000 22.98900 37.98700
C  -16.58600 21.07200 37.86100
N  -13.70900 16.41100 39.10300
C  -14.80100 17.16400 38.92800
C  -16.06400 16.33500 39.20000
C  -15.47900 14.83700 39.10700
C  -13.99600 15.08400 39.24900
C  -16.72000 16.64100 40.56700
C  -15.70300 14.03400 37.79400
C  -17.12000 13.46700 37.63300
N  -11.07000 15.38600 39.59500
C  -11.67100 14.15300 39.61400
C  -10.77400 13.12300 39.90900
C  -9.52200 13.71700 39.89200
C  -9.78600 15.12600 39.66300
C  -11.16600 11.63100 40.10300
C  -8.10000 13.50400 39.95000
O  -7.37500 12.52000 40.20300
C  -7.47300 14.87200 39.73100
C  -6.68000 15.20100 40.91100
O  -7.15400 15.82200 41.87100
O  -5.38600 14.81400 40.75000
C  -4.45000 15.16900 41.83600
H  -9.90500 21.40500 39.06800
H  -15.88800 18.91900 38.76000
H  -13.45800 13.06300 39.55800
H  -6.66600 17.99200 40.29600
H  -7.62400 20.27500 38.86300
H  -7.74500 19.60200 41.79200
H  -8.54100 21.11700 41.26100
H  -6.81400 20.92300 41.01500
H  -6.45400 19.05200 37.60600
H  -7.27000 17.52500 37.43200
H  -4.98400 17.43300 39.24800
H  -4.49000 18.38300 37.93400
H  -11.93100 23.25500 37.84700
H  -11.31700 22.93600 39.57700
H  -12.97800 23.50500 39.30100
H  -16.38800 20.29600 37.12200
H  -17.36000 21.70400 37.42600
H  -16.96600 20.67500 38.80200
H  -16.75700 16.55800 38.38800
H  -15.93200 14.27100 39.92100
H  -15.91300 16.70500 41.29800
H  -17.39600 15.80400 40.74200
H  -17.18100 17.62200 40.68300
H  -14.81900 13.43200 37.58500
H  -15.71700 14.72700 36.95200
H  -17.60000 13.35300 38.60500
H  -16.82900 12.48800 37.25300
H  -17.75000 14.05400 36.96400
H  -10.61600 11.12600 39.30800
H  -12.23100 11.57500 39.87700
H  -11.02700 11.16000 41.07600
H  -6.77200 15.03700 38.91200
H  -3.44300 14.92000 41.49900
H  -4.73600 14.72800 42.79100
H  -4.43200 16.25700 41.89600

