158

Mg 30.03600 58.04200 40.58000
C  27.10300 56.04100 39.75000
C  31.88100 55.51600 39.50900
C  32.51800 60.12600 40.43000
C  27.85100 60.52200 41.49600
N  29.47400 55.97800 39.66500
C  28.29900 55.40900 39.33100
C  28.50400 54.26700 38.32500
C  29.97000 53.95800 38.59400
C  30.51200 55.22500 39.30400
C  30.32700 52.64500 39.39300
C  28.18000 54.76500 36.88500
C  27.64300 53.65900 35.96400
H  27.96200 53.62400 34.45800
N  32.00100 57.81700 40.08400
C  32.63200 56.70900 39.74600
C  34.01400 56.89400 39.67200
C  34.18200 58.25400 39.90600
C  32.87200 58.80000 40.18300
C  34.98500 55.83100 39.36700
C  35.57900 58.96200 39.94100
O  36.64600 58.32700 39.82900
C  35.75800 60.44400 40.11400
N  30.11600 60.02100 40.84300
C  31.27400 60.68800 40.69500
C  31.11700 62.21200 40.78500
C  29.71700 62.22500 41.54200
C  29.20100 60.84000 41.34900
C  32.17900 62.86000 41.73800
C  28.73400 63.41100 41.21500
C  28.19400 64.21100 42.37400
N  27.81800 58.31900 40.63800
C  27.16600 59.39600 41.12400
C  25.73600 59.05400 41.05200
C  25.67000 57.75800 40.44700
C  26.99800 57.33300 40.29500
C  24.62800 59.91300 41.40300
C  24.73300 56.69100 40.03600
O  23.49200 56.66100 40.10900
C  25.66100 55.56700 39.53000
C  25.32600 54.35700 40.29500
O  25.95100 53.88200 41.24800
O  24.19500 53.75200 39.69900
C  23.77600 52.41300 40.12600
H  32.48100 54.76300 38.99300
H  33.29700 60.89100 40.45100
H  27.23500 61.37500 41.78800
H  27.85400 53.45100 38.64100
H  30.41800 53.78800 37.61500
H  29.45800 52.20000 39.87800
H  31.14500 52.84300 40.08400
H  30.70400 51.91700 38.67400
H  29.10100 55.11200 36.41700
H  27.27100 55.36700 36.85000
H  26.56300 53.80200 35.98400
H  27.73500 52.66500 36.40300
H  35.96500 56.21100 39.07900
H  34.54600 55.05800 38.73600
H  35.07100 55.32100 40.32600
H  35.24200 60.98900 39.32300
H  36.81400 60.66300 39.96100
H  35.46700 60.72000 41.12800
H  30.97800 62.74000 39.84100
H  29.87900 62.25000 42.62000
H  31.66200 63.56100 42.39400
H  32.86100 63.41700 41.09500
H  32.70500 62.23500 42.45900
H  27.90700 63.06800 40.59300
H  29.35900 64.07900 40.62200
H  28.68300 63.84300 43.27600
H  27.11500 64.21400 42.53200
H  28.56200 65.23500 42.31800
H  23.93100 60.19600 40.61300
H  25.06200 60.84200 41.77200
H  24.06500 59.42600 42.19900
H  25.35300 55.44000 38.49200
H  22.88500 52.59200 40.72800
H  24.53000 51.81400 40.63800
H  23.47300 51.75700 39.31000
Mg 0.62900 43.10100 24.95000
C  2.60300 42.77900 27.91200
C  -1.97800 41.99300 26.61900
C  -0.89900 42.91400 21.98100
C  3.67300 43.85200 23.25700
N  0.35300 42.65100 27.04100
C  1.23500 42.72000 28.11500
C  0.47200 42.60300 29.43400
C  -0.94800 42.14700 28.96600
C  -0.89200 42.25300 27.45900
C  -1.35600 40.73500 29.55200
C  0.57500 43.90400 30.33200
C  0.95500 43.54700 31.82600
H  0.58000 42.18000 32.40100
N  -1.27200 42.44300 24.38200
C  -2.21800 42.06800 25.21500
C  -3.40400 41.80700 24.42800
C  -3.12200 42.22400 23.09200
C  -1.70700 42.55600 23.09800
C  -4.61000 41.12100 24.97900
C  -4.00500 42.31400 21.86200
O  -3.64800 42.76800 20.79400
C  -5.46800 41.84000 22.00100
N  1.30200 43.31500 22.97900
C  0.44500 43.23100 21.95100
C  1.05600 43.79100 20.60600
C  2.47300 44.16000 21.08800
C  2.48600 43.76600 22.52200
C  0.96000 42.70800 19.48900
C  2.88900 45.66500 20.82600
C  4.37200 45.94100 20.47200
N  2.77400 43.23900 25.48500
C  3.85400 43.49700 24.64600
C  5.08300 43.43200 25.43200
C  4.63400 43.06800 26.74800
C  3.22000 42.98700 26.68800
C  6.47300 43.76000 25.05000
C  5.07200 42.79600 28.08600
O  6.24500 42.75200 28.53200
C  3.72600 42.76400 28.89000
C  3.87200 41.50700 29.68500
O  3.60900 40.36400 29.28300
O  4.23800 41.85800 30.95400
C  4.41700 40.68500 31.83600
H  -2.87100 41.69300 27.17200
H  -1.28000 43.00000 20.96100
H  4.57400 43.94000 22.64600
H  1.01200 41.80000 29.93500
H  -1.60800 42.90600 29.38600
H  -2.03100 40.96300 30.37700
H  -0.42600 40.30500 29.92300
H  -1.86300 40.10400 28.82200
H  -0.31300 44.53100 30.25600
H  1.44900 44.43500 29.95400
H  0.61500 44.29900 32.53800
H  2.03900 43.45700 31.89400
H  -5.55600 41.66000 25.01100
H  -4.47900 40.93600 26.04600
H  -4.72400 40.14800 24.50200
H  -5.43200 40.75000 22.02500
H  -6.02200 42.18700 21.12900
H  -5.93400 42.24600 22.89900
H  0.63100 44.75400 20.32300
H  3.22500 43.51400 20.63500
H  1.90000 42.18500 19.31200
H  0.78800 43.22200 18.54300
H  0.22800 41.93100 19.70600
H  2.72400 46.10600 21.80900
H  2.24800 46.08800 20.05100
H  4.83300 46.46900 21.30700
H  4.50300 46.53200 19.56500
H  4.88200 44.98600 20.34100
H  6.52200 44.27700 24.09200
H  7.12300 42.88600 25.07300
H  6.80700 44.43000 25.84300
H  3.64200 43.59600 29.58900
H  3.65200 39.90900 31.83700
H  4.42400 41.07800 32.85300
H  5.32600 40.09700 31.71000

