158

Mg 35.66700 0.62500 29.68500
C  33.35700 1.86700 32.17400
C  38.14000 0.72600 32.06000
C  37.94500 -0.01600 27.30400
C  33.22300 1.36000 27.27200
N  35.69300 1.29900 31.82900
C  34.62800 1.53100 32.69900
C  35.12800 1.68200 34.10400
C  36.70400 1.46400 34.02200
C  36.87600 1.15900 32.57500
C  37.60400 2.57000 34.56000
C  34.33000 0.89000 35.23700
C  34.02000 1.65000 36.46700
H  35.15500 2.52200 36.93500
N  37.71700 0.50700 29.65800
C  38.58400 0.42300 30.75900
C  39.91900 -0.03600 30.38700
C  39.90100 -0.27200 28.99100
C  38.49500 0.03900 28.56500
C  41.02500 -0.16400 31.46200
C  41.08900 -0.66000 27.99400
O  40.86800 -0.70200 26.77200
C  42.46200 -0.75700 28.59500
N  35.59600 0.69900 27.60400
C  36.70300 0.39900 26.82200
C  36.36700 0.61700 25.30900
C  34.82700 0.97000 25.39400
C  34.49400 0.95500 26.85200
C  37.31200 1.56700 24.50700
C  33.82300 0.31600 24.42100
C  33.25200 -1.03700 24.88900
N  33.75500 1.33900 29.65700
C  32.81600 1.55300 28.57700
C  31.53000 1.93500 29.08200
C  31.69500 2.06700 30.47300
C  33.00700 1.76300 30.77600
C  30.35000 2.31400 28.19600
C  31.06300 2.40000 31.71900
O  29.90800 2.71800 31.97800
C  32.03100 2.21600 32.95000
C  32.14700 3.42200 33.79200
O  33.03100 4.21400 33.64800
O  31.27500 3.42800 34.91100
C  31.51500 4.73800 35.67900
H  38.74400 0.51200 32.94400
H  38.68900 -0.31000 26.56100
H  32.37300 1.58700 26.62500
H  35.00000 2.73800 34.34100
H  36.86300 0.54800 34.59300
H  37.25700 3.26200 35.32800
H  38.25700 3.06800 33.84300
H  38.18600 1.88700 35.17900
H  34.94000 0.05300 35.57500
H  33.41600 0.52100 34.77100
H  33.74800 1.00200 37.30000
H  33.18700 2.31800 36.24700
H  41.67600 0.69500 31.62300
H  41.67700 -1.00400 31.22100
H  40.58000 -0.37300 32.43500
H  42.44400 -1.66500 29.19800
H  42.76000 0.13500 29.14600
H  43.17200 -0.88800 27.77800
H  36.55600 -0.34800 24.83900
H  34.82700 1.99900 25.03600
H  38.08400 1.83400 25.22900
H  36.80700 2.41700 24.04800
H  37.80500 1.04300 23.68800
H  34.30200 0.13300 23.45900
H  33.01800 1.03100 24.24900
H  33.54800 -1.67400 24.05600
H  32.17600 -1.00900 25.06300
H  33.76100 -1.30800 25.81400
H  30.65900 2.65700 27.20800
H  29.79800 3.00700 28.83100
H  29.75600 1.43800 27.93700
H  31.60400 1.34000 33.43700
H  31.33000 5.63300 35.08500
H  32.56100 4.64300 35.97000
H  30.89300 4.67200 36.57200
Mg 46.49100 34.85200 27.53700
C  44.65700 33.01300 30.03500
C  46.74700 37.30300 29.91000
C  47.51000 36.69200 25.18000
C  45.46100 32.26300 25.29500
N  45.71400 35.19600 29.67500
C  45.15100 34.23300 30.51300
C  45.25900 34.63600 32.04000
C  45.47300 36.13900 31.84900
C  46.15800 36.21100 30.45000
C  44.20400 37.02700 31.92100
C  46.50000 33.89300 32.64000
C  46.72600 34.02900 34.19300
H  45.79900 34.99700 34.92100
N  47.13400 36.68400 27.57300
C  47.23200 37.56700 28.61200
C  47.70300 38.86600 28.15900
C  48.00400 38.74400 26.75600
C  47.45300 37.37300 26.40900
C  47.98700 40.10200 29.04900
C  48.62600 39.71400 25.80800
O  48.83200 39.41100 24.58900
C  49.00600 41.12500 26.28600
N  46.52900 34.44600 25.54500
C  47.04900 35.44900 24.75300
C  46.97000 35.04800 23.26300
C  46.21100 33.67300 23.24800
C  45.96900 33.45100 24.76000
C  46.30800 36.14800 22.33000
C  46.76300 32.50000 22.41300
C  45.88000 32.11000 21.21000
N  45.42000 32.98500 27.64800
C  45.23900 32.04200 26.66300
C  44.64200 30.93900 27.21900
C  44.39000 31.23100 28.54200
C  44.85000 32.51200 28.70900
C  44.30300 29.67800 26.45200
C  43.80500 30.65500 29.74300
O  43.30400 29.52500 29.93300
C  43.78700 31.83600 30.69300
C  44.00000 31.42000 32.12100
O  45.04600 30.87100 32.45900
O  43.01300 31.86300 32.94000
C  43.24100 31.71200 34.34300
H  46.93200 38.13700 30.59000
H  47.84700 37.23900 24.29700
H  45.25700 31.47000 24.57300
H  44.35200 34.37700 32.58600
H  46.18300 36.40300 32.63300
H  43.31200 36.46800 31.63900
H  44.33000 37.86800 31.23900
H  44.06600 37.60900 32.83200
H  47.42600 34.23700 32.17900
H  46.42400 32.82000 32.46300
H  47.74100 34.34100 34.43800
H  46.70800 33.00800 34.57600
H  47.53800 40.00300 30.03700
H  47.63600 41.03200 28.60200
H  49.01500 40.18600 29.39900
H  49.70800 41.02800 27.11400
H  48.09300 41.61600 26.62300
H  49.45800 41.67700 25.46200
H  47.96300 34.93900 22.82700
H  45.23300 33.86300 22.80600
H  46.08100 36.93600 23.04800
H  45.40000 35.86600 21.79700
H  47.07200 36.54500 21.66200
H  46.94100 31.61900 23.02900
H  47.73100 32.78000 21.99700
H  46.41800 32.61400 20.40800
H  44.85500 32.43100 21.39700
H  45.85800 31.03100 21.05100
H  45.26900 29.17300 26.44100
H  43.90800 29.84900 25.45000
H  43.60000 29.03000 26.97600
H  42.73900 32.10000 30.83300
H  43.97300 30.97400 34.66900
H  42.30300 31.39700 34.80000
H  43.42500 32.69400 34.77900

