158

Mg 45.28200 2.95500 47.04100
C  43.03700 5.72300 46.56500
C  42.57200 0.83100 46.94900
C  47.43200 0.39800 46.86400
C  47.97700 5.22600 46.59400
N  43.07700 3.30300 46.70400
C  42.39200 4.51600 46.66300
C  40.90200 4.22700 46.91000
C  40.78800 2.75700 47.28800
C  42.25200 2.24500 46.96600
C  40.25400 2.41800 48.66400
C  40.06000 4.58700 45.71600
C  40.58500 4.22200 44.27500
H  40.74800 5.48900 43.34900
N  45.03100 0.85400 46.82700
C  43.86500 0.20500 46.87900
C  44.09100 -1.22500 46.79400
C  45.52500 -1.38800 46.85000
C  46.07700 -0.02600 46.82300
C  43.05900 -2.25900 46.77400
C  46.30700 -2.67900 46.65300
O  45.63900 -3.76100 46.68500
C  47.82600 -2.78900 46.41700
N  47.35400 2.83300 46.64000
C  47.97900 1.66200 46.86600
C  49.48500 1.83700 47.00100
C  49.71500 3.37200 46.74200
C  48.29900 3.85800 46.60200
C  50.05000 1.31300 48.32300
C  50.51700 3.81900 45.43900
C  51.87400 3.01600 45.29800
N  45.56000 5.10500 46.86200
C  46.71100 5.88600 46.64700
C  46.38400 7.24400 46.65700
C  44.95800 7.23300 46.61400
C  44.51400 5.95500 46.75000
C  47.33100 8.36100 46.50300
C  43.78800 8.11500 46.71100
O  43.76300 9.33900 46.94900
C  42.51700 7.17600 46.60900
C  41.63100 7.47000 47.76000
O  41.70500 6.95900 48.89800
O  40.82200 8.50200 47.43700
C  39.80400 8.95600 48.42700
H  41.67700 0.20700 46.98300
H  48.18600 -0.39100 46.89100
H  48.88200 5.83100 46.68400
H  40.60300 4.82500 47.77100
H  40.16000 2.25000 46.55500
H  40.05100 3.29300 49.28000
H  41.06600 1.83900 49.10400
H  39.34700 1.81600 48.60300
H  40.06200 5.67200 45.81100
H  39.02900 4.23700 45.76700
H  39.92300 3.49700 43.80200
H  41.55100 3.76400 44.48700
H  43.38000 -3.06300 46.11200
H  42.04500 -1.90900 46.58300
H  43.05100 -2.67400 47.78200
H  48.14400 -2.12400 45.61500
H  48.04000 -3.82800 46.16800
H  48.39400 -2.59500 47.32700
H  50.05300 1.32700 46.22300
H  50.16300 3.87200 47.60000
H  49.26900 0.90700 48.96700
H  50.59200 2.10100 48.84500
H  50.67700 0.43900 48.14800
H  50.69200 4.85300 45.73900
H  49.85900 3.65800 44.58600
H  52.62700 3.74000 44.98700
H  51.82800 2.27500 44.50000
H  52.13400 2.62300 46.28100
H  48.05000 7.94100 45.79900
H  47.88400 8.55400 47.42200
H  46.86100 9.31300 46.25700
H  41.95400 7.48300 45.72800
H  39.68700 8.40200 49.35900
H  38.83400 8.87000 47.93700
H  39.84700 10.02800 48.61800
Mg 30.12100 58.42500 40.56000
C  27.26400 56.46500 39.97200
C  31.91600 55.54300 39.97100
C  32.82700 60.34800 40.40300
C  28.04000 61.27100 40.69300
N  29.49600 56.24100 40.04200
C  28.36400 55.68300 39.82000
C  28.53700 54.17600 39.39000
C  29.99300 53.86100 39.84400
C  30.52000 55.28700 39.94000
C  30.12600 52.97200 41.10300
C  28.27200 54.06200 37.82500
C  26.96800 53.51300 37.38600
H  26.14100 54.33100 36.38900
N  32.10000 57.98200 40.40200
C  32.66500 56.73200 40.22900
C  34.12900 56.90200 40.29900
C  34.39100 58.28500 40.62100
C  33.05700 58.97800 40.54300
C  35.13500 55.87200 39.91100
C  35.73900 58.84700 40.99800
O  36.75700 58.15500 40.97800
C  35.89200 60.32000 41.41600
N  30.38800 60.54300 40.47000
C  31.63700 61.10500 40.42400
C  31.62100 62.65500 40.48900
C  30.06200 62.95300 40.59800
C  29.43000 61.52400 40.68300
C  32.59600 63.28200 41.55600
C  29.47400 63.78500 39.46500
C  28.98400 65.16900 39.83300
N  28.04100 58.85500 40.48700
C  27.33400 60.04500 40.48600
C  25.91900 59.68100 40.35300
C  25.86400 58.31600 40.24800
C  27.18600 57.85200 40.22800
C  24.67400 60.60300 40.36800
C  24.91700 57.23100 40.09700
O  23.72700 57.31100 40.08900
C  25.86200 55.94700 39.89100
C  25.51500 54.99000 40.98700
O  25.31300 55.32500 42.15000
O  25.32100 53.72400 40.48200
C  24.92600 52.86200 41.56200
H  32.61400 54.70600 39.91000
H  33.72600 60.96700 40.39400
H  27.47800 62.18600 40.89200
H  27.78100 53.61800 39.94300
H  30.51800 53.24600 39.11300
H  30.45200 51.94900 40.91600
H  29.12600 52.92400 41.53600
H  30.71900 53.46000 41.87600
H  29.12800 53.47100 37.49800
H  28.32400 55.00900 37.28700
H  26.34300 53.38600 38.27000
H  27.28000 52.57100 36.93500
H  35.92900 56.34900 39.33800
H  34.62300 55.11000 39.32300
H  35.61600 55.44700 40.79300
H  36.86900 60.39100 41.89300
H  35.08800 60.68500 42.05600
H  35.96900 60.94300 40.52500
H  31.99800 62.91000 39.49900
H  29.93500 63.25900 41.63700
H  33.38200 63.87700 41.09000
H  33.15600 62.54800 42.13700
H  32.11300 63.91900 42.29700
H  28.55500 63.31700 39.11000
H  30.19900 63.82600 38.65200
H  29.02800 65.82100 38.95900
H  29.51700 65.63000 40.66400
H  27.95800 65.19800 40.20000
H  24.90600 61.33900 41.13800
H  23.80300 59.99800 40.62000
H  24.45900 61.13300 39.44000
H  25.53800 55.46900 38.96700
H  23.93800 53.16400 41.91000
H  25.59400 53.03300 42.40600
H  24.95100 51.79700 41.33100

