158

Mg 41.34700 40.56000 26.54700
C  40.98000 42.99600 29.02400
C  42.30800 38.30100 28.90500
C  42.28100 38.39000 24.14100
C  40.64900 43.00500 24.22600
N  41.65700 40.68600 28.66700
C  41.31000 41.72000 29.56000
C  41.40200 41.33300 31.06600
C  42.29400 39.99900 30.92500
C  42.10700 39.60300 29.39200
C  43.76700 40.22400 31.42900
C  40.03400 41.04300 31.62800
C  39.62600 41.84600 32.90300
H  39.06300 41.03700 34.06700
N  42.09000 38.50400 26.56700
C  42.36500 37.72900 27.62600
C  42.78400 36.38000 27.24000
C  42.87000 36.41100 25.85100
C  42.41600 37.81000 25.42700
C  43.17200 35.33800 28.24200
C  43.26700 35.31400 24.80900
O  43.38600 35.54800 23.62300
C  43.40100 33.91900 25.35200
N  41.63300 40.71900 24.43700
C  41.88800 39.66100 23.64900
C  41.68600 39.95500 22.17100
C  40.85300 41.35700 22.16800
C  41.08100 41.77100 23.67500
C  43.05900 40.00200 21.36200
C  39.36900 41.29300 21.74400
C  38.50200 40.07400 22.18000
N  40.88000 42.61300 26.56400
C  40.66100 43.49400 25.53600
C  40.36400 44.82900 25.99900
C  40.47100 44.70700 27.39000
C  40.80200 43.31100 27.65500
C  40.15700 46.04700 25.14700
C  40.29500 45.35000 28.65100
O  40.04200 46.47000 28.89300
C  40.64400 44.31800 29.74400
C  41.66500 44.92700 30.63200
O  42.82200 45.21800 30.34700
O  41.09700 45.17800 31.78500
C  41.88300 45.64900 32.87100
H  42.43000 37.56400 29.70100
H  42.55000 37.77400 23.28000
H  40.20500 43.67600 23.48700
H  41.86000 42.17400 31.58600
H  41.85600 39.15000 31.45100
H  44.52500 39.66700 30.87700
H  43.75100 39.85600 32.45500
H  44.11400 41.24600 31.58100
H  39.79700 39.99700 31.82300
H  39.30500 41.13800 30.82300
H  38.92600 42.62400 32.59800
H  40.38800 42.49900 33.32800
H  44.15900 34.97900 27.94800
H  42.53800 34.46300 28.09800
H  43.09800 35.65300 29.28300
H  42.39500 33.59700 25.62000
H  44.09000 34.00000 26.19300
H  43.70900 33.26600 24.53600
H  41.04900 39.19200 21.72600
H  41.26800 42.10700 21.49400
H  43.86700 39.95900 22.09200
H  43.13600 40.86400 20.69900
H  43.08100 39.12400 20.71600
H  39.27500 41.39600 20.66300
H  38.82000 42.11400 22.20400
H  37.62000 40.38500 22.73900
H  39.21300 39.46300 22.73600
H  38.12600 39.48700 21.34100
H  39.37900 45.74100 24.44700
H  41.03300 46.29900 24.54900
H  39.96300 47.00500 25.62900
H  39.73000 44.11200 30.30000
H  42.95500 45.47200 32.78100
H  41.50700 45.37700 33.85800
H  41.66600 46.71700 32.88200
Mg 8.92100 48.36000 25.59500
C  6.37200 48.75900 28.10600
C  11.14300 49.36000 28.04900
C  11.07900 48.14500 23.31500
C  6.19400 48.08800 23.37900
N  8.77800 48.84700 27.84700
C  7.66800 48.96400 28.65000
C  8.04700 49.11500 30.15000
C  9.53000 49.66600 30.04500
C  9.85800 49.26500 28.54000
C  9.63800 51.13800 30.41700
C  7.83100 47.84400 31.07200
C  7.60800 48.07500 32.63200
H  8.54300 47.49000 33.74400
N  10.90300 48.57700 25.72200
C  11.66600 49.06300 26.70400
C  13.04000 49.14700 26.20400
C  13.07100 48.70200 24.87400
C  11.69200 48.40500 24.58000
C  14.27700 49.72300 27.04900
C  14.15100 48.66700 23.83600
O  13.95100 48.39700 22.59300
C  15.59100 48.99000 24.30000
N  8.66900 48.32700 23.62600
C  9.74500 48.07100 22.89200
C  9.49300 47.57500 21.43900
C  7.89000 47.55700 21.44900
C  7.49400 47.98200 22.91300
C  10.16100 48.39000 20.31200
C  7.11500 46.32500 20.86100
C  6.25300 46.58800 19.60500
N  6.69300 48.27600 25.61700
C  5.77400 48.13200 24.68900
C  4.44100 47.91700 25.26600
C  4.59200 48.31200 26.56000
C  5.97000 48.42100 26.76600
C  3.17800 47.78000 24.47300
C  3.88600 48.70800 27.68600
O  2.67200 48.90100 27.89700
C  5.03300 49.10300 28.78300
C  4.71600 48.71600 30.11700
O  4.66200 47.57900 30.57000
O  4.54400 49.86500 30.86900
C  3.93100 49.81600 32.20600
H  11.88000 49.74200 28.75900
H  11.67200 47.78800 22.47100
H  5.44800 47.80000 22.63500
H  7.26800 49.76700 30.54600
H  10.10500 49.07600 30.75900
H  8.74800 51.48600 30.94200
H  9.84500 51.69900 29.50500
H  10.51000 51.23600 31.06300
H  8.71300 47.20300 31.08300
H  7.03400 47.28100 30.58700
H  6.58900 47.74400 32.83200
H  7.69500 49.15600 32.74400
H  14.47200 50.75400 26.75500
H  15.20100 49.16600 26.89400
H  14.04100 49.66600 28.11200
H  15.91300 48.15300 24.91900
H  15.73900 49.92700 24.83700
H  16.30600 48.98200 23.47700
H  9.59000 46.49000 21.43500
H  7.66300 48.42800 20.83500
H  10.24100 47.94800 19.31900
H  11.20000 48.62300 20.54800
H  9.63300 49.34300 20.26000
H  6.47300 45.76500 21.54100
H  7.86900 45.54800 20.73300
H  6.21700 47.66000 19.40900
H  5.26400 46.13900 19.70000
H  6.77100 46.06400 18.80200
H  2.46300 48.57700 24.67400
H  2.81500 46.78100 24.71300
H  3.36000 47.84400 23.40000
H  4.97700 50.19100 28.78400
H  3.07200 50.48600 32.21200
H  4.65600 50.24100 32.90000
H  3.54800 48.83300 32.47700

