158

Mg 46.97300 16.79400 28.47000
C  45.27200 16.84200 31.44200
C  49.45600 18.67500 30.21700
C  48.72000 17.40500 25.63700
C  44.47200 15.30500 26.79200
N  47.25500 17.63400 30.60800
C  46.51300 17.42000 31.68800
C  47.09500 17.94700 32.97600
C  48.16500 18.97300 32.45900
C  48.28300 18.46500 30.95500
C  47.79200 20.38300 32.61000
C  47.70000 16.78800 33.87900
C  47.32000 16.70400 35.34600
H  46.97400 18.07900 36.02400
N  48.88000 17.75100 28.00000
C  49.68000 18.51000 28.83600
C  50.80100 18.94800 28.09600
C  50.65300 18.52800 26.71900
C  49.42600 17.86100 26.72900
C  51.95200 19.84000 28.66400
C  51.52600 18.86500 25.52900
O  51.35600 18.36400 24.45900
C  52.63800 19.74100 25.72100
N  46.69400 16.27900 26.48500
C  47.49300 16.68800 25.49800
C  46.94100 16.27600 24.12700
C  45.61100 15.56900 24.48700
C  45.59800 15.56300 25.99500
C  46.66800 17.51600 23.17300
C  45.44400 14.11300 23.96500
C  44.47200 13.84100 22.78900
N  45.29600 16.14100 28.94600
C  44.33300 15.47300 28.16600
C  43.23400 15.18300 28.97900
C  43.51100 15.70900 30.26700
C  44.81200 16.20000 30.21600
C  42.05700 14.39300 28.57700
C  43.03700 15.84300 31.59900
O  41.98500 15.41700 32.07300
C  44.19700 16.53100 32.43000
C  43.64000 17.74000 33.17400
O  43.57300 18.91400 32.77800
O  43.03300 17.26500 34.32200
C  42.23100 18.25500 35.01900
H  50.26700 19.16700 30.75700
H  49.15600 17.63600 24.66300
H  43.60100 14.97600 26.22100
H  46.31800 18.43500 33.56500
H  49.16300 18.83800 32.87500
H  48.62000 20.88000 33.11500
H  46.84500 20.42600 33.14800
H  47.78700 21.00900 31.71800
H  48.78200 16.76800 33.74900
H  47.35700 15.87700 33.38900
H  48.30300 16.45300 35.74300
H  46.61100 15.91500 35.59800
H  51.89400 20.82000 28.19100
H  52.91300 19.32500 28.65100
H  51.70600 19.94500 29.72100
H  52.30500 20.77800 25.76800
H  53.17600 19.62200 24.78100
H  53.28700 19.42200 26.53700
H  47.70000 15.64600 23.66300
H  44.67400 16.03400 24.18000
H  45.63800 17.55200 22.81800
H  47.35000 17.42900 22.32700
H  46.81100 18.52600 23.55700
H  45.08200 13.40400 24.71000
H  46.43700 13.74400 23.70800
H  45.04400 13.38800 21.98000
H  43.83300 14.68400 22.52600
H  43.76800 13.09600 23.15900
H  41.61000 14.79800 27.66900
H  41.26900 14.23800 29.31400
H  42.44500 13.45600 28.17900
H  44.65600 15.82300 33.12000
H  41.82000 17.67300 35.84400
H  41.35900 18.48400 34.40700
H  42.75200 19.16700 35.31200
Mg 6.72800 53.93100 41.81500
C  6.46500 50.44200 41.49600
C  9.81000 53.73600 40.32100
C  6.72100 57.19600 41.75300
C  3.53400 53.87800 43.22500
N  7.82100 52.32000 40.73100
C  7.61500 50.98300 40.78000
C  8.62600 50.14900 40.05100
C  9.81400 51.17200 40.09400
C  9.16200 52.51800 40.31700
C  10.94100 50.81400 41.06300
C  8.26900 49.68700 38.63300
C  7.24400 50.48600 37.85200
H  6.89800 50.16800 36.40300
N  8.14500 55.28900 41.20500
C  9.36800 55.07100 40.63700
C  10.05900 56.33400 40.47800
C  9.19500 57.33900 40.96900
C  8.01900 56.66200 41.43300
C  11.41100 56.44800 39.94900
C  9.55900 58.77500 40.95600
O  10.46900 59.19000 40.26800
C  8.77900 59.69200 41.88000
N  5.12800 55.36300 42.13400
C  5.50900 56.72900 42.19000
C  4.47000 57.54200 42.91100
C  3.39000 56.42300 43.37600
C  4.06400 55.15100 42.90500
C  5.01400 58.54300 43.92000
C  1.95200 56.47300 42.82300
C  0.78100 56.60100 43.82500
N  5.20000 52.47800 42.27400
C  4.03700 52.62600 42.90000
C  3.53500 51.32700 43.29900
C  4.44500 50.44100 42.78000
C  5.41100 51.15600 42.09900
C  2.23800 51.01800 43.98100
C  4.77300 48.99900 42.55800
O  4.25000 47.96000 42.90900
C  6.01300 48.97000 41.59800
C  5.52400 48.25000 40.38400
O  4.85100 48.65600 39.43300
O  5.74600 46.89300 40.53200
C  5.29400 46.10400 39.39500
H  10.85300 53.67900 40.00500
H  6.56600 58.27600 41.79800
H  2.59000 53.81100 43.76900
H  9.00300 49.28000 40.59000
H  10.34100 51.26200 39.14500
H  11.87300 50.80100 40.49800
H  10.91000 49.79500 41.44800
H  10.92100 51.63600 41.77800
H  7.86300 48.68100 38.73200
H  9.19100 49.72000 38.05200
H  7.48400 51.54300 37.97300
H  6.29500 50.29200 38.35100
H  11.39900 56.66600 38.88200
H  11.93300 55.52500 40.20000
H  11.90900 57.18100 40.58400
H  8.42800 59.31000 42.83900
H  7.91000 60.07900 41.34700
H  9.49300 60.48600 42.09800
H  3.97500 58.13900 42.14600
H  3.36800 56.48300 44.46400
H  4.88800 59.56800 43.57200
H  6.07300 58.42400 44.15200
H  4.40900 58.56300 44.82700
H  1.80700 55.55500 42.25300
H  1.87300 57.34400 42.17300
H  0.29700 57.57600 43.76900
H  1.00000 56.44800 44.88200
H  -0.00800 55.89800 43.55800
H  1.47700 51.54200 43.40200
H  2.19300 51.18400 45.05800
H  2.02700 49.95100 43.91600
H  6.79400 48.40400 42.10700
H  5.82100 46.49600 38.52500
H  4.22300 46.26900 39.27200
H  5.49300 45.04200 39.53600

