158

Mg 0.32700 43.33500 26.48900
C  2.62800 42.73100 29.24900
C  -2.17600 41.94100 28.47900
C  -1.65300 43.53400 23.93600
C  3.12800 43.74400 24.50400
N  0.23400 42.52400 28.52300
C  1.24100 42.54900 29.48000
C  0.62200 42.44500 30.90800
C  -0.79600 41.86100 30.53900
C  -0.92700 42.09400 29.04600
C  -1.18600 40.41900 30.95400
C  0.70200 43.78700 31.72000
C  1.17800 43.69300 33.15500
H  0.64100 42.53600 34.06400
N  -1.75900 42.94300 26.21800
C  -2.64800 42.30400 27.15700
C  -3.95900 42.25900 26.54500
C  -3.82400 42.79500 25.24100
C  -2.36900 43.08900 25.05100
C  -5.23000 41.77800 27.27200
C  -4.87600 42.90600 24.19800
O  -4.57700 43.15400 22.99900
C  -6.29500 42.79600 24.61300
N  0.72600 43.52500 24.45900
C  -0.33000 43.82300 23.66600
C  0.14500 44.29100 22.29300
C  1.65600 44.39300 22.41700
C  1.90000 43.87500 23.88800
C  -0.32500 43.38400 21.08100
C  2.15400 45.84800 22.22900
C  2.20900 46.83400 23.41800
N  2.40900 43.29900 26.73100
C  3.41900 43.45300 25.84100
C  4.72000 43.30000 26.52200
C  4.43700 43.08900 27.88200
C  3.03300 42.98800 27.92600
C  6.05900 43.17200 25.74100
C  5.07300 42.84100 29.16800
O  6.29200 42.92000 29.48200
C  3.87600 42.76800 30.16200
C  4.01100 41.51300 30.98400
O  4.42900 40.46200 30.57800
O  3.74900 41.77600 32.30600
C  3.96700 40.64700 33.18400
H  -3.01100 41.61600 29.10400
H  -2.29800 43.68400 23.06800
H  4.02600 43.97000 23.92500
H  1.15800 41.60400 31.34900
H  -1.57500 42.50400 30.94900
H  -2.10000 40.50200 31.54200
H  -0.53300 40.04000 31.73900
H  -1.20000 39.65700 30.17400
H  -0.25100 44.31600 31.74200
H  1.45500 44.39300 31.21500
H  0.93800 44.64600 33.62500
H  2.26400 43.61100 33.10700
H  -4.83100 41.22800 28.12400
H  -5.65700 40.90000 26.78700
H  -5.86100 42.60300 27.60400
H  -6.55100 41.76400 24.85400
H  -6.90500 43.19300 23.80200
H  -6.52700 43.48700 25.42300
H  -0.27800 45.26700 22.05600
H  2.16400 43.81600 21.64400
H  -0.85300 42.46500 21.33400
H  0.48800 43.08200 20.42100
H  -1.01500 44.01700 20.52400
H  1.59700 46.31100 21.41500
H  3.17100 45.69100 21.87000
H  3.19900 46.85200 23.87200
H  1.39700 46.57800 24.09900
H  2.04800 47.84500 23.04500
H  6.85500 42.70700 26.32200
H  6.40500 44.15800 25.43200
H  5.94600 42.50600 24.88600
H  3.80300 43.66400 30.77900
H  3.78000 40.92100 34.22300
H  4.97000 40.22100 33.15900
H  3.32400 39.79700 32.95500
Mg -1.90200 34.59500 27.09300
C  -3.61600 32.69300 29.53400
C  -0.59200 36.55600 29.61000
C  -0.56900 36.52700 24.72000
C  -3.79100 32.98100 24.65100
N  -2.19000 34.66100 29.31500
C  -2.78600 33.71800 30.06100
C  -2.43600 33.94800 31.54300
C  -1.54400 35.21200 31.51800
C  -1.45600 35.55700 30.02300
C  -2.07800 36.44700 32.28000
C  -1.86000 32.74500 32.35400
C  -2.78800 32.14100 33.45200
H  -2.10100 32.01600 34.91100
N  -0.72500 36.22200 27.10500
C  -0.28200 36.85800 28.23300
C  0.65200 37.87000 27.78800
C  0.75200 37.88700 26.38900
C  -0.19700 36.81000 26.01100
C  1.28900 38.81300 28.73800
C  1.64600 38.74500 25.40000
O  1.54200 38.71600 24.18900
C  2.64000 39.72300 25.89100
N  -2.13800 34.73600 24.97100
C  -1.41700 35.59600 24.17700
C  -1.59500 35.23500 22.74200
C  -2.52300 34.04900 22.77900
C  -2.82300 33.83300 24.26500
C  -2.19200 36.49300 22.02700
C  -1.83100 32.79200 22.14600
C  -0.63400 32.17500 22.84600
N  -3.36300 33.06000 27.02700
C  -4.01000 32.47500 25.99500
C  -4.83100 31.39600 26.50600
C  -4.66300 31.40700 27.85400
C  -3.79300 32.49300 28.18200
C  -5.77400 30.49200 25.73200
C  -5.17300 30.80900 29.16300
O  -6.07500 30.01100 29.42100
C  -4.44900 31.62700 30.29500
C  -5.47200 32.33200 31.15800
O  -5.93100 33.42100 30.95000
O  -5.85500 31.55800 32.30300
C  -6.32100 32.37600 33.39300
H  0.05800 37.04400 30.34000
H  -0.06000 37.16300 23.99300
H  -4.39700 32.47400 23.89700
H  -3.34600 34.25100 32.06000
H  -0.50500 35.02800 31.79200
H  -2.94300 36.25500 32.91600
H  -2.25800 37.30000 31.62600
H  -1.28400 36.79700 32.93900
H  -0.90600 32.94400 32.84200
H  -1.55900 32.01100 31.60600
H  -3.10000 31.12600 33.20700
H  -3.53600 32.93000 33.53300
H  0.76900 38.91600 29.69100
H  1.35700 39.79800 28.27600
H  2.31800 38.57600 29.00800
H  3.06400 39.07600 26.65900
H  2.14800 40.62000 26.27000
H  3.37600 40.01000 25.14100
H  -0.63300 34.83500 22.42100
H  -3.45800 34.23400 22.25200
H  -3.17700 36.75200 22.41500
H  -2.41400 36.34600 20.97000
H  -1.59900 37.40500 22.08900
H  -1.59500 33.02300 21.10700
H  -2.65200 32.07600 22.11300
H  -0.48600 32.57800 23.84800
H  0.20500 32.28200 22.15700
H  -0.84300 31.11800 23.01300
H  -5.19900 29.88500 25.03300
H  -6.54500 31.12500 25.29200
H  -6.29900 29.82100 26.41100
H  -3.82100 31.01400 30.94200
H  -5.55900 32.65800 34.12000
H  -6.96800 31.67900 33.92600
H  -6.95000 33.21500 33.09200

