158

Mg 43.43700 3.31900 47.16800
C  41.49200 6.46900 47.00700
C  40.42400 1.67800 46.93800
C  45.17700 0.56400 46.55800
C  46.19000 5.45700 46.37200
N  41.19900 4.04400 46.70800
C  40.68000 5.31600 46.91700
C  39.17000 5.25300 47.19200
C  38.97900 3.70000 47.43500
C  40.26900 3.07200 46.92300
C  38.54300 3.25000 48.85800
C  38.41800 5.93200 46.03900
C  38.79700 5.47700 44.65200
H  39.71400 6.36300 43.71500
N  42.91200 1.35200 46.99900
C  41.63600 0.85700 46.89200
C  41.72500 -0.61400 46.77900
C  43.05400 -0.98200 46.76900
C  43.80600 0.31300 46.73600
C  40.44200 -1.47600 46.64100
C  43.56200 -2.43000 46.71700
O  42.86400 -3.40200 46.88200
C  45.04200 -2.71300 46.66000
N  45.46600 3.05400 46.52900
C  45.95500 1.76400 46.45500
C  47.48800 1.80900 46.24600
C  47.72400 3.38200 46.01900
C  46.33800 4.04400 46.26600
C  48.27500 1.10700 47.41100
C  48.21500 3.61800 44.56300
C  49.67600 3.77300 44.15400
N  43.84600 5.46600 46.99700
C  45.05800 6.15200 46.66900
C  44.79500 7.50800 46.67800
C  43.48300 7.65800 46.86200
C  42.92700 6.44000 46.95100
C  45.91800 8.52200 46.37800
C  42.42000 8.75300 47.11500
O  42.38100 9.96300 47.23000
C  41.16800 7.92300 47.06400
C  40.36800 8.16600 48.31700
O  40.56800 7.64700 49.46100
O  39.49300 9.15400 48.08900
C  38.58500 9.65800 49.16800
H  39.39500 1.32100 47.02100
H  45.76300 -0.35500 46.49700
H  47.05200 5.92100 45.88800
H  39.00400 5.79400 48.12300
H  38.18100 3.39800 46.75700
H  37.62900 2.68300 48.68400
H  38.34700 4.12300 49.48000
H  39.32000 2.61600 49.28400
H  38.63000 6.99900 46.11400
H  37.35800 5.69100 46.12100
H  37.82900 5.38700 44.16000
H  39.25200 4.48900 44.71900
H  40.27800 -2.22700 47.41400
H  40.55700 -2.12800 45.77500
H  39.55600 -0.86000 46.48900
H  45.52600 -2.08400 47.40700
H  45.42100 -2.43100 45.67800
H  45.19200 -3.75300 46.94800
H  47.75800 1.21400 45.37400
H  48.41500 3.74200 46.78100
H  48.93500 1.78900 47.94700
H  48.69200 0.12300 47.19500
H  47.59200 0.93200 48.24200
H  47.78700 4.51800 44.11900
H  47.77000 2.79900 43.99800
H  50.15500 3.49200 45.09200
H  50.05000 4.76800 43.91500
H  49.92700 3.13900 43.30400
H  46.57500 8.79900 47.20200
H  45.45300 9.44900 46.04400
H  46.55600 8.17100 45.56700
H  40.57900 8.31200 46.23300
H  38.22700 8.93300 49.89800
H  37.69300 9.95300 48.61600
H  39.01800 10.55800 49.60600
Mg 16.94700 51.54600 26.25500
C  18.77700 50.41100 28.87100
C  14.42700 52.52400 28.56900
C  15.02300 52.66500 23.62600
C  19.12200 50.22300 23.95600
N  16.63900 51.41500 28.50400
C  17.56400 50.97900 29.35000
C  17.27400 51.25400 30.84800
C  15.70800 51.67900 30.68500
C  15.52200 51.88900 29.16000
C  14.71700 50.63700 31.26900
C  18.17800 52.35500 31.54100
C  18.68900 52.06400 32.92200
H  17.75000 51.46900 33.98600
N  15.00900 52.46100 26.16600
C  14.13900 52.77300 27.18100
C  13.01100 53.50200 26.62900
C  13.23400 53.58000 25.23500
C  14.42400 52.83600 24.96800
C  11.94200 54.17300 27.47000
C  12.35800 54.30900 24.17800
O  12.70800 54.50200 23.01200
C  11.16400 55.10700 24.76300
N  17.02100 51.50200 24.08700
C  16.22500 52.11300 23.25700
C  16.59800 51.90300 21.82700
C  18.06700 51.39500 21.97800
C  18.07400 50.96700 23.39500
C  15.73100 51.01100 20.97700
C  19.13600 52.51700 21.81300
C  20.34800 52.06500 20.95700
N  18.53800 50.58800 26.32200
C  19.38600 50.04900 25.32500
C  20.47100 49.36400 25.95400
C  20.19700 49.52900 27.29000
C  19.06900 50.26600 27.47800
C  21.54400 48.70900 25.21600
C  20.76500 49.09500 28.53500
O  21.71600 48.36200 28.84300
C  19.96700 49.95700 29.63300
C  19.71400 48.94000 30.69600
O  18.79700 48.13900 30.68900
O  20.68200 48.94200 31.66800
C  20.53300 48.09100 32.83600
H  13.74900 52.93800 29.31800
H  14.58700 53.25300 22.81600
H  19.83700 49.76000 23.27200
H  17.33500 50.28000 31.33300
H  15.54300 52.64300 31.16600
H  14.18700 51.17300 32.05700
H  15.27800 49.84300 31.76300
H  14.04400 50.17400 30.54700
H  17.59100 53.27300 31.58500
H  19.12100 52.41600 30.99900
H  18.97800 53.08400 33.17400
H  19.67100 51.59400 32.87100
H  10.91800 53.91500 27.19900
H  12.17300 55.23800 27.45900
H  11.99200 53.94500 28.53500
H  11.31400 55.75400 25.62800
H  10.39900 54.34800 24.92300
H  10.75600 55.81800 24.04500
H  16.46200 52.86400 21.33100
H  18.33700 50.56900 21.32000
H  14.78100 50.71700 21.42500
H  16.29600 50.18000 20.55500
H  15.43100 51.71600 20.20200
H  19.61800 52.81900 22.74300
H  18.64000 53.38400 21.37600
H  20.72000 52.80300 20.24700
H  20.07500 51.26100 20.27300
H  21.28700 51.79000 21.43900
H  21.17200 48.24500 24.30300
H  22.11300 47.98100 25.79400
H  22.16600 49.58600 25.03900
H  20.56100 50.78200 30.02500
H  20.16000 48.81900 33.55800
H  21.56100 47.90600 33.14800
H  19.73200 47.35400 32.77400

