158

Mg 25.57800 1.26200 30.06700
C  27.54200 0.85400 32.82000
C  22.86500 1.31600 32.04800
C  23.62600 0.76200 27.18700
C  28.38400 0.58700 27.97100
N  25.26100 0.99600 32.16800
C  26.21400 1.07800 33.10700
C  25.64600 1.50500 34.60500
C  24.13600 1.31100 34.28600
C  24.03800 1.17900 32.75200
C  23.54100 0.00700 34.98900
C  26.08400 2.96800 34.99400
C  27.07800 3.04900 36.11100
H  26.49500 3.61900 37.40000
N  23.51200 1.21900 29.65700
C  22.57200 1.26400 30.64200
C  21.28400 1.16600 29.98500
C  21.49200 0.89700 28.59700
C  22.94300 0.92600 28.40800
C  19.98600 1.33300 30.73700
C  20.48700 0.75200 27.46000
O  20.66300 0.59600 26.27800
C  19.08500 0.78700 27.73400
N  25.92500 0.74200 27.95300
C  24.97100 0.73500 27.03400
C  25.58100 0.98300 25.56500
C  27.10100 0.85200 25.78500
C  27.15800 0.73200 27.32700
C  25.09800 0.07000 24.42100
C  27.94200 2.09700 25.34500
C  29.23500 1.81400 24.65900
N  27.58400 0.87900 30.27300
C  28.55400 0.63900 29.41800
C  29.73700 0.21800 30.14600
C  29.44000 0.35300 31.52500
C  28.08300 0.67200 31.53000
C  30.99900 -0.23000 29.55500
C  29.88200 0.27700 32.82400
O  31.00600 -0.00900 33.20300
C  28.74300 0.74600 33.78700
C  28.58100 -0.32200 34.77400
O  28.05500 -1.44300 34.63400
O  29.17600 0.03700 35.93000
C  28.89400 -0.67500 37.15800
H  21.95100 1.33500 32.64500
H  23.12900 0.69100 26.21700
H  29.22300 0.45100 27.28500
H  25.93600 0.71200 35.29300
H  23.53400 2.11300 34.71100
H  24.03400 -0.14900 35.94800
H  23.60700 -0.84300 34.30900
H  22.46300 0.14900 35.06900
H  25.13900 3.44800 35.24900
H  26.44400 3.59200 34.17600
H  27.75900 3.85200 35.82900
H  27.54000 2.06900 36.23100
H  19.51200 0.36800 30.91600
H  19.36100 2.11000 30.29600
H  20.22300 1.69400 31.73800
H  18.55000 0.85800 26.78700
H  18.84900 1.68100 28.31200
H  18.77200 -0.15900 28.17500
H  25.34700 2.03300 25.39200
H  27.39200 -0.10300 25.34900
H  24.85400 -0.93300 24.77100
H  25.87400 -0.14500 23.68600
H  24.19500 0.61900 24.15500
H  28.11100 2.75900 26.19500
H  27.37100 2.64300 24.59400
H  29.38400 0.73600 24.60500
H  30.02500 2.41100 25.11500
H  29.23500 2.26700 23.66700
H  31.79700 -0.00900 30.26400
H  31.35200 0.27400 28.65500
H  30.78400 -1.27100 29.31200
H  29.10700 1.67800 34.22000
H  28.35000 -1.61800 37.10900
H  28.34500 -0.01900 37.83300
H  29.83500 -0.79000 37.69600
Mg 53.52500 24.27400 43.99600
C  50.72200 26.68400 43.48300
C  51.17600 21.80800 43.20100
C  56.05000 22.29700 43.54100
C  55.52100 27.05800 44.12400
N  51.23800 24.34500 43.32400
C  50.32500 25.32900 43.27100
C  48.95000 24.71500 42.91500
C  49.04500 23.25300 43.28500
C  50.62800 23.08300 43.34500
C  48.31800 22.66500 44.51500
C  48.50400 25.18700 41.49100
C  49.23800 24.47900 40.30100
H  50.05500 25.30200 39.36200
N  53.59000 22.30800 43.52500
C  52.56400 21.48600 43.13000
C  53.13300 20.18900 42.76400
C  54.49700 20.21300 43.13900
C  54.77100 21.63500 43.42300
C  52.37000 19.01000 42.11100
C  55.39300 19.01600 43.38100
O  54.91400 17.88900 43.10500
C  56.80300 19.05200 43.89200
N  55.46900 24.57000 43.90300
C  56.35300 23.59000 43.71700
C  57.80000 24.17300 43.81400
C  57.55900 25.68400 43.85100
C  56.07200 25.76500 43.90900
C  58.66500 23.51800 44.96900
C  58.15900 26.57600 42.68000
C  58.77200 27.97900 43.11900
N  53.25700 26.41300 43.98300
C  54.21200 27.41000 44.03000
C  53.60500 28.72700 44.07600
C  52.26700 28.51300 43.88400
C  52.11500 27.07400 43.78600
C  54.37200 29.96800 44.38300
C  51.01200 29.11400 43.88800
O  50.69100 30.23700 44.22600
C  50.01700 28.12100 43.43700
C  49.68400 28.53300 42.02300
O  50.41200 28.35500 41.09700
O  48.39300 28.98400 41.86400
C  47.96300 29.51900 40.59200
H  50.46400 21.00100 43.01700
H  56.99600 21.79300 43.33500
H  56.13600 27.91900 44.39600
H  48.21300 25.12400 43.60600
H  48.67300 22.60400 42.49200
H  47.75300 23.46700 44.98900
H  48.96400 22.23300 45.28000
H  47.60600 21.87600 44.27300
H  48.57200 26.24400 41.23700
H  47.45700 24.89100 41.41900
H  48.48500 24.03100 39.65300
H  49.84500 23.61700 40.57900
H  52.68500 18.78800 41.09100
H  51.35100 19.37900 41.99000
H  52.30300 18.07000 42.65800
H  57.51100 19.13400 43.06800
H  56.98800 18.06900 44.32700
H  56.89000 19.85600 44.62300
H  58.30700 23.76900 42.93700
H  57.90000 26.19100 44.75400
H  58.26800 22.57300 45.34100
H  59.03200 24.25300 45.68500
H  59.51800 23.14900 44.39900
H  57.35800 26.70700 41.95200
H  58.94600 25.93000 42.29000
H  58.25300 28.72300 42.51400
H  59.85500 28.06800 43.03200
H  58.49000 28.13400 44.16100
H  53.61100 30.69600 44.66400
H  55.04100 30.22700 43.56200
H  55.04900 29.79400 45.21900
H  49.15700 28.15600 44.10700
H  46.89100 29.65900 40.72900
H  48.16900 28.84600 39.75900
H  48.43200 30.47500 40.35800

