158

Mg 8.62300 3.09000 27.60300
C  9.97100 1.70400 30.43100
C  6.63900 5.20600 29.52500
C  7.10300 4.25400 24.77600
C  10.16400 0.64800 25.60100
N  8.35100 3.47600 29.73300
C  9.06900 2.77400 30.70800
C  8.62000 3.32000 32.11400
C  7.41700 4.28000 31.83500
C  7.51900 4.37900 30.26700
C  6.02900 3.72000 32.26900
C  9.70900 3.97900 32.94700
C  9.39100 4.04200 34.43100
H  10.60800 4.22000 35.30900
N  7.16100 4.55800 27.23500
C  6.49700 5.32200 28.15900
C  5.73000 6.29200 27.41100
C  5.81800 6.04000 26.02500
C  6.73200 4.85100 25.96300
C  4.95300 7.37600 28.02900
C  4.96600 6.68500 24.83200
O  5.12600 6.40600 23.62100
C  3.99600 7.88300 25.15000
N  8.52200 2.38700 25.48600
C  8.00000 3.16300 24.51700
C  8.32800 2.70000 23.10900
C  9.27600 1.48100 23.37500
C  9.38800 1.50900 24.90400
C  7.01900 2.44900 22.32000
C  10.67400 1.51300 22.70200
C  11.06400 0.36500 21.76200
N  9.79500 1.48200 27.90200
C  10.33000 0.59900 26.99600
C  11.19800 -0.33600 27.73700
C  11.08300 0.08800 29.09800
C  10.21500 1.17900 29.08400
C  11.89900 -1.48800 27.08800
C  11.52300 -0.15700 30.42900
O  12.32300 -0.99200 30.86400
C  10.87400 0.94100 31.38700
C  10.01500 0.38100 32.45300
O  8.96500 -0.20100 32.29900
O  10.52700 0.72000 33.66400
C  9.97700 0.19600 34.87900
H  6.07100 5.93800 30.10100
H  6.72600 4.70900 23.85700
H  10.61400 -0.09200 24.93600
H  8.24200 2.50800 32.73500
H  7.65800 5.26300 32.24100
H  6.06200 2.70100 32.65400
H  5.26300 3.68500 31.49400
H  5.58300 4.42300 32.97300
H  9.90700 5.00000 32.61800
H  10.63700 3.45400 32.72100
H  8.87500 3.14400 34.77200
H  8.84000 4.95800 34.64400
H  5.14600 7.43800 29.10000
H  3.87300 7.29100 27.90600
H  5.27200 8.33800 27.62700
H  4.66400 8.68200 25.47300
H  3.40800 7.61200 26.02600
H  3.48600 8.05500 24.20300
H  8.89700 3.42800 22.53100
H  8.72100 0.58400 23.10000
H  6.11900 2.69600 22.88400
H  6.86800 1.38100 22.16300
H  6.94800 2.96000 21.36000
H  11.40900 1.58100 23.50400
H  10.74600 2.41300 22.09100
H  10.50800 -0.49600 22.13400
H  12.12700 0.15300 21.87000
H  10.94800 0.53000 20.69100
H  11.94400 -1.44300 26.00000
H  11.32400 -2.39500 27.27500
H  12.88900 -1.48600 27.54300
H  11.57100 1.66600 31.81000
H  9.01700 0.69000 35.02900
H  10.65400 0.11800 35.73000
H  9.74900 -0.85100 34.67900
Mg 26.67000 50.45600 27.04300
C  24.52900 51.22600 29.73400
C  28.95600 49.57800 29.34300
C  28.73000 49.89200 24.53900
C  24.20000 51.68900 24.87800
N  26.67300 50.30700 29.35300
C  25.67200 50.62900 30.19400
C  26.05000 50.17800 31.62600
C  27.51100 49.76400 31.48500
C  27.77300 49.96900 29.99100
C  28.64200 50.48500 32.27900
C  25.03200 49.19500 32.34400
C  24.17200 49.74100 33.44400
H  24.36300 49.19300 34.85300
N  28.59900 49.94300 26.95200
C  29.35600 49.53000 28.00800
C  30.67800 49.06500 27.50700
C  30.67300 49.33800 26.10600
C  29.33200 49.79900 25.79400
C  31.66100 48.43700 28.39300
C  31.80700 48.97300 25.20200
O  31.69600 49.05300 23.94100
C  33.01300 48.40800 25.68500
N  26.39700 50.62400 25.05700
C  27.41600 50.22400 24.14800
C  26.84200 50.25900 22.69600
C  25.41000 50.81300 22.86000
C  25.30700 51.06700 24.32800
C  27.59000 50.95400 21.57100
C  24.26600 49.89900 22.26300
C  23.84100 50.47300 20.88000
N  24.79300 51.40600 27.25900
C  23.92000 51.90800 26.26400
C  22.68000 52.24900 26.85900
C  22.89500 52.06100 28.26000
C  24.18900 51.57500 28.41200
C  21.45500 52.61700 26.15800
C  22.24900 52.18500 29.51800
O  21.11700 52.60800 29.84100
C  23.32100 51.65500 30.55500
C  23.66900 52.79900 31.43400
O  24.30800 53.78200 31.07100
O  23.08500 52.68300 32.59900
C  23.26000 53.77300 33.60200
H  29.63500 49.34300 30.16500
H  29.33200 49.65600 23.65900
H  23.43900 52.03400 24.17600
H  26.10700 51.17800 32.05700
H  27.52900 48.68600 31.64700
H  29.25600 49.68400 32.69100
H  28.22000 51.12700 33.05100
H  29.23700 51.11500 31.61700
H  25.67100 48.40500 32.74000
H  24.39700 48.81700 31.54300
H  23.11100 49.57100 33.26100
H  24.40400 50.80600 33.46300
H  32.49900 49.11300 28.56300
H  32.03800 47.48000 28.03000
H  31.25600 48.04700 29.32700
H  33.74300 48.39600 24.87600
H  32.71900 47.43200 26.07000
H  33.31600 49.11700 26.45700
H  26.90400 49.17700 22.57800
H  25.36500 51.79700 22.39400
H  28.56000 51.40000 21.79300
H  26.95900 51.64800 21.01500
H  27.72600 50.05900 20.96400
H  23.47700 49.89200 23.01600
H  24.55500 48.86200 22.09400
H  24.23400 51.48300 20.76200
H  22.75300 50.53500 20.85000
H  24.18400 49.78200 20.11000
H  21.46500 52.20900 25.14700
H  21.36200 53.69700 26.05200
H  20.69900 52.17800 26.81000
H  22.83900 50.80600 31.03900
H  23.97300 54.55900 33.35300
H  23.72000 53.09500 34.32100
H  22.38300 54.34300 33.91000

