158

Mg 48.68200 35.47600 27.81800
C  46.72800 33.59900 30.12900
C  48.82500 37.96500 30.15900
C  50.55000 37.21100 25.63500
C  48.06200 33.01500 25.40200
N  47.72200 35.72900 29.78100
C  47.21400 34.79000 30.62100
C  47.42200 35.19000 32.08100
C  47.72100 36.75200 32.04100
C  48.10900 36.86100 30.52300
C  46.55900 37.62200 32.49500
C  48.63600 34.48900 32.73400
C  48.56000 34.22200 34.23100
H  47.55100 35.08800 35.11400
N  49.70600 37.36500 27.90100
C  49.55000 38.25300 28.95700
C  50.46100 39.43300 28.56600
C  50.93100 39.20600 27.20800
C  50.38600 37.95300 26.83800
C  50.64700 40.60900 29.54900
C  51.80800 40.10000 26.35600
O  52.15500 39.76400 25.21200
C  52.41800 41.38300 26.98000
N  49.06200 35.28100 25.81000
C  49.95500 36.10300 25.14400
C  50.57900 35.44300 23.96400
C  49.69700 34.14900 23.81100
C  48.92200 34.08700 25.10100
C  50.60100 36.43300 22.76600
C  50.62100 32.93100 23.61400
C  50.10500 31.80300 22.71800
N  47.54100 33.73900 27.65900
C  47.41500 32.79100 26.60400
C  46.62600 31.63300 27.07800
C  46.27600 31.96700 28.39800
C  46.88900 33.17300 28.73900
C  46.34700 30.43200 26.33200
C  45.49000 31.52200 29.53300
O  44.74500 30.54200 29.65200
C  45.72800 32.59200 30.65400
C  46.26200 31.99600 31.91900
O  47.32700 31.36800 31.99400
O  45.34400 32.34500 32.97800
C  45.61800 31.67800 34.23900
H  48.94000 38.69100 30.96600
H  51.28900 37.67400 24.97900
H  47.98900 32.26400 24.61200
H  46.48300 35.03800 32.61300
H  48.58600 36.95600 32.67100
H  46.82400 38.11900 33.42900
H  45.60600 37.09900 32.57500
H  46.32200 38.43800 31.81200
H  49.55800 34.88800 32.31200
H  48.57900 33.50600 32.26700
H  49.58000 34.47200 34.52200
H  48.46400 33.16000 34.45700
H  50.36800 41.56200 29.10100
H  51.65700 40.60300 29.96100
H  49.97000 40.60200 30.40300
H  53.05000 41.16700 27.84200
H  51.64300 42.11800 27.19500
H  53.08500 41.88800 26.28100
H  51.61600 35.13100 24.08800
H  48.96500 34.25500 23.01000
H  49.81000 37.17300 22.88200
H  50.39400 35.85800 21.86300
H  51.56200 36.93600 22.65500
H  50.69400 32.49800 24.61200
H  51.62000 33.26500 23.33400
H  50.66800 30.89500 22.93100
H  50.30300 32.25000 21.74300
H  49.05200 31.59100 22.90100
H  47.25300 29.83500 26.23100
H  45.95200 30.69800 25.35200
H  45.52500 29.96500 26.87600
H  44.74300 33.02800 30.82400
H  44.64900 31.22800 34.45800
H  45.91700 32.32600 35.06300
H  46.36400 30.89000 34.14200
Mg 26.40700 50.19900 26.40100
C  24.23200 51.39200 29.00600
C  28.62200 49.13900 28.64000
C  28.36700 49.37100 23.83300
C  24.08700 51.58400 24.02800
N  26.35100 50.21700 28.52800
C  25.39400 50.68800 29.42100
C  25.75800 50.23500 30.86700
C  27.30700 49.89900 30.77700
C  27.41700 49.64200 29.19100
C  28.22500 51.19000 30.96100
C  24.81000 49.14900 31.36500
C  24.53600 49.01400 32.90600
H  25.57900 49.49200 33.93200
N  28.38500 49.36800 26.25900
C  29.06800 48.93300 27.31000
C  30.36500 48.54500 26.83800
C  30.31300 48.65900 25.44600
C  28.98900 49.12200 25.12100
C  31.38500 47.92700 27.75200
C  31.42500 48.48000 24.37600
O  31.36900 48.86300 23.21400
C  32.74500 47.98000 24.81200
N  26.30600 50.68300 24.18300
C  27.17600 50.01200 23.45200
C  26.63700 49.86900 21.97500
C  25.32500 50.61900 22.07400
C  25.18600 50.88500 23.52700
C  27.68700 50.38200 20.88000
C  24.21600 49.81100 21.35800
C  23.16400 50.72500 20.67100
N  24.61700 51.28800 26.45400
C  23.79600 51.81200 25.44600
C  22.60800 52.41300 26.11200
C  22.71600 52.25700 27.50900
C  23.91100 51.48200 27.60100
C  21.49900 53.10300 25.41900
C  22.18300 52.62800 28.73800
O  21.24900 53.28700 29.06100
C  23.06100 51.92300 29.82500
C  23.46100 52.90800 30.82300
O  24.30100 53.77400 30.62100
O  22.78300 52.70900 31.98400
C  23.23500 53.61200 33.11300
H  29.29800 48.64600 29.34200
H  28.94600 48.97800 22.99500
H  23.26100 51.88200 23.37900
H  25.72300 51.16800 31.43000
H  27.47600 48.96700 31.31800
H  28.97900 51.10400 31.74300
H  27.65800 52.03600 31.35100
H  28.54100 51.59000 29.99800
H  25.23300 48.19800 31.04000
H  23.85200 49.27500 30.86000
H  24.40500 47.94400 33.07000
H  23.69300 49.67700 33.09700
H  31.49400 46.90900 27.37800
H  31.08400 47.73300 28.78100
H  32.37100 48.39200 27.74600
H  32.67000 46.94200 25.13800
H  33.16100 48.64500 25.56900
H  33.38800 47.86600 23.93900
H  26.34700 48.83000 21.82100
H  25.43500 51.65400 21.75100
H  28.25100 51.08200 21.49600
H  27.16600 50.83700 20.03700
H  28.39800 49.64700 20.50300
H  23.73400 49.28200 22.18000
H  24.45700 49.01600 20.65300
H  22.20900 50.64500 21.19000
H  22.95700 50.37300 19.66000
H  23.38100 51.79300 20.64800
H  20.52900 52.91300 25.87800
H  21.46500 52.75800 24.38600
H  21.69400 54.16300 25.58200
H  22.57200 51.08300 30.31800
H  23.40100 54.66100 32.86600
H  24.22100 53.24900 33.40400
H  22.48800 53.64900 33.90600

