158

Mg 49.83500 45.59000 41.30400
C  46.64400 46.16400 40.07500
C  49.55600 42.28100 40.23700
C  53.18800 45.21200 41.73000
C  50.21400 49.03700 41.76100
N  48.31200 44.39700 40.13800
C  47.02100 44.84500 39.88400
C  46.23500 43.75300 39.11900
C  47.16900 42.42100 39.29100
C  48.40200 43.02500 40.03800
C  46.60400 41.19500 40.02700
C  46.09200 44.28500 37.67500
C  44.74800 44.25800 37.08000
H  44.52300 44.27400 35.56000
N  51.15400 43.95900 41.16600
C  50.80500 42.66000 40.78900
C  51.90200 41.74600 41.03700
C  53.02300 42.57500 41.49200
C  52.52400 44.01200 41.46000
C  51.79800 40.29400 40.83700
C  54.46100 42.14000 41.80200
O  54.78700 40.92500 41.73200
C  55.46400 43.11400 42.27000
N  51.53400 46.95900 41.63000
C  52.77400 46.52000 41.84400
C  53.76300 47.67200 42.05000
C  52.77200 48.82500 42.25500
C  51.38700 48.24900 41.83400
C  54.92900 47.56300 43.07900
C  53.15500 50.08400 41.38500
C  53.08900 51.34700 42.18700
N  48.68800 47.28800 41.04600
C  48.92200 48.58100 41.32200
C  47.73000 49.41800 41.00100
C  46.90800 48.51200 40.47800
C  47.47800 47.17500 40.61300
C  47.61600 50.85300 41.07400
C  45.61800 48.41700 39.82900
O  44.78300 49.24900 39.46800
C  45.32700 46.86800 39.61700
C  44.03100 46.57500 40.35900
O  43.05500 46.20600 39.75500
O  44.19100 46.59600 41.70200
C  43.19600 45.87400 42.42800
H  49.42300 41.22700 39.98500
H  54.27400 45.22800 41.83800
H  50.44700 50.06800 42.03200
H  45.27500 43.63600 39.62200
H  47.53600 42.03100 38.34200
H  45.51600 41.25600 40.03600
H  47.00200 41.11200 41.03900
H  46.86600 40.24800 39.55500
H  46.77300 43.62100 37.14200
H  46.33800 45.34600 37.63900
H  44.06700 45.02800 37.44100
H  44.21300 43.36000 37.39100
H  52.20400 39.95500 39.88400
H  50.78400 39.95100 41.04000
H  52.31900 39.83800 41.67900
H  54.99600 43.72300 43.04300
H  55.87900 43.64800 41.41500
H  56.32600 42.63800 42.73800
H  54.26300 47.85500 41.10000
H  52.72300 49.08400 43.31300
H  54.80300 46.62300 43.61600
H  54.98900 48.34700 43.83500
H  55.86100 47.65700 42.52100
H  52.40800 50.24700 40.60800
H  54.14000 49.97600 40.93200
H  54.06100 51.83700 42.12000
H  52.89800 51.18000 43.24600
H  52.37800 52.03500 41.73000
H  46.61200 51.11500 41.40800
H  47.73200 51.31900 40.09500
H  48.33400 51.27200 41.77900
H  45.12300 46.69900 38.56000
H  42.93000 45.00200 41.83000
H  42.27300 46.44100 42.55000
H  43.60100 45.68400 43.42200
Mg -4.77900 25.81600 26.10700
C  -3.56900 27.62800 28.84900
C  -6.41400 23.67100 28.24000
C  -5.84100 24.02100 23.35100
C  -2.57500 27.61600 24.00400
N  -4.80500 25.58800 28.22800
C  -4.36700 26.48100 29.19600
C  -4.79100 25.90300 30.64200
C  -5.27200 24.50900 30.34600
C  -5.52700 24.57800 28.85800
C  -4.43200 23.34300 30.89800
C  -5.91600 26.88000 31.10700
C  -6.60400 26.64400 32.48500
H  -5.97100 25.66200 33.53300
N  -6.08600 24.11600 25.80100
C  -6.69700 23.45100 26.82600
C  -7.63700 22.52200 26.24500
C  -7.48900 22.53300 24.79000
C  -6.47300 23.60300 24.51400
C  -8.54300 21.71200 27.12700
C  -8.10800 21.61400 23.76000
O  -7.79400 21.61800 22.54800
C  -9.03500 20.47900 24.13800
N  -4.25500 25.81500 23.94700
C  -4.73600 24.87500 23.09900
C  -4.15200 25.10200 21.71500
C  -2.97000 26.16500 21.94100
C  -3.30400 26.58200 23.39100
C  -3.63300 23.75200 20.98700
C  -3.04800 27.42700 20.98500
C  -2.43000 27.24300 19.58100
N  -3.40500 27.35900 26.30000
C  -2.62600 28.06500 25.40200
C  -1.88000 29.11000 26.11300
C  -2.20500 28.99700 27.47500
C  -3.09900 27.91000 27.50700
C  -1.07000 30.10700 25.48700
C  -2.01700 29.52900 28.80600
O  -1.28600 30.46200 29.18400
C  -2.91300 28.66300 29.72400
C  -2.02200 28.07400 30.77500
O  -1.00500 27.49700 30.61600
O  -2.73900 28.25500 31.98600
C  -2.09500 27.62800 33.22400
H  -6.82500 22.94200 28.94100
H  -6.22500 23.55700 22.43900
H  -1.73800 28.10800 23.50500
H  -3.98100 25.80000 31.36500
H  -6.30200 24.42700 30.69300
H  -4.94200 22.91300 31.76100
H  -3.49100 23.73800 31.28100
H  -4.30000 22.57900 30.13200
H  -6.67900 26.78300 30.33500
H  -5.55300 27.90600 31.05600
H  -7.65400 26.42600 32.29100
H  -6.59100 27.65100 32.90300
H  -9.54400 21.80500 26.70400
H  -8.62300 22.14200 28.12500
H  -8.25600 20.66000 27.11200
H  -10.05600 20.82800 24.29000
H  -8.61600 19.89600 24.95900
H  -9.12900 19.86200 23.24500
H  -4.91800 25.47900 21.03800
H  -2.00700 25.65400 21.95000
H  -2.55200 23.65300 20.88500
H  -4.05300 23.65000 19.98700
H  -3.96500 22.94400 21.63900
H  -2.45700 28.24200 21.40100
H  -4.05200 27.80700 20.79000
H  -1.38500 27.55300 19.61000
H  -3.00000 27.85600 18.88300
H  -2.42700 26.18000 19.34100
H  -1.62500 31.03600 25.36300
H  -0.76800 29.71400 24.51600
H  -0.14100 30.23400 26.04300
H  -3.65300 29.32300 30.17800
H  -2.02600 26.57100 32.96500
H  -2.82600 27.66900 34.03100
H  -1.06600 27.91300 33.44500

