158

Mg 17.32900 -1.12200 28.33400
C  16.21300 1.17600 30.85300
C  19.12900 -2.80200 30.72500
C  18.90600 -2.91400 25.90500
C  15.81300 0.79000 25.95000
N  17.64500 -0.74900 30.49300
C  17.06500 0.13400 31.37700
C  17.54400 -0.07900 32.82800
C  18.69200 -1.22700 32.60800
C  18.45800 -1.63800 31.15200
C  20.12800 -0.80400 33.05100
C  16.35000 -0.52400 33.69900
C  16.18900 0.10900 35.08200
H  17.47700 0.36400 35.84500
N  18.73800 -2.72200 28.33000
C  19.31800 -3.31200 29.44400
C  20.00100 -4.51700 29.01500
C  19.96200 -4.55900 27.62900
C  19.21100 -3.36500 27.20400
C  20.73300 -5.42100 29.95100
C  20.57400 -5.61000 26.68400
O  20.27000 -5.59400 25.51200
C  21.47500 -6.71300 27.14400
N  17.40400 -1.04100 26.21000
C  18.14300 -1.87300 25.42700
C  18.00500 -1.49900 23.93700
C  16.89500 -0.46200 23.95000
C  16.63100 -0.19000 25.46800
C  19.37000 -1.08200 23.25100
C  15.67400 -0.92000 23.06600
C  14.33300 -1.17800 23.76400
N  16.15100 0.57200 28.36100
C  15.57900 1.18100 27.32100
C  14.70400 2.23800 27.82200
C  14.96900 2.36000 29.22300
C  15.81200 1.29800 29.48400
C  13.78200 3.03000 26.85800
C  14.74000 3.15900 30.43800
O  14.06500 4.17400 30.68100
C  15.53500 2.35500 31.58300
C  16.39700 3.23800 32.35400
O  17.49400 3.67600 32.01800
O  15.88700 3.58500 33.54100
C  16.55800 4.55500 34.34400
H  19.51800 -3.37200 31.57100
H  19.39600 -3.38000 25.04800
H  15.42900 1.37100 25.11000
H  17.95000 0.88400 33.13600
H  18.40000 -2.05000 33.26100
H  19.98600 0.07100 33.68400
H  20.62800 -0.47400 32.14000
H  20.70300 -1.58600 33.54700
H  16.41600 -1.58100 33.95600
H  15.38100 -0.33800 33.23600
H  15.51100 -0.51000 35.67000
H  15.70600 1.06900 34.89900
H  21.82000 -5.46600 29.87500
H  20.25400 -6.39400 30.06400
H  20.56500 -4.98800 30.93700
H  22.32000 -6.46700 27.78800
H  21.91800 -7.15700 26.25300
H  20.71900 -7.34300 27.61200
H  17.56400 -2.36600 23.44700
H  17.15000 0.52000 23.55300
H  20.07400 -0.93200 24.06900
H  19.29900 -0.08200 22.82300
H  19.71700 -1.85200 22.56200
H  15.83700 -1.79300 22.43400
H  15.38800 -0.12700 22.37500
H  13.75200 -0.25900 23.68500
H  14.52200 -1.44300 24.80400
H  13.77600 -2.05100 23.42600
H  13.31900 2.31000 26.18300
H  14.39900 3.67800 26.23400
H  13.08600 3.56300 27.50400
H  14.79300 1.94100 32.26600
H  16.54100 4.04200 35.30600
H  15.94900 5.45900 34.35700
H  17.58000 4.85900 34.11500
Mg -1.62700 34.29800 26.00500
C  -3.34100 32.76300 28.52800
C  -0.40900 36.59000 28.23700
C  -0.21700 36.01300 23.38000
C  -3.32000 32.24500 23.60000
N  -1.98800 34.71400 28.11100
C  -2.60600 33.86500 28.96100
C  -2.34800 34.21000 30.45700
C  -1.44900 35.50600 30.35500
C  -1.29700 35.67200 28.82200
C  -1.95800 36.74400 31.05300
C  -1.85400 33.02500 31.33900
C  -2.67200 32.70100 32.59500
H  -1.97900 32.35600 34.03200
N  -0.32700 35.96900 25.83500
C  0.01700 36.78000 26.89700
C  1.03500 37.71900 26.42200
C  1.24600 37.36900 25.04500
C  0.21200 36.37500 24.66000
C  1.70500 38.77600 27.34600
C  2.31500 37.93900 24.06100
O  2.33300 37.54900 22.87800
C  3.35600 38.86600 24.55100
N  -1.97100 34.35900 23.83800
C  -1.11700 35.06100 23.04600
C  -1.52200 34.76600 21.56400
C  -2.06800 33.30700 21.68200
C  -2.48800 33.26700 23.15100
C  -2.51200 35.80200 20.93000
C  -1.13200 32.16700 21.14000
C  -0.02900 31.62600 22.10200
N  -2.92000 32.77900 25.98000
C  -3.57200 32.06900 24.98300
C  -4.52400 31.13100 25.60800
C  -4.32400 31.30100 27.03700
C  -3.44500 32.39700 27.18200
C  -5.58300 30.19600 24.97900
C  -4.74200 30.78000 28.28600
O  -5.34600 29.76800 28.58700
C  -4.15200 31.74100 29.42400
C  -5.38700 32.28000 30.10800
O  -5.95400 33.22800 29.66900
O  -5.54800 31.76100 31.32000
C  -6.62000 32.31000 32.18300
H  0.16400 37.08900 29.02200
H  0.25600 36.57800 22.57300
H  -3.65200 31.55000 22.82600
H  -3.33200 34.48000 30.84100
H  -0.43000 35.36100 30.71300
H  -1.08600 37.08800 31.60900
H  -2.70600 36.48600 31.80300
H  -2.27300 37.57300 30.41900
H  -0.80700 33.10000 31.63400
H  -1.76000 32.14000 30.71000
H  -3.26500 31.80400 32.41400
H  -3.37500 33.51400 32.77500
H  1.44100 38.79900 28.40300
H  1.45300 39.76700 26.96900
H  2.78800 38.66900 27.28400
H  2.87200 39.69500 25.06800
H  4.01800 39.29700 23.80000
H  4.01500 38.27800 25.19000
H  -0.63400 34.83400 20.93500
H  -2.98400 33.20400 21.10100
H  -3.49300 35.39300 20.68800
H  -2.13100 36.12200 19.96000
H  -2.54300 36.63000 21.63800
H  -0.53000 32.46700 20.28300
H  -1.76600 31.34200 20.81200
H  -0.15300 32.12400 23.06400
H  1.00000 31.78900 21.78200
H  -0.12600 30.55100 22.25200
H  -6.53200 30.22600 25.51400
H  -5.22700 29.22600 25.32500
H  -5.60700 30.41000 23.91000
H  -3.54700 31.10200 30.06600
H  -7.12800 31.43200 32.58200
H  -7.37100 32.85200 31.60900
H  -6.12900 32.90300 32.95500

