158

Mg 8.05100 3.42000 27.81200
C  9.53000 2.06900 30.60500
C  5.93000 5.33900 29.97800
C  6.26200 4.57800 25.05600
C  9.57000 1.12100 25.82100
N  7.78400 3.67600 30.07600
C  8.64000 3.07900 30.97100
C  8.44200 3.73100 32.34100
C  7.26300 4.73100 32.07100
C  6.93800 4.57300 30.62100
C  5.94000 4.47700 32.92300
C  9.73100 4.35200 32.89400
C  9.49800 5.18300 34.14700
H  10.36500 4.92600 35.35100
N  6.34500 4.73600 27.56000
C  5.69300 5.46200 28.58500
C  4.64400 6.20900 27.96600
C  4.68300 5.93400 26.56300
C  5.78100 5.04600 26.32600
C  3.71400 7.02900 28.74300
C  3.86500 6.52800 25.42400
O  3.87100 6.16400 24.25500
C  2.89400 7.66400 25.74200
N  7.96300 2.90900 25.72700
C  7.20300 3.58100 24.77200
C  7.58400 3.20000 23.34400
C  8.57600 2.04800 23.61800
C  8.77300 2.05500 25.12000
C  6.27000 2.82700 22.47600
C  9.80500 1.85800 22.80700
C  9.91300 0.57000 21.93900
N  9.21900 1.95800 28.03400
C  9.81400 1.10000 27.20400
C  10.65900 0.17700 27.86000
C  10.63500 0.58000 29.18000
C  9.70300 1.61600 29.26300
C  11.30600 -0.99800 27.15400
C  11.21200 0.33000 30.55300
O  12.00000 -0.52000 30.94400
C  10.59300 1.43300 31.51700
C  9.88400 0.83300 32.71100
O  8.86100 0.19500 32.75300
O  10.48400 1.24000 33.83900
C  9.84400 0.89800 35.09800
H  5.38900 5.94400 30.70900
H  5.78200 5.03200 24.18600
H  10.16200 0.48600 25.15900
H  8.12900 2.93900 33.02200
H  7.64000 5.75100 32.00700
H  5.58900 5.39600 33.39200
H  6.23100 3.80100 33.72700
H  5.17500 3.95000 32.35300
H  10.19100 5.03800 32.18200
H  10.53100 3.64500 33.11200
H  8.46400 5.04800 34.46300
H  9.57300 6.24300 33.90500
H  3.95700 8.07300 28.54600
H  3.83300 7.03400 29.82600
H  2.66100 6.85800 28.52200
H  2.06100 7.20200 26.27200
H  2.66700 8.19900 24.82000
H  3.43300 8.32800 26.41700
H  8.19000 3.95900 22.85000
H  7.95200 1.18600 23.38500
H  6.32600 1.90400 21.90000
H  6.12300 3.62800 21.75200
H  5.44800 2.90800 23.18800
H  10.68100 1.93300 23.45100
H  10.02200 2.68400 22.13000
H  10.77100 0.03600 22.34700
H  10.09600 0.89300 20.91400
H  9.01300 -0.04200 21.89800
H  12.06900 -0.53400 26.52900
H  10.54600 -1.56100 26.61200
H  11.80600 -1.58500 27.92500
H  11.43400 2.09600 31.72000
H  10.44200 1.42800 35.83900
H  9.96300 -0.18500 35.06000
H  8.80100 1.21000 35.04800
Mg -5.88200 24.84600 26.86300
C  -4.27900 25.93300 29.75100
C  -8.01200 22.93600 28.78400
C  -7.20800 23.59800 24.02500
C  -3.58500 26.70900 25.01400
N  -6.11900 24.50700 28.98800
C  -5.33400 25.00800 30.00600
C  -5.85800 24.57600 31.32800
C  -6.77000 23.36700 31.02500
C  -7.05400 23.67700 29.51300
C  -6.14400 21.97400 31.24700
C  -6.57800 25.73600 32.17400
C  -6.07400 25.98200 33.62100
H  -5.15600 24.98600 34.37100
N  -7.46400 23.51700 26.44400
C  -8.19300 22.83700 27.38700
C  -9.28500 22.15500 26.74500
C  -9.07300 22.36800 25.35500
C  -7.90400 23.19700 25.18700
C  -10.36600 21.33200 27.51200
C  -9.93300 21.90600 24.11700
O  -9.64800 22.12200 22.96400
C  -11.20200 21.02200 24.30500
N  -5.44500 25.12300 24.74000
C  -6.09100 24.41200 23.80500
C  -5.56500 24.64200 22.47000
C  -4.37700 25.68900 22.72600
C  -4.50000 25.91600 24.25800
C  -4.99300 23.46300 21.75200
C  -4.34300 27.04900 21.84500
C  -3.13200 27.17800 20.89500
N  -4.34200 26.16800 27.20900
C  -3.51200 26.95700 26.38300
C  -2.57400 27.62100 27.13400
C  -2.85500 27.31200 28.46600
C  -3.90900 26.39500 28.46500
C  -1.53900 28.51000 26.51900
C  -2.40600 27.56800 29.86800
O  -1.43800 28.21200 30.25500
C  -3.34400 26.58600 30.83600
C  -2.36800 25.71300 31.53100
O  -1.97300 24.65800 31.08000
O  -1.97000 26.26500 32.75000
C  -0.96500 25.57700 33.45700
H  -8.64000 22.40100 29.49900
H  -7.56400 23.11700 23.11100
H  -2.85100 27.26800 24.42900
H  -4.94900 24.33900 31.88200
H  -7.67100 23.32500 31.63700
H  -5.08200 22.18400 31.37700
H  -6.09000 21.36700 30.34400
H  -6.60300 21.41300 32.06100
H  -7.56300 25.29900 32.33800
H  -6.66500 26.61400 31.53500
H  -6.95600 26.16400 34.23500
H  -5.49900 26.90600 33.55600
H  -11.32200 21.83000 27.66900
H  -9.94100 21.11700 28.49300
H  -10.57200 20.41600 26.95800
H  -11.81600 21.50400 25.06600
H  -10.79700 20.08400 24.68200
H  -11.60100 20.90200 23.29700
H  -6.26600 25.04000 21.73700
H  -3.41400 25.18000 22.71100
H  -3.98400 23.39100 21.34600
H  -5.48800 23.41700 20.78200
H  -5.20300 22.53800 22.28900
H  -4.24000 27.83800 22.59000
H  -5.31000 27.17800 21.35800
H  -2.50700 26.30400 21.07900
H  -2.59100 28.04500 21.27400
H  -3.38300 27.30900 19.84200
H  -0.92100 27.78400 25.98900
H  -1.04200 28.95300 27.38100
H  -1.89100 29.27600 25.82800
H  -3.94000 27.13600 31.56500
H  -0.09300 26.20500 33.63900
H  -0.63800 24.67600 32.93700
H  -1.30800 25.22000 34.42800

