158

Mg 0.79300 43.13300 26.36500
C  2.69500 42.90600 29.28800
C  -2.07200 42.47000 28.15200
C  -0.75300 42.72000 23.43700
C  3.83700 43.43200 24.63500
N  0.34100 42.59400 28.46500
C  1.32200 42.77300 29.49900
C  0.64000 42.90500 30.89000
C  -0.88300 42.52600 30.50600
C  -0.89000 42.59800 28.92600
C  -1.45900 41.22400 31.12900
C  0.84800 44.27700 31.50800
C  1.32800 44.38100 32.93300
H  0.97000 43.27900 33.94100
N  -1.11400 42.77800 25.87000
C  -2.20500 42.57200 26.74000
C  -3.43500 42.47700 26.01300
C  -3.06900 42.51700 24.63300
C  -1.58000 42.67800 24.60400
C  -4.81700 42.45600 26.63600
C  -3.88100 42.53600 23.40800
O  -3.40100 42.78400 22.31700
C  -5.31200 42.46100 23.47300
N  1.50500 42.85100 24.40000
C  0.66300 42.78100 23.33700
C  1.38600 42.71100 21.96100
C  2.77300 43.27900 22.34000
C  2.72900 43.12200 23.90400
C  1.45400 41.32700 21.32300
C  3.11900 44.72800 21.83000
C  4.24400 44.80000 20.78100
N  2.92500 43.03500 26.80700
C  3.99900 43.33500 25.99800
C  5.17600 43.61600 26.78300
C  4.73500 43.24600 28.08000
C  3.32000 43.04300 28.05800
C  6.52700 44.00700 26.32400
C  5.12300 43.04200 29.49000
O  6.26100 42.98100 29.91300
C  3.85700 42.91600 30.35900
C  4.02800 41.69600 31.29900
O  3.97900 40.53600 30.90500
O  4.22000 42.17100 32.56300
C  4.57000 41.19000 33.53900
H  -3.02800 42.28500 28.64500
H  -1.06200 42.77300 22.39000
H  4.73800 43.80300 24.14200
H  1.08700 42.08900 31.45700
H  -1.52300 43.37000 30.76500
H  -0.74900 40.80600 31.84300
H  -1.53700 40.49700 30.32000
H  -2.42600 41.33000 31.62100
H  -0.03600 44.91100 31.43700
H  1.50800 44.89500 30.89900
H  0.93000 45.30900 33.34500
H  2.41700 44.41900 32.95900
H  -5.53100 43.18600 26.25400
H  -4.89800 42.63100 27.70800
H  -5.29300 41.48100 26.52900
H  -5.75400 41.88500 24.28600
H  -5.60900 41.94600 22.55900
H  -5.69400 43.48100 23.41700
H  0.85400 43.42700 21.33400
H  3.57300 42.62800 21.98800
H  2.43700 41.10100 20.90900
H  0.79000 41.21000 20.46600
H  1.30400 40.67200 22.18100
H  3.25900 45.41300 22.66700
H  2.16000 45.00500 21.39200
H  5.08900 45.33100 21.21900
H  3.86800 45.34600 19.91600
H  4.51400 43.84000 20.34200
H  6.89900 43.33300 25.55300
H  7.26000 44.00400 27.13100
H  6.53900 44.98500 25.84300
H  3.81400 43.80500 30.98900
H  3.98900 41.33000 34.45100
H  5.62400 41.29200 33.79600
H  4.38500 40.14500 33.29100
Mg -10.62600 16.66200 41.03100
C  -7.20800 16.80100 41.58200
C  -10.58500 19.94500 40.19500
C  -13.97400 16.41000 40.31400
C  -10.54100 13.13700 41.40900
N  -9.07800 18.09400 40.85800
C  -7.75900 17.96200 41.06000
C  -7.01600 19.27300 40.59600
C  -8.14900 20.28500 40.76500
C  -9.40000 19.38700 40.64300
C  -8.25300 21.07300 42.10500
C  -6.47600 19.16400 39.19400
C  -5.00300 18.87700 39.04700
H  -4.65000 17.85900 38.04800
N  -12.07500 18.00700 40.30400
C  -11.87000 19.31800 40.04500
C  -13.10000 19.91100 39.73400
C  -14.02400 18.85600 39.65900
C  -13.37800 17.64300 40.04500
C  -13.30000 21.42400 39.43500
C  -15.41300 19.05300 39.15400
O  -15.76800 20.22200 38.93100
C  -16.45200 17.95700 38.87600
N  -12.00300 14.91700 40.57000
C  -13.34000 15.13600 40.56200
C  -14.16800 13.86200 40.91200
C  -12.99800 12.75900 41.02800
C  -11.73900 13.62500 40.98700
C  -14.98000 14.05700 42.26000
C  -13.07000 11.59800 39.94200
C  -12.31800 11.83600 38.57700
N  -9.18800 15.20200 41.45000
C  -9.26500 13.81500 41.61200
C  -7.95400 13.29100 42.08700
C  -7.10200 14.48300 42.08500
C  -7.86300 15.53500 41.64300
C  -7.56900 11.84100 42.26700
C  -5.79900 15.00500 42.39800
O  -4.80800 14.42800 42.77000
C  -5.89700 16.55900 42.15500
C  -5.72200 17.40500 43.40400
O  -4.95700 18.35900 43.49500
O  -6.52600 16.95800 44.40800
C  -6.15900 17.39300 45.78900
H  -10.49900 21.01600 40.00100
H  -15.06500 16.36500 40.35300
H  -10.57200 12.07300 41.65300
H  -6.09400 19.40600 41.16100
H  -8.24800 21.05600 40.00200
H  -7.30600 20.81900 42.58200
H  -9.03400 20.82400 42.82300
H  -8.24900 22.14500 41.91100
H  -6.57800 20.15700 38.75700
H  -7.01200 18.38000 38.65900
H  -4.64800 18.40700 39.96400
H  -4.54300 19.83000 38.78500
H  -13.74000 21.47700 38.43900
H  -12.33800 21.93600 39.47200
H  -13.94000 21.87100 40.19600
H  -15.94500 17.22500 38.24700
H  -17.20600 18.40400 38.22800
H  -16.93900 17.50500 39.74000
H  -14.88700 13.63800 40.12500
H  -12.84600 12.31900 42.01400
H  -14.69000 14.96000 42.79800
H  -14.96700 13.11900 42.81500
H  -16.01900 14.21800 41.97300
H  -14.13900 11.50500 39.75300
H  -12.67500 10.76900 40.52900
H  -13.06000 11.98600 37.79400
H  -11.72200 10.94300 38.38900
H  -11.67000 12.71200 38.60600
H  -7.83400 11.28200 41.37000
H  -8.13200 11.40600 43.09300
H  -6.49800 11.87200 42.46900
H  -5.06200 16.73200 41.47600
H  -6.80300 18.20200 46.13300
H  -5.19100 17.89500 45.80000
H  -5.95300 16.57600 46.48100

