158

Mg 9.24700 48.47900 25.65200
C  6.82800 49.06500 28.15900
C  11.65800 49.45900 27.95300
C  11.36900 48.15400 23.23200
C  6.52000 47.81700 23.48200
N  9.24100 49.32200 27.69300
C  8.17400 49.34500 28.53500
C  8.61300 49.55400 30.01500
C  9.95800 50.20500 29.73800
C  10.32900 49.60900 28.40700
C  9.91000 51.70900 29.73700
C  8.83000 48.21100 30.79700
C  9.49500 48.23100 32.23600
H  8.85100 47.23600 33.20600
N  11.19100 48.75700 25.61000
C  12.01000 49.04900 26.63300
C  13.43100 49.01000 26.17200
C  13.32700 48.67400 24.78900
C  11.94100 48.58400 24.48600
C  14.56600 49.28000 27.03500
C  14.54600 48.47200 23.79300
O  14.53000 48.25200 22.61300
C  15.89300 48.45200 24.45800
N  8.94100 47.90000 23.68000
C  10.04900 47.89100 22.86500
C  9.63200 47.38500 21.46200
C  8.05600 47.54500 21.45200
C  7.83500 47.72200 22.96000
C  10.23100 48.05700 20.22000
C  7.24900 46.34100 20.81900
C  6.05300 46.57800 19.86800
N  7.04900 48.34200 25.73500
C  6.11500 48.08000 24.77700
C  4.75400 48.16700 25.40300
C  5.01400 48.43700 26.73000
C  6.41500 48.65200 26.85900
C  3.44600 47.89800 24.71700
C  4.36100 48.51400 27.96000
O  3.19100 48.29100 28.30900
C  5.49000 49.02600 28.91000
C  5.38900 48.07400 30.06300
O  5.49000 46.86800 30.01200
O  4.88800 48.68600 31.19000
C  4.36800 47.68900 32.16400
H  12.44100 49.91600 28.56100
H  12.14800 48.06400 22.47200
H  5.77700 47.61600 22.70800
H  7.88300 50.11700 30.59600
H  10.81500 49.91500 30.34600
H  8.88200 52.06600 29.80600
H  10.37600 52.09700 28.83100
H  10.44400 52.09300 30.60600
H  9.61600 47.67300 30.26700
H  7.97600 47.53500 30.78000
H  9.36000 49.22200 32.66900
H  10.54300 48.00100 32.04500
H  15.12800 48.34900 27.10700
H  14.30200 49.54100 28.06000
H  15.16200 50.05500 26.55400
H  16.18600 49.42900 24.84300
H  16.64800 48.07100 23.77100
H  15.98100 47.63500 25.17400
H  10.00100 46.36100 21.39200
H  7.63200 48.50600 21.16200
H  11.29400 48.21700 20.40400
H  9.67200 48.95900 19.97100
H  10.29900 47.31200 19.42800
H  6.90400 45.72600 21.65000
H  7.89100 45.71300 20.20200
H  6.03200 47.56200 19.39800
H  5.10300 46.30500 20.32800
H  6.14300 45.86300 19.05000
H  3.09900 48.76100 24.14900
H  2.71300 47.46100 25.39500
H  3.63100 47.06900 24.03400
H  5.06600 49.98800 29.19800
H  3.81000 46.86600 31.71600
H  3.81600 48.04000 33.03500
H  5.19000 47.11800 32.59600
Mg -5.34400 25.56100 25.95700
C  -4.12500 27.22300 28.77000
C  -7.43300 23.69100 28.04800
C  -6.24300 23.67400 23.35300
C  -3.36400 27.54700 23.95800
N  -5.74700 25.43300 28.12100
C  -5.04800 26.16300 29.09400
C  -5.63800 25.80800 30.45300
C  -6.43800 24.47100 30.21000
C  -6.50800 24.45200 28.70700
C  -5.72900 23.22200 30.74800
C  -6.54600 26.97200 30.98800
C  -6.57500 27.12600 32.50700
H  -5.91500 26.10500 33.46400
N  -6.71200 23.97900 25.70700
C  -7.52900 23.47300 26.64700
C  -8.43000 22.46000 26.05600
C  -8.03300 22.41200 24.62700
C  -6.96400 23.37700 24.48500
C  -9.54000 21.75100 26.77100
C  -8.59400 21.56300 23.45600
O  -8.14400 21.53200 22.30800
C  -9.82000 20.77200 23.74200
N  -4.97100 25.74100 23.95800
C  -5.23400 24.69700 23.12700
C  -4.60000 24.90700 21.75400
C  -3.97100 26.35900 21.87000
C  -4.14600 26.62200 23.35800
C  -3.67100 23.78700 21.27900
C  -4.63800 27.39300 21.08900
C  -3.94600 28.72200 20.82100
N  -3.94400 27.04000 26.21300
C  -3.26400 27.84300 25.32000
C  -2.48900 28.84800 26.02900
C  -2.80400 28.66200 27.40800
C  -3.67600 27.52000 27.45200
C  -1.52200 29.89200 25.43800
C  -2.53900 29.18200 28.76100
O  -1.94900 30.16200 29.17500
C  -3.47700 28.28200 29.67700
C  -2.72700 27.59100 30.72800
O  -2.14000 26.55700 30.63500
O  -2.76600 28.28200 31.89100
C  -2.03200 27.77600 33.01900
H  -8.10800 23.05900 28.62900
H  -6.33600 23.12000 22.41700
H  -2.69600 28.19600 23.38800
H  -4.80000 25.67200 31.13700
H  -7.44100 24.44100 30.63400
H  -5.60500 22.51000 29.93200
H  -6.41700 22.88800 31.52400
H  -4.87300 23.52400 31.35100
H  -7.55800 26.83600 30.60500
H  -6.28000 27.93900 30.56100
H  -7.63600 27.16900 32.75200
H  -6.33100 28.16800 32.70900
H  -9.78400 20.73200 26.47200
H  -10.43700 22.34700 26.94000
H  -9.23500 21.53900 27.79600
H  -10.25100 20.55100 22.76600
H  -10.57900 21.43300 24.15800
H  -9.69600 19.88000 24.35600
H  -5.44400 25.00300 21.07200
H  -2.91900 26.32900 21.58700
H  -2.84200 24.23100 20.72700
H  -4.24400 23.17300 20.58400
H  -3.22300 23.30000 22.14500
H  -5.54800 27.80100 21.53000
H  -4.91000 26.95100 20.13000
H  -2.90800 28.72800 21.15300
H  -4.48700 29.60200 21.16900
H  -3.95100 28.92800 19.75000
H  -1.64500 29.96600 24.35700
H  -0.46500 29.66900 25.58400
H  -1.69700 30.85800 25.91000
H  -4.22900 28.95700 30.08500
H  -1.07600 28.27600 33.17700
H  -1.78200 26.71900 32.94100
H  -2.59700 28.01900 33.91900

