158

Mg 54.06500 23.97000 44.17100
C  51.28700 26.13300 43.26900
C  52.31000 21.47100 42.42400
C  56.68700 22.10100 44.34700
C  55.90600 26.86200 45.07600
N  52.07600 23.89700 42.92600
C  51.14700 24.85600 42.69100
C  50.08800 24.27300 41.77300
C  50.18600 22.74000 41.97300
C  51.65200 22.69100 42.34400
C  49.24700 22.20200 43.12400
C  50.03800 24.78400 40.29000
C  51.37700 25.18900 39.77300
H  51.39900 25.93500 38.45500
N  54.41700 22.06800 43.61500
C  53.54200 21.18900 43.02300
C  54.17300 19.91300 43.02200
C  55.41500 19.97200 43.70500
C  55.52600 21.35100 44.00200
C  53.56200 18.58700 42.52500
C  56.35600 18.78500 44.15100
O  56.10200 17.64000 43.81200
C  57.69300 19.10600 44.85900
N  56.07200 24.41700 44.59700
C  56.97300 23.44700 44.61100
C  58.35600 24.03300 45.00600
C  58.09500 25.62700 44.99800
C  56.62500 25.65400 44.88600
C  58.84500 23.53400 46.35600
C  58.83300 26.35100 43.87800
C  60.04200 27.20100 44.26900
N  53.73400 26.05300 44.24200
C  54.52700 27.05700 44.74000
C  53.71900 28.32300 44.78700
C  52.51000 27.95500 44.19800
C  52.53600 26.61900 43.91900
C  54.14400 29.61000 45.30500
C  51.23200 28.50400 43.80600
O  50.77400 29.57400 43.79900
C  50.39800 27.29900 43.28800
C  49.77300 27.70500 41.97700
O  50.37100 28.06800 40.96800
O  48.40400 27.56400 41.97800
C  47.64500 28.38000 41.04400
H  51.89000 20.61600 41.88900
H  57.54900 21.43600 44.42400
H  56.37400 27.81200 45.34200
H  49.07800 24.53900 42.08600
H  49.91100 22.26200 41.03300
H  48.85800 21.25100 42.75800
H  48.35100 22.73700 43.43700
H  49.88600 21.84800 43.93300
H  49.43400 25.68400 40.17200
H  49.62100 24.06500 39.58300
H  51.97600 24.28100 39.69100
H  51.88900 25.85500 40.46800
H  53.77400 17.75500 43.19700
H  53.87000 18.45400 41.48900
H  52.47600 18.56100 42.43800
H  58.11700 18.13600 45.11700
H  57.42900 19.71300 45.72600
H  58.31000 19.59300 44.10400
H  59.05900 23.80400 44.20500
H  58.28600 25.99000 46.00800
H  58.89800 22.45400 46.21600
H  58.12800 23.74800 47.14800
H  59.70500 24.13600 46.64800
H  58.05800 27.03200 43.52500
H  59.11200 25.66000 43.08300
H  60.31800 27.10900 45.31900
H  59.86500 28.24700 44.01600
H  60.90500 26.79700 43.73900
H  54.10200 29.64700 46.39300
H  53.50300 30.34900 44.82400
H  55.16900 29.70600 44.94600
H  49.63000 27.27200 44.06000
H  48.00500 29.40800 40.98700
H  46.62900 28.53500 41.40700
H  47.61700 28.01800 40.01700
Mg 46.93100 16.98800 28.21700
C  45.02200 16.31500 31.16100
C  49.10600 18.76900 30.09800
C  48.42000 17.95200 25.36100
C  44.30900 15.44300 26.36600
N  47.00900 17.44200 30.40800
C  46.19300 17.02500 31.42600
C  46.77500 17.45300 32.81000
C  48.01400 18.42700 32.42700
C  48.03800 18.25500 30.88800
C  47.77800 19.89100 32.90100
C  47.27600 16.21900 33.64400
C  46.61900 16.00300 35.01800
H  46.33200 17.17900 35.89500
N  48.56800 18.09000 27.80000
C  49.38900 18.66900 28.70600
C  50.57600 19.19300 28.04800
C  50.36000 19.03800 26.63700
C  49.05900 18.33800 26.51600
C  51.82200 19.75900 28.77000
C  51.24600 19.47600 25.50800
O  50.94200 19.24300 24.32300
C  52.42000 20.41200 25.74400
N  46.38500 16.79100 26.14900
C  47.19400 17.33200 25.16300
C  46.59100 17.05600 23.77900
C  45.31100 16.19000 24.11900
C  45.36600 16.04000 25.64300
C  46.36400 18.20700 22.87000
C  45.08600 14.94200 23.29600
C  45.99600 13.64900 23.54700
N  45.02600 15.84800 28.64900
C  44.08500 15.40000 27.75200
C  42.91700 14.95400 28.54400
C  43.30300 15.26300 29.87200
C  44.56200 15.82600 29.85900
C  41.57100 14.44600 28.16400
C  42.80200 15.31000 31.26500
O  41.66100 15.02200 31.73300
C  43.91900 16.00400 32.12800
C  43.36600 17.13600 32.98600
O  43.53600 18.29600 32.71300
O  42.52300 16.67000 33.97000
C  41.70000 17.73400 34.62600
H  49.83200 19.32500 30.69500
H  48.91400 18.21500 24.42300
H  43.43800 15.21900 25.74600
H  45.99100 18.03500 33.29500
H  48.97200 18.00200 32.72600
H  47.01200 20.06000 33.65800
H  47.30700 20.39200 32.05600
H  48.72100 20.41400 33.06100
H  48.35600 16.14600 33.77300
H  47.09200 15.30800 33.07400
H  47.06900 15.19800 35.59900
H  45.59600 15.64800 34.90000
H  52.74500 19.41500 28.30300
H  51.89400 19.50700 29.82800
H  51.73300 20.84300 28.69300
H  52.19300 21.22800 26.43000
H  52.74400 20.77800 24.77000
H  53.23900 19.79600 26.11500
H  47.21500 16.27100 23.35200
H  44.56800 16.92100 23.80000
H  46.01200 18.93000 23.60600
H  45.52400 18.22000 22.17600
H  47.16300 18.56500 22.22100
H  44.94400 15.28800 22.27300
H  44.08800 14.53900 23.46900
H  46.40000 13.24700 22.61800
H  45.41100 12.91500 24.10100
H  46.77700 13.95700 24.24100
H  41.23800 14.89700 27.22900
H  40.90600 14.79900 28.95200
H  41.53100 13.35700 28.13000
H  44.23900 15.19700 32.78700
H  42.33100 18.53500 35.01100
H  41.31100 17.22300 35.50600
H  40.92400 18.11900 33.96400

