158

Mg 53.96700 24.53400 43.86400
C  51.38300 26.90600 43.27900
C  51.65600 21.99800 43.01500
C  56.50600 22.44300 43.82800
C  55.97600 27.15800 44.75700
N  51.87300 24.53800 43.15900
C  51.05000 25.59200 42.92600
C  49.56100 25.16300 42.57600
C  49.65700 23.59400 42.72200
C  51.15200 23.30100 43.07800
C  48.63200 22.91000 43.69000
C  49.04900 25.69600 41.28500
C  50.02100 25.85900 40.04900
H  49.97000 24.90500 38.87200
N  54.02500 22.52700 43.55700
C  52.99900 21.65900 43.22800
C  53.56200 20.37700 43.09900
C  54.98600 20.37800 43.40700
C  55.24000 21.83200 43.57700
C  52.67900 19.27500 42.64400
C  55.95200 19.21800 43.43500
O  55.50200 18.16700 43.02300
C  57.46700 19.24200 43.84900
N  55.94700 24.80600 44.01400
C  56.83100 23.82300 43.99500
C  58.31500 24.30200 44.33400
C  58.04600 25.77500 44.57600
C  56.55600 25.94600 44.35700
C  58.92800 23.53500 45.49400
C  59.00800 26.77300 43.72100
C  58.52800 26.97500 42.23700
N  53.86600 26.68300 43.78300
C  54.71800 27.58900 44.43300
C  54.14900 28.84300 44.58000
C  52.84300 28.68700 44.17600
C  52.67800 27.27000 43.70200
C  54.76800 30.12300 45.14900
C  51.51400 29.27900 44.00500
O  51.11100 30.43800 44.25100
C  50.55400 28.11900 43.40900
C  50.10200 28.72400 42.10600
O  50.87100 28.89200 41.14900
O  48.82200 29.20500 42.07500
C  48.36100 29.90500 40.90800
H  50.95000 21.21700 42.72200
H  57.40800 21.82700 43.83600
H  56.72500 27.89100 45.06300
H  48.92400 25.46800 43.40600
H  49.48300 23.12900 41.75200
H  47.81100 23.61600 43.81400
H  49.09500 22.55900 44.61200
H  48.26500 21.97000 43.27700
H  48.56800 26.64100 41.53500
H  48.28000 24.96600 41.03000
H  50.99400 25.60700 40.46900
H  50.12500 26.83600 39.57700
H  53.24100 18.64700 41.95300
H  51.84600 19.67300 42.06500
H  52.34100 18.76300 43.54600
H  57.59100 18.20400 44.15900
H  57.69900 19.84700 44.72500
H  57.97100 19.37000 42.89100
H  58.86700 24.12800 43.41000
H  58.27800 25.95000 45.62700
H  59.23200 24.29100 46.21800
H  59.74200 22.89600 45.15200
H  58.09100 22.94700 45.87100
H  59.97500 26.31400 43.51400
H  59.12800 27.66700 44.33300
H  58.42700 28.00800 41.90500
H  57.57400 26.50300 42.00400
H  59.24500 26.48400 41.57800
H  53.99900 30.81500 44.80500
H  55.79200 30.28100 44.81300
H  54.77600 29.96300 46.22700
H  49.73200 27.99000 44.11400
H  47.38200 30.33500 41.12200
H  48.36000 29.22300 40.05700
H  49.01100 30.76200 40.73200
Mg 27.36900 50.20300 26.65400
C  25.43100 51.01500 29.34000
C  29.76800 48.99900 28.83600
C  29.64700 50.02100 24.10400
C  25.00900 51.44000 24.52300
N  27.60800 50.19000 28.88900
C  26.56900 50.45100 29.76300
C  27.03400 49.99700 31.17100
C  28.57000 49.55700 30.97400
C  28.66400 49.53900 29.45300
C  29.57900 50.46900 31.78900
C  26.17000 48.87900 31.77800
C  25.39600 49.21200 33.00000
H  26.14100 49.75800 34.18400
N  29.40900 49.47800 26.49600
C  30.20400 49.01200 27.49900
C  31.38100 48.44500 26.97500
C  31.46400 48.87000 25.65300
C  30.15500 49.58700 25.38100
C  32.30700 47.61300 27.84100
C  32.63100 48.85300 24.57700
O  32.57600 49.36100 23.47000
C  33.89800 48.17400 24.89400
N  27.36800 50.59800 24.56900
C  28.41000 50.38500 23.69700
C  27.98200 50.73900 22.27300
C  26.45100 51.22500 22.43800
C  26.24700 51.07300 23.92800
C  28.95900 51.87400 21.61300
C  25.47400 50.37400 21.52400
C  24.20900 51.13600 21.00100
N  25.62600 51.12700 26.85900
C  24.74900 51.55600 25.86900
C  23.56500 52.08000 26.50200
C  23.77300 51.83000 27.88200
C  25.05300 51.32100 28.05200
C  22.36500 52.76100 25.91900
C  23.10800 51.87400 29.21600
O  22.01400 52.32900 29.53500
C  24.15800 51.34800 30.23700
C  24.36700 52.20100 31.39100
O  25.26600 52.96900 31.59800
O  23.32700 51.86100 32.26000
C  23.39500 52.45200 33.53600
H  30.44800 48.58400 29.58300
H  30.44500 49.98800 23.36000
H  24.19000 51.75400 23.87200
H  26.92900 50.91400 31.75000
H  28.83300 48.54800 31.29400
H  30.61900 50.20100 31.60400
H  29.45100 50.51600 32.87000
H  29.41900 51.51900 31.54600
H  26.84700 48.03300 31.89400
H  25.48200 48.50700 31.01900
H  24.86600 48.28000 33.19400
H  24.65100 49.97000 32.75800
H  33.14100 48.28100 28.05600
H  32.65100 46.79000 27.21600
H  31.95500 47.32900 28.83300
H  34.64800 48.33700 24.11900
H  33.57400 47.13300 24.88600
H  34.18200 48.45000 25.90900
H  27.96900 49.80600 21.71100
H  26.34500 52.29700 22.26800
H  29.84400 52.02600 22.23100
H  28.32800 52.73700 21.39900
H  29.35700 51.57800 20.64200
H  25.08300 49.56400 22.14100
H  26.05600 50.05200 20.66100
H  24.05700 52.12400 21.43700
H  23.29100 50.60900 21.25700
H  24.25200 51.33300 19.92900
H  21.59200 52.07600 25.57000
H  22.68800 53.28800 25.02100
H  21.98800 53.44500 26.67900
H  23.76400 50.40000 30.60400
H  22.49000 52.03800 33.97900
H  23.45900 53.54100 33.54200
H  24.24000 52.02800 34.07900

