158

Mg 1.73000 -3.21200 44.76500
C  5.03700 -2.53400 44.09900
C  0.71600 -0.57500 42.76800
C  -1.58800 -4.45500 44.76000
C  2.74700 -6.28300 46.02900
N  2.76500 -1.85600 43.45100
C  4.15300 -1.66200 43.48600
C  4.54900 -0.34400 42.75900
C  3.09900 0.30300 42.53300
C  2.16000 -0.76800 42.93100
C  2.94500 1.67400 43.20900
C  5.17500 -0.70000 41.43300
C  6.27300 0.43600 41.03300
H  6.39300 0.91400 39.58200
N  -0.22700 -2.57200 43.94600
C  -0.38700 -1.43900 43.09400
C  -1.81900 -1.26400 42.82500
C  -2.52000 -2.31500 43.49000
C  -1.46700 -3.18800 44.16200
C  -2.34600 -0.12900 41.96700
C  -3.97500 -2.34600 43.52800
O  -4.68100 -1.60700 42.81600
C  -4.66200 -3.27600 44.41200
N  0.73800 -5.07500 45.34400
C  -0.60900 -5.31700 45.33800
C  -0.81200 -6.89300 45.69300
C  0.51200 -7.28300 46.40200
C  1.36400 -6.16800 45.88400
C  -2.06000 -7.32600 46.47500
C  1.05400 -8.65300 45.91100
C  1.90100 -9.49000 46.84700
N  3.54400 -4.21600 45.17500
C  3.79700 -5.38100 45.79600
C  5.16600 -5.51900 46.01600
C  5.77600 -4.41800 45.43300
C  4.70700 -3.71800 44.80300
C  5.94700 -6.79200 46.60400
C  7.02600 -3.72800 45.12700
O  8.19700 -3.96800 45.34900
C  6.58700 -2.52400 44.12900
C  7.13400 -1.31100 44.70400
O  6.90500 -0.80800 45.78300
O  8.10600 -0.74900 43.83600
C  8.62600 0.56800 44.20600
H  0.48600 0.29000 42.14200
H  -2.57200 -4.89700 44.58700
H  3.16200 -7.17100 46.51200
H  5.26800 0.22500 43.34900
H  2.86000 0.41400 41.47500
H  2.84700 2.31800 42.33500
H  3.83600 1.90500 43.79300
H  2.12000 1.77400 43.91400
H  4.44500 -0.89300 40.64800
H  5.67500 -1.66300 41.53800
H  7.29700 0.09900 41.19300
H  6.01500 1.29400 41.65500
H  -3.23400 0.41700 42.28600
H  -2.47000 -0.53200 40.96100
H  -1.62200 0.68300 41.89900
H  -4.80800 -4.27000 43.99000
H  -5.64700 -2.85600 44.61900
H  -4.25000 -3.32600 45.42000
H  -0.72800 -7.39600 44.72900
H  0.61600 -7.10300 47.47200
H  -2.74200 -7.94600 45.89200
H  -2.60600 -6.41000 46.70000
H  -1.86600 -7.91200 47.37400
H  1.59700 -8.52200 44.97500
H  0.22800 -9.30300 45.62300
H  2.89400 -9.68100 46.44100
H  1.47900 -10.49400 46.88500
H  2.02600 -9.00500 47.81500
H  6.99500 -6.74500 46.30700
H  5.50700 -7.64400 46.08600
H  5.95200 -6.95600 47.68100
H  7.07000 -2.74200 43.17600
H  9.25400 0.85600 43.36300
H  9.23300 0.53200 45.11000
H  7.81200 1.23900 44.48300
Mg 47.68200 25.68700 28.36600
C  48.65500 27.86500 31.01900
C  46.86700 23.33200 30.76500
C  46.94700 23.73900 25.85600
C  49.26700 27.89800 26.14900
N  47.73800 25.65700 30.67700
C  48.18600 26.59500 31.49400
C  47.66900 26.34100 32.90200
C  47.14200 24.87300 32.84300
C  47.25000 24.60400 31.34400
C  47.86200 23.71300 33.63100
C  46.65900 27.39100 33.56100
C  46.91000 28.03500 34.92500
H  45.68700 28.51600 35.71900
N  47.12500 23.80700 28.26100
C  46.80400 22.98400 29.32400
C  46.36300 21.74000 28.87600
C  46.40700 21.79800 27.37200
C  46.87900 23.19200 27.08100
C  45.96200 20.58300 29.77100
C  46.19800 20.69800 26.37500
O  46.48400 20.82100 25.20600
C  45.64400 19.39400 26.82500
N  48.10400 25.82800 26.34000
C  47.53000 24.94100 25.50000
C  47.69300 25.26600 24.08300
C  48.52300 26.51300 24.05800
C  48.67400 26.76400 25.58300
C  47.92800 24.09300 23.14400
C  47.94900 27.62400 23.24500
C  48.25700 27.49400 21.75500
N  48.53700 27.65900 28.47900
C  49.19800 28.36300 27.48700
C  49.71800 29.54500 28.09100
C  49.51800 29.42100 29.43400
C  48.83500 28.23600 29.62900
C  50.57100 30.59600 27.37900
C  49.69300 30.05500 30.73100
O  50.27300 31.06900 31.07600
C  49.07100 29.04300 31.80300
C  50.10800 28.86000 32.86800
O  50.83300 27.86300 32.86400
O  49.88000 29.80200 33.83800
C  50.60800 29.45400 35.07900
H  46.46000 22.62400 31.49000
H  46.62100 23.08900 25.04200
H  49.68600 28.59900 25.42400
H  48.59700 26.37600 33.47300
H  46.06700 24.93100 33.01500
H  48.17800 22.91200 32.96300
H  47.11100 23.28200 34.29300
H  48.70300 24.09300 34.21100
H  45.71400 26.87400 33.73000
H  46.44700 28.22600 32.89400
H  47.61400 28.86700 34.90900
H  47.35600 27.26400 35.55400
H  46.53000 19.71000 29.45100
H  44.91900 20.27200 29.71300
H  46.26500 20.58900 30.81800
H  45.36700 18.88400 25.90300
H  44.73200 19.48300 27.41500
H  46.39000 18.87900 27.43100
H  46.69400 25.58400 23.78400
H  49.58100 26.35700 23.84500
H  48.13400 23.17100 23.68900
H  48.67800 24.24200 22.36800
H  46.95100 23.98700 22.67200
H  48.34100 28.61300 23.48300
H  46.87100 27.78100 23.25700
H  47.31800 27.63900 21.22200
H  48.60400 26.46400 21.67500
H  48.98500 28.24300 21.44400
H  51.40000 29.89100 27.31700
H  50.76100 31.46000 28.01600
H  50.23900 30.76600 26.35500
H  48.23400 29.47600 32.35000
H  50.07600 28.57700 35.44700
H  50.81500 30.38200 35.61200
H  51.59200 29.14300 34.72700

