158

Mg 44.91500 1.89200 47.79700
C  42.88400 4.52800 46.68700
C  42.42700 -0.29700 47.37000
C  47.07300 -0.65200 48.39700
C  47.70200 4.14100 47.45800
N  42.92900 2.11600 47.12300
C  42.28900 3.26700 46.77800
C  40.78500 3.00800 46.51800
C  40.63900 1.59500 47.21900
C  42.11400 1.04600 47.10900
C  40.21500 1.67200 48.72100
C  40.37000 3.02600 45.05400
C  39.38000 4.11700 44.57900
H  39.94800 5.10500 43.43300
N  44.76500 -0.20800 47.89800
C  43.61000 -0.86000 47.61900
C  43.82100 -2.27600 47.68000
C  45.25900 -2.48200 47.97800
C  45.79500 -1.05600 48.08600
C  42.76100 -3.31900 47.43000
C  46.01100 -3.86300 48.15900
O  45.46500 -4.90300 48.03800
C  47.47300 -3.96000 48.48100
N  47.12400 1.68200 47.63700
C  47.69400 0.58700 48.23300
C  49.11600 0.77900 48.53100
C  49.32600 2.25300 47.99700
C  47.93700 2.76400 47.69000
C  49.47600 0.48500 50.01800
C  50.26700 2.30700 46.77700
C  51.79100 2.80500 47.03400
N  45.26900 3.93200 47.21200
C  46.40000 4.79300 47.21200
C  46.00300 6.22400 47.07300
C  44.59100 6.11600 46.91500
C  44.22500 4.75200 46.87200
C  46.83700 7.43200 46.96400
C  43.43000 6.92700 46.68700
O  43.16600 8.12100 46.61300
C  42.28900 5.95600 46.71700
C  41.42400 6.17700 47.88400
O  41.87900 6.05100 49.04500
O  40.11500 6.52100 47.56900
C  39.13500 6.65100 48.65600
H  41.54200 -0.91600 47.20600
H  47.74500 -1.42900 48.76600
H  48.46500 4.90500 47.61900
H  40.20500 3.78200 47.01900
H  40.02700 0.91200 46.63000
H  40.97200 1.26200 49.39100
H  39.31000 1.06400 48.74200
H  39.90800 2.67200 49.02700
H  39.89600 2.08800 44.76600
H  41.29200 3.15500 44.48800
H  39.12900 4.71800 45.45400
H  38.40500 3.79700 44.21100
H  43.10400 -3.91200 46.58200
H  41.80400 -2.86000 47.18200
H  42.62400 -3.84100 48.37700
H  47.58300 -3.72700 49.54100
H  47.92400 -3.27500 47.76300
H  47.84000 -4.98000 48.36800
H  49.69900 0.09400 47.91700
H  49.67300 2.89200 48.80900
H  49.86300 -0.50300 50.26700
H  48.62600 0.78300 50.63200
H  50.29000 1.16200 50.27800
H  49.92700 2.98800 45.99600
H  50.31300 1.39000 46.19000
H  52.47500 1.96300 46.92300
H  51.93600 3.27500 48.00600
H  52.05500 3.58900 46.32500
H  46.51900 7.95400 46.06100
H  47.92200 7.33000 46.97900
H  46.56700 8.03900 47.82800
H  41.72800 6.00600 45.78400
H  39.46100 6.40100 49.66500
H  38.27700 5.98500 48.55800
H  38.82900 7.69700 48.66000
Mg 15.95700 53.27600 24.99300
C  17.45900 51.96000 27.79900
C  13.34500 54.34400 26.89500
C  14.42600 54.21300 22.14300
C  18.34500 51.45000 23.11100
N  15.43300 53.01400 27.06500
C  16.24900 52.70100 28.08300
C  15.70700 53.11900 29.42500
C  14.21400 53.58200 29.09200
C  14.25400 53.57500 27.54800
C  13.12400 52.49700 29.60600
C  16.64900 54.21200 30.06000
C  16.98800 53.99800 31.53200
H  16.03500 53.22000 32.46000
N  14.19100 54.37500 24.63400
C  13.25500 54.73700 25.55000
C  12.20900 55.41400 24.84900
C  12.54400 55.39500 23.47000
C  13.79900 54.65800 23.33000
C  11.00800 55.92900 25.63000
C  11.78900 55.88500 22.24700
O  12.16500 55.77400 21.06700
C  10.45200 56.46700 22.42800
N  16.28800 52.82000 22.90800
C  15.48100 53.30200 21.92500
C  16.12100 53.03900 20.55100
C  17.46700 52.20500 20.88800
C  17.40700 52.21600 22.39200
C  15.26900 52.31500 19.48200
C  18.77900 52.83900 20.22700
C  19.30100 52.18800 18.93200
N  17.48400 51.97500 25.33200
C  18.43100 51.39500 24.51400
C  19.40100 50.67100 25.17200
C  19.08600 50.95500 26.50100
C  17.85700 51.65100 26.52900
C  20.51400 49.82900 24.57500
C  19.58600 50.79400 27.80300
O  20.68800 50.36200 28.13600
C  18.50900 51.40800 28.77800
C  18.09300 50.42800 29.72400
O  17.14000 49.62500 29.54600
O  18.91000 50.59000 30.84900
C  18.43600 49.88200 32.03500
H  12.63000 54.78100 27.59500
H  14.00400 54.50700 21.18000
H  19.07800 50.92700 22.49400
H  15.59000 52.21700 30.02600
H  13.93600 54.55500 29.49700
H  12.62500 52.68200 30.55700
H  13.53200 51.49200 29.71700
H  12.42200 52.56600 28.77500
H  16.24300 55.22300 30.05600
H  17.61500 54.23900 29.55400
H  17.21000 54.99200 31.92100
H  17.99000 53.57100 31.56600
H  10.27700 55.13100 25.76300
H  10.53700 56.73900 25.07300
H  11.27500 56.37900 26.58500
H  10.12000 56.66400 21.40900
H  10.55400 57.42700 22.93500
H  9.66200 55.89900 22.92000
H  16.45500 54.01600 20.20100
H  17.26200 51.17600 20.59500
H  15.75100 51.71800 18.70800
H  14.96400 53.18500 18.89900
H  14.42800 51.81100 19.95900
H  19.54500 52.89900 20.99900
H  18.54300 53.85300 19.90500
H  18.57600 51.55500 18.42000
H  20.12500 51.55500 19.26300
H  19.63600 52.94800 18.22600
H  20.32800 49.31500 23.63200
H  20.46600 49.13200 25.41100
H  21.41000 50.44200 24.48000
H  18.98400 52.19600 29.36300
H  18.68900 48.83300 31.88000
H  17.36800 49.87600 32.25200
H  18.91200 50.29900 32.92200

