158

Mg 26.92700 49.93400 26.30300
C  24.72500 50.96100 28.77300
C  29.16500 49.16700 28.62700
C  29.14700 49.52800 23.73600
C  24.66900 51.34800 23.90600
N  26.97100 50.16200 28.47600
C  25.93000 50.47900 29.25500
C  26.23200 50.17000 30.75200
C  27.72900 49.59800 30.72500
C  27.95900 49.66500 29.19700
C  28.82500 50.34800 31.53100
C  25.26000 49.06600 31.26800
C  25.17200 48.85900 32.76000
H  25.87000 49.79800 33.79400
N  28.79700 49.25100 26.21500
C  29.66900 49.07800 27.27100
C  30.98000 48.79900 26.82000
C  30.91300 48.81100 25.41300
C  29.53700 49.20700 25.05500
C  32.12000 48.49800 27.79300
C  32.04500 48.57300 24.44400
O  31.91300 48.70100 23.25600
C  33.37600 48.18400 24.93800
N  26.99500 50.45300 24.18800
C  27.98100 50.09100 23.31200
C  27.58100 50.17100 21.81300
C  26.24300 50.95400 21.89900
C  25.87400 50.82000 23.40200
C  28.60900 51.06700 21.03600
C  25.14800 50.27000 20.97800
C  24.45900 51.17100 19.85000
N  25.05600 51.01300 26.28300
C  24.25800 51.43500 25.26200
C  23.08800 52.14100 25.87100
C  23.27700 52.05300 27.25100
C  24.44900 51.27800 27.46400
C  22.07600 52.85100 25.10300
C  22.68400 52.39000 28.53300
O  21.67800 53.03300 28.83700
C  23.60300 51.65400 29.57900
C  23.95800 52.61800 30.58000
O  24.89200 53.41800 30.50100
O  23.06500 52.61200 31.59800
C  23.23900 53.69100 32.57700
H  29.89200 48.86900 29.38600
H  29.79900 49.31700 22.88600
H  23.98600 51.73100 23.14400
H  26.40600 51.03800 31.38800
H  27.81500 48.61700 31.19100
H  29.51500 50.94700 30.93700
H  29.43400 49.65400 32.11000
H  28.44700 51.01800 32.30400
H  25.61600 48.09000 30.93800
H  24.25800 49.22500 30.86900
H  25.22400 47.80100 33.02000
H  24.16400 49.12900 33.07800
H  32.13900 47.40800 27.76300
H  31.81600 48.84100 28.78200
H  33.14000 48.86000 27.66100
H  33.20400 47.39700 25.67300
H  33.75600 49.11200 25.36500
H  33.95700 47.89600 24.06100
H  27.56300 49.15900 21.40700
H  26.31000 52.01100 21.64000
H  28.83900 50.56700 20.09500
H  29.52400 51.20700 21.61100
H  28.21000 52.03500 20.73000
H  24.57500 49.64000 21.65900
H  25.63200 49.53600 20.33300
H  25.11100 51.93900 19.43400
H  23.62900 51.78200 20.20400
H  24.18900 50.50000 19.03400
H  21.62300 52.26200 24.30600
H  22.42700 53.75800 24.61100
H  21.20800 53.05000 25.73100
H  22.89800 50.90900 29.94900
H  22.38000 53.91400 33.20900
H  23.48100 54.62300 32.06800
H  23.95200 53.35500 33.33000
Mg -6.15300 24.73600 27.09600
C  -5.13900 26.35500 30.17700
C  -8.14700 22.75300 29.20100
C  -7.13700 23.08800 24.38400
C  -4.02400 26.82800 25.36800
N  -6.57300 24.53900 29.43400
C  -5.99400 25.27700 30.43500
C  -6.44000 24.83000 31.88000
C  -7.14100 23.49600 31.46300
C  -7.37700 23.61500 29.95500
C  -6.44900 22.12200 31.66700
C  -7.33800 26.00900 32.54700
C  -7.16400 26.12100 34.07600
H  -6.60400 24.92300 34.82200
N  -7.49400 23.22300 26.76700
C  -8.19100 22.60200 27.78000
C  -9.10400 21.60600 27.19800
C  -8.78700 21.57200 25.83100
C  -7.75500 22.67500 25.59900
C  -10.00500 20.70800 27.94700
C  -9.39000 20.73700 24.72800
O  -8.96300 20.78300 23.58000
C  -10.37800 19.64600 25.03600
N  -5.57200 24.91000 25.17900
C  -6.16700 24.11900 24.21400
C  -5.64000 24.51100 22.83300
C  -4.75000 25.80500 23.15000
C  -4.71600 25.83900 24.66400
C  -4.94100 23.38400 22.00200
C  -5.37500 27.06700 22.45800
C  -4.53700 28.18600 21.74900
N  -4.91300 26.22600 27.61900
C  -4.07800 26.93600 26.77600
C  -3.23800 27.80900 27.60400
C  -3.61200 27.62800 28.89900
C  -4.68700 26.67500 28.83800
C  -2.10900 28.72000 27.18700
C  -3.28300 27.99600 30.27500
O  -2.40100 28.72200 30.70600
C  -4.31500 27.23000 31.15100
C  -3.45400 26.44600 32.07000
O  -2.50700 25.81500 31.78600
O  -3.88500 26.64700 33.33100
C  -3.01700 26.30700 34.44500
H  -8.82500 22.15200 29.81000
H  -7.29300 22.51200 23.46900
H  -3.48000 27.55900 24.76600
H  -5.51200 24.64800 32.42400
H  -8.07500 23.56200 32.02100
H  -5.51100 22.30200 32.19200
H  -6.28900 21.50600 30.78300
H  -7.10800 21.59900 32.36100
H  -8.38500 25.92400 32.25500
H  -6.90400 26.95500 32.22600
H  -8.07300 26.33500 34.63700
H  -6.41000 26.89700 34.20600
H  -10.93900 20.83000 27.39900
H  -10.25400 21.13700 28.91800
H  -9.63200 19.68400 27.95500
H  -9.90300 18.90500 25.68000
H  -10.62400 19.12800 24.10900
H  -11.27200 20.21200 25.29500
H  -6.57300 24.80600 22.35400
H  -3.72800 25.73000 22.78000
H  -3.87700 23.54800 22.17700
H  -5.14500 23.39400 20.93200
H  -5.27400 22.40800 22.35500
H  -5.98900 27.63500 23.15600
H  -6.00800 26.75800 21.62500
H  -5.28600 28.77300 21.21800
H  -3.92000 27.67400 21.01000
H  -3.95800 28.73800 22.48900
H  -1.57300 28.27000 26.35200
H  -1.40400 28.75000 28.01900
H  -2.42200 29.69500 26.81600
H  -4.91100 27.98600 31.66400
H  -2.52100 25.33800 34.40700
H  -3.61800 26.38400 35.35200
H  -2.19900 27.02300 34.53400

