158

Mg 28.35600 57.85300 41.43600
C  25.58600 55.83100 40.48900
C  30.44800 55.60100 39.92900
C  30.89300 60.07700 41.64900
C  25.98100 60.34600 42.39800
N  27.96900 55.86200 40.41900
C  26.80800 55.23100 40.05700
C  27.10100 53.90700 39.30400
C  28.68200 53.94700 39.06400
C  29.07400 55.18900 39.92500
C  29.37000 52.59900 39.54500
C  26.28200 53.82700 37.91500
C  26.52800 55.02000 36.92700
H  26.91200 54.66900 35.47600
N  30.41500 57.76100 40.99200
C  31.08300 56.78800 40.40400
C  32.56000 57.09900 40.35800
C  32.72100 58.36700 40.94700
C  31.31800 58.79300 41.19600
C  33.48300 56.13100 39.95900
C  34.05200 59.03400 41.19500
O  35.08800 58.53000 40.76300
C  34.19900 60.27800 42.02900
N  28.43200 60.02200 41.91400
C  29.61800 60.68300 42.00100
C  29.37500 62.12800 42.34500
C  27.90200 62.12900 42.83300
C  27.40000 60.77900 42.35000
C  30.40500 62.92200 43.25500
C  27.05200 63.36900 42.54500
C  26.37000 64.14400 43.68000
N  26.18200 58.07000 41.60400
C  25.41100 59.12900 42.02700
C  23.98600 58.74700 42.06400
C  24.03100 57.39000 41.54900
C  25.33500 57.07000 41.13800
C  22.89700 59.54900 42.73000
C  23.16400 56.29000 41.20200
O  21.98000 56.07100 41.46900
C  24.07000 55.26100 40.43000
C  23.90900 53.91900 40.97900
O  23.46300 52.97300 40.37700
O  24.30100 53.91500 42.25800
C  24.36000 52.61900 42.90800
H  31.02500 54.88600 39.33900
H  31.71800 60.78700 41.73800
H  25.19600 60.96900 42.83100
H  26.75100 53.00900 39.81400
H  29.05200 54.16700 38.06300
H  29.76400 52.04100 38.69600
H  28.75200 51.93500 40.14900
H  30.21200 52.87300 40.18000
H  25.20200 53.91900 38.03200
H  26.43900 52.88600 37.38700
H  27.30300 55.65600 37.35500
H  25.59400 55.56300 36.77800
H  34.36900 56.04400 40.58700
H  33.80500 56.43800 38.96400
H  33.04700 55.14800 39.77900
H  33.67700 60.11500 42.97200
H  33.79800 61.16600 41.54000
H  35.25100 60.41100 42.28200
H  29.50800 62.68200 41.41500
H  27.87700 61.93700 43.90500
H  31.19400 62.20200 43.47200
H  30.04100 63.29400 44.21300
H  30.83700 63.75000 42.69300
H  26.25800 63.15100 41.83000
H  27.67300 64.12800 42.07000
H  26.45300 63.65200 44.64900
H  25.31600 64.19600 43.40600
H  26.79400 65.13400 43.84800
H  23.17400 59.64400 43.78000
H  21.97800 59.02500 42.46600
H  22.72800 60.55000 42.33100
H  23.67300 55.27400 39.41500
H  24.68900 51.88900 42.16800
H  23.37500 52.36700 43.30100
H  25.01000 52.66600 43.78200
Mg 17.05700 52.63200 26.00400
C  18.66500 51.12900 28.70500
C  14.35400 53.27800 28.35100
C  15.13600 53.75000 23.50900
C  19.31400 51.38900 23.82900
N  16.54900 52.24100 28.22700
C  17.47600 51.66900 29.14000
C  16.93700 51.70100 30.60100
C  15.41300 52.06300 30.38900
C  15.41300 52.52600 28.91600
C  14.47700 50.84500 30.52500
C  17.77100 52.68600 31.50200
C  17.27900 52.96800 32.99000
H  16.29800 52.01800 33.70600
N  14.99400 53.60900 25.94200
C  14.11300 53.76200 27.01100
C  12.94600 54.47500 26.48200
C  13.10400 54.56900 25.08300
C  14.41300 53.91300 24.75500
C  11.83000 54.94900 27.29400
C  12.30100 55.26200 24.06100
O  12.63100 55.35800 22.86100
C  10.98300 56.14600 24.51800
N  17.13700 52.44500 24.00600
C  16.27200 53.04400 23.11600
C  16.81000 52.92800 21.67200
C  18.17200 52.25000 21.75200
C  18.22400 52.03100 23.25600
C  15.83900 52.49200 20.57400
C  19.42700 53.06300 21.08400
C  20.10000 52.37500 19.86100
N  18.65300 51.45700 26.16000
C  19.51600 51.03700 25.18800
C  20.63000 50.28500 25.79500
C  20.36900 50.40700 27.18600
C  19.16000 51.03200 27.37100
C  21.74900 49.60700 25.05700
C  20.88800 49.92900 28.46100
O  21.78900 49.15000 28.75800
C  19.78700 50.49700 29.49400
C  19.39100 49.32600 30.31300
O  18.78200 48.33900 29.86500
O  19.80700 49.46300 31.59700
C  19.42200 48.33900 32.47000
H  13.54800 53.37500 29.08100
H  14.56400 53.88300 22.58900
H  20.07900 51.20400 23.07300
H  17.09200 50.72100 31.05100
H  15.04500 52.91000 30.96700
H  15.14200 50.08000 30.92400
H  14.22800 50.42500 29.55100
H  13.62900 51.04600 31.18100
H  17.67700 53.62900 30.96300
H  18.84200 52.52000 31.62200
H  16.90500 53.99000 32.93800
H  18.10200 53.07400 33.69700
H  11.66200 56.02600 27.31800
H  11.99000 54.62200 28.32100
H  10.92400 54.55600 26.83300
H  11.29900 56.96600 25.16300
H  10.21700 55.53000 24.98800
H  10.56600 56.42100 23.54900
H  16.93200 53.97800 21.40600
H  18.19300 51.24400 21.33300
H  16.00200 53.20600 19.76700
H  14.85200 52.52400 21.03600
H  16.14300 51.50100 20.23900
H  20.17200 53.21200 21.86600
H  19.13300 54.05100 20.72900
H  21.05200 51.91600 20.12900
H  20.34300 53.12400 19.10700
H  19.53700 51.54400 19.43700
H  22.47700 49.51900 25.86300
H  22.04800 50.29200 24.26300
H  21.40000 48.66800 24.62900
H  20.36700 51.25600 30.01800
H  18.63400 47.66100 32.14400
H  18.99400 48.92300 33.28400
H  20.32500 47.87100 32.86200

