158

Mg 47.95000 16.41100 28.97500
C  45.82900 15.98200 31.68500
C  50.04400 18.17700 30.76800
C  49.71800 16.92400 26.12700
C  45.33100 15.00300 26.90400
N  47.84700 17.18000 30.98100
C  47.00100 16.76500 31.96200
C  47.61000 17.03300 33.41700
C  48.69200 18.05800 33.01600
C  48.85100 17.85300 31.47900
C  48.40300 19.54000 33.26800
C  48.07300 15.69200 34.11900
C  47.58700 15.49700 35.59500
H  47.26700 16.71000 36.44400
N  49.72700 17.28800 28.55100
C  50.49500 17.92700 29.45400
C  51.75200 18.28900 28.83500
C  51.67500 17.91100 27.45900
C  50.37700 17.31500 27.29300
C  52.90700 18.90600 29.69600
C  52.77600 18.16700 26.37700
O  52.69300 17.75400 25.26300
C  53.94700 18.88100 26.78500
N  47.53600 15.98000 26.86400
C  48.45600 16.41400 25.87800
C  47.89100 16.17900 24.44300
C  46.55500 15.45500 24.70300
C  46.44300 15.49100 26.26500
C  47.89900 17.41100 23.59700
C  46.46300 14.04500 24.09600
C  45.59800 13.78000 22.85400
N  46.03500 15.61300 29.18500
C  45.12500 15.08100 28.30900
C  43.99700 14.58800 29.02000
C  44.17800 14.92100 30.40000
C  45.44200 15.57000 30.42700
C  42.80100 13.94500 28.43600
C  43.64100 14.86600 31.72200
O  42.61200 14.31100 32.11900
C  44.71400 15.54000 32.66200
C  44.09300 16.66800 33.49800
O  43.71300 17.75200 33.04600
O  43.91900 16.32800 34.81500
C  43.32500 17.47600 35.58900
H  50.71800 18.74400 31.41400
H  50.32500 17.20700 25.26400
H  44.47300 14.61500 26.35200
H  46.83700 17.51500 34.01600
H  49.61200 17.82300 33.55100
H  49.17600 19.97900 33.89800
H  47.44100 19.72500 33.74600
H  48.47100 20.06100 32.31300
H  49.14900 15.56200 33.99600
H  47.54900 14.88200 33.61200
H  48.34500 15.00100 36.20000
H  46.76200 14.78500 35.63800
H  53.78600 18.26200 29.68000
H  52.52100 18.91500 30.71500
H  53.17500 19.92600 29.41800
H  53.83000 19.80900 27.34600
H  54.60100 19.02000 25.92500
H  54.54300 18.25200 27.44600
H  48.55600 15.53900 23.86200
H  45.69200 16.01600 24.34700
H  48.52100 18.25300 23.90000
H  46.89000 17.61700 23.23900
H  48.43400 17.16500 22.68000
H  46.17600 13.37200 24.90300
H  47.40600 13.58400 23.80200
H  44.91600 14.61100 22.67200
H  45.05100 12.84400 22.96800
H  46.24800 13.67200 21.98600
H  42.61400 14.33700 27.43600
H  41.95400 14.03200 29.11600
H  43.02400 12.88200 28.34400
H  44.92300 14.76200 33.39800
H  43.74400 18.41900 35.23700
H  43.59000 17.35400 36.63900
H  42.24000 17.54700 35.51100
Mg 49.69100 47.42900 42.60400
C  46.27000 47.76700 41.63000
C  49.68600 44.42100 40.91000
C  52.95200 47.35200 43.01900
C  49.59400 50.67600 43.86000
N  48.09900 46.28300 41.36900
C  46.80800 46.61100 41.13800
C  46.08200 45.48200 40.38900
C  47.17100 44.30900 40.31300
C  48.39400 45.05700 40.84900
C  46.84100 42.98800 41.07800
C  45.43600 45.94100 39.03800
C  43.99400 45.66400 38.90500
H  43.34500 45.27100 37.59500
N  51.03100 45.98600 42.18100
C  50.88500 44.81300 41.47100
C  52.09300 44.08000 41.48800
C  53.07600 44.86800 42.13800
C  52.39400 46.19000 42.44400
C  52.23700 42.63900 40.88500
C  54.54900 44.50600 42.29600
O  55.05900 43.48300 41.85900
C  55.49600 45.50800 43.02500
N  51.13900 48.89300 43.15700
C  52.39500 48.59600 43.38200
C  53.16900 49.75600 44.06500
C  52.09300 50.80800 44.39500
C  50.85100 50.06700 43.75700
C  54.13000 49.39700 45.20600
C  52.23400 52.20100 43.93700
C  52.19700 53.32500 45.01900
N  48.30200 49.01800 42.61500
C  48.41700 50.24300 43.20400
C  47.15500 50.93200 43.15300
C  46.30100 49.97000 42.60200
C  47.01000 48.83400 42.28800
C  46.88900 52.35500 43.62400
C  44.89800 49.76200 42.18500
O  43.89400 50.48000 42.37700
C  44.84800 48.24900 41.49800
C  43.91400 47.56400 42.31700
O  44.14600 47.36800 43.53600
O  42.86500 47.02800 41.57500
C  42.10500 46.01000 42.27500
H  49.75600 43.48200 40.35700
H  54.01700 47.32500 43.26000
H  49.66700 51.62400 44.39700
H  45.27400 45.11000 41.01900
H  47.34400 44.06600 39.26500
H  45.76200 42.84900 41.13600
H  47.22700 42.98200 42.09800
H  47.34800 42.11000 40.67800
H  46.01600 45.56400 38.19600
H  45.59200 47.01600 39.12700
H  43.57900 46.65000 39.11100
H  43.55600 45.03000 39.67600
H  51.36400 42.00700 40.72400
H  52.88000 42.09500 41.57700
H  52.84900 42.68600 39.98400
H  55.57800 46.40800 42.41700
H  56.49100 45.08600 43.16100
H  55.03000 45.63700 44.00200
H  53.75800 50.13500 43.22900
H  51.90700 50.78200 45.46800
H  55.16300 49.50800 44.87500
H  53.97800 48.34800 45.46100
H  53.92800 49.99800 46.09200
H  51.46700 52.43800 43.20000
H  53.20900 52.41500 43.49900
H  53.20500 53.66000 45.26200
H  51.83300 52.94600 45.97400
H  51.55200 54.15500 44.73000
H  45.86000 52.67400 43.45900
H  47.53200 53.15800 43.26300
H  46.90900 52.38100 44.71300
H  44.46100 48.16100 40.48300
H  42.68400 45.08800 42.23000
H  41.20600 45.88700 41.67200
H  41.80800 46.22100 43.30200

