158

Mg 26.18300 50.22800 26.83300
C  24.40100 51.79300 29.33000
C  28.58400 49.17300 29.08000
C  28.15900 49.03500 24.25800
C  24.03500 51.73300 24.53000
N  26.44000 50.45200 28.91900
C  25.44900 50.99400 29.78700
C  25.67600 50.62200 31.22300
C  27.20800 50.12300 31.14300
C  27.44800 49.86500 29.60600
C  28.26300 51.15300 31.73500
C  24.67000 49.49300 31.67300
C  24.41300 49.37200 33.19400
H  25.19700 50.11500 34.28000
N  28.11300 49.19900 26.66800
C  28.84200 48.80000 27.75400
C  30.09200 48.19100 27.31000
C  30.02200 48.14800 25.89700
C  28.76300 48.80300 25.54700
C  31.07300 47.63200 28.29600
C  30.90300 47.53000 24.86800
O  30.77800 47.66800 23.65500
C  32.16000 46.73300 25.37400
N  26.14100 50.45100 24.77300
C  27.01200 49.78100 23.88400
C  26.57400 50.04700 22.43200
C  25.18100 50.61200 22.57600
C  25.18600 50.99300 24.03700
C  27.62400 50.84100 21.64400
C  24.03600 49.65700 22.17600
C  22.87600 50.27100 21.43700
N  24.59300 51.54300 26.88300
C  23.77900 52.08200 25.87800
C  22.67300 52.88700 26.44900
C  22.84000 52.75600 27.82400
C  24.06500 52.07100 28.02500
C  21.52500 53.53800 25.73300
C  22.29000 53.04300 29.16300
O  21.15500 53.45600 29.51300
C  23.35700 52.50200 30.20000
C  23.68600 53.58400 31.22100
O  24.60700 54.36300 31.05400
O  22.89900 53.48400 32.35700
C  23.26200 54.51700 33.34700
H  29.22100 48.87900 29.91600
H  28.64500 48.51400 23.43100
H  23.30800 52.11500 23.81000
H  25.61000 51.48100 31.89100
H  27.42500 49.15300 31.59000
H  28.62700 50.74200 32.67700
H  27.82800 52.10600 32.03600
H  29.15700 51.32700 31.13600
H  25.17200 48.57800 31.35900
H  23.74800 49.59300 31.10000
H  24.40500 48.31700 33.47000
H  23.38100 49.72000 33.14800
H  30.80100 47.65600 29.35100
H  32.00800 48.17600 28.16300
H  31.36400 46.60100 28.09500
H  31.78200 45.87200 25.92500
H  32.90000 47.32500 25.91300
H  32.66500 46.25200 24.53500
H  26.54400 49.05100 21.98900
H  25.16100 51.53500 21.99700
H  27.72100 50.67200 20.57200
H  28.63500 50.78500 22.04800
H  27.39000 51.89100 21.46900
H  23.71000 49.10400 23.05700
H  24.39300 48.92100 21.45600
H  23.07900 51.32600 21.25500
H  21.93000 50.19100 21.97300
H  22.87000 49.81000 20.45000
H  20.77900 52.75200 25.85000
H  21.50000 53.53400 24.64300
H  21.28100 54.49000 26.20500
H  22.86300 51.70100 30.75000
H  23.46400 55.45900 32.83700
H  24.10200 54.20300 33.96700
H  22.30500 54.63400 33.85500
Mg -1.81800 35.12300 26.81100
C  -3.74600 33.21800 29.11100
C  -1.25500 37.30700 29.21300
C  -0.24700 36.67000 24.43400
C  -3.14600 32.98900 24.33200
N  -2.51200 35.26100 28.84600
C  -3.13400 34.34000 29.64100
C  -3.09700 34.69700 31.16800
C  -2.55400 36.11500 31.11200
C  -2.03600 36.26800 29.66100
C  -3.55700 37.30700 31.56400
C  -2.23200 33.64500 31.98300
C  -2.95400 32.96700 33.17300
H  -2.14600 32.65800 34.50800
N  -0.75800 36.74200 26.88300
C  -0.62000 37.54800 27.94300
C  0.23600 38.65600 27.55800
C  0.56500 38.50000 26.12300
C  -0.19400 37.27600 25.77300
C  0.53300 39.79600 28.47200
C  1.50700 39.28400 25.27500
O  1.67900 39.01600 24.10200
C  2.29300 40.43500 25.80900
N  -1.62100 34.79700 24.74400
C  -0.92500 35.58700 23.99100
C  -0.92600 35.17100 22.49100
C  -1.52300 33.82100 22.53500
C  -2.19500 33.88400 23.94500
C  -1.67800 36.20500 21.59300
C  -0.66900 32.53800 22.40900
C  0.68700 32.58900 23.14500
N  -3.18300 33.56300 26.70200
C  -3.63300 32.73700 25.59000
C  -4.58800 31.77600 26.02200
C  -4.52000 31.91500 27.41600
C  -3.72500 32.96900 27.75200
C  -5.42200 30.92700 25.14500
C  -5.11100 31.24500 28.60300
O  -5.92800 30.36800 28.71900
C  -4.52900 32.06900 29.72000
C  -5.61100 32.55300 30.54500
O  -6.41100 33.48200 30.26800
O  -5.59800 31.81900 31.71500
C  -6.39400 32.31800 32.83700
H  -0.87700 37.98200 29.98400
H  0.20200 37.27900 23.64600
H  -3.23200 32.27100 23.51400
H  -4.09500 34.66600 31.60300
H  -1.80500 36.18700 31.90000
H  -2.85900 37.92200 32.13200
H  -4.36500 37.05100 32.24900
H  -3.96500 37.92500 30.76400
H  -1.26800 34.07200 32.25900
H  -1.89200 32.78100 31.41300
H  -3.28300 31.96600 32.89400
H  -3.78200 33.60200 33.48800
H  -0.00200 39.79400 29.42100
H  0.02300 40.55100 27.87400
H  1.59800 40.02400 28.50600
H  2.94900 40.22600 26.65500
H  1.55200 41.15700 26.15200
H  2.93500 40.77600 24.99600
H  0.09800 35.11400 22.12300
H  -2.23200 33.66600 21.72200
H  -2.10000 36.97400 22.23900
H  -2.54000 35.68200 21.17900
H  -0.94900 36.62700 20.90100
H  -0.34200 32.45600 21.37200
H  -1.27600 31.63500 22.48400
H  0.53200 31.75200 23.82600
H  0.87000 33.56500 23.59500
H  1.51300 32.35300 22.47400
H  -5.30900 31.07500 24.07200
H  -6.48700 30.96000 25.37700
H  -5.07500 29.91400 25.34800
H  -3.81300 31.42900 30.23600
H  -6.18900 33.37700 32.99400
H  -6.00200 31.88000 33.75500
H  -7.45900 32.10500 32.74800

