158

Mg 47.80600 16.60300 27.74600
C  45.97900 16.26600 30.75400
C  50.20100 18.29300 29.45500
C  49.41300 17.05600 24.81900
C  45.10200 15.12900 25.98600
N  48.11400 17.05700 29.89700
C  47.26800 16.70200 30.95300
C  47.90000 17.10800 32.30100
C  49.22200 17.95300 31.85200
C  49.21200 17.72300 30.33500
C  49.21500 19.46200 32.29500
C  48.30800 15.96700 33.16800
C  47.52700 15.89100 34.59200
H  47.40400 17.22700 35.34800
N  49.64500 17.41800 27.26700
C  50.43400 18.11200 28.09000
C  51.70600 18.31300 27.38200
C  51.49500 17.96900 25.96700
C  50.11100 17.43000 25.98100
C  52.87700 18.93100 28.01500
C  52.48200 18.18200 24.82900
O  52.21300 17.96600 23.68000
C  53.83100 18.84400 25.04400
N  47.37200 16.14500 25.69500
C  48.16400 16.50500 24.64000
C  47.70400 15.88200 23.33600
C  46.24500 15.30200 23.69000
C  46.23500 15.48000 25.20500
C  47.66300 16.87100 22.12100
C  46.12700 13.81900 23.25000
C  44.95200 13.39300 22.41700
N  45.82000 16.06300 28.18600
C  44.90000 15.34200 27.39500
C  43.83300 14.89300 28.35000
C  44.18000 15.29600 29.62800
C  45.45400 15.89500 29.49700
C  42.66500 14.07700 27.98400
C  43.75300 15.29000 30.96700
O  42.73000 14.82600 31.45400
C  44.94500 15.72900 31.79900
C  44.38900 16.77000 32.68500
O  44.05500 17.87100 32.29800
O  44.06800 16.22000 33.87700
C  43.24100 17.08000 34.78400
H  50.88800 18.92700 30.02100
H  50.03700 16.97600 23.92700
H  44.33600 14.60600 25.41000
H  47.16600 17.75700 32.77900
H  50.13500 17.49900 32.23700
H  50.18600 19.68000 32.74100
H  48.47200 19.55100 33.08700
H  48.94100 20.07800 31.43900
H  49.37600 16.02700 33.37800
H  48.04900 15.12700 32.52400
H  48.05700 15.18800 35.23500
H  46.55100 15.42300 34.46500
H  52.82700 18.95900 29.10400
H  53.23500 19.90800 27.69100
H  53.77200 18.31900 27.89800
H  53.82900 19.89000 25.35100
H  54.40200 18.80200 24.11600
H  54.32000 18.25500 25.81900
H  48.42400 15.08600 23.15100
H  45.43300 15.92300 23.31200
H  47.91100 16.33300 21.20600
H  48.38300 17.68600 22.19100
H  46.68800 17.31400 21.91300
H  46.16600 13.25900 24.18400
H  47.08300 13.61100 22.77000
H  44.20300 14.16800 22.57700
H  44.57500 12.49700 22.91000
H  45.27000 13.25600 21.38300
H  42.55000 14.22700 26.91100
H  41.84400 14.56700 28.50700
H  42.87100 13.03700 28.23800
H  45.37100 14.91800 32.39000
H  42.37500 17.34800 34.17900
H  43.80800 17.98400 35.00800
H  43.15300 16.56300 35.74000
Mg 34.59100 48.34200 26.43000
C  34.98900 46.12700 29.14800
C  33.89400 50.79100 28.66900
C  33.98800 50.37300 23.66400
C  34.90100 45.59400 24.26400
N  34.45000 48.32200 28.67500
C  34.74000 47.37300 29.55200
C  34.75700 47.92800 30.96600
C  33.95500 49.28400 30.79500
C  34.15200 49.52900 29.26400
C  32.38400 49.08600 31.08600
C  36.16500 47.82800 31.67300
C  36.16000 47.45600 33.20100
H  36.21300 48.65300 34.09700
N  34.18800 50.33200 26.18700
C  33.88700 51.19100 27.23000
C  33.62800 52.48400 26.73700
C  33.74700 52.44600 25.32000
C  34.03400 50.99600 25.00200
C  33.41600 53.67400 27.68100
C  33.78700 53.50100 24.27200
O  34.06300 53.20700 23.09500
C  33.44900 54.98000 24.63500
N  34.49800 48.04300 24.27700
C  34.23800 49.06200 23.33000
C  34.16900 48.46500 21.98500
C  34.69700 46.93700 22.18400
C  34.71400 46.79800 23.68300
C  32.89500 48.58600 21.20100
C  36.09600 46.68900 21.64500
C  36.06600 45.57500 20.61700
N  34.76400 46.21400 26.58000
C  34.96900 45.26700 25.63200
C  35.37700 43.98200 26.28800
C  35.22400 44.22700 27.68300
C  35.02200 45.63500 27.79200
C  35.83900 42.77900 25.55900
C  35.45700 43.70800 28.97400
O  35.72500 42.57500 29.35500
C  35.26900 44.91000 30.07100
C  34.22100 44.44800 30.97900
O  33.08000 44.26100 30.69800
O  34.74400 44.27400 32.24600
C  33.83000 44.16600 33.37400
H  33.58300 51.50900 29.43100
H  33.77500 51.04300 22.82900
H  34.87400 44.63200 23.74800
H  34.09600 47.37000 31.62900
H  34.43400 50.15800 31.23600
H  31.93400 49.35400 32.04200
H  32.17300 48.02900 30.92500
H  31.91400 49.64300 30.27600
H  36.57900 48.82500 31.51900
H  36.86700 47.14500 31.19600
H  37.07100 46.88400 33.37900
H  35.39900 46.72300 33.46800
H  32.40200 54.03400 27.50400
H  34.15800 54.46900 27.60000
H  33.29600 53.45600 28.74200
H  33.40100 55.66400 23.78800
H  34.30800 55.30700 25.22100
H  32.56300 55.11100 25.25600
H  34.88300 49.12200 21.49000
H  34.05700 46.16500 21.75600
H  32.39000 47.62200 21.24300
H  33.09000 48.89900 20.17500
H  32.07200 49.20700 21.55500
H  36.77200 46.39300 22.44700
H  36.46300 47.55100 21.08800
H  35.03700 45.33200 20.35200
H  36.46200 44.62400 20.97300
H  36.62300 45.90700 19.74100
H  36.68400 43.14100 24.97400
H  34.99100 42.49900 24.93500
H  36.06900 41.86100 26.10000
H  36.18700 45.10500 30.62500
H  32.93800 44.77000 33.20900
H  34.27200 44.48100 34.31900
H  33.66200 43.09500 33.48300

