158

Mg 8.34200 2.17900 27.49900
C  9.78000 0.97000 30.25200
C  6.41500 4.42200 29.35900
C  6.77700 3.17700 24.64900
C  9.86500 -0.39400 25.63100
N  8.20400 2.71400 29.55400
C  8.93200 2.04900 30.50400
C  8.62200 2.67800 31.93300
C  7.41000 3.67900 31.53400
C  7.26900 3.60500 30.02200
C  6.13400 3.35000 32.30000
C  9.84500 3.27100 32.57200
C  9.70500 3.50500 34.12300
H  10.61400 2.67300 35.16900
N  6.85300 3.65000 27.08600
C  6.21400 4.41900 27.96800
C  5.26900 5.29700 27.23100
C  5.34000 4.93600 25.87600
C  6.45100 3.96200 25.76800
C  4.41400 6.29400 27.93400
C  4.52700 5.47500 24.72300
O  4.71800 5.25300 23.55000
C  3.40200 6.44800 25.04000
N  8.28900 1.48600 25.45200
C  7.57800 2.03400 24.48700
C  7.78600 1.32000 23.17100
C  8.96500 0.35500 23.50100
C  9.03700 0.46600 24.92800
C  6.53100 0.53600 22.83400
C  10.33900 0.86500 22.85500
C  11.35900 -0.25800 22.30500
N  9.61100 0.49700 27.81200
C  10.13600 -0.47000 26.98300
C  11.08000 -1.25400 27.71200
C  11.05100 -0.70600 29.01000
C  10.07100 0.29200 29.04100
C  11.99800 -2.25700 27.05800
C  11.60300 -0.80100 30.25900
O  12.46100 -1.55900 30.69400
C  10.76700 0.22500 31.17900
C  10.03900 -0.59700 32.18300
O  9.35100 -1.60600 32.07500
O  10.23000 -0.05600 33.45700
C  9.66200 -0.77100 34.60000
H  5.79300 5.07800 29.97100
H  6.22300 3.40200 23.73500
H  10.40200 -1.16800 25.07800
H  8.26900 1.91600 32.62700
H  7.83800 4.64900 31.78900
H  5.79500 2.39300 31.90200
H  5.45300 4.19500 32.20400
H  6.42200 3.17200 33.33600
H  10.12100 4.24500 32.16900
H  10.70400 2.60800 32.46900
H  8.65300 3.47300 34.40900
H  9.99500 4.53100 34.35100
H  3.42400 5.86400 28.08900
H  4.35300 7.20400 27.33800
H  4.97100 6.64900 28.80100
H  2.97400 6.75000 24.08400
H  3.78100 7.40800 25.39100
H  2.68200 6.05800 25.76000
H  7.97800 1.99200 22.33400
H  8.78100 -0.66600 23.16700
H  6.00000 0.25500 23.74300
H  6.74400 -0.37600 22.27500
H  5.79800 1.20100 22.37700
H  10.76700 1.56900 23.56800
H  10.08400 1.50000 22.00600
H  11.13800 -1.27300 22.63600
H  12.40100 -0.11700 22.59400
H  11.36700 -0.26200 21.21500
H  12.69400 -1.70900 26.42400
H  11.47500 -2.90200 26.35200
H  12.48400 -2.82100 27.85400
H  11.43900 0.88500 31.72900
H  9.97900 -1.80800 34.70200
H  8.58400 -0.66400 34.72200
H  10.17300 -0.38900 35.48400
Mg 29.48100 59.93400 41.06900
C  26.28200 58.75500 40.04200
C  30.88300 57.09400 39.67000
C  32.36700 61.47000 41.22700
C  27.76700 63.12400 41.66000
N  28.65000 58.20300 39.96600
C  27.34600 57.92400 39.63200
C  27.28400 56.67200 38.88300
C  28.74600 56.03100 39.12600
C  29.44900 57.19000 39.68900
C  28.74000 54.97300 40.21200
C  26.85600 56.77600 37.40100
C  26.06600 55.56600 36.85700
H  26.42900 55.08300 35.53000
N  31.37000 59.29000 40.73600
C  31.78100 58.11300 40.17800
C  33.22700 58.04000 40.19600
C  33.69300 59.28500 40.63000
C  32.46000 60.07300 40.97500
C  34.00100 56.86400 39.72700
C  35.13500 59.64200 40.81500
O  36.02100 58.84200 40.55100
C  35.67500 60.93100 41.35700
N  30.02200 62.06500 41.32600
C  31.34000 62.31400 41.40900
C  31.60800 63.77900 41.61200
C  30.17700 64.28600 42.02900
C  29.18400 63.15200 41.61600
C  32.59500 64.11500 42.77800
C  29.83600 65.59000 41.27300
C  30.06200 66.87000 42.16100
N  27.48900 60.83400 40.99200
C  26.97900 62.07000 41.29200
C  25.50800 61.94400 41.35900
C  25.20900 60.66400 40.88500
C  26.43000 60.04500 40.63000
C  24.44400 63.00900 41.72000
C  24.18800 59.74300 40.55300
O  22.96100 59.83600 40.72500
C  24.77900 58.45800 39.98700
C  24.42300 57.17500 40.60900
O  24.20800 56.90100 41.77600
O  24.08700 56.32000 39.63400
C  23.44200 54.96700 39.96600
H  31.31200 56.12400 39.41000
H  33.35100 61.94200 41.26600
H  27.36300 64.08400 41.98800
H  26.48600 56.00400 39.20700
H  29.18200 55.76000 38.16400
H  27.77300 54.83300 40.69600
H  29.44900 55.07400 41.03400
H  28.94400 54.01200 39.73900
H  27.81400 56.93500 36.90600
H  26.30700 57.66000 37.07800
H  25.01600 55.84200 36.76700
H  26.18900 54.62300 37.39000
H  34.52500 57.10100 38.80100
H  33.38000 55.96900 39.70300
H  34.76200 56.73100 40.49700
H  35.57000 61.71500 40.60800
H  36.73300 60.81800 41.59200
H  35.21600 61.29900 42.27500
H  31.93200 64.19400 40.65700
H  29.97200 64.41400 43.09200
H  32.73300 63.28400 43.47000
H  32.32600 65.04900 43.27200
H  33.52000 64.30600 42.23300
H  28.80500 65.67800 40.93100
H  30.48900 65.71500 40.41000
H  31.04700 67.29500 41.97100
H  30.11900 66.59800 43.21500
H  29.26200 67.60900 42.10000
H  24.26000 63.44100 40.73600
H  24.78700 63.76900 42.42200
H  23.60900 62.44600 42.13600
H  24.39200 58.44800 38.96800
H  23.51900 54.37300 39.05500
H  22.37700 55.12600 40.13800
H  23.89200 54.41000 40.78900

