158

Mg 29.88600 57.95300 38.81400
C  27.31800 55.65000 37.85400
C  32.11000 55.57800 38.30900
C  32.30800 60.34200 38.93300
C  27.41500 60.57700 38.29900
N  29.67700 55.87500 38.20200
C  28.59100 55.08000 37.95800
C  28.97500 53.62100 37.85500
C  30.45700 53.58100 38.27100
C  30.79900 55.12700 38.22100
C  30.92600 52.97300 39.61500
C  28.61800 52.99900 36.42700
C  29.07000 53.79300 35.25800
H  28.05000 54.13500 34.14400
N  31.97100 57.92900 38.86700
C  32.67900 56.83500 38.59400
C  34.11300 57.12100 38.61500
C  34.23900 58.53600 38.83000
C  32.81700 59.02400 38.92200
C  35.13000 56.12400 38.46600
C  35.57500 59.31300 38.83800
O  36.68000 58.79000 38.73200
C  35.59400 60.77000 39.02700
N  29.93600 60.14700 38.48700
C  31.01700 60.85200 38.71200
C  30.80000 62.35100 38.66000
C  29.25400 62.44900 38.45800
C  28.83000 60.93700 38.47000
C  31.21800 63.21000 39.99000
C  28.69600 63.12000 37.14500
C  27.62200 64.19400 37.39200
N  27.75200 58.13800 38.29100
C  26.89200 59.20900 38.15900
C  25.56700 58.72200 37.78300
C  25.72900 57.36900 37.65100
C  27.04100 57.02900 38.04000
C  24.34900 59.52700 37.53800
C  24.95600 56.16000 37.41300
O  23.79700 55.96800 37.07800
C  25.99500 55.02500 37.60500
C  25.58400 54.08700 38.64400
O  25.59900 54.36700 39.82200
O  25.15000 52.88200 38.16800
C  25.02000 51.84300 39.16900
H  32.78500 54.77100 38.01600
H  33.11300 61.08000 38.95100
H  26.66500 61.36600 38.21400
H  28.32100 53.13400 38.57900
H  31.03500 53.14300 37.45700
H  31.47700 52.03700 39.52400
H  30.04600 52.73500 40.21200
H  31.56500 53.65500 40.17600
H  27.53700 52.85800 36.40700
H  29.15100 52.05000 36.37000
H  29.88600 53.25000 34.78000
H  29.58300 54.74500 35.39600
H  35.47900 55.98900 37.44200
H  34.73100 55.13100 38.67600
H  36.01100 56.30500 39.08200
H  35.08800 61.03100 39.95700
H  35.02100 61.36300 38.31500
H  36.62400 61.10000 39.16200
H  31.37600 62.59100 37.76600
H  28.80000 62.86800 39.35600
H  32.00500 62.66800 40.51500
H  30.34800 63.26900 40.64400
H  31.68400 64.14600 39.68200
H  28.34800 62.48700 36.32800
H  29.54100 63.67700 36.74300
H  26.64400 63.79300 37.12500
H  27.84300 65.13100 36.88000
H  27.55800 64.43700 38.45200
H  23.59500 59.26100 38.27900
H  24.03400 59.32500 36.51400
H  24.48500 60.60600 37.61000
H  26.15600 54.49600 36.66600
H  24.27800 52.13300 39.91300
H  25.95900 51.69300 39.70200
H  24.72600 50.90900 38.69000
Mg 26.49600 49.54800 25.80200
C  24.51900 51.00800 28.27900
C  28.80200 48.60000 28.19500
C  28.72800 48.41200 23.38800
C  24.31300 50.66900 23.45100
N  26.56000 49.75900 27.94300
C  25.64000 50.32800 28.82100
C  26.00800 50.25400 30.37300
C  27.44400 49.69400 30.14000
C  27.61900 49.28800 28.65700
C  28.52700 50.62000 30.70600
C  25.07000 49.22700 31.07100
C  24.39100 49.63300 32.37700
H  25.28900 50.09400 33.58100
N  28.45200 48.55800 25.75200
C  29.24900 48.38200 26.86900
C  30.51700 47.85400 26.45600
C  30.51200 47.78100 25.02800
C  29.18000 48.25600 24.67200
C  31.66900 47.47300 27.47600
C  31.60400 47.35100 24.00600
O  31.54200 47.50000 22.80800
C  32.87400 46.80200 24.55600
N  26.59300 49.65300 23.65200
C  27.58300 49.02900 22.90800
C  27.16600 48.88200 21.45400
C  25.62100 49.53300 21.46500
C  25.45100 49.93200 22.95000
C  28.10200 49.51900 20.43200
C  24.54000 48.62900 20.94900
C  24.13900 47.58000 21.92700
N  24.81100 50.71000 25.77600
C  23.96400 51.12700 24.75800
C  22.84500 51.83700 25.26800
C  23.05100 51.87600 26.66800
C  24.21400 51.16000 26.94500
C  21.72600 52.42800 24.49100
C  22.49800 52.28700 27.98200
O  21.46000 52.92100 28.27000
C  23.49400 51.71000 29.08900
C  23.85300 53.05200 29.80500
O  24.15500 54.08500 29.24200
O  23.69000 52.82300 31.13300
C  23.81400 54.07200 31.87400
H  29.43900 48.21400 28.99300
H  29.23400 48.03400 22.49700
H  23.68600 51.01400 22.62600
H  26.02700 51.19200 30.92800
H  27.63700 48.71900 30.58900
H  28.44200 51.61200 30.26300
H  29.49100 50.17700 30.45700
H  28.43500 50.51200 31.78700
H  25.60500 48.30900 31.31000
H  24.23200 48.96000 30.42700
H  23.58400 48.99900 32.74300
H  23.86600 50.52600 32.03800
H  32.61300 47.91500 27.15900
H  31.94600 46.42800 27.33800
H  31.56800 47.63300 28.54900
H  33.48300 46.28400 23.81500
H  32.69700 46.01400 25.28800
H  33.51900 47.59800 24.92900
H  26.98600 47.83100 21.22800
H  25.62400 50.44500 20.86900
H  29.04800 49.77400 20.91100
H  27.66600 50.33800 19.86000
H  28.42300 48.71100 19.77500
H  24.66000 48.29000 19.92000
H  23.64000 49.23700 20.86900
H  24.96000 47.48000 22.63700
H  23.88200 46.65000 21.42000
H  23.23000 47.97200 22.38500
H  21.69600 51.92500 23.52500
H  21.99600 53.45600 24.24900
H  20.73400 52.34200 24.93500
H  22.86900 51.03300 29.67100
H  24.44000 54.90400 31.55000
H  24.39800 53.75700 32.73900
H  22.90300 54.43900 32.34700

