158

Mg 1.15200 8.27600 25.54300
C  1.59800 10.04900 28.45100
C  0.94000 5.40500 27.41200
C  1.15400 6.66700 22.68600
C  1.65900 11.32000 23.81000
N  1.39800 7.78000 27.80500
C  1.39400 8.67700 28.77100
C  1.28900 8.03300 30.18600
C  1.41900 6.45800 29.76800
C  1.21900 6.52800 28.28200
C  2.62200 5.75600 30.30100
C  -0.07500 8.30000 30.88100
C  -0.20600 8.56400 32.44600
H  0.98800 8.08500 33.35000
N  0.98700 6.27400 25.09300
C  0.93200 5.25400 25.95700
C  0.88600 4.00300 25.24100
C  0.86200 4.32200 23.85400
C  0.95800 5.79600 23.79900
C  0.90000 2.64600 25.95100
C  0.89100 3.39100 22.71800
O  0.88500 3.83300 21.55600
C  0.97200 1.80800 22.93300
N  1.30400 8.87000 23.51500
C  1.39900 8.07400 22.51600
C  1.74200 8.72900 21.16300
C  1.34400 10.22300 21.55100
C  1.42500 10.14800 23.03900
C  3.18900 8.38400 20.85700
C  -0.10700 10.63200 21.07900
C  -0.30800 12.11100 20.87700
N  1.67900 10.27600 25.96200
C  1.71300 11.42700 25.19700
C  1.94400 12.56700 25.94400
C  1.88000 12.10500 27.29300
C  1.73000 10.72500 27.23300
C  2.05000 13.98200 25.44300
C  1.92400 12.50000 28.68500
O  2.04800 13.63600 29.20900
C  1.62500 11.16800 29.50100
C  2.66300 11.07400 30.59000
O  3.79700 10.63700 30.43900
O  2.11000 11.45200 31.85500
C  2.94200 11.61100 33.02100
H  0.81400 4.45000 27.92600
H  1.17200 6.16700 21.71600
H  1.57700 12.17100 23.13000
H  2.11700 8.31700 30.83500
H  0.58000 5.93000 30.22100
H  2.89100 5.13600 29.44600
H  2.61800 5.06700 31.14600
H  3.41200 6.49800 30.41900
H  -0.81400 7.51500 30.72700
H  -0.47400 9.17600 30.36900
H  -1.07000 8.06000 32.87800
H  -0.43500 9.62300 32.57100
H  1.14700 2.66800 27.01300
H  1.58400 1.99100 25.41200
H  -0.06900 2.14900 25.90900
H  0.92500 1.40700 21.92000
H  0.18400 1.44000 23.59000
H  1.98100 1.64400 23.31100
H  1.19100 8.49700 20.25100
H  2.17100 10.86400 21.24400
H  3.57900 7.54500 21.43400
H  3.88800 9.20000 21.03800
H  3.32600 8.18900 19.79400
H  -0.85800 10.30900 21.79900
H  -0.38500 10.18100 20.12600
H  -0.88900 12.35300 19.98600
H  0.60500 12.70600 20.86100
H  -0.82800 12.47900 21.76200
H  2.44700 14.25300 24.46500
H  2.78800 14.36500 26.14800
H  1.13000 14.55100 25.58200
H  0.68100 11.22900 30.04400
H  3.18300 12.64700 33.25800
H  3.84600 11.00300 32.99800
H  2.45300 11.35600 33.96100
Mg 9.23800 4.28000 27.70000
C  10.51600 2.68000 30.56700
C  7.46600 6.34000 29.81800
C  7.54100 5.38100 25.09400
C  11.03300 2.08400 25.70200
N  9.22700 4.63100 29.98200
C  9.73400 3.76200 30.88200
C  9.31300 4.19100 32.31000
C  8.28300 5.35200 32.04900
C  8.30500 5.47500 30.53800
C  6.86500 5.23600 32.61800
C  10.57500 4.34400 33.24300
C  10.59500 5.53600 34.17100
H  11.54100 5.51000 35.32400
N  7.77200 5.74300 27.47600
C  7.17500 6.49300 28.43300
C  6.27500 7.47000 27.81500
C  6.28800 7.24700 26.39900
C  7.21100 6.04100 26.28900
C  5.51200 8.54200 28.67600
C  5.65200 8.12900 25.26200
O  5.82000 7.87800 24.08100
C  4.77500 9.24200 25.67600
N  9.18600 3.75300 25.69500
C  8.34800 4.35500 24.83600
C  8.63700 3.83000 23.44200
C  9.93500 2.98000 23.61500
C  10.13200 2.96900 25.11900
C  7.44100 3.09800 22.81000
C  11.21600 3.39000 22.85100
C  11.88400 2.20300 22.07600
N  10.45800 2.64600 27.98900
C  11.20000 1.84900 27.09900
C  11.93800 0.89600 27.77600
C  11.68600 1.14900 29.12800
C  10.81200 2.25300 29.21900
C  12.62800 -0.33300 27.16800
C  11.91700 0.62300 30.46500
O  12.53800 -0.31900 30.88600
C  11.23100 1.63400 31.46800
C  10.41500 0.89900 32.52700
O  9.25300 0.55000 32.33300
O  11.13700 0.93500 33.73100
C  10.47600 0.47800 34.95100
H  6.95700 7.03700 30.48700
H  7.18000 5.88300 24.19400
H  11.58600 1.36400 25.09600
H  8.88700 3.28600 32.74300
H  8.70800 6.27700 32.43800
H  6.54800 6.13800 33.14100
H  6.79400 4.36200 33.26700
H  6.07500 5.22800 31.86700
H  11.49000 4.44500 32.66000
H  10.61000 3.54300 33.98100
H  9.61300 5.52400 34.64300
H  10.77200 6.48900 33.67300
H  5.49400 9.51600 28.18800
H  5.92500 8.67300 29.67700
H  4.49400 8.20600 28.87300
H  4.18000 9.60300 24.83700
H  5.33300 10.09100 26.07000
H  4.15900 8.90600 26.51000
H  8.90000 4.72500 22.87800
H  9.72500 1.95000 23.32700
H  6.61200 3.07900 23.51700
H  7.80000 2.09800 22.56800
H  7.18800 3.66500 21.91400
H  12.03800 3.88300 23.36900
H  10.90000 4.09800 22.08600
H  11.54800 2.32900 21.04600
H  11.47300 1.24500 22.39400
H  12.97000 2.13400 22.13900
H  13.66800 -0.07900 26.96500
H  12.15100 -0.83200 26.32400
H  12.65800 -1.03600 28.00000
H  11.96100 2.12800 32.10900
H  10.68200 1.29200 35.64600
H  10.88800 -0.48000 35.26700
H  9.39400 0.43400 34.83100

