158

Mg 48.36400 15.25300 28.32000
C  46.35000 15.04300 31.16100
C  50.57400 17.15400 30.05100
C  50.22200 15.48200 25.52500
C  45.64200 14.16700 26.46200
N  48.43200 16.01100 30.39200
C  47.57800 15.63400 31.43200
C  48.00600 16.21500 32.73900
C  49.23800 17.07100 32.33500
C  49.45900 16.77800 30.83400
C  49.21500 18.60900 32.66700
C  48.35800 15.13000 33.84500
C  47.93000 15.31300 35.26600
H  48.00100 16.79600 35.82700
N  50.24800 16.16800 27.90100
C  51.05900 16.83900 28.75800
C  52.25200 17.22700 28.07100
C  52.17000 16.69500 26.74300
C  50.84400 16.08600 26.66000
C  53.40900 17.99200 28.76100
C  53.27500 16.73900 25.66600
O  53.13600 16.13900 24.60800
C  54.50400 17.47900 25.85300
N  47.98500 14.92600 26.29200
C  48.94400 15.11600 25.32900
C  48.46000 14.66500 23.91500
C  46.96000 14.32400 24.14700
C  46.81000 14.47700 25.72000
C  48.56400 15.96000 22.93300
C  46.51600 12.90000 23.56100
C  47.19600 11.64700 24.19200
N  46.51000 14.65300 28.71400
C  45.50300 14.24500 27.82500
C  44.31700 13.83600 28.49500
C  44.58600 14.24200 29.82100
C  45.93600 14.64900 29.91500
C  42.96200 13.28800 28.00100
C  44.06700 14.26800 31.17900
O  42.99200 13.92300 31.61000
C  45.18700 14.73000 32.08900
C  44.61700 15.76600 32.89400
O  44.43700 16.88000 32.47400
O  44.35400 15.28600 34.16400
C  43.59600 16.28000 35.00500
H  51.37100 17.73200 30.52400
H  50.79300 15.51000 24.59500
H  44.84700 13.70100 25.87600
H  47.25800 16.91700 33.10700
H  50.10500 16.74900 32.91300
H  48.46200 18.82600 33.42400
H  49.01200 19.18900 31.76600
H  50.21800 18.78900 33.05300
H  49.43600 14.97500 33.89800
H  47.92800 14.17100 33.55600
H  48.44900 14.60700 35.91500
H  46.87900 15.02700 35.32500
H  53.50100 18.97500 28.30000
H  54.34900 17.44000 28.74100
H  53.22500 18.21900 29.81000
H  55.20600 17.27700 25.04400
H  54.93900 17.14700 26.79500
H  54.46900 18.54700 26.07000
H  48.95700 13.76700 23.54700
H  46.29500 15.05100 23.68100
H  49.07500 16.83800 23.32700
H  47.57900 16.27300 22.58600
H  49.04100 15.65500 22.00100
H  46.60400 12.95000 22.47600
H  45.43800 12.79700 23.68900
H  47.42500 10.82700 23.51100
H  46.52200 11.12400 24.87100
H  48.10300 11.94800 24.71700
H  42.14300 13.65000 28.62200
H  42.84500 12.20500 28.04500
H  42.78900 13.67500 26.99600
H  45.44400 13.95000 32.80600
H  42.76100 16.53700 34.35300
H  44.04800 17.25900 35.16400
H  43.36700 15.76800 35.93900
Mg -2.58900 35.16100 26.79400
C  -4.51200 33.24600 29.04700
C  -1.88200 37.32300 29.21400
C  -0.73600 36.60400 24.48700
C  -4.03000 33.00100 24.26000
N  -3.11800 35.23700 28.84400
C  -3.77500 34.33900 29.62000
C  -3.67800 34.63300 31.13600
C  -3.27200 36.16700 31.08900
C  -2.79600 36.29600 29.63900
C  -4.38400 37.16500 31.58500
C  -2.75700 33.66900 31.88300
C  -3.21500 33.01300 33.22200
H  -3.51100 33.94000 34.43700
N  -1.58400 36.86100 26.82200
C  -1.24900 37.54900 27.97900
C  -0.25100 38.53700 27.65700
C  0.10000 38.35700 26.27200
C  -0.78000 37.23100 25.79200
C  0.29200 39.51300 28.70700
C  1.17100 39.11100 25.45800
O  1.41200 38.85700 24.28500
C  2.08800 40.07100 26.17300
N  -2.60700 34.98200 24.62400
C  -1.56500 35.59400 23.92100
C  -1.48200 35.09400 22.51100
C  -2.36700 33.80600 22.58500
C  -3.10400 33.95200 23.90700
C  -1.91800 36.21000 21.47700
C  -1.57800 32.44100 22.53700
C  -2.00600 31.33300 21.53300
N  -3.97400 33.43100 26.61300
C  -4.45200 32.69700 25.51900
C  -5.28900 31.60600 26.02000
C  -5.30300 31.76400 27.36900
C  -4.57300 32.87200 27.69400
C  -6.01200 30.49900 25.17800
C  -5.85100 31.27600 28.65800
O  -6.49400 30.26200 29.02800
C  -5.29400 32.19500 29.81000
C  -6.42400 32.71000 30.59300
O  -7.27100 33.50300 30.18300
O  -6.41800 32.22500 31.87200
C  -7.41100 32.89400 32.75900
H  -1.53700 37.84400 30.11000
H  0.05200 37.02500 23.85800
H  -4.33400 32.28000 23.49800
H  -4.63700 34.52800 31.64200
H  -2.43300 36.26200 31.77900
H  -4.50400 37.85800 30.75300
H  -4.05300 37.60700 32.52500
H  -5.31800 36.65100 31.81200
H  -1.78800 34.16000 31.98000
H  -2.71400 32.87000 31.14300
H  -2.43600 32.36700 33.62700
H  -4.03300 32.35700 32.92300
H  -0.24600 39.45100 29.65300
H  0.04000 40.52900 28.40200
H  1.35400 39.35000 28.89400
H  1.52000 40.91100 26.57100
H  2.76800 40.51700 25.44800
H  2.58100 39.47700 26.94300
H  -0.45000 34.79700 22.32100
H  -2.99800 33.77800 21.69700
H  -2.80400 35.93400 20.90600
H  -1.11100 36.64900 20.89000
H  -2.36100 37.08300 21.95700
H  -1.64700 31.93500 23.50100
H  -0.53700 32.68200 22.31900
H  -2.99900 31.48100 21.11000
H  -2.09900 30.45100 22.16600
H  -1.23600 31.07300 20.80700
H  -5.50700 29.55100 25.36200
H  -6.15100 30.71200 24.11800
H  -6.98200 30.45100 25.67300
H  -4.71800 31.60500 30.52300
H  -8.42500 32.61700 32.47000
H  -7.29200 33.97400 32.66900
H  -7.25400 32.57600 33.78900

