158

Mg 24.90800 1.16200 29.94800
C  26.97800 0.68700 32.62400
C  22.30400 1.04500 32.28000
C  22.64200 1.22700 27.39200
C  27.43700 0.63900 27.72000
N  24.71200 0.84500 32.24300
C  25.73300 0.98300 33.06100
C  25.22200 1.15600 34.51100
C  23.72100 0.89800 34.42500
C  23.56700 0.92700 32.86500
C  23.19800 -0.44300 35.02000
C  25.60900 2.42900 35.18600
C  26.20900 2.21400 36.57300
H  26.08600 3.28100 37.69300
N  22.85700 1.10300 29.85600
C  21.94000 1.03300 30.89900
C  20.57100 1.11000 30.37200
C  20.74200 1.15300 28.97500
C  22.14500 1.24400 28.68900
C  19.34500 1.23100 31.26800
C  19.65500 1.06900 27.89300
O  19.81800 0.96500 26.64600
C  18.15700 1.10300 28.30600
N  25.04600 0.94400 27.82500
C  23.99200 1.02500 26.93400
C  24.45000 1.07700 25.43100
C  25.99000 0.91200 25.58100
C  26.19800 0.81600 27.10900
C  23.70400 0.00900 24.57300
C  26.85300 1.97200 24.86700
C  26.60900 3.43200 25.27600
N  26.87200 0.76800 30.14400
C  27.80700 0.62000 29.11400
C  29.15500 0.39500 29.78100
C  28.82700 0.50400 31.14100
C  27.46500 0.66900 31.37800
C  30.51300 0.25300 29.13100
C  29.45800 0.44700 32.50300
O  30.60400 0.35900 32.96000
C  28.28100 0.72100 33.55900
C  28.24300 -0.31300 34.71100
O  27.69800 -1.37400 34.68600
O  29.13900 -0.02500 35.70000
C  29.05800 -0.90600 36.86800
H  21.35200 1.11600 32.81000
H  22.01000 1.50400 26.54600
H  28.24800 0.43500 27.01800
H  25.63200 0.28700 35.02500
H  23.13300 1.71700 34.84100
H  23.84200 -0.91200 35.76400
H  23.10400 -1.12600 34.17600
H  22.22200 -0.35300 35.49800
H  24.73900 3.07600 35.30000
H  26.30100 3.03800 34.60500
H  27.29100 2.10000 36.51100
H  25.77900 1.30000 36.98400
H  18.70000 2.00800 30.85800
H  19.50900 1.64800 32.26100
H  18.77900 0.30000 31.31800
H  17.97900 0.26800 28.98300
H  17.55100 0.97400 27.40900
H  17.84700 2.02600 28.79500
H  24.28900 2.10100 25.09300
H  26.32900 -0.07300 25.26100
H  24.35300 -0.74800 24.13300
H  23.44100 0.47300 23.62200
H  22.94100 -0.50000 25.16100
H  26.68400 1.83500 23.79900
H  27.90800 1.74200 25.01300
H  26.06400 3.39200 26.21900
H  26.06300 3.94100 24.48200
H  27.56400 3.92600 25.45700
H  30.68900 -0.81100 28.97500
H  31.14000 0.68200 29.91200
H  30.56900 0.79500 28.18600
H  28.48900 1.74400 33.87300
H  28.16300 -0.80100 37.48200
H  29.94000 -0.63600 37.44900
H  29.28400 -1.91200 36.51600
Mg 49.22200 36.53000 27.34500
C  47.17900 34.79300 29.74800
C  48.99100 39.31400 29.29500
C  50.76900 38.12100 24.91600
C  48.61500 33.76500 25.26900
N  48.18100 36.97800 29.29500
C  47.55000 36.09700 30.11700
C  47.16500 36.81300 31.43200
C  47.60700 38.29100 31.18300
C  48.32200 38.19600 29.83500
C  46.57500 39.45500 31.30100
C  47.81500 36.23100 32.80400
C  46.73900 36.04000 33.99200
H  46.50200 37.18600 35.02600
N  49.86000 38.48700 27.15100
C  49.78100 39.46000 28.09900
C  50.53700 40.63600 27.62400
C  51.12500 40.29700 26.29000
C  50.62100 38.94500 26.06900
C  50.71100 41.84300 28.59500
C  51.97100 41.16300 25.41400
O  52.32600 40.76300 24.29700
C  52.35100 42.59800 25.82900
N  49.48300 36.09600 25.43200
C  50.24800 36.86900 24.68600
C  50.56100 36.22400 23.28500
C  50.19900 34.69800 23.59000
C  49.33300 34.82300 24.81600
C  49.60600 36.86800 22.27000
C  51.40600 33.66700 23.67000
C  51.23200 32.31300 22.94100
N  48.16800 34.59200 27.46200
C  47.93700 33.63900 26.48700
C  46.98800 32.59500 27.00800
C  46.80400 32.98000 28.34100
C  47.46800 34.17800 28.52800
C  46.51200 31.39800 26.27800
C  46.09700 32.59600 29.60500
O  45.39100 31.62200 29.93300
C  46.44600 33.70900 30.58400
C  47.03700 33.01200 31.82000
O  48.16300 32.85000 32.17300
O  45.95000 32.61100 32.59600
C  46.30100 31.80000 33.74200
H  48.92700 40.12800 30.02000
H  51.20200 38.67400 24.08000
H  48.42000 32.97800 24.53800
H  46.08200 36.73100 31.51900
H  48.35800 38.60100 31.90900
H  46.57200 40.01700 30.36700
H  46.76200 40.19000 32.08300
H  45.65400 38.93000 31.55700
H  48.53100 36.99200 33.11500
H  48.35700 35.28900 32.72400
H  46.93900 35.08000 34.46900
H  45.72800 35.95300 33.59300
H  50.75700 41.44600 29.61000
H  49.91900 42.57200 28.43000
H  51.61900 42.44600 28.58200
H  52.98000 42.46600 26.70900
H  51.52800 43.25900 26.10000
H  52.90700 43.16700 25.08500
H  51.56700 36.42600 22.91600
H  49.48100 34.38900 22.83000
H  49.23600 37.75000 22.79300
H  48.86100 36.18300 21.86500
H  50.17700 37.30200 21.44900
H  51.57600 33.50500 24.73400
H  52.26300 34.27600 23.37800
H  51.42000 31.49300 23.63300
H  51.95900 32.37400 22.13200
H  50.24100 32.26900 22.48900
H  45.48700 31.60600 25.97200
H  46.60700 30.52200 26.92000
H  47.10600 31.21800 25.38100
H  45.46700 34.17500 30.69900
H  46.50700 30.77500 33.43500
H  45.43500 31.78400 34.40300
H  47.21200 32.10600 34.25600

