158

Mg 47.42100 35.12500 27.57200
C  45.58900 33.66900 30.02300
C  47.76600 37.95000 29.44000
C  49.10100 36.67800 25.00600
C  46.51700 32.45800 25.47600
N  46.80300 35.66600 29.38000
C  46.25200 34.84700 30.30100
C  46.45700 35.42400 31.69300
C  46.59400 36.93600 31.39900
C  47.09600 36.86200 29.96300
C  45.44000 37.93900 31.72200
C  47.63600 34.75200 32.41600
C  47.41700 34.55500 33.97500
H  46.53800 35.52200 34.79900
N  48.34700 37.05600 27.25300
C  48.31900 38.09300 28.17000
C  49.21900 39.18000 27.82500
C  49.63200 38.77400 26.52300
C  49.01300 37.41100 26.19800
C  49.65700 40.35400 28.74800
C  50.70700 39.34400 25.61700
O  51.02200 38.75000 24.59400
C  51.36800 40.73500 25.91700
N  47.72900 34.65200 25.56200
C  48.52200 35.42400 24.71000
C  48.49800 34.80200 23.24400
C  47.74400 33.51600 23.48300
C  47.23100 33.55000 24.88300
C  47.86400 35.67700 22.14600
C  48.66700 32.18400 23.13500
C  49.92700 31.95900 24.07100
N  46.27000 33.34000 27.67900
C  46.05300 32.32100 26.80400
C  45.26300 31.26000 27.47400
C  45.06300 31.76900 28.70400
C  45.67800 32.96700 28.79500
C  44.70500 29.96200 26.84700
C  44.40200 31.47500 29.92700
O  43.81200 30.47200 30.29900
C  44.61400 32.75500 30.79200
C  45.18900 32.37100 32.15500
O  46.24900 31.78200 32.33700
O  44.22300 32.51600 33.14100
C  44.35900 31.79000 34.32400
H  47.97100 38.81100 30.08000
H  49.60600 37.09000 24.13000
H  46.27300 31.58900 24.86100
H  45.59100 35.30200 32.34300
H  47.36900 37.33100 32.05600
H  44.54500 37.34900 31.92000
H  45.25900 38.60600 30.87900
H  45.69200 38.51200 32.61400
H  48.50100 35.38100 32.20500
H  47.64500 33.75300 31.98100
H  48.42200 34.60400 34.39600
H  47.05800 33.56200 34.24700
H  50.63300 40.11800 29.17200
H  48.91600 40.65400 29.48900
H  49.79700 41.24500 28.13500
H  51.96800 40.67500 26.82600
H  50.60000 41.48000 26.12200
H  51.80000 41.05200 24.96800
H  49.54100 34.61600 22.98700
H  46.85300 33.37900 22.87000
H  48.45600 35.61600 21.23300
H  47.80600 36.73000 22.42400
H  46.84700 35.36100 21.91400
H  48.92800 32.25200 22.07900
H  48.07800 31.27300 23.24400
H  49.90200 32.68800 24.88100
H  50.89600 31.90000 23.57400
H  49.82200 30.90100 24.31200
H  44.79000 30.18600 25.78300
H  43.65600 29.94400 27.14200
H  45.33800 29.13000 27.15600
H  43.66400 33.26400 30.95300
H  43.81600 30.86200 34.14600
H  43.79200 32.29400 35.10600
H  45.37000 31.63100 34.69800
Mg 35.98700 49.34400 24.71800
C  36.46900 47.66800 27.85700
C  35.08000 52.11000 26.45900
C  35.44700 50.82500 21.77300
C  37.33900 46.50900 23.11700
N  35.68700 49.76000 26.96700
C  35.91900 48.91100 28.05100
C  35.65400 49.71000 29.40000
C  35.25600 51.16000 28.89000
C  35.33800 51.01500 27.36500
C  33.90500 51.72600 29.41000
C  36.78100 49.75000 30.56000
C  36.58900 49.06100 31.90500
H  35.13700 48.99400 32.48000
N  35.23300 51.19500 24.17300
C  35.03700 52.19100 25.06800
C  34.68800 53.42800 24.28200
C  34.54800 52.99000 22.90200
C  35.06300 51.59000 22.89100
C  34.24800 54.85600 24.97700
C  34.17600 53.70100 21.62700
O  33.95500 53.09000 20.55200
C  33.93100 55.24100 21.65700
N  36.37700 48.74400 22.70300
C  36.02700 49.56700 21.71100
C  36.41400 49.01300 20.33300
C  37.29200 47.72600 20.88600
C  36.92700 47.62700 22.28500
C  35.23800 48.64800 19.43300
C  38.85400 47.81800 20.64300
C  39.52300 49.20000 20.77200
N  36.63400 47.41900 25.29800
C  37.23300 46.39800 24.52900
C  37.64500 45.33900 25.44700
C  37.37300 45.81300 26.72600
C  36.78100 47.05500 26.62100
C  38.30000 44.07900 25.09100
C  37.32400 45.39200 28.12300
O  37.61100 44.26500 28.62800
C  36.88700 46.67000 28.98600
C  35.62900 46.16900 29.76200
O  34.44400 46.42600 29.45600
O  35.97500 45.43600 30.83600
C  34.93400 44.96400 31.69800
H  34.86800 53.09900 26.87200
H  35.11500 51.20500 20.80400
H  37.84200 45.67600 22.62300
H  34.83100 49.29400 29.98100
H  36.04400 51.87600 29.12600
H  33.74300 52.63400 28.82800
H  33.87900 52.04500 30.45200
H  33.03200 51.07700 29.33300
H  36.91400 50.77500 30.90500
H  37.71100 49.36200 30.14400
H  37.17800 49.51500 32.70100
H  37.01600 48.06200 31.81600
H  33.90800 54.72700 26.00500
H  33.41700 55.34200 24.46700
H  35.03600 55.59000 24.81000
H  34.86400 55.72300 21.95000
H  33.10800 55.46100 22.33800
H  33.62900 55.50500 20.64300
H  36.97200 49.80400 19.83200
H  37.07500 46.81800 20.32400
H  35.39000 49.17100 18.48800
H  34.32900 49.07100 19.86000
H  34.99600 47.60200 19.24900
H  39.08200 47.43300 19.64900
H  39.34200 47.11300 21.31700
H  39.02900 49.83700 21.50500
H  39.63100 49.78200 19.85600
H  40.51400 48.94600 21.15000
H  37.47300 43.37100 25.13800
H  39.06200 43.65100 25.74200
H  38.70400 44.06800 24.07800
H  37.71200 46.96600 29.63400
H  34.57700 44.00000 31.33400
H  34.08300 45.63300 31.82900
H  35.36500 44.93100 32.69800

