158

Mg 29.84000 59.06300 39.85100
C  27.19200 57.42600 38.45200
C  31.92400 56.45700 38.95200
C  32.60100 61.06800 40.12200
C  27.82000 62.05700 39.94400
N  29.55000 57.14100 38.75900
C  28.38800 56.62800 38.34600
C  28.48700 55.17900 37.85100
C  29.96300 54.86800 38.41600
C  30.55200 56.22500 38.67300
C  29.90300 54.03900 39.71200
C  28.30800 55.18200 36.27300
C  27.23000 54.31100 35.72000
H  26.32500 54.96200 34.66600
N  31.96200 58.71000 39.74200
C  32.63300 57.62600 39.34400
C  34.02900 57.73800 39.57800
C  34.31100 59.03200 40.00900
C  32.91100 59.65400 39.99500
C  35.01700 56.66400 39.21000
C  35.73000 59.60200 40.32800
O  36.70900 58.88100 40.13500
C  35.91500 60.94800 40.88700
N  30.06000 61.22600 40.14000
C  31.37600 61.71300 40.16900
C  31.29100 63.25900 40.21900
C  29.78300 63.55600 40.38200
C  29.16500 62.21100 40.05800
C  32.09200 63.89600 41.41900
C  29.18500 64.79000 39.57600
C  28.95800 66.07300 40.37600
N  27.85100 59.55600 39.54800
C  27.11400 60.80000 39.67700
C  25.71300 60.49400 39.35300
C  25.70400 59.16900 38.94400
C  27.06200 58.68500 38.97900
C  24.59900 61.58700 39.21900
C  24.81700 58.13000 38.37700
O  23.57300 58.10900 38.18300
C  25.71200 56.89600 38.14000
C  25.43500 55.72200 39.10700
O  25.91700 55.59500 40.25300
O  24.62300 54.82900 38.46500
C  24.36600 53.62600 39.32400
H  32.45900 55.50900 38.86600
H  33.47600 61.72100 40.14300
H  27.22200 62.95800 40.09200
H  27.68400 54.60500 38.31500
H  30.53700 54.27100 37.70600
H  29.19700 54.48900 40.41000
H  30.90500 54.09500 40.13800
H  29.66500 52.97900 39.62400
H  29.27100 55.02800 35.78700
H  28.06400 56.19300 35.94700
H  26.59700 53.94100 36.52700
H  27.75700 53.51100 35.19900
H  35.74800 56.64500 40.01900
H  35.45600 56.67600 38.21300
H  34.47600 55.71800 39.22700
H  36.93800 61.05000 41.25000
H  35.26600 61.21200 41.72200
H  35.76700 61.62000 40.04100
H  31.59800 63.65200 39.25000
H  29.53700 63.74900 41.42600
H  31.55200 64.53800 42.11500
H  33.00000 64.35300 41.02300
H  32.45500 63.06600 42.02500
H  28.30000 64.48600 39.01700
H  29.88200 65.10100 38.79800
H  29.60300 66.86700 39.99800
H  29.26600 65.98500 41.41800
H  27.88000 66.20700 40.46200
H  25.07400 62.56400 39.12900
H  24.00800 61.52500 40.13300
H  23.91900 61.47200 38.37500
H  25.46400 56.58000 37.12700
H  23.82600 52.89100 38.72700
H  23.75800 53.98600 40.15400
H  25.26600 53.17700 39.74300
Mg -4.65500 25.28700 26.34600
C  -3.07200 26.73800 28.85900
C  -6.32700 23.19700 28.40300
C  -6.07600 23.64000 23.48700
C  -2.91400 27.27200 23.97600
N  -4.67100 25.08000 28.41500
C  -3.98500 25.82400 29.32400
C  -4.50100 25.62800 30.76600
C  -5.32700 24.29100 30.56600
C  -5.55800 24.17100 29.05300
C  -4.64400 23.07300 31.21800
C  -5.38900 26.81900 31.06900
C  -5.45900 27.21100 32.56900
H  -4.98700 26.20200 33.65000
N  -6.10300 23.65300 26.00800
C  -6.66100 22.97200 27.06500
C  -7.58200 21.96600 26.47900
C  -7.37500 21.97400 25.05500
C  -6.51000 23.15400 24.78500
C  -8.32000 20.93800 27.24100
C  -8.03500 21.14300 23.96800
O  -7.76700 21.23000 22.77300
C  -8.91100 20.00400 24.32300
N  -4.42200 25.38900 24.03000
C  -5.16200 24.65600 23.16700
C  -4.74200 24.92700 21.72000
C  -3.83300 26.13300 21.85900
C  -3.63100 26.26600 23.33000
C  -4.10800 23.73200 21.02100
C  -4.34300 27.47200 21.23300
C  -5.12800 27.30000 19.88000
N  -3.15300 26.66500 26.33100
C  -2.55900 27.46000 25.37400
C  -1.61600 28.41600 26.01500
C  -1.84400 28.23100 27.37800
C  -2.70900 27.08100 27.53400
C  -0.78600 29.45800 25.25000
C  -1.43000 28.60900 28.66400
O  -0.68200 29.53800 29.06100
C  -2.26900 27.71200 29.69000
C  -1.31000 26.95900 30.42100
O  -0.35700 26.37100 29.86600
O  -1.59800 26.86600 31.77100
C  -0.70500 25.87400 32.52800
H  -6.94900 22.54200 29.01700
H  -6.43000 23.06200 22.63100
H  -2.38800 27.82000 23.19100
H  -3.64200 25.50700 31.42600
H  -6.21100 24.42300 31.19000
H  -4.48200 22.34300 30.42500
H  -5.31500 22.63300 31.95600
H  -3.69700 23.27000 31.72000
H  -6.41300 26.58300 30.77700
H  -4.98300 27.68900 30.55300
H  -6.43300 27.58800 32.88200
H  -4.70500 27.99500 32.64100
H  -9.36600 21.03800 26.94900
H  -8.28900 21.09500 28.31900
H  -7.96300 19.92700 27.04300
H  -8.37600 19.27000 24.92400
H  -9.06400 19.52400 23.35600
H  -9.91300 20.28800 24.64500
H  -5.70300 25.06400 21.22400
H  -2.84000 25.92000 21.46200
H  -4.32200 22.73100 21.39600
H  -3.02500 23.83000 20.94200
H  -4.57300 23.80300 20.03800
H  -3.46600 28.08700 21.03300
H  -5.01400 27.90500 21.97500
H  -5.17200 26.31100 19.42300
H  -4.64600 27.95200 19.15200
H  -6.10400 27.76900 20.00400
H  0.01800 28.94200 24.72600
H  -0.48800 30.28700 25.89300
H  -1.37800 29.83800 24.41800
H  -2.96100 28.28500 30.30700
H  -1.24200 25.47100 33.38600
H  0.26800 26.29600 32.77800
H  -0.63100 24.96400 31.93200

