158

Mg 47.07600 25.62500 28.56100
C  48.29900 27.65500 31.20800
C  45.80600 23.55800 30.88400
C  46.18000 23.58500 26.07400
C  48.72900 27.78900 26.36600
N  47.07600 25.72000 30.82500
C  47.50600 26.58800 31.65300
C  46.98200 26.33900 33.14300
C  46.37900 24.96900 32.94800
C  46.46000 24.69700 31.42800
C  47.22200 23.83800 33.59600
C  46.02300 27.47100 33.66800
C  46.51100 28.23600 34.89600
H  45.48900 28.34600 36.03800
N  46.05000 23.87800 28.44500
C  45.65300 23.16100 29.54200
C  44.95600 22.01400 29.05400
C  44.98400 21.97200 27.61300
C  45.79600 23.16600 27.32000
C  44.31000 20.95700 29.93600
C  44.31800 21.03400 26.56100
O  44.30100 21.34200 25.38200
C  43.55700 19.83500 27.09000
N  47.21300 25.80800 26.52100
C  46.80400 24.76400 25.62900
C  47.40500 24.91900 24.20100
C  48.04700 26.36500 24.38700
C  47.96700 26.74700 25.80800
C  48.44800 23.86000 23.94700
C  47.46600 27.53900 23.44400
C  48.41900 28.21100 22.41600
N  48.30900 27.46700 28.69000
C  48.84700 28.25200 27.69200
C  49.45900 29.41200 28.31600
C  49.26500 29.20400 29.69000
C  48.64100 27.94700 29.82500
C  50.08500 30.63100 27.62400
C  49.54400 29.74300 30.99800
O  50.15900 30.74200 31.30800
C  48.88000 28.78800 32.01300
C  49.93200 28.35000 33.10300
O  50.58300 27.31200 32.97300
O  49.96800 29.22400 34.19600
C  50.94400 28.86100 35.22800
H  45.33000 22.95500 31.66100
H  46.12100 22.92300 25.20700
H  49.16500 28.49000 25.65100
H  47.78700 26.18300 33.86100
H  45.33700 24.85100 33.24300
H  47.54300 24.08800 34.60700
H  48.09800 23.71400 32.95800
H  46.65400 22.91100 33.67200
H  45.06500 26.99400 33.87700
H  45.89800 28.20500 32.87200
H  46.61100 29.27800 34.59000
H  47.47400 27.91200 35.29000
H  43.25600 20.80100 29.70300
H  44.56400 21.05800 30.99100
H  44.79400 20.00900 29.70100
H  44.20500 19.17300 27.66400
H  43.28800 19.26000 26.20300
H  42.64300 20.23200 27.53100
H  46.58200 24.80200 23.49700
H  49.12300 26.35700 24.21700
H  48.10700 22.94900 23.45500
H  48.85300 23.54700 24.91000
H  49.28000 24.19900 23.33000
H  46.97600 28.28100 24.07300
H  46.65100 27.10100 22.86800
H  48.18700 29.27500 22.46600
H  48.15800 27.77600 21.45100
H  49.48500 28.16900 22.64100
H  49.57000 30.80400 26.67900
H  51.13800 30.36500 27.53200
H  49.92100 31.54100 28.20200
H  48.12100 29.42700 32.46500
H  51.06000 29.65600 35.96500
H  51.93700 28.64800 34.83300
H  50.56500 28.01000 35.79500
Mg 49.56300 45.01800 42.39400
C  45.94900 45.10300 42.17200
C  49.47400 41.65700 41.62800
C  52.87100 45.02700 42.20700
C  49.59400 48.45700 42.61300
N  47.79900 43.55000 41.82600
C  46.49600 43.80700 41.86600
C  45.68400 42.55700 41.66700
C  46.80900 41.48400 41.35700
C  48.13600 42.25200 41.58800
C  46.76500 40.08700 41.97400
C  44.50300 42.58100 40.59000
C  44.72500 43.40600 39.29000
H  44.83100 42.67400 37.96100
N  50.92000 43.54400 41.99000
C  50.68700 42.19700 41.75000
C  51.94600 41.56100 41.50000
C  52.99400 42.53400 41.67300
C  52.24600 43.79300 42.03400
C  52.06300 40.12000 41.21400
C  54.46100 42.26800 41.40500
O  54.83700 41.13600 41.12200
C  55.44200 43.41100 41.22600
N  51.03600 46.58900 42.17100
C  52.35200 46.33300 42.28700
C  53.21400 47.59500 42.67800
C  52.10600 48.70500 42.40800
C  50.82400 47.92600 42.44700
C  53.76200 47.60600 44.17100
C  52.24800 49.47900 41.02700
C  52.21500 50.99300 41.09600
N  48.07100 46.53200 42.44300
C  48.27300 47.89500 42.48000
C  46.97400 48.56300 42.52100
C  46.03900 47.46300 42.49300
C  46.74800 46.26300 42.40300
C  46.84200 49.99700 42.64600
C  44.61500 47.19800 42.55300
O  43.64100 48.00500 42.58200
C  44.54200 45.58800 42.45400
C  43.86100 44.78300 43.51800
O  42.76600 44.24900 43.45800
O  44.66400 44.79100 44.59000
C  44.41200 43.99000 45.80300
H  49.31900 40.59700 41.41600
H  53.90400 44.85500 42.51800
H  49.52400 49.52500 42.83000
H  45.27600 42.35700 42.65800
H  46.66000 41.34700 40.28600
H  47.18900 39.34200 41.30200
H  45.76200 39.79000 42.28100
H  47.43300 40.18200 42.83000
H  43.66500 42.94100 41.18700
H  44.31500 41.55500 40.27400
H  45.65500 43.96800 39.37800
H  43.94400 44.16500 39.24100
H  52.38000 40.01100 40.17700
H  51.11600 39.59000 41.31500
H  52.76100 39.62800 41.89100
H  55.77500 43.76800 42.20100
H  55.03700 44.26700 40.68500
H  56.38200 43.09200 40.77800
H  54.12400 47.67800 42.08300
H  52.12800 49.45000 43.20400
H  54.83000 47.80000 44.26900
H  53.69200 46.61900 44.62800
H  53.28300 48.37000 44.78300
H  51.36700 49.25200 40.42700
H  53.18100 49.22500 40.52400
H  52.46300 51.38900 40.11200
H  52.90900 51.33100 41.86600
H  51.23900 51.30400 41.46800
H  45.94800 50.33100 42.12100
H  47.69900 50.34700 42.07100
H  46.98200 50.29700 43.68500
H  44.02700 45.33300 41.52800
H  45.24700 43.30700 45.95700
H  43.53300 43.35400 45.69100
H  44.16400 44.66400 46.62400

