158

Mg -2.16900 17.15000 26.27900
C  -2.43200 15.05800 28.90300
C  -2.36800 19.87700 28.37900
C  -2.17300 19.07400 23.61900
C  -2.58700 14.37200 24.11300
N  -2.18500 17.46400 28.49600
C  -2.40000 16.42400 29.34500
C  -2.66700 16.91700 30.81300
C  -3.01600 18.48700 30.49000
C  -2.51900 18.64600 29.04600
C  -4.49600 18.93900 30.46200
C  -1.41600 16.76600 31.73000
C  -1.64500 17.14500 33.21800
H  -1.67400 16.04100 34.30800
N  -2.12900 19.14400 26.03400
C  -2.08500 20.17500 27.01600
C  -1.90600 21.44700 26.40400
C  -1.85900 21.20500 25.03800
C  -2.05600 19.75600 24.86300
C  -1.89100 22.73400 27.17900
C  -1.69200 22.23400 23.92300
O  -1.69200 21.93900 22.72300
C  -1.48200 23.74400 24.26600
N  -2.55100 16.80000 24.17600
C  -2.44400 17.78900 23.28100
C  -2.58300 17.36000 21.82800
C  -2.61500 15.80400 21.99100
C  -2.64800 15.62700 23.50700
C  -3.92300 17.96800 21.18000
C  -1.43900 14.93200 21.43300
C  -0.00600 15.09900 21.94100
N  -2.50700 15.23500 26.40700
C  -2.52000 14.16500 25.48300
C  -2.54300 12.91600 26.16500
C  -2.61500 13.25400 27.48400
C  -2.44900 14.63200 27.61200
C  -2.41800 11.60700 25.59800
C  -2.81300 12.69200 28.75100
O  -3.06500 11.53700 29.04400
C  -2.69300 13.85200 29.70700
C  -1.58200 13.45600 30.59400
O  -0.39400 13.63000 30.44100
O  -2.15900 12.86800 31.73400
C  -1.31100 12.35400 32.77000
H  -2.52400 20.73800 29.03200
H  -1.98800 19.72700 22.76300
H  -2.51800 13.49400 23.46600
H  -3.51900 16.34700 31.18400
H  -2.47600 19.07200 31.23400
H  -5.32700 18.23700 30.51700
H  -4.71000 19.45000 29.52300
H  -4.57800 19.72900 31.20900
H  -0.59800 17.42700 31.44400
H  -1.14500 15.71200 31.65900
H  -2.56600 17.72100 33.30900
H  -0.80100 17.73800 33.56800
H  -1.83900 22.61400 28.26100
H  -2.66400 23.44700 26.89400
H  -0.92600 23.13800 26.87500
H  -1.40400 24.36200 23.37100
H  -0.58800 23.87200 24.87500
H  -2.38600 24.06000 24.78800
H  -1.74000 17.74000 21.25100
H  -3.46900 15.29600 21.54100
H  -4.47600 18.65600 21.82000
H  -4.64800 17.17600 20.99000
H  -3.57900 18.51200 20.30000
H  -1.32700 15.33600 20.42700
H  -1.77300 13.92300 21.18800
H  0.45100 15.79700 21.24000
H  0.62700 14.21400 21.88000
H  0.01800 15.63900 22.88700
H  -3.33400 11.14400 25.23200
H  -1.94900 10.92300 26.30500
H  -1.74400 11.73500 24.75100
H  -3.63100 13.82200 30.26100
H  -0.83600 13.18900 33.28400
H  -0.51300 11.68200 32.45200
H  -1.79100 11.66900 33.46700
Mg 47.77800 14.34700 27.38400
C  45.69200 14.39600 30.25300
C  50.03700 16.10000 28.97100
C  49.58300 14.41100 24.50600
C  45.03300 13.04200 25.58600
N  47.81800 15.24000 29.42100
C  46.89600 15.09500 30.47300
C  47.37500 15.70400 31.82700
C  48.67800 16.41400 31.27900
C  48.87800 15.89500 29.81600
C  48.55100 17.95400 31.33100
C  47.64500 14.63000 32.91400
C  47.51700 15.13800 34.35600
H  48.75600 14.96400 35.25800
N  49.66600 14.96800 26.89100
C  50.47200 15.64900 27.71300
C  51.79600 15.77800 27.12400
C  51.66600 15.18700 25.77700
C  50.27300 14.87400 25.65300
C  52.98000 16.25400 27.87000
C  52.71400 15.07000 24.69300
O  52.48200 14.59400 23.54400
C  54.02500 15.53400 24.89800
N  47.39200 13.76100 25.30000
C  48.28400 13.95000 24.33200
C  47.75900 13.26200 22.98000
C  46.39200 12.73000 23.39100
C  46.21900 13.21500 24.86200
C  47.81800 14.18000 21.78700
C  46.18200 11.15500 23.20100
C  46.97200 10.38500 24.28500
N  45.80900 13.78300 27.82600
C  44.74500 13.31200 26.94800
C  43.49300 13.13500 27.73100
C  43.89200 13.46900 29.00300
C  45.24000 13.94800 29.03200
C  42.23000 12.36500 27.27300
C  43.39100 13.58300 30.33600
O  42.29500 13.37900 30.76400
C  44.53600 14.23600 31.18800
C  43.99000 15.51800 31.81800
O  43.61000 16.48000 31.18200
O  44.05700 15.46800 33.18800
C  43.71100 16.72700 33.91600
H  50.88500 16.56300 29.48000
H  50.17500 14.35300 23.59000
H  44.21500 12.53800 25.06600
H  46.56800 16.39000 32.08700
H  49.52000 16.11200 31.90300
H  48.67700 18.28400 30.30000
H  49.30700 18.46900 31.92400
H  47.50700 18.20500 31.51400
H  48.67500 14.29000 32.80400
H  47.03200 13.74100 32.76500
H  46.86100 14.46400 34.90600
H  47.04900 16.12100 34.39500
H  53.61300 15.37300 27.97700
H  52.75100 16.37800 28.92900
H  53.42500 17.12400 27.38700
H  54.38800 15.10100 25.83000
H  54.07700 16.61700 25.00500
H  54.72800 15.25900 24.11100
H  48.47400 12.47700 22.73500
H  45.55500 13.02100 22.75700
H  48.33800 15.10900 22.01900
H  46.80300 14.47900 21.52800
H  48.34400 13.69800 20.96200
H  46.71100 11.02300 22.25700
H  45.16800 10.77900 23.06500
H  47.72500 9.79600 23.76100
H  46.34900 9.65100 24.79600
H  47.49400 11.03600 24.98600
H  41.86900 11.81900 28.14500
H  42.62000 11.58100 26.62500
H  41.48600 12.96400 26.74800
H  44.64900 13.54100 32.02100
H  43.08600 17.42900 33.36400
H  44.70500 17.09500 34.17100
H  43.18900 16.58000 34.86100

