158

Mg 8.96700 5.01600 27.40900
C  10.22300 3.34400 30.22100
C  7.21100 7.13900 29.51800
C  7.75000 6.55800 24.70800
C  10.12600 2.43900 25.41800
N  8.60800 5.05800 29.64100
C  9.38500 4.44600 30.60300
C  9.13300 5.04900 32.04700
C  8.08900 6.12600 31.80400
C  7.94000 6.11600 30.23500
C  6.79400 6.01500 32.63000
C  10.38700 5.53600 32.74200
C  10.38100 5.81900 34.26800
H  11.58500 5.51600 35.20300
N  7.76600 6.71400 27.15300
C  7.06900 7.31700 28.13100
C  6.31600 8.40300 27.49500
C  6.47300 8.36000 26.08800
C  7.31800 7.18800 25.93900
C  5.29200 9.22500 28.29100
C  5.79600 9.01600 24.92300
O  5.92200 8.67700 23.76200
C  4.92700 10.27600 25.19300
N  8.98700 4.59800 25.40400
C  8.45200 5.43100 24.39600
C  8.76300 4.92000 23.00200
C  9.54800 3.57400 23.25200
C  9.60200 3.54600 24.79200
C  7.45500 4.64900 22.17000
C  10.90000 3.37200 22.62200
C  11.06000 1.97800 22.05100
N  9.86200 3.20200 27.70600
C  10.41300 2.33700 26.77800
C  11.29800 1.34600 27.45100
C  11.21400 1.72200 28.83700
C  10.33200 2.81200 28.97200
C  12.12600 0.29000 26.75400
C  11.78900 1.32200 30.12500
O  12.52600 0.42000 30.48800
C  11.04900 2.43100 31.20300
C  10.27700 1.67100 32.27500
O  9.43800 0.89200 31.98200
O  10.79900 1.80900 33.53300
C  10.19900 1.13100 34.69100
H  6.84100 7.84300 30.26700
H  7.43700 6.90200 23.72000
H  10.64900 1.74100 24.76000
H  8.70400 4.34900 32.76300
H  8.44400 7.12600 32.05200
H  6.02400 5.42600 32.13300
H  6.49900 7.03300 32.88500
H  7.02000 5.46700 33.54500
H  10.70700 6.49000 32.32400
H  11.19400 4.83200 32.53900
H  9.57100 5.21000 34.67100
H  10.12600 6.87500 34.35400
H  5.16900 9.07800 29.36400
H  4.30900 9.09400 27.83700
H  5.50500 10.29100 28.20500
H  5.59500 11.13800 25.21200
H  4.39700 10.30400 26.14500
H  4.19400 10.44900 24.40500
H  9.37800 5.68200 22.52400
H  8.92200 2.72300 22.98200
H  7.44000 3.66100 21.70900
H  7.50100 5.43800 21.42000
H  6.62900 4.77300 22.87000
H  11.54300 3.47900 23.49600
H  11.14600 4.14300 21.89200
H  11.61800 2.17000 21.13400
H  10.16200 1.41700 21.79400
H  11.63300 1.36700 22.74900
H  12.22100 -0.45800 27.54100
H  13.09800 0.72200 26.51300
H  11.63600 0.07400 25.80500
H  11.73600 3.10300 31.71700
H  9.26600 0.60600 34.48700
H  9.95100 1.86000 35.46200
H  10.94100 0.44600 35.10200
Mg 36.02500 48.31000 26.01300
C  36.30600 46.25300 29.01400
C  34.97100 50.94000 28.07500
C  34.89000 49.84300 23.39200
C  36.31300 45.31900 24.22200
N  35.68300 48.60700 28.32200
C  36.04700 47.64200 29.29000
C  35.86100 48.27300 30.67300
C  35.40300 49.72200 30.35300
C  35.30200 49.80600 28.80500
C  34.02500 50.12000 31.01400
C  37.10800 48.13400 31.64400
C  36.83100 47.63100 33.04500
H  36.46100 48.60300 34.13700
N  35.26900 50.21500 25.76300
C  34.91000 51.15400 26.70800
C  34.67900 52.36500 26.14000
C  34.62200 52.09400 24.71500
C  34.93100 50.63200 24.54500
C  34.52600 53.67100 26.92100
C  34.29800 52.97100 23.53800
O  34.28800 52.52100 22.39900
C  33.89500 54.44300 23.83000
N  35.68200 47.67400 24.06800
C  35.20700 48.53000 23.16900
C  35.13800 47.90900 21.74600
C  35.61500 46.44500 22.01400
C  35.87900 46.48200 23.49900
C  33.71900 48.02700 21.10900
C  36.93700 45.97100 21.17600
C  38.32400 46.09600 21.82700
N  36.42600 46.26400 26.43700
C  36.56200 45.22800 25.60500
C  36.87900 44.02500 26.38400
C  36.75100 44.39100 27.70900
C  36.49800 45.75600 27.69400
C  37.20000 42.60900 25.89300
C  36.77800 43.90500 29.08000
O  36.85300 42.73300 29.53000
C  36.47700 45.12600 29.98400
C  35.16000 44.82500 30.62700
O  34.05100 45.12600 30.17000
O  35.39100 44.33000 31.85000
C  34.32900 44.15700 32.79700
H  34.72100 51.81700 28.67500
H  34.65200 50.34300 22.45100
H  36.32800 44.35400 23.71100
H  35.06300 47.70000 31.14500
H  36.12700 50.42800 30.76000
H  34.35800 50.83600 31.76500
H  33.57500 49.25500 31.50100
H  33.38200 50.59700 30.27400
H  37.64700 49.08000 31.69100
H  37.82900 47.39300 31.30000
H  37.76300 47.12500 33.29500
H  36.07200 46.84900 33.03600
H  33.49600 53.77400 27.26000
H  34.72800 54.56900 26.33800
H  35.16700 53.74600 27.79900
H  34.76400 55.05800 24.06200
H  33.13100 54.41000 24.60800
H  33.35800 54.81100 22.95600
H  35.75700 48.37800 20.98100
H  34.80200 45.75200 21.79600
H  33.57600 47.01600 20.72800
H  33.81800 48.72500 20.27700
H  33.00500 48.22600 21.90800
H  37.03700 46.58900 20.28400
H  36.78300 44.91900 20.94000
H  38.18900 46.83000 22.62200
H  39.08100 46.40100 21.10400
H  38.51400 45.12300 22.28000
H  38.20900 42.43200 26.26500
H  37.36400 42.44100 24.82800
H  36.52800 41.90800 26.38700
H  37.35100 45.27500 30.61800
H  34.42200 44.97600 33.51000
H  34.57100 43.24800 33.34800
H  33.29900 44.20500 32.44300

