158

Mg 34.53400 2.89500 29.24000
C  32.29900 3.91600 31.79500
C  36.91400 2.53900 31.67100
C  36.67700 2.37700 26.68100
C  32.02200 3.53300 26.93800
N  34.62400 3.49400 31.47800
C  33.58100 3.75800 32.34700
C  34.03000 3.75100 33.81700
C  35.58600 3.33600 33.73000
C  35.71600 3.03300 32.20500
C  36.54500 4.45800 34.15300
C  33.17700 2.75300 34.61600
C  32.72500 3.11500 36.01100
H  33.39200 4.18200 36.92000
N  36.46500 2.36300 29.23900
C  37.28900 2.21900 30.33800
C  38.65600 1.82400 29.93500
C  38.58300 1.89000 28.50900
C  37.19500 2.17900 28.06200
C  39.70400 1.47900 30.97500
C  39.74400 1.55700 27.44900
O  39.49100 1.50600 26.28900
C  41.20800 1.32400 27.93700
N  34.35700 2.82400 27.09900
C  35.36900 2.60800 26.20100
C  34.92500 2.92400 24.72700
C  33.35900 2.79200 24.92600
C  33.22400 3.21900 26.40600
C  35.52900 4.23100 24.04100
C  32.70600 1.42700 24.59400
C  31.53200 1.49400 23.70100
N  32.59100 3.58900 29.30500
C  31.72000 3.76600 28.23800
C  30.44200 4.13300 28.75500
C  30.57000 4.24100 30.14000
C  31.94100 3.96100 30.43800
C  29.18300 4.38100 27.92600
C  29.87000 4.40600 31.45700
O  28.71900 4.77600 31.63000
C  30.92800 4.24900 32.54300
C  31.14600 5.59500 33.23300
O  31.75900 6.51800 32.73800
O  30.58600 5.47900 34.46300
C  30.51700 6.68900 35.27700
H  37.67500 2.48800 32.45200
H  37.41200 2.36500 25.87300
H  31.15100 3.50900 26.28000
H  33.95900 4.75500 34.23600
H  35.72700 2.45600 34.35700
H  37.11900 4.79800 33.29100
H  37.26600 4.13800 34.90500
H  36.02800 5.35900 34.48100
H  33.70500 1.79900 34.60600
H  32.24000 2.51100 34.11500
H  32.67300 2.19400 36.59200
H  31.70700 3.49600 35.93100
H  40.65700 1.93300 30.70300
H  39.87000 0.40900 30.85200
H  39.44900 1.73400 32.00300
H  41.19700 0.67500 28.81300
H  41.53600 2.35400 28.07700
H  41.78100 0.91700 27.10400
H  35.20000 2.06200 24.12000
H  32.90100 3.61500 24.37700
H  36.04300 4.82500 24.79700
H  34.75900 4.72600 23.44800
H  36.30200 4.00900 23.30700
H  32.42000 1.02000 25.56400
H  33.48700 0.88700 24.05700
H  30.66400 1.01200 24.15000
H  31.79600 1.01100 22.76000
H  31.25300 2.49700 23.38000
H  28.82900 3.36900 27.72900
H  29.51800 4.87500 27.01400
H  28.49600 5.02100 28.48000
H  30.61000 3.45700 33.22100
H  30.22500 7.54100 34.66400
H  31.49200 6.69100 35.76300
H  29.79300 6.45600 36.05800
Mg 6.85000 53.01500 40.23500
C  6.00800 49.59600 40.07600
C  10.02800 52.18400 39.57300
C  7.43700 56.25700 39.93200
C  3.39200 53.61700 40.64000
N  7.82400 51.11400 39.78800
C  7.37400 49.81500 39.82200
C  8.49300 48.77800 39.69900
C  9.73700 49.67500 39.79100
C  9.18600 51.06800 39.65300
C  10.65100 49.54100 41.02200
C  8.52200 47.99100 38.33900
C  8.41300 48.90800 37.15400
H  7.49800 48.56100 35.98000
N  8.44500 54.05000 39.74800
C  9.73100 53.55700 39.61600
C  10.64700 54.62300 39.30700
C  9.92600 55.84600 39.28900
C  8.58000 55.44200 39.68300
C  12.12100 54.36000 38.97900
C  10.46700 57.24700 38.88500
O  11.64100 57.43000 38.50100
C  9.53600 58.37200 38.62600
N  5.59600 54.70200 40.17300
C  6.08300 55.97300 40.23500
C  5.08700 57.00300 40.43600
C  3.72900 56.19000 40.43000
C  4.26200 54.72200 40.42500
C  5.35500 57.83100 41.74400
C  2.77000 56.30700 39.17200
C  1.42500 56.81800 39.44500
N  5.07100 51.89600 40.44000
C  3.70600 52.28200 40.62200
C  2.89200 51.18400 40.80400
C  3.74500 50.03300 40.59300
C  5.07300 50.59100 40.37200
C  1.40200 51.16600 41.06500
C  3.74500 48.52900 40.44500
O  2.86200 47.63800 40.49900
C  5.24300 48.23100 40.19800
C  5.24700 47.40400 38.94100
O  4.98900 47.75400 37.80200
O  5.54700 46.14100 39.32900
C  5.71400 45.07800 38.32200
H  11.04400 51.91400 39.27700
H  7.57600 57.33900 39.90200
H  2.34000 53.89200 40.74200
H  8.40700 48.12100 40.56500
H  10.33400 49.52200 38.89200
H  10.48400 50.37500 41.70400
H  11.67800 49.60100 40.66100
H  10.37800 48.60400 41.50800
H  7.69000 47.29100 38.26000
H  9.51200 47.53700 38.31000
H  9.40700 49.00800 36.71900
H  8.10800 49.91900 37.42300
H  12.30600 54.16200 37.92300
H  12.32400 53.44200 39.53100
H  12.81400 55.08600 39.40300
H  10.04700 59.27000 38.27900
H  9.10700 58.59300 39.60300
H  8.71000 58.12700 37.95700
H  5.01500 57.70600 39.60600
H  3.17000 56.41800 41.33700
H  6.15800 57.43400 42.36500
H  4.45000 57.98700 42.33100
H  5.78000 58.75900 41.36300
H  2.61200 55.36600 38.64500
H  3.20200 57.01900 38.46800
H  1.33600 57.40600 40.35900
H  0.67800 56.02700 39.36900
H  1.14700 57.39900 38.56500
H  0.90200 51.64700 40.22400
H  1.17000 51.55600 42.05600
H  1.05300 50.13500 41.11300
H  5.69900 47.66700 41.01100
H  4.73300 44.71700 38.01000
H  6.25100 44.19900 38.67800
H  6.27100 45.41400 37.44700

