158

Mg 2.40300 -2.12100 44.73700
C  5.83100 -1.57500 44.28900
C  1.77500 0.43700 42.52800
C  -0.80300 -3.00100 44.80300
C  3.21600 -5.02000 46.51300
N  3.67000 -0.77400 43.50400
C  5.09200 -0.68300 43.48200
C  5.52700 0.30600 42.39300
C  4.24000 1.15600 42.07800
C  3.14900 0.16800 42.74100
C  4.03000 2.56300 42.72200
C  6.22800 -0.25700 41.09300
C  7.68000 0.18600 40.86800
H  8.06200 0.70400 39.42800
N  0.68100 -1.19900 43.98800
C  0.64000 -0.19900 43.10100
C  -0.71600 0.20400 42.94100
C  -1.54400 -0.75200 43.63900
C  -0.56200 -1.70800 44.22300
C  -1.13900 1.39000 42.05300
C  -3.05900 -0.84900 43.63900
O  -3.73900 -0.13400 42.97000
C  -3.82800 -1.84300 44.54700
N  1.41700 -3.92800 45.35800
C  0.05200 -3.96400 45.39900
C  -0.39200 -5.36200 45.75100
C  0.78300 -5.89500 46.53000
C  1.92300 -4.83000 46.10300
C  -1.78700 -5.37100 46.52800
C  1.13600 -7.37900 46.08000
C  1.49400 -8.31900 47.24300
N  4.07100 -2.97000 45.44300
C  4.28500 -4.13400 46.16800
C  5.69400 -4.39500 46.41700
C  6.32600 -3.35100 45.72300
C  5.31600 -2.61100 45.10600
C  6.31400 -5.54400 47.28000
C  7.62800 -2.79500 45.38600
O  8.77000 -3.27300 45.50400
C  7.36200 -1.65500 44.31500
C  8.05100 -0.37400 44.76700
O  9.13000 -0.02900 44.37600
O  7.18700 0.29300 45.58900
C  7.52900 1.69300 45.87900
H  1.63500 1.27600 41.84400
H  -1.84900 -3.26200 44.63000
H  3.60400 -5.84900 47.10900
H  6.26700 0.96100 42.85400
H  3.97400 1.28800 41.02900
H  5.03300 2.97100 42.84900
H  3.47600 2.60000 43.66000
H  3.63900 3.27700 41.99700
H  5.73900 0.06100 40.17300
H  6.21800 -1.34500 41.02500
H  8.30800 -0.70100 40.95100
H  8.01500 0.79900 41.70500
H  -0.38700 1.57500 41.28600
H  -1.12700 2.30200 42.65000
H  -2.06600 1.20700 41.50800
H  -4.88300 -1.57100 44.50100
H  -3.53900 -1.66000 45.58200
H  -3.73900 -2.92000 44.40100
H  -0.53900 -5.94800 44.84400
H  0.62300 -5.81600 47.60600
H  -1.65400 -5.84100 47.50200
H  -2.58100 -5.84000 45.94600
H  -2.09500 -4.37100 46.83200
H  2.00400 -7.38200 45.42000
H  0.27500 -7.69400 45.49000
H  0.76300 -9.10600 47.05800
H  1.31600 -7.79400 48.18200
H  2.52400 -8.67300 47.24000
H  5.81900 -6.46800 46.98300
H  6.18200 -5.28700 48.33100
H  7.38900 -5.54400 47.09800
H  7.88800 -1.94300 43.40500
H  7.40000 1.72000 46.96100
H  6.73900 2.38200 45.58300
H  8.49800 2.06000 45.53800
Mg 6.16900 54.76800 40.15800
C  5.66800 51.32700 39.83500
C  9.48200 54.19200 39.12600
C  6.52400 58.12200 39.76000
C  2.69900 55.25600 40.55100
N  7.43200 52.92200 39.57800
C  6.98200 51.67800 39.48800
C  8.15900 50.76600 39.02500
C  9.47900 51.64000 39.09400
C  8.80900 52.99300 39.40600
C  10.42900 51.34000 40.28300
C  8.02100 49.94200 37.71800
C  7.22600 50.51500 36.51800
H  6.88200 52.05500 36.52700
N  7.80500 56.01600 39.55000
C  9.11000 55.59500 39.20900
C  9.81600 56.80900 38.92800
C  9.03500 57.92600 39.25100
C  7.72600 57.38700 39.53200
C  11.27000 56.74900 38.50900
C  9.47500 59.44900 39.20600
O  10.66800 59.66900 39.01200
C  8.58400 60.59000 39.40500
N  4.80800 56.33600 39.84600
C  5.25700 57.65600 39.98100
C  4.17000 58.61100 40.29100
C  2.98800 57.73700 40.57600
C  3.51000 56.35200 40.35200
C  4.45700 59.58400 41.42100
C  1.76000 58.06500 39.74200
C  1.70500 57.79100 38.21300
N  4.47200 53.54700 40.36700
C  3.14900 53.88200 40.62400
C  2.34100 52.62800 40.88900
C  3.29500 51.60400 40.55200
C  4.58100 52.22800 40.23400
C  0.87100 52.57400 41.17200
C  3.47700 50.13200 40.42700
O  2.57600 49.28100 40.62900
C  5.01600 49.88800 39.98800
C  5.02500 48.93300 38.89400
O  4.35400 49.02400 37.88000
O  5.74200 47.84200 39.10600
C  5.57800 46.61400 38.35400
H  10.51400 54.18800 38.76900
H  6.67500 59.20100 39.82700
H  1.65900 55.35500 40.87000
H  8.20300 49.99500 39.79400
H  10.07800 51.68800 38.18500
H  11.20200 52.07300 40.51700
H  10.83300 50.33200 40.19200
H  9.95400 51.22900 41.25800
H  7.63700 48.94100 37.91800
H  9.03200 49.80500 37.33500
H  6.36900 49.85500 36.37800
H  7.90700 50.36200 35.68100
H  11.56100 57.58500 37.87300
H  11.53200 55.79700 38.04600
H  11.84000 56.88400 39.42900
H  7.77500 60.60600 38.67500
H  9.03400 61.56200 39.60500
H  8.30400 60.29000 40.41500
H  3.87000 59.24000 39.45300
H  2.61400 57.80400 41.59800
H  5.52100 59.78400 41.54600
H  3.93200 59.27800 42.32600
H  4.00500 60.53300 41.13000
H  1.41300 59.08200 39.92700
H  0.97700 57.51800 40.26700
H  1.39900 58.66000 37.63100
H  1.01200 56.98400 37.97800
H  2.65100 57.35000 37.90000
H  0.30600 53.19800 40.48000
H  0.68500 53.00800 42.15400
H  0.65200 51.51000 41.08100
H  5.60300 49.41600 40.77700
H  5.44300 46.95200 37.32700
H  4.67100 46.09300 38.66200
H  6.40800 45.91200 38.43300

