158

Mg 40.48200 9.11500 29.30200
C  42.15200 10.41800 32.07100
C  38.31500 7.53300 31.61200
C  38.92200 7.73600 26.69300
C  43.04800 10.14100 27.25900
N  40.28900 9.03500 31.55800
C  41.00100 9.79200 32.46300
C  40.34500 9.75400 33.88700
C  39.24800 8.71300 33.60900
C  39.33900 8.35100 32.21800
C  39.20400 7.46900 34.59900
C  39.99200 11.17200 34.43800
C  39.27000 11.17000 35.82300
H  39.97000 11.91600 36.96200
N  38.74200 7.89500 29.15200
C  38.00200 7.37100 30.21700
C  36.90100 6.77800 29.60000
C  36.99900 6.84300 28.19200
C  38.28200 7.49300 27.92300
C  35.82000 6.13000 30.46600
C  36.05500 6.40500 27.11700
O  36.29400 6.58800 25.93100
C  34.79200 5.72800 27.53000
N  40.93200 8.95700 27.35700
C  40.05000 8.49200 26.41400
C  40.55100 8.56700 24.97900
C  41.86100 9.43200 25.11400
C  41.98600 9.55900 26.66400
C  40.81200 7.13300 24.37100
C  41.89800 10.78400 24.38600
C  41.10600 12.01200 24.94900
N  42.23300 10.13200 29.58200
C  43.17300 10.52400 28.61700
C  44.26900 11.27900 29.26200
C  43.84900 11.33900 30.61100
C  42.67100 10.52800 30.76900
C  45.49400 11.83300 28.64600
C  44.21000 11.88000 31.89700
O  45.18600 12.52300 32.23200
C  43.09500 11.31200 32.90000
C  43.76900 10.53300 34.03400
O  44.72000 9.82500 33.82400
O  43.23400 10.93700 35.23800
C  43.68200 10.12400 36.36400
H  37.60000 7.15500 32.34500
H  38.40300 7.37700 25.80100
H  43.81300 10.46200 26.54800
H  41.15100 9.25700 34.42700
H  38.33300 9.28000 33.77800
H  38.17600 7.42300 34.95900
H  39.83300 7.63800 35.47300
H  39.63400 6.58700 34.12400
H  39.34600 11.64400 33.69900
H  40.91000 11.74000 34.58800
H  39.18800 10.12500 36.12100
H  38.31400 11.67200 35.67200
H  35.96500 6.36700 31.52000
H  35.90900 5.07000 30.22900
H  34.81200 6.48900 30.25700
H  34.06500 6.48200 27.82900
H  34.85700 4.94500 28.28600
H  34.36600 5.21700 26.66700
H  39.75900 9.06000 24.41800
H  42.74500 8.86600 24.81900
H  41.86300 6.85200 24.31700
H  40.36000 7.06900 23.38100
H  40.33200 6.36800 24.98300
H  41.30200 10.59100 23.49400
H  42.91300 11.11400 24.16300
H  40.76000 11.90400 25.97700
H  40.22700 12.33800 24.39300
H  41.79100 12.85600 25.03400
H  45.25600 12.86400 28.38200
H  45.81600 11.32400 27.73800
H  46.28700 11.89500 29.39000
H  42.59600 12.23200 33.20400
H  44.74400 9.88600 36.29700
H  42.87400 9.42400 36.57900
H  43.54600 10.84000 37.17500
Mg 47.11300 16.55500 28.06900
C  45.08800 16.44400 30.90800
C  49.50900 18.30700 30.13700
C  48.89000 17.35900 25.28700
C  44.48300 15.36900 26.18700
N  47.27500 17.29000 30.29700
C  46.29700 17.04700 31.24100
C  46.78500 17.43300 32.64300
C  47.99100 18.38800 32.24700
C  48.27600 18.02600 30.77100
C  47.92100 19.93300 32.55600
C  47.15900 16.11400 33.39000
C  46.82500 16.26900 34.96800
H  46.82000 17.64700 35.63900
N  48.95900 17.46300 27.80600
C  49.85300 18.00000 28.80000
C  51.05200 18.41600 28.12500
C  50.93600 18.15900 26.74100
C  49.54100 17.67400 26.53600
C  52.25100 19.14100 28.85400
C  51.98100 18.28700 25.61600
O  51.67700 18.14400 24.41200
C  53.36500 18.60600 25.91700
N  46.85000 16.27200 26.04300
C  47.71300 16.66200 24.99300
C  47.07900 16.34900 23.64500
C  45.81000 15.48400 24.03000
C  45.63400 15.68400 25.52700
C  46.81400 17.62400 22.84400
C  45.96300 13.93100 23.78100
C  45.56600 13.59700 22.34700
N  45.22400 15.94200 28.42300
C  44.26000 15.39400 27.61800
C  43.11000 14.91800 28.36700
C  43.40300 15.34900 29.65800
C  44.65900 15.96800 29.65900
C  41.85900 14.18200 27.96600
C  42.83700 15.53100 30.94800
O  41.70800 15.25200 31.27600
C  44.03000 16.12600 31.91800
C  43.47900 17.22100 32.66300
O  43.43500 18.30900 32.15800
O  42.89200 16.86400 33.94100
C  42.36400 17.94800 34.73100
H  50.25800 18.82000 30.74500
H  49.26600 17.85200 24.38800
H  43.85400 14.66000 25.64500
H  46.00100 17.93600 33.21000
H  48.87200 17.97400 32.73700
H  47.87100 20.45300 31.60000
H  48.78100 20.33500 33.09100
H  47.08400 20.27300 33.16700
H  48.15800 15.71500 33.21700
H  46.47800 15.29400 33.16300
H  47.67300 15.72500 35.38600
H  45.92000 15.68900 35.14900
H  52.77300 18.49600 29.56100
H  51.82900 19.89100 29.52400
H  52.94200 19.56800 28.12800
H  53.57100 19.67500 25.88200
H  54.01300 18.03100 25.25500
H  53.69600 18.19200 26.86900
H  47.75900 15.64700 23.16100
H  44.93700 15.93200 23.55600
H  47.60900 17.93000 22.16400
H  46.85300 18.46000 23.54300
H  45.88500 17.62200 22.27500
H  45.41700 13.30000 24.48300
H  46.99100 13.63900 23.99400
H  46.43200 13.67000 21.69000
H  44.73600 14.25900 22.09700
H  45.19900 12.57700 22.45500
H  41.16500 14.05600 28.79700
H  42.14800 13.26200 27.45700
H  41.27800 14.84600 27.32800
H  44.32000 15.32200 32.59400
H  42.68000 18.90400 34.31300
H  42.61600 17.90100 35.79100
H  41.28200 18.01900 34.62300

