158

Mg 43.07500 3.49500 46.82300
C  41.39400 6.60700 47.01600
C  39.81900 1.91100 46.83100
C  44.42400 0.62900 46.12900
C  46.06600 5.25900 46.28100
N  40.94400 4.24800 46.93600
C  40.54100 5.53900 47.03200
C  39.00900 5.70200 47.19600
C  38.57500 4.18800 47.14500
C  39.84300 3.35800 46.98800
C  37.69900 3.69000 48.36400
C  38.21000 6.45600 46.13600
C  38.84600 6.49700 44.65000
H  38.08600 5.76800 43.48800
N  42.24700 1.49400 46.46700
C  40.91300 1.03700 46.63500
C  40.91800 -0.36900 46.41100
C  42.25900 -0.77700 46.16600
C  43.09500 0.42100 46.21400
C  39.69000 -1.20400 46.56300
C  42.69400 -2.26800 45.93700
O  41.84900 -3.16800 45.74800
C  44.07200 -2.62300 45.53700
N  44.96700 3.04600 46.21900
C  45.25800 1.74000 46.10100
C  46.78300 1.61400 46.03300
C  47.34600 3.03900 45.79200
C  46.05400 3.84400 46.13700
C  47.34600 1.01500 47.30800
C  47.93100 3.28700 44.42300
C  49.16400 4.04100 44.27400
N  43.69700 5.49000 46.75000
C  44.91200 6.04700 46.51900
C  44.75600 7.52000 46.56900
C  43.39600 7.68900 46.72600
C  42.82500 6.50300 46.88300
C  45.85200 8.60900 46.42600
C  42.37900 8.81700 46.80400
O  42.44700 10.06500 46.72600
C  41.06900 8.10400 46.95800
C  40.52300 8.65800 48.27100
O  40.96400 8.54700 49.38200
O  39.36700 9.32600 48.00900
C  38.82300 10.00400 49.20600
H  38.84200 1.42200 46.81900
H  45.00300 -0.29600 46.10300
H  46.96400 5.87000 46.17000
H  38.86800 6.17900 48.16500
H  38.09500 3.92000 46.20400
H  37.80000 2.61800 48.53200
H  36.65600 3.92700 48.15700
H  37.94200 4.11200 49.33900
H  38.10300 7.45300 46.56400
H  37.21300 6.07200 45.91600
H  39.79700 5.97000 44.56600
H  38.93600 7.56900 44.47700
H  39.82600 -2.18800 47.01300
H  39.06100 -1.10700 45.67900
H  39.03100 -0.72500 47.28700
H  44.56700 -2.69700 46.50600
H  44.35700 -1.85300 44.82100
H  44.11600 -3.56000 44.98200
H  46.99100 1.06400 45.11500
H  47.99000 3.45900 46.56500
H  46.66300 0.54500 48.01600
H  47.84700 1.81500 47.85200
H  48.10700 0.30800 46.97600
H  47.21400 3.82700 43.80300
H  47.90200 2.39000 43.80400
H  49.00400 4.93500 43.67200
H  49.90900 3.41600 43.78200
H  49.50900 4.31500 45.27200
H  46.90100 8.31200 46.41400
H  45.71500 9.25700 47.29100
H  45.76200 9.13800 45.47700
H  40.37300 8.24700 46.13200
H  38.57100 9.20800 49.90700
H  37.83800 10.40800 48.97200
H  39.43400 10.79000 49.65100
Mg 6.91500 54.11600 40.90500
C  6.76100 50.38800 41.07800
C  10.22500 53.65600 40.29000
C  6.96800 57.37000 40.17400
C  3.43600 54.08800 41.20000
N  8.34000 52.19400 40.60100
C  8.05800 50.84400 40.66800
C  9.31400 50.03300 40.43100
C  10.47500 51.09300 40.52900
C  9.66400 52.39200 40.47100
C  11.33100 51.00200 41.81400
C  9.20400 49.14300 39.12600
C  9.12500 49.93500 37.80400
H  7.76400 49.96700 37.11200
N  8.39000 55.33600 40.31400
C  9.69400 54.91500 40.14200
C  10.49800 56.09700 39.88500
C  9.63200 57.25500 40.06900
C  8.26500 56.71200 40.21600
C  11.99600 56.01000 39.50300
C  10.11600 58.63000 40.02200
O  11.26500 58.91500 39.71600
C  9.13200 59.73800 40.41400
N  5.40900 55.47400 40.49900
C  5.68100 56.82200 40.21400
C  4.45500 57.60500 40.15800
C  3.27800 56.46800 40.12200
C  4.05600 55.29500 40.73700
C  4.22500 58.45600 41.47400
C  2.87000 56.13500 38.65100
C  1.63600 56.69300 37.96000
N  5.35100 52.62500 41.17200
C  4.06000 52.79900 41.37500
C  3.47400 51.54600 41.84000
C  4.49600 50.59900 41.73200
C  5.65700 51.29100 41.32800
C  2.07500 51.36700 42.38600
C  4.79900 49.18900 41.85100
O  4.06700 48.33900 42.32600
C  6.30300 48.95500 41.33700
C  6.01100 48.11400 40.14000
O  5.22900 48.47400 39.26300
O  6.55500 46.82500 40.19700
C  6.29400 45.92400 39.01600
H  11.23400 53.60000 39.87600
H  6.90000 58.45500 40.07900
H  2.34600 54.13100 41.24100
H  9.26400 49.37300 41.29700
H  11.16600 50.97800 39.69400
H  11.32400 50.02800 42.30300
H  11.14400 51.74600 42.58900
H  12.37700 51.13300 41.53900
H  8.36700 48.44900 39.20100
H  10.07600 48.49200 39.18600
H  9.88300 49.44700 37.19200
H  9.48900 50.93200 38.05300
H  12.02500 55.61100 38.48800
H  12.58200 55.29700 40.08200
H  12.54100 56.95100 39.58300
H  8.59100 60.06100 39.52500
H  9.77000 60.50600 40.85100
H  8.42300 59.45400 41.19200
H  4.46300 58.24700 39.27700
H  2.46100 56.79500 40.76400
H  4.78600 58.06300 42.32200
H  3.14200 58.52200 41.57200
H  4.66500 59.45300 41.45000
H  2.74700 55.05400 38.57300
H  3.66500 56.45100 37.97600
H  1.14400 57.48200 38.52700
H  0.84700 55.94200 37.93100
H  1.88800 57.10700 36.98300
H  1.44300 50.88100 41.64400
H  1.58300 52.33600 42.47700
H  1.99400 50.76300 43.29000
H  6.86800 48.39300 42.08100
H  5.54100 45.24600 39.41800
H  7.10800 45.27400 38.69600
H  5.77900 46.36200 38.16100

