158

Mg 53.93900 24.41900 44.22200
C  51.14700 26.70400 43.86800
C  51.61500 21.92400 43.31500
C  56.39400 22.39000 43.85300
C  56.06300 27.15300 44.50500
N  51.66000 24.39800 43.36300
C  50.69100 25.37900 43.49500
C  49.30400 24.82700 43.13100
C  49.50000 23.28600 43.41600
C  51.03500 23.14500 43.39800
C  48.93800 22.76400 44.79900
C  49.01900 25.18000 41.68300
C  47.56100 25.14100 41.22900
H  47.40200 24.65000 39.77600
N  54.04600 22.48400 43.68200
C  53.03500 21.62000 43.30900
C  53.53100 20.26300 43.20500
C  54.93000 20.30000 43.46100
C  55.20900 21.73200 43.67100
C  52.58700 19.01700 42.91900
C  55.78600 19.08800 43.41300
O  55.30200 17.96700 43.17600
C  57.27900 19.13500 43.81600
N  55.98800 24.78700 43.95900
C  56.80400 23.72700 44.06500
C  58.24300 24.12400 44.31400
C  58.12600 25.62100 44.41400
C  56.62200 25.88800 44.28000
C  58.94100 23.38400 45.46000
C  58.95400 26.39400 43.32200
C  59.84600 27.52600 43.88400
N  53.71100 26.48900 44.34200
C  54.66200 27.47200 44.51100
C  53.94600 28.72200 44.71300
C  52.61100 28.48000 44.53200
C  52.50600 27.09200 44.21800
C  54.52300 30.01300 45.07400
C  51.36600 29.10200 44.57300
O  51.11600 30.25200 44.84100
C  50.34600 28.04700 44.09500
C  49.92900 28.47700 42.72300
O  50.65200 28.75100 41.75300
O  48.58500 28.72000 42.68400
C  47.86900 29.20200 41.43700
H  50.83400 21.20200 43.06800
H  57.28200 21.75500 43.89600
H  56.80900 27.93200 44.67700
H  48.53100 25.37100 43.67300
H  49.06300 22.71100 42.60000
H  49.00900 23.47000 45.62600
H  49.37400 21.80600 45.08000
H  47.86800 22.61100 44.65800
H  49.63700 24.52800 41.06500
H  49.33700 26.19900 41.46100
H  47.05400 26.08600 41.42400
H  47.14500 24.34300 41.84300
H  53.01200 18.48800 42.06500
H  51.58000 19.28700 42.60100
H  52.57500 18.39300 43.81300
H  57.62900 18.11800 43.99800
H  57.23600 19.70500 44.74300
H  57.83700 19.62600 43.01900
H  58.80800 23.68200 43.49400
H  58.25000 26.01000 45.42400
H  59.15800 24.11400 46.24000
H  59.79600 22.77400 45.16700
H  58.31400 22.68300 46.01200
H  58.32000 26.86100 42.56800
H  59.55800 25.66400 42.78400
H  59.80500 28.42800 43.27300
H  60.88100 27.19400 43.80000
H  59.50700 27.79600 44.88400
H  54.20700 30.39200 46.04600
H  54.07700 30.72200 44.37600
H  55.58600 29.89000 44.86700
H  49.46500 27.96000 44.73000
H  46.84500 29.49700 41.66500
H  47.89200 28.40300 40.69700
H  48.45800 30.00600 40.99500
Mg 42.76600 41.98100 26.34300
C  41.84000 43.99000 28.81600
C  44.10700 39.74000 28.52800
C  43.95600 40.16500 23.63700
C  41.66200 44.43300 23.93500
N  42.87500 41.85700 28.44900
C  42.26000 42.74600 29.30800
C  42.38600 42.21600 30.78900
C  43.19300 40.91700 30.65800
C  43.34700 40.76800 29.11200
C  44.51500 40.84200 31.42700
C  40.91900 42.22200 31.48800
C  40.76900 41.43600 32.77100
H  39.84300 41.99300 33.86500
N  43.81600 40.23100 26.09600
C  44.35700 39.50800 27.14600
C  44.95400 38.33900 26.56600
C  44.89300 38.34200 25.19100
C  44.21500 39.64400 24.94200
C  45.60000 37.34500 27.44300
C  45.40500 37.39200 24.15800
O  45.18600 37.56600 22.99900
C  46.11000 36.20900 24.62800
N  42.76200 42.23100 24.08600
C  43.32600 41.29600 23.20200
C  42.98100 41.60000 21.72500
C  42.01600 42.86500 21.88500
C  42.08700 43.20200 23.39000
C  44.24000 41.93000 20.88000
C  40.55900 42.68500 21.38400
C  39.51200 42.22700 22.45100
N  41.85700 43.81300 26.36000
C  41.65400 44.76400 25.38200
C  41.19600 45.97800 26.05300
C  41.22400 45.69200 27.44200
C  41.66100 44.37300 27.51800
C  40.70100 47.29400 25.45200
C  40.88800 46.22800 28.74600
O  40.39600 47.30300 29.08900
C  41.44500 45.13300 29.67500
C  42.67800 45.55900 30.48800
O  43.87200 45.51900 30.11300
O  42.29700 45.90000 31.73400
C  43.43100 46.28300 32.59800
H  44.58700 39.07900 29.25300
H  44.37200 39.70700 22.73700
H  41.26800 45.28800 23.38300
H  42.93200 42.95500 31.37600
H  42.53100 40.10200 30.95100
H  44.81000 41.79600 31.86500
H  45.29000 40.56300 30.71200
H  44.64000 40.06300 32.17900
H  40.13100 42.02000 30.76300
H  40.67500 43.22600 31.83500
H  41.74300 41.14700 33.16600
H  40.24400 40.52700 32.47800
H  46.61500 37.11900 27.11500
H  45.08200 36.40400 27.25900
H  45.75900 37.61400 28.48700
H  46.23500 35.55000 23.76900
H  45.46600 35.72300 25.36000
H  47.04600 36.48700 25.11200
H  42.39400 40.73800 21.40900
H  42.55800 43.62100 21.31800
H  45.17700 42.01400 21.43200
H  44.15600 42.77700 20.20000
H  44.23400 41.01400 20.28800
H  40.50700 42.06500 20.48900
H  40.18900 43.64100 21.01500
H  39.04000 43.03800 23.00600
H  39.97900 41.49900 23.11500
H  38.80800 41.50200 22.04400
H  40.65600 47.26300 24.36400
H  41.36300 48.10300 25.76200
H  39.69400 47.53100 25.79500
H  40.61500 44.94300 30.35500
H  43.64200 47.35200 32.61000
H  44.36600 45.74700 32.43300
H  43.23300 46.17900 33.66500

