158

Mg -1.52100 18.14500 27.44000
C  -2.07700 16.07900 30.17000
C  -2.11600 20.84000 29.46000
C  -0.86400 20.02900 24.80200
C  -1.58400 15.31400 25.33400
N  -2.03000 18.38000 29.70300
C  -2.13000 17.41200 30.64000
C  -2.43400 18.07200 31.99200
C  -2.56100 19.56600 31.56200
C  -2.31200 19.62200 30.10700
C  -3.91800 20.30600 31.98800
C  -1.28400 17.88600 33.05600
C  -1.88300 17.43800 34.39500
H  -0.92700 17.37800 35.54300
N  -1.37000 20.14100 27.23400
C  -1.69500 21.04600 28.11900
C  -1.61700 22.33900 27.48000
C  -1.07500 22.18600 26.19200
C  -1.03000 20.69200 26.05900
C  -2.20300 23.56200 28.17100
C  -0.68400 23.23200 25.21700
O  -0.20700 23.02500 24.09900
C  -0.88400 24.64100 25.68400
N  -1.42000 17.73500 25.34700
C  -1.03200 18.70000 24.49100
C  -1.02900 18.15100 23.09900
C  -0.81600 16.65200 23.31500
C  -1.28400 16.55200 24.70400
C  -2.28700 18.42300 22.18400
C  0.67300 16.09300 23.14500
C  1.81700 16.89400 23.64900
N  -1.79700 16.12000 27.64000
C  -1.80300 15.08600 26.72100
C  -1.75800 13.83000 27.41200
C  -1.93100 14.15700 28.73500
C  -1.95700 15.54500 28.88100
C  -1.61600 12.49900 26.86900
C  -1.88500 13.56400 30.03500
O  -1.64400 12.41600 30.45500
C  -2.14700 14.79600 31.01200
C  -1.02100 14.67200 31.95700
O  0.18800 14.81800 31.71000
O  -1.42200 14.08000 33.18700
C  -0.36700 13.76000 34.18300
H  -2.16400 21.66200 30.17800
H  -0.57100 20.64200 23.94700
H  -1.53200 14.41300 24.71900
H  -3.38400 17.76400 32.42800
H  -1.79600 20.14100 32.08300
H  -4.76800 19.63000 31.90700
H  -4.06800 21.17100 31.34100
H  -3.94000 20.63200 33.02800
H  -0.73900 18.82700 33.13900
H  -0.59800 17.10300 32.73100
H  -2.24600 16.41800 34.27000
H  -2.68700 18.12100 34.66800
H  -1.41200 24.22700 28.51700
H  -2.78800 23.31600 29.05700
H  -2.83700 23.97000 27.38300
H  -1.90800 24.98900 25.54900
H  -0.19000 25.12600 24.99800
H  -0.50100 24.59900 26.70300
H  -0.11500 18.42300 22.57100
H  -1.47300 16.10800 22.63700
H  -1.97900 18.89500 21.25100
H  -2.82800 19.18300 22.74800
H  -3.01500 17.65400 21.92500
H  0.79200 15.86600 22.08600
H  0.80700 15.14300 23.66200
H  2.44200 17.21800 22.81700
H  2.34000 16.35000 24.43500
H  1.46000 17.73000 24.25100
H  -1.34100 12.57500 25.81700
H  -2.54300 11.93300 26.77000
H  -0.80700 11.98800 27.39000
H  -3.06800 14.67800 31.58400
H  -0.75900 13.71400 35.19900
H  0.41000 14.50900 34.33500
H  0.13900 12.87600 33.79400
Mg 47.47900 16.01900 27.54600
C  45.52200 15.62600 30.57400
C  49.75000 17.64300 29.31200
C  49.11800 16.41300 24.66300
C  44.88800 14.49500 25.86800
N  47.61500 16.51800 29.77800
C  46.78400 16.25400 30.80300
C  47.23100 16.93200 32.12100
C  48.57700 17.61600 31.65500
C  48.71300 17.27700 30.18700
C  48.56200 19.19700 31.78900
C  47.41800 15.91300 33.20800
C  46.59200 16.09300 34.48700
H  46.38800 17.44300 35.05000
N  49.22300 16.97300 27.06400
C  50.09900 17.53900 27.94800
C  51.37400 17.72900 27.27800
C  51.22900 17.29300 25.91500
C  49.78600 16.84700 25.81200
C  52.58500 18.25600 28.02300
C  52.27800 17.30500 24.79100
O  52.05600 16.75700 23.69800
C  53.60100 17.95800 25.05100
N  47.19200 15.37000 25.59800
C  47.95400 15.70100 24.53900
C  47.35000 15.36600 23.16900
C  46.02900 14.64000 23.54500
C  46.01200 14.80500 25.12900
C  47.10300 16.59900 22.17000
C  45.92600 13.11700 23.18400
C  44.65900 12.70800 22.50200
N  45.66400 15.04300 28.09500
C  44.70500 14.62800 27.26700
C  43.59600 14.11200 28.02900
C  43.88200 14.53700 29.35400
C  45.16400 15.11300 29.34100
C  42.38900 13.39300 27.56700
C  43.35900 14.56700 30.72800
O  42.26200 14.18800 31.17900
C  44.42400 15.35800 31.56200
C  43.80300 16.48700 32.30400
O  43.78500 17.65700 32.10200
O  43.18800 15.90600 33.37500
C  42.29400 16.77400 34.15600
H  50.51200 18.11900 29.93300
H  49.72900 16.59500 23.77600
H  44.09700 14.00900 25.29300
H  46.51900 17.68100 32.46800
H  49.44300 17.34200 32.25900
H  47.73900 19.51100 32.43100
H  48.42900 19.73900 30.85300
H  49.48900 19.40900 32.32300
H  48.44300 15.83900 33.57100
H  47.04500 14.95800 32.83700
H  46.99800 15.47200 35.28600
H  45.55500 15.75800 34.53300
H  53.20800 17.38300 28.21600
H  52.50000 18.72100 29.00500
H  53.16800 18.96400 27.43500
H  53.47500 19.01400 25.29100
H  54.26300 17.93300 24.18500
H  54.00200 17.35400 25.86500
H  48.01800 14.68800 22.63700
H  45.12700 15.11800 23.16300
H  47.87300 16.58800 21.39800
H  47.26900 17.55400 22.66900
H  46.12100 16.60000 21.69600
H  46.10900 12.52700 24.08200
H  46.70400 12.91600 22.44800
H  44.65900 12.79000 21.41500
H  43.87400 13.32600 22.93700
H  44.53500 11.64400 22.70400
H  42.70300 12.43300 27.15600
H  41.98400 13.85900 26.66900
H  41.68900 13.20300 28.38100
H  44.90400 14.70700 32.29300
H  41.75700 17.48100 33.52300
H  42.83400 17.38100 34.88200
H  41.68400 16.03500 34.67500

