158

Mg 8.68800 3.09800 27.43600
C  9.94100 1.65500 30.43300
C  6.99500 5.43200 29.28400
C  7.47800 4.41300 24.63200
C  10.43400 0.58600 25.66000
N  8.42000 3.41000 29.64900
C  9.00900 2.68700 30.66200
C  8.56500 3.26000 32.02200
C  7.63800 4.54300 31.65700
C  7.68600 4.48200 30.10100
C  6.18500 4.40700 32.23400
C  9.77900 3.62400 32.92200
C  9.42900 4.51700 34.07200
H  10.20000 4.31400 35.39200
N  7.39400 4.73900 27.01500
C  6.87100 5.62000 27.90400
C  5.98700 6.59700 27.21500
C  6.25300 6.32700 25.82300
C  7.07300 5.10200 25.78800
C  5.18900 7.68900 27.96400
C  5.83400 7.15400 24.64900
O  6.07400 6.81300 23.50500
C  5.22000 8.57600 24.91100
N  8.73800 2.43300 25.42700
C  8.21800 3.20600 24.48300
C  8.65500 2.73400 23.08700
C  9.79700 1.76300 23.48200
C  9.61100 1.52400 24.94800
C  7.50700 2.10000 22.24900
C  11.24500 2.13700 23.11100
C  12.19800 1.01000 22.55900
N  9.89100 1.36400 27.91400
C  10.52200 0.46500 27.06200
C  11.35100 -0.41000 27.87300
C  11.17400 -0.02100 29.23500
C  10.21300 0.99900 29.19000
C  12.15200 -1.58100 27.39600
C  11.61400 -0.17700 30.65400
O  12.44900 -0.84900 31.21600
C  10.76900 0.87300 31.43300
C  10.01100 0.22100 32.56300
O  8.98700 -0.39800 32.40000
O  10.71100 0.34300 33.70300
C  10.15400 -0.23700 34.93700
H  6.61100 6.28700 29.84400
H  7.13100 4.87600 23.70600
H  11.06800 -0.03600 25.02400
H  7.94300 2.48800 32.47500
H  8.08900 5.50000 31.91800
H  5.87200 3.55400 32.83600
H  5.43900 4.37100 31.44100
H  6.04600 5.24200 32.92100
H  10.55000 4.15500 32.36300
H  10.36200 2.78900 33.30900
H  8.37000 4.44300 34.31800
H  9.66100 5.48600 33.63000
H  5.75100 8.61000 28.11700
H  4.99500 7.32600 28.97400
H  4.31400 7.99600 27.39100
H  5.10100 9.22700 24.04500
H  5.88000 9.06000 25.63100
H  4.24200 8.41600 25.36400
H  8.98300 3.62000 22.54200
H  9.61100 0.76200 23.09300
H  6.53700 2.30300 22.70400
H  7.68000 1.04100 22.05700
H  7.46500 2.62500 21.29400
H  11.77000 2.49300 23.99700
H  11.16000 3.03300 22.49600
H  11.63200 0.08400 22.46100
H  13.00400 0.85100 23.27600
H  12.55800 1.39900 21.60700
H  12.77400 -1.20500 26.58400
H  11.57400 -2.44000 27.05600
H  12.70400 -1.77000 28.31700
H  11.52100 1.59200 31.75900
H  10.94400 -0.20500 35.68900
H  9.94100 -1.29700 34.80200
H  9.29100 0.27600 35.36100
Mg 48.35900 34.47500 27.46400
C  46.60000 32.89800 30.07800
C  48.67200 37.18800 29.54500
C  49.53900 36.16300 24.70600
C  47.70200 31.73500 25.46300
N  47.66600 34.99300 29.61800
C  47.18100 34.09400 30.48900
C  47.19800 34.78600 31.90700
C  47.31800 36.30000 31.52200
C  48.00800 36.10100 30.21300
C  46.00300 37.12000 31.46600
C  48.44300 34.28700 32.65100
C  48.36500 34.02200 34.15200
H  47.47500 34.84100 34.97200
N  49.17000 36.39700 27.19600
C  49.20800 37.34300 28.20800
C  49.68500 38.62600 27.59100
C  50.03600 38.30800 26.19300
C  49.53100 36.90000 25.90500
C  49.68900 39.88700 28.42700
C  50.71600 39.26400 25.20400
O  50.70700 38.99200 23.99800
C  51.10400 40.61300 25.58400
N  48.62900 33.93900 25.46000
C  49.16100 34.80000 24.52500
C  49.46300 34.05700 23.17700
C  49.06500 32.60600 23.48900
C  48.42600 32.72800 24.86300
C  48.77000 34.77600 21.96700
C  50.24200 31.61000 23.47500
C  50.33700 31.04000 22.09200
N  47.25500 32.70200 27.59400
C  47.15600 31.63500 26.74000
C  46.44600 30.53900 27.41000
C  46.19100 31.06400 28.67600
C  46.74000 32.33500 28.82800
C  45.98900 29.28200 26.70900
C  45.46700 30.75500 29.92700
O  44.82100 29.75700 30.27300
C  45.47400 32.06600 30.80800
C  45.72900 31.79800 32.18600
O  46.75900 31.37700 32.66400
O  44.55900 32.07200 32.87200
C  44.59600 31.69200 34.27800
H  48.83600 38.04200 30.20500
H  49.92200 36.58500 23.77500
H  47.57700 30.83800 24.85300
H  46.34200 34.61600 32.56000
H  48.03300 36.79900 32.17800
H  46.12100 37.95600 30.77600
H  45.85100 37.54300 32.45900
H  45.13100 36.52200 31.20100
H  49.28400 34.91000 32.34700
H  48.59200 33.28300 32.25500
H  49.38100 34.27600 34.45400
H  48.26500 32.97600 34.43800
H  49.14700 40.67700 27.90600
H  50.70500 40.27500 28.49800
H  49.26300 39.74000 29.42000
H  51.50800 41.25600 24.80200
H  51.90400 40.64400 26.32400
H  50.25400 41.07600 26.08600
H  50.53000 34.06900 22.95800
H  48.29500 32.30800 22.77700
H  49.30200 35.69600 21.72200
H  47.74900 34.98500 22.28800
H  48.76900 34.04300 21.16000
H  50.02600 30.78500 24.15300
H  51.20300 32.10600 23.61600
H  50.14500 29.97900 22.25600
H  51.31000 31.25000 21.64700
H  49.61800 31.41900 21.36700
H  46.91200 28.81300 26.36800
H  45.28200 29.34800 25.88200
H  45.52400 28.72700 27.52500
H  44.48900 32.51800 30.68800
H  43.64200 31.23600 34.54300
H  44.73000 32.63100 34.81500
H  45.29100 30.94500 34.66300

