158

Mg 35.68500 0.98500 29.75800
C  33.31300 2.17800 32.11100
C  37.93800 1.14000 32.30400
C  38.04600 0.04800 27.51700
C  33.40500 1.35800 27.17700
N  35.68200 1.76000 31.91900
C  34.51800 1.94800 32.67600
C  34.74100 2.04600 34.18000
C  36.30500 1.64800 34.22900
C  36.66600 1.57100 32.72300
C  37.22600 2.65100 35.09200
C  33.93400 1.04000 35.02200
C  33.35900 1.46400 36.39700
H  34.00800 2.62900 37.14700
N  37.67900 0.62900 29.89600
C  38.47500 0.75800 31.03300
C  39.80600 0.16600 30.79000
C  39.86700 -0.09300 29.35500
C  38.47500 0.19500 28.89500
C  40.85200 -0.15300 31.84200
C  41.10500 -0.54200 28.51500
O  40.98400 -0.83900 27.36700
C  42.48300 -0.45700 29.16500
N  35.71400 0.69300 27.64500
C  36.77600 0.32100 27.00800
C  36.54400 0.22100 25.42400
C  34.97500 0.43900 25.34800
C  34.65900 0.83900 26.80600
C  37.29000 1.37900 24.63500
C  34.19300 -0.74100 24.80700
C  33.56200 -0.54800 23.44500
N  33.78600 1.75800 29.60900
C  32.98400 1.75700 28.50300
C  31.70400 2.24900 28.86800
C  31.71000 2.41000 30.28700
C  33.05900 2.12500 30.71000
C  30.62700 2.46600 27.89300
C  30.98200 2.67400 31.45300
O  29.82500 2.92800 31.56400
C  31.96800 2.55900 32.72700
C  32.03900 4.01500 33.27600
O  32.94900 4.85000 33.09500
O  31.11900 4.10200 34.26500
C  31.24700 5.12500 35.29600
H  38.53600 0.97800 33.20300
H  38.85500 -0.34300 26.89800
H  32.57100 1.28700 26.47500
H  34.53100 3.04900 34.55100
H  36.54300 0.62800 34.53000
H  37.95000 2.06400 35.65800
H  36.67200 3.23000 35.83000
H  37.84400 3.33500 34.51200
H  34.57100 0.18700 35.25500
H  33.13400 0.50500 34.51100
H  33.50500 0.61400 37.06400
H  32.27500 1.56900 36.37200
H  41.21900 -1.17800 31.89500
H  40.29500 -0.01200 32.76700
H  41.63400 0.60600 31.83900
H  42.59900 0.53700 29.59800
H  43.19000 -0.54600 28.34100
H  42.73600 -1.15200 29.96500
H  36.93500 -0.75500 25.13800
H  34.69900 1.38300 24.87800
H  38.12600 1.69600 25.25900
H  36.61100 2.17600 24.33300
H  37.68500 0.95100 23.71300
H  33.37500 -1.00900 25.47600
H  34.82900 -1.60800 24.62600
H  33.74800 -1.35900 22.74000
H  33.88300 0.38800 22.98800
H  32.47800 -0.50400 23.54700
H  31.11300 2.88200 27.01000
H  29.96500 3.24700 28.26800
H  30.04900 1.57300 27.65500
H  31.57200 1.94100 33.53300
H  31.08000 4.69700 36.28400
H  30.60000 5.96000 35.02700
H  32.27400 5.49100 35.31000
Mg -0.64500 44.11800 26.80900
C  1.63000 44.11700 29.43900
C  -3.09100 42.92500 28.98100
C  -2.82500 43.74700 24.18300
C  1.86400 44.82000 24.61800
N  -0.68900 43.59500 28.98900
C  0.30000 43.88600 29.87600
C  -0.17900 43.57900 31.25400
C  -1.56400 42.89500 31.02400
C  -1.86100 43.12000 29.56900
C  -1.64400 41.33000 31.40200
C  -0.28300 44.90100 32.14000
C  0.00200 44.78300 33.60000
H  0.15700 43.47500 34.24700
N  -2.70100 43.52800 26.65000
C  -3.46800 43.02500 27.59500
C  -4.71600 42.57300 27.04100
C  -4.73400 42.92700 25.64300
C  -3.36300 43.44600 25.42500
C  -5.73100 41.78700 27.93800
C  -5.80700 42.68500 24.57500
O  -5.67700 42.93200 23.39900
C  -7.09900 42.16200 25.06000
N  -0.51500 44.36200 24.68200
C  -1.51100 44.24800 23.84300
C  -1.11700 44.54800 22.36600
C  0.23500 45.24400 22.62900
C  0.57200 44.78300 24.05900
C  -1.15500 43.21900 21.44600
C  0.19200 46.76800 22.67500
C  1.34700 47.41900 21.92600
N  1.47000 44.45300 26.96300
C  2.29600 44.68900 25.96200
C  3.64400 44.74000 26.54400
C  3.47900 44.57100 27.93400
C  2.12100 44.38200 28.08500
C  4.95800 44.86400 25.83800
C  4.12800 44.44200 29.22300
O  5.29600 44.56400 29.58900
C  2.95900 44.09200 30.23900
C  3.19800 42.73400 30.74800
O  3.16200 41.72100 30.06400
O  3.56400 42.75400 32.05800
C  3.76100 41.40400 32.63800
H  -3.80600 42.52600 29.70300
H  -3.50500 43.56100 23.35000
H  2.67200 45.03400 23.91500
H  0.54500 42.87200 31.66000
H  -2.30400 43.46100 31.59000
H  -0.83700 41.01600 32.06500
H  -1.57000 40.67400 30.53500
H  -2.49900 41.18900 32.06400
H  -1.28300 45.31500 32.01400
H  0.39500 45.67400 31.77900
H  -0.80000 45.37800 34.03700
H  0.94600 45.30900 33.74400
H  -6.78600 41.98300 27.74500
H  -5.64500 42.15600 28.96000
H  -5.60800 40.71000 28.04300
H  -7.63400 41.89100 24.15000
H  -7.62700 42.93000 25.62500
H  -7.02300 41.28300 25.70000
H  -1.71200 45.34000 21.91100
H  0.89500 44.75300 21.91400
H  -0.19000 42.92600 21.03300
H  -1.91600 43.45200 20.70100
H  -1.55300 42.37700 22.01200
H  0.16800 47.08700 23.71700
H  -0.72700 47.15500 22.23500
H  2.08500 46.66000 21.66800
H  1.85200 48.20100 22.49300
H  0.83700 47.89600 21.08800
H  5.00400 43.97700 25.20600
H  5.84300 44.87200 26.47600
H  4.90200 45.74700 25.20200
H  2.90500 44.78100 31.08200
H  2.92300 41.01000 33.21200
H  4.56100 41.32000 33.37300
H  4.12400 40.68700 31.90200

