158

Mg 16.78800 52.38700 26.67700
C  19.14400 50.59700 28.48400
C  14.90000 52.76900 29.44000
C  14.68200 53.99800 24.73800
C  18.60800 51.32000 23.69000
N  17.05000 51.89700 28.69800
C  18.08700 51.17000 29.27600
C  18.04600 51.20200 30.81000
C  16.55100 51.56300 31.01200
C  16.14400 52.10700 29.60300
C  15.60800 50.41400 31.31400
C  19.11200 52.21400 31.46700
C  19.20700 52.39200 32.96800
H  18.11500 51.77900 33.87600
N  15.02600 53.21500 27.00200
C  14.37400 53.30000 28.26800
C  13.13500 54.06900 28.17300
C  13.08000 54.52800 26.81600
C  14.29600 53.95800 26.09500
C  12.13900 54.24200 29.25100
C  12.11700 55.47700 26.13700
O  12.02800 55.57400 24.91700
C  11.19000 56.29800 26.98200
N  16.67200 52.63700 24.58600
C  15.74300 53.44100 24.00100
C  15.81400 53.55700 22.42200
C  17.10700 52.71400 22.22700
C  17.51200 52.21500 23.60300
C  14.69200 52.99100 21.55300
C  18.26400 53.45200 21.51000
C  19.17300 54.27400 22.48700
N  18.54000 51.21400 26.13800
C  19.15600 50.90300 24.92700
C  20.37100 50.07200 25.24000
C  20.38700 49.96400 26.65200
C  19.24600 50.67000 27.10500
C  21.39400 49.59500 24.18100
C  21.05100 49.36300 27.80000
O  21.99200 48.59700 27.83700
C  20.40300 49.96200 29.01000
C  20.19700 48.81000 29.96900
O  19.40900 47.88600 29.85500
O  20.76800 49.13700 31.19200
C  20.40700 48.37400 32.36400
H  14.30600 52.99000 30.32900
H  14.04000 54.60400 24.09500
H  19.23400 51.00300 22.85300
H  18.12700 50.21700 31.27000
H  16.39500 52.36300 31.73600
H  14.90200 50.89000 31.99500
H  16.12900 49.60100 31.82000
H  15.08300 50.09600 30.41300
H  18.90900 53.22700 31.12100
H  20.13200 51.95700 31.17700
H  19.26500 53.47700 33.05900
H  20.19500 52.02000 33.24000
H  11.47800 55.10800 29.25700
H  12.68100 54.30600 30.19500
H  11.45000 53.39800 29.29500
H  11.71900 56.71900 27.83700
H  10.34600 55.72400 27.36300
H  10.86300 57.15900 26.39900
H  16.02300 54.56500 22.06500
H  16.92300 51.74700 21.76000
H  13.96600 52.37500 22.08300
H  15.11300 52.38200 20.75300
H  14.12500 53.77200 21.04500
H  17.89800 54.12100 20.73100
H  18.74100 52.70100 20.88100
H  19.46000 55.26600 22.13600
H  20.05800 53.64300 22.56700
H  18.75400 54.43000 23.48100
H  22.21800 49.10800 24.70200
H  21.74800 50.37900 23.51300
H  20.86600 48.94200 23.48600
H  21.11300 50.72600 29.32600
H  21.35700 48.34000 32.89800
H  20.03700 47.37800 32.12300
H  19.72700 48.98700 32.95600
Mg -13.31700 15.91000 43.43300
C  -10.00600 14.84900 42.61000
C  -12.52000 18.92800 41.99600
C  -16.57200 16.62200 43.45900
C  -13.90400 12.67500 44.62500
N  -11.35400 16.87500 42.49100
C  -10.20400 16.16400 42.17300
C  -9.24100 17.10200 41.42100
C  -10.11700 18.40300 41.22100
C  -11.41500 18.10600 41.94800
C  -9.49200 19.74500 41.70300
C  -8.79500 16.42100 40.05300
C  -7.24300 16.36900 39.92700
H  -6.66000 15.19800 39.20400
N  -14.37700 17.59300 42.84000
C  -13.81300 18.80600 42.52900
C  -14.86600 19.77400 42.35100
C  -16.11300 19.14100 42.62800
C  -15.77000 17.70100 43.02500
C  -14.63300 21.13500 41.77700
C  -17.41000 19.74000 42.48700
O  -17.61600 20.87100 42.02400
C  -18.65600 18.99300 42.84300
N  -15.01900 14.80700 43.86400
C  -16.26500 15.40000 43.96900
C  -17.28400 14.50900 44.79500
C  -16.33300 13.27500 45.12300
C  -14.94900 13.57600 44.45900
C  -17.85100 15.10700 46.10000
C  -16.82000 11.94500 44.49300
C  -17.73800 11.13700 45.39400
N  -12.23800 14.12000 43.61700
C  -12.56200 12.90600 44.16600
C  -11.40900 12.01000 44.13300
C  -10.39200 12.73600 43.53400
C  -10.90000 13.96800 43.31800
C  -11.39000 10.63400 44.61200
C  -9.00400 12.67800 43.19400
O  -8.24700 11.72300 43.34200
C  -8.70500 14.09800 42.64000
C  -7.76100 14.66400 43.60700
O  -7.91400 15.48400 44.50100
O  -6.47200 14.28100 43.18200
C  -5.43400 15.18900 43.72600
H  -12.25700 19.82900 41.43800
H  -17.65000 16.78500 43.52400
H  -14.20100 11.72700 45.07900
H  -8.42400 17.26700 42.12400
H  -10.30100 18.55400 40.15700
H  -10.06700 20.08100 42.56600
H  -9.34000 20.58300 41.02300
H  -8.43800 19.60600 41.94200
H  -9.17700 17.01600 39.22400
H  -9.15900 15.43000 39.77900
H  -6.84100 16.34600 40.94000
H  -6.90700 17.30500 39.48000
H  -15.10100 21.18700 40.79400
H  -13.58200 21.42600 41.77300
H  -15.25500 21.89900 42.24400
H  -18.90900 18.12000 42.24200
H  -19.49000 19.69500 42.84900
H  -18.54500 18.66400 43.87600
H  -18.01200 14.21700 44.03800
H  -16.17100 13.31900 46.20000
H  -17.28800 15.96900 46.45700
H  -17.95000 14.31200 46.84000
H  -18.86100 15.48000 45.93200
H  -16.00000 11.30000 44.17500
H  -17.27700 12.22300 43.54400
H  -18.61400 10.83400 44.82100
H  -18.16800 11.68900 46.22900
H  -17.37500 10.17600 45.75700
H  -10.53500 10.19500 44.09800
H  -12.33100 10.21100 44.25900
H  -11.39900 10.60800 45.70200
H  -8.24600 14.09500 41.65100
H  -4.46000 14.82100 43.40500
H  -5.39500 15.08000 44.81000
H  -5.53800 16.23500 43.43800

