158

Mg 47.22100 24.86900 28.66800
C  47.67700 27.09100 31.35300
C  46.26700 22.48200 31.08900
C  47.00900 22.67000 26.13500
C  48.21700 27.29100 26.32800
N  47.02100 24.74100 30.99400
C  47.18800 25.86800 31.84000
C  46.85700 25.45600 33.29000
C  46.49500 23.98600 33.25700
C  46.59800 23.70100 31.71700
C  47.33100 23.07600 34.22600
C  45.69800 26.42900 33.68500
C  45.98800 27.31000 34.98300
H  44.96100 27.36000 36.05900
N  46.65700 22.89400 28.58500
C  46.29800 22.07900 29.69100
C  45.96700 20.80000 29.13300
C  46.06500 20.82200 27.70600
C  46.61200 22.19800 27.38700
C  45.44500 19.69600 29.95400
C  45.68400 19.86900 26.58600
O  45.79100 20.12800 25.41000
C  45.26800 18.45000 26.95300
N  47.65200 24.94600 26.57000
C  47.54700 23.86300 25.76200
C  47.68100 24.17000 24.29500
C  47.82900 25.76200 24.31500
C  47.91500 26.02100 25.81400
C  48.90500 23.48000 23.53800
C  46.68700 26.45800 23.62200
C  45.29100 26.28300 24.22100
N  47.80600 26.76800 28.73900
C  48.19600 27.64500 27.70200
C  48.53500 28.97500 28.31700
C  48.35700 28.76000 29.71200
C  47.97400 27.41100 29.94600
C  48.95600 30.18300 27.59900
C  48.51600 29.35800 31.03300
O  48.94400 30.49000 31.34400
C  47.98600 28.34500 32.07300
C  49.06800 28.07800 33.06400
O  50.00500 27.33700 32.87900
O  48.94400 28.90600 34.15600
C  49.84500 28.77500 35.26100
H  45.78000 21.78800 31.77700
H  46.95700 22.04200 25.24300
H  48.49000 27.98900 25.53300
H  47.75300 25.72300 33.85000
H  45.50700 23.94400 33.71600
H  47.98700 23.51100 34.98000
H  47.94700 22.30600 33.76200
H  46.55000 22.49200 34.71400
H  44.75600 25.91900 33.88300
H  45.41200 27.17200 32.94000
H  46.15800 28.35600 34.72800
H  46.95800 26.96500 35.34200
H  44.45300 19.38300 29.62700
H  45.31800 19.86000 31.02400
H  46.11500 18.84300 29.84200
H  44.75300 18.13200 26.04600
H  44.56900 18.47300 27.78900
H  46.18800 17.89000 27.12000
H  46.74900 23.84700 23.83000
H  48.78800 26.07300 23.90200
H  49.47800 22.83000 24.19800
H  49.52600 24.23400 23.05300
H  48.50800 22.73400 22.85000
H  46.73500 26.24100 22.55500
H  46.91000 27.52000 23.72600
H  45.33600 25.86300 25.22600
H  44.72200 25.50600 23.71100
H  44.73600 27.22100 24.24400
H  48.93000 31.08900 28.20300
H  48.48600 30.30300 26.62300
H  50.02500 30.00600 27.47400
H  47.17100 28.84000 32.60100
H  49.50400 28.03900 35.98800
H  49.91500 29.66600 35.88400
H  50.82700 28.41000 34.96000
Mg 30.00100 58.31400 40.66000
C  27.07700 56.64900 39.41200
C  31.94900 55.83000 39.63300
C  32.49100 60.40500 40.92000
C  27.79100 61.14800 41.16900
N  29.48100 56.54100 39.48100
C  28.31200 55.95500 39.16900
C  28.62600 54.52000 38.62700
C  30.06400 54.19200 39.30400
C  30.56500 55.70300 39.45100
C  30.03800 53.32000 40.64900
C  28.50200 54.54100 37.12600
C  27.32100 53.92300 36.42200
H  26.43700 54.81400 35.47500
N  32.02100 58.08000 40.49900
C  32.65600 56.94100 40.09100
C  34.08200 57.15800 40.03400
C  34.24500 58.55800 40.37600
C  32.91100 59.11000 40.58200
C  35.05700 56.15200 39.49900
C  35.59300 59.23200 40.41400
O  36.57900 58.59900 40.04800
C  35.78200 60.69900 40.73800
N  30.05500 60.47800 41.19700
C  31.26300 61.06400 41.20300
C  31.17600 62.54700 41.33300
C  29.65800 62.77800 41.59400
C  29.13400 61.38500 41.26900
C  32.11700 63.19600 42.42300
C  29.04900 63.93900 40.74700
C  28.71200 65.17200 41.60400
N  27.84000 58.81900 40.45400
C  27.16100 59.96300 40.76000
C  25.81600 59.79300 40.60400
C  25.74200 58.52200 40.01200
C  26.96500 57.90900 39.95500
C  24.74400 60.73300 40.88100
C  24.82500 57.54800 39.56800
O  23.61700 57.62600 39.48500
C  25.66000 56.27600 39.05600
C  25.05600 55.16900 39.87500
O  25.14600 55.01100 41.09200
O  24.44400 54.32100 38.98800
C  23.51000 53.30900 39.60600
H  32.57700 55.00400 39.29100
H  33.37000 61.03000 40.74900
H  27.31100 62.12600 41.25500
H  27.94000 53.72200 38.91100
H  30.67000 53.65200 38.57600
H  30.24100 54.06300 41.42100
H  30.82100 52.56500 40.57700
H  29.03300 52.92500 40.79800
H  29.31100 53.89100 36.79500
H  28.74900 55.51500 36.70200
H  26.64700 53.61600 37.22200
H  27.55200 52.97000 35.94700
H  35.57700 56.31700 38.55500
H  34.65400 55.14000 39.55100
H  35.89800 55.91800 40.15300
H  35.35400 60.82900 41.73200
H  35.37700 61.38800 39.99700
H  36.85700 60.88200 40.73500
H  31.39700 63.00700 40.37000
H  29.42900 62.97000 42.64200
H  32.88400 62.46100 42.66600
H  31.50400 63.28500 43.32000
H  32.60100 64.13300 42.15200
H  28.17100 63.68700 40.15200
H  29.74500 64.31700 39.99900
H  29.54500 65.87200 41.54400
H  28.79100 64.80800 42.62900
H  27.75700 65.62000 41.33100
H  23.85100 60.13800 41.07200
H  24.57800 61.29700 39.96300
H  24.99800 61.39000 41.71300
H  25.58500 56.09000 37.98500
H  23.70700 53.01800 40.63800
H  23.59200 52.43700 38.95700
H  22.49000 53.66900 39.47400

