158

Mg -1.41100 33.82000 26.80800
C  -3.53500 32.05000 29.20100
C  -0.21800 35.54200 29.50000
C  0.12900 35.65700 24.59400
C  -2.96200 32.07400 24.31300
N  -1.87500 33.75100 29.16500
C  -2.73700 33.01000 29.90400
C  -2.54700 33.25200 31.46200
C  -1.57200 34.44900 31.49000
C  -1.16800 34.63400 29.96700
C  -2.26800 35.72100 32.03700
C  -2.05000 31.97600 32.20000
C  -2.86800 31.43800 33.38200
H  -2.09500 31.18200 34.61600
N  -0.09600 35.38200 26.97300
C  0.34000 35.89500 28.22300
C  1.41500 36.77400 27.84600
C  1.48300 36.87600 26.42300
C  0.50000 35.96900 25.93900
C  2.32800 37.40600 28.93100
C  2.35000 37.72200 25.51700
O  2.12000 37.84600 24.34700
C  3.35000 38.65900 26.05900
N  -1.53900 33.97100 24.73100
C  -0.80200 34.81500 24.06700
C  -1.07700 34.73300 22.56600
C  -2.00700 33.48700 22.43000
C  -2.19000 33.13100 23.88700
C  -1.72500 36.01800 21.99500
C  -1.32000 32.34200 21.57700
C  -2.04300 31.85300 20.29000
N  -2.99500 32.38700 26.71300
C  -3.44600 31.69600 25.59700
C  -4.42200 30.73100 25.99000
C  -4.54600 30.85300 27.37000
C  -3.58300 31.85200 27.77200
C  -5.26400 29.75700 25.12200
C  -5.21700 30.36300 28.57300
O  -6.10700 29.54000 28.71900
C  -4.47900 30.96700 29.84600
C  -5.51800 31.51800 30.84600
O  -6.32700 32.34500 30.61600
O  -5.39000 30.76300 31.93200
C  -6.42100 30.99100 32.98600
H  0.16700 36.14900 30.32200
H  0.76800 36.10200 23.82700
H  -3.48300 31.44100 23.59200
H  -3.49500 33.68300 31.78300
H  -0.73400 34.18900 32.13700
H  -1.67700 36.16300 32.83900
H  -3.19400 35.67600 32.60900
H  -2.33100 36.53300 31.31300
H  -1.06000 32.19400 32.60200
H  -1.98600 31.21500 31.42100
H  -3.34700 30.48000 33.18100
H  -3.65600 32.16600 33.57800
H  2.15500 36.95700 29.90900
H  2.16500 38.48300 28.91700
H  3.39600 37.29100 28.74300
H  4.24100 38.05500 26.23400
H  2.92200 39.03800 26.98700
H  3.62200 39.34000 25.25200
H  -0.14300 34.61300 22.01700
H  -2.94600 33.67900 21.91000
H  -1.40600 36.81800 22.66300
H  -2.81400 35.98400 21.95500
H  -1.32400 36.23900 21.00600
H  -1.31800 31.46800 22.22800
H  -0.31400 32.58900 21.24000
H  -1.85100 32.61100 19.53100
H  -3.10100 31.61400 20.40000
H  -1.44300 31.02900 19.90400
H  -5.12100 28.70800 25.37900
H  -5.02500 29.92000 24.07100
H  -6.30900 30.01000 25.30500
H  -3.81700 30.23400 30.30500
H  -7.41700 31.09600 32.55600
H  -6.27900 31.88300 33.59600
H  -6.36000 30.18500 33.71800
Mg -5.90300 24.87800 26.16800
C  -4.37300 26.14700 28.94600
C  -7.92600 22.89900 28.17400
C  -6.87400 23.04300 23.40000
C  -3.54600 26.48000 24.23300
N  -5.99300 24.41700 28.25400
C  -5.34900 25.14300 29.25500
C  -5.90300 24.75500 30.66400
C  -6.78100 23.49100 30.42400
C  -6.97500 23.61100 28.88800
C  -6.16800 22.14800 30.92600
C  -6.67500 25.95500 31.24700
C  -6.35400 26.28600 32.71800
H  -5.79400 25.26100 33.75300
N  -7.32000 23.29700 25.80900
C  -8.17700 22.73800 26.77600
C  -9.16900 21.95900 26.12500
C  -8.83100 21.94900 24.73700
C  -7.63100 22.80400 24.59400
C  -10.22600 21.24300 26.90900
C  -9.49500 21.23700 23.57000
O  -8.97600 21.08900 22.49500
C  -10.84400 20.66600 23.79200
N  -5.42400 24.77800 24.02100
C  -5.83000 23.90800 23.06200
C  -5.08500 24.06400 21.74300
C  -4.26500 25.40300 22.02900
C  -4.50600 25.65600 23.46600
C  -4.24200 22.78000 21.42100
C  -4.52900 26.73000 21.27400
C  -4.23600 26.58700 19.78900
N  -4.36300 26.20600 26.43100
C  -3.45500 26.80100 25.59600
C  -2.49100 27.66700 26.30700
C  -2.95000 27.53000 27.65400
C  -3.99400 26.52600 27.69200
C  -1.32200 28.46400 25.69700
C  -2.62400 27.87100 29.00900
O  -1.84900 28.66900 29.51400
C  -3.61600 27.01400 29.87700
C  -2.68500 26.25700 30.72000
O  -1.73200 25.62400 30.34200
O  -2.97100 26.39900 32.09100
C  -1.87000 26.01000 33.01100
H  -8.43500 22.25200 28.89100
H  -7.03100 22.46200 22.48800
H  -2.85800 26.95200 23.52900
H  -5.01800 24.47700 31.23600
H  -7.77700 23.56600 30.86000
H  -5.77800 21.58600 30.07800
H  -6.95600 21.55600 31.39200
H  -5.40900 22.38100 31.67200
H  -7.74100 25.73400 31.17800
H  -6.43300 26.82400 30.63500
H  -7.22200 26.78000 33.15400
H  -5.53300 26.99500 32.61500
H  -10.34700 21.80100 27.83700
H  -9.94000 20.20200 27.05900
H  -11.22100 21.30400 26.46700
H  -11.23600 20.32000 22.83500
H  -11.47400 21.51300 24.06200
H  -10.87400 19.85700 24.52200
H  -5.88200 24.24300 21.02200
H  -3.21800 25.16000 21.84800
H  -3.26100 23.01000 21.00500
H  -4.76700 22.11800 20.73300
H  -4.08200 22.14900 22.29500
H  -3.86400 27.51000 21.64300
H  -5.54400 27.03900 21.52500
H  -3.29000 26.99500 19.43100
H  -5.03100 27.09600 19.24400
H  -4.30300 25.53600 19.50400
H  -1.74900 29.43400 25.43900
H  -0.81900 28.05200 24.82200
H  -0.52300 28.66400 26.41100
H  -4.12000 27.82200 30.40600
H  -1.44400 25.04600 32.73500
H  -2.24800 26.08100 34.03100
H  -1.13400 26.80900 32.92000

