158

Mg 43.87000 3.87200 46.83300
C  41.45000 6.51600 46.66000
C  41.22400 1.71900 46.42600
C  46.15500 1.56200 46.17900
C  46.39700 6.44200 46.84000
N  41.52000 4.09800 46.61500
C  40.84700 5.29600 46.56500
C  39.30200 5.03200 46.44700
C  39.22200 3.41900 46.66300
C  40.70800 3.00300 46.44700
C  38.66200 2.94100 47.99300
C  38.65200 5.57800 45.15400
C  39.36800 5.33300 43.83100
H  39.52600 6.51500 42.96000
N  43.70300 1.84100 46.46100
C  42.52200 1.18200 46.33000
C  42.84200 -0.16700 45.94600
C  44.21000 -0.23400 45.67400
C  44.75900 1.07900 46.11600
C  41.80200 -1.25100 45.69600
C  45.05300 -1.41000 44.98300
O  44.47500 -2.44100 44.61300
C  46.49000 -1.32600 44.75300
N  45.98000 4.00300 46.58600
C  46.69000 2.90000 46.41700
C  48.24200 3.16000 46.49100
C  48.26400 4.66200 46.90100
C  46.79800 5.06000 46.76300
C  49.00000 2.27100 47.43300
C  49.25700 5.43700 46.02300
C  50.16700 6.36100 46.86500
N  44.00200 6.05600 46.72300
C  45.06300 6.91800 46.76700
C  44.59100 8.27600 46.81200
C  43.15500 8.19100 46.78400
C  42.87300 6.76200 46.72300
C  45.54400 9.49800 46.89000
C  41.90300 8.92500 46.73800
O  41.63800 10.11900 46.60900
C  40.79500 7.84000 46.79000
C  39.99800 7.91000 48.04000
O  40.36100 7.73800 49.17100
O  38.79700 8.35600 47.74400
C  37.67700 8.12500 48.71400
H  40.35100 1.06900 46.34400
H  46.86900 0.75400 46.01100
H  47.25000 7.09700 47.03200
H  38.83900 5.59000 47.26100
H  38.63500 3.09300 45.80500
H  37.82900 3.62300 48.16700
H  39.42500 3.03400 48.76600
H  38.35100 1.89700 47.94700
H  38.43800 6.64300 45.23800
H  37.64600 5.17000 45.06500
H  38.76800 4.59000 43.30600
H  40.32000 4.86500 44.08100
H  41.85900 -1.69800 44.70400
H  40.75700 -0.95700 45.79300
H  42.01000 -2.11400 46.32900
H  46.99700 -1.26600 45.71600
H  46.72600 -0.45800 44.13700
H  46.76700 -2.29400 44.33500
H  48.67900 2.95600 45.51400
H  48.47100 4.69000 47.97100
H  49.96100 2.69300 47.72900
H  49.24500 1.33700 46.92700
H  48.42400 2.01500 48.32100
H  48.63600 6.07000 45.39000
H  49.83000 4.77000 45.37700
H  51.17300 5.98900 46.67300
H  50.04900 6.48300 47.94200
H  50.03600 7.29800 46.32400
H  46.05300 9.38000 47.84600
H  45.02300 10.45300 46.81700
H  46.25600 9.42300 46.06800
H  40.07900 7.93500 45.97300
H  37.75500 8.69300 49.64100
H  37.58100 7.07400 48.98300
H  36.73700 8.36000 48.21400
Mg -11.29000 16.19200 42.08100
C  -7.85900 16.00700 41.98800
C  -11.22600 19.43100 41.01600
C  -14.67500 16.21700 41.99200
C  -11.41800 12.64600 42.89800
N  -9.69600 17.45400 41.35400
C  -8.31000 17.19600 41.39900
C  -7.54700 18.36800 40.70700
C  -8.67000 19.49000 40.70100
C  -9.94900 18.78200 41.07100
C  -8.33300 20.57800 41.72000
C  -7.02600 18.05800 39.28500
C  -5.50200 17.86800 39.15100
H  -4.87600 18.52500 37.87100
N  -12.78200 17.69200 41.54100
C  -12.50900 18.94600 41.23200
C  -13.72700 19.69600 41.02100
C  -14.81600 18.75500 41.24700
C  -14.12900 17.48600 41.67000
C  -13.80400 21.14500 40.55800
C  -16.23700 19.08200 40.99200
O  -16.61600 20.12200 40.56100
C  -17.35600 18.01100 41.29800
N  -12.80500 14.60000 42.34900
C  -14.14600 14.96600 42.27100
C  -15.02900 13.70900 42.53400
C  -13.99500 12.52100 42.68600
C  -12.65200 13.28500 42.64000
C  -15.98400 13.93500 43.73600
C  -14.02800 11.54000 41.40400
C  -14.33500 10.13400 41.82500
N  -9.89500 14.61900 42.52600
C  -10.09400 13.28200 42.80100
C  -8.76600 12.69800 43.04400
C  -7.85100 13.75300 42.77300
C  -8.62300 14.85400 42.42900
C  -8.50100 11.31900 43.32100
C  -6.47200 14.14400 42.61300
O  -5.45400 13.49800 42.89300
C  -6.38600 15.64700 42.15200
C  -5.68600 16.36700 43.26200
O  -5.98600 16.30700 44.46100
O  -4.48900 16.92100 42.79500
C  -3.49700 17.30900 43.80900
H  -11.10700 20.43300 40.60000
H  -15.75800 16.19100 42.13400
H  -11.55100 11.60100 43.18800
H  -6.64100 18.72000 41.20100
H  -8.72300 19.95400 39.71600
H  -9.16500 20.80500 42.38700
H  -8.05200 21.46100 41.14600
H  -7.48500 20.27900 42.33700
H  -7.25300 18.77400 38.49500
H  -7.49600 17.20800 38.79100
H  -5.26200 16.81600 39.29900
H  -5.06700 18.42400 39.98200
H  -14.40500 21.82200 41.16500
H  -14.22500 21.24900 39.55800
H  -12.87200 21.68800 40.71800
H  -18.36300 18.37300 41.09000
H  -17.21500 17.72000 42.33900
H  -17.29100 17.18900 40.58600
H  -15.76800 13.48400 41.76500
H  -13.95100 12.05200 43.66800
H  -16.99400 13.79900 43.34900
H  -15.82100 14.97000 44.03900
H  -15.68200 13.23400 44.51400
H  -13.08900 11.48900 40.85400
H  -14.76200 11.90200 40.68400
H  -14.30100 9.98400 42.90500
H  -13.55600 9.48400 41.42600
H  -15.33500 9.89100 41.46500
H  -7.74000 11.04200 42.59200
H  -9.39700 10.70700 43.42500
H  -8.07700 11.33200 44.32500
H  -5.82400 15.71000 41.22000
H  -3.23700 18.36600 43.75000
H  -2.52500 16.84500 43.64200
H  -3.85900 17.02400 44.79800

