158

Mg 7.85100 2.92200 28.23000
C  9.52900 1.36300 31.05200
C  6.33800 5.08900 30.36100
C  6.42500 4.24400 25.58100
C  9.25600 0.27700 26.19200
N  7.92600 3.15900 30.45200
C  8.71400 2.51700 31.35900
C  8.69500 3.32100 32.66500
C  7.60500 4.45800 32.45400
C  7.20400 4.15300 31.02100
C  6.37900 4.21900 33.44500
C  10.12400 3.76700 33.11300
C  10.61000 3.37900 34.52500
H  10.68600 4.50000 35.61500
N  6.56400 4.41200 27.99400
C  5.97200 5.17600 28.98900
C  5.03700 6.10900 28.42100
C  5.16400 5.99500 27.00400
C  6.07400 4.87300 26.77900
C  4.26800 7.23100 29.25400
C  4.47000 6.79500 25.89700
O  4.72300 6.76200 24.70100
C  3.38600 7.71100 26.27000
N  7.83800 2.36500 26.18500
C  7.26700 3.12100 25.27600
C  7.65200 2.67800 23.85400
C  8.53200 1.41200 24.01800
C  8.53500 1.35300 25.60500
C  6.48900 2.46700 22.85700
C  9.89600 1.64400 23.33400
C  11.09600 2.11200 24.09900
N  9.05200 1.01800 28.56000
C  9.54500 0.10200 27.60500
C  10.39700 -0.89400 28.29800
C  10.45600 -0.44300 29.68800
C  9.68200 0.72600 29.73400
C  10.88900 -2.17900 27.65000
C  11.04300 -0.64600 30.96000
O  11.89200 -1.42000 31.41800
C  10.37300 0.48700 31.94600
C  9.63800 -0.19000 32.94600
O  8.63500 -0.83800 32.80500
O  10.26200 0.00000 34.15100
C  9.59700 -0.49400 35.36700
H  5.95300 5.89100 30.99300
H  6.09500 4.79000 24.69400
H  9.64900 -0.43200 25.46100
H  8.51200 2.46500 33.31500
H  8.05000 5.45100 32.40300
H  5.61600 4.98000 33.27700
H  6.67700 4.22400 34.49300
H  5.94800 3.23500 33.26300
H  10.16600 4.85600 33.09300
H  10.80100 3.45100 32.31900
H  11.68800 3.22500 34.48000
H  10.06100 2.50900 34.88700
H  4.43900 8.21400 28.81700
H  4.38300 7.17300 30.33700
H  3.22700 6.96400 29.07000
H  2.70500 8.03200 25.48100
H  3.88700 8.56400 26.72700
H  2.64300 7.22000 26.89900
H  8.20400 3.57500 23.57300
H  7.98500 0.53300 23.67800
H  5.59800 2.90300 23.30700
H  6.28800 1.40200 22.73500
H  6.76100 2.85100 21.87400
H  9.75000 2.34300 22.51100
H  10.21100 0.78700 22.73800
H  11.63500 2.82800 23.47800
H  11.83300 1.36500 24.39300
H  10.83300 2.60300 25.03600
H  10.08600 -2.52700 27.00100
H  10.82200 -3.01300 28.34800
H  11.91400 -2.06500 27.29900
H  11.15400 1.13800 32.33800
H  9.38300 0.31800 36.06100
H  10.23300 -1.25900 35.81200
H  8.72600 -1.09400 35.10400
Mg 47.81200 25.03000 28.06600
C  48.96700 27.27500 30.64800
C  47.35600 22.79600 30.66200
C  46.92100 22.98500 25.67300
C  49.30100 27.17000 25.67400
N  48.23100 25.11600 30.41200
C  48.42600 26.20100 31.20400
C  48.09600 25.94100 32.68100
C  47.58200 24.48100 32.63700
C  47.76300 24.02200 31.11700
C  48.26900 23.57300 33.68700
C  47.07200 26.95300 33.14900
C  46.50400 26.59600 34.55600
H  46.87300 27.43400 35.77200
N  47.23700 23.19200 28.13000
C  46.99200 22.42800 29.25800
C  46.41300 21.15500 28.83100
C  46.19400 21.24000 27.44200
C  46.75200 22.51200 27.01700
C  45.93600 20.06700 29.85900
C  45.43100 20.31100 26.45600
O  45.44600 20.44200 25.22300
C  44.86300 19.06400 27.02700
N  47.90500 25.12300 25.98100
C  47.46600 24.12900 25.12500
C  47.94300 24.35800 23.65700
C  48.47800 25.82300 23.72400
C  48.55300 26.05400 25.19200
C  49.08100 23.46700 23.13100
C  47.61300 26.90600 22.97100
C  48.27800 27.85100 21.87900
N  48.83300 26.81500 28.04900
C  49.49700 27.53700 27.06100
C  50.09200 28.67200 27.55200
C  49.89700 28.64200 28.96000
C  49.13800 27.52100 29.22600
C  50.90900 29.59800 26.73400
C  50.23900 29.35800 30.15900
O  50.84400 30.46500 30.19800
C  49.56300 28.56600 31.31300
C  50.58000 28.25600 32.29100
O  51.45100 27.46100 32.20000
O  50.32300 28.92300 33.42700
C  51.05200 28.48100 34.64500
H  46.96700 22.11600 31.42300
H  46.70600 22.33400 24.82300
H  49.72400 27.74900 24.85000
H  49.04800 26.13300 33.17700
H  46.52000 24.56400 32.87100
H  48.99100 22.87100 33.27000
H  47.59600 22.92500 34.24800
H  48.76800 24.24500 34.38600
H  46.24100 26.83100 32.45400
H  47.46400 27.96900 33.18100
H  46.82200 25.58400 34.80500
H  45.42300 26.47300 34.48500
H  44.88000 19.80700 29.79500
H  45.97100 20.41300 30.89200
H  46.66200 19.26800 29.70700
H  45.57000 18.50100 27.63600
H  44.72600 18.42400 26.15600
H  43.95400 19.31400 27.57400
H  47.12400 24.28700 22.94200
H  49.50600 25.97500 23.39500
H  48.78300 22.53600 22.65000
H  49.74500 23.29000 23.97800
H  49.71100 23.95100 22.38500
H  47.20900 27.55500 23.74900
H  46.84900 26.33300 22.44600
H  47.71700 27.87300 20.94500
H  49.28900 27.47700 21.71200
H  48.51600 28.82700 22.30200
H  50.32900 29.75000 25.82300
H  51.93500 29.29000 26.53100
H  50.98100 30.54800 27.26300
H  48.84500 29.23300 31.78800
H  51.04200 29.30700 35.35600
H  52.06300 28.08400 34.54800
H  50.38700 27.73300 35.07600

