158

Mg -1.52500 18.40200 26.82100
C  -1.87200 16.10300 29.61900
C  -1.94600 20.97300 29.10800
C  -1.19600 20.50800 24.29600
C  -0.92400 15.70100 24.81500
N  -1.90000 18.52400 29.22300
C  -2.02900 17.43900 30.09200
C  -2.25500 18.02200 31.45200
C  -2.58600 19.48400 31.16200
C  -2.08600 19.70900 29.75700
C  -4.09500 19.86100 31.32800
C  -1.13900 17.88900 32.61500
C  -1.76500 17.57100 33.95600
H  -0.94800 17.70300 35.19500
N  -1.45100 20.48200 26.69500
C  -1.65400 21.36600 27.79900
C  -1.73500 22.69700 27.27300
C  -1.41100 22.56200 25.87200
C  -1.31100 21.14700 25.57500
C  -2.12400 23.80000 28.27200
C  -1.12300 23.72400 24.84600
O  -0.70300 23.54800 23.70000
C  -1.27100 25.07800 25.38000
N  -1.09400 18.14700 24.78300
C  -1.04000 19.16900 23.91200
C  -0.73400 18.68300 22.54300
C  -0.53600 17.13600 22.68000
C  -0.89400 16.93500 24.19200
C  -1.82600 19.09200 21.57200
C  0.87000 16.66800 22.23400
C  2.05100 17.16400 23.07800
N  -1.56100 16.37500 27.04900
C  -1.24500 15.41300 26.12800
C  -1.42900 14.16100 26.73300
C  -1.62700 14.32200 28.06100
C  -1.68200 15.69900 28.24900
C  -1.33400 12.88500 25.96400
C  -1.83500 13.73100 29.35100
O  -1.91400 12.51300 29.62100
C  -2.11100 14.87100 30.35500
C  -1.17600 14.46800 31.46000
O  0.01800 14.68600 31.61300
O  -2.00800 13.84200 32.35700
C  -1.36900 13.48600 33.59500
H  -2.04800 21.81000 29.80200
H  -1.08800 21.21000 23.46700
H  -0.80900 14.92000 24.06100
H  -3.12400 17.43900 31.75600
H  -2.12000 20.21500 31.82400
H  -4.67800 18.94100 31.37400
H  -4.53300 20.49400 30.55600
H  -4.26700 20.48400 32.20500
H  -0.62900 18.84000 32.76800
H  -0.40700 17.11000 32.40200
H  -2.06900 16.52400 33.94000
H  -2.64600 18.17700 34.16900
H  -3.08900 23.58400 28.72900
H  -2.23400 24.76400 27.77600
H  -1.34400 23.95500 29.01800
H  -0.56300 25.31600 26.17400
H  -2.27600 25.25000 25.76600
H  -1.24700 25.77800 24.54500
H  0.24800 19.09800 22.31800
H  -1.37100 16.79200 22.07000
H  -2.01400 18.32900 20.81800
H  -1.56400 19.98200 20.99900
H  -2.79700 19.17500 22.06000
H  0.82500 17.23000 21.30100
H  0.94100 15.60000 22.03100
H  1.86900 17.61100 24.05600
H  2.60000 17.84700 22.43000
H  2.67900 16.31900 23.35800
H  -0.56600 13.00000 25.19900
H  -2.33400 12.82900 25.53400
H  -1.14800 12.12400 26.72300
H  -3.16700 14.80100 30.61400
H  -0.32100 13.18900 33.64100
H  -1.96300 12.70900 34.07600
H  -1.46000 14.26800 34.34900
Mg 8.93200 3.81300 27.08900
C  10.02900 2.33800 30.01800
C  6.86700 5.81100 29.08700
C  7.68600 5.07400 24.27700
C  10.66100 1.39100 25.26000
N  8.41400 3.94300 29.30100
C  9.15200 3.34300 30.29900
C  8.73800 3.88800 31.66400
C  7.55200 4.78900 31.30700
C  7.57000 4.85600 29.86200
C  6.14100 4.27000 31.74700
C  9.97100 4.62300 32.25800
C  10.39700 4.05400 33.60000
H  10.84100 4.96500 34.73100
N  7.53800 5.25400 26.76800
C  6.86600 6.03700 27.67500
C  6.03900 7.03300 26.97700
C  6.48100 6.96800 25.64900
C  7.26600 5.73800 25.51700
C  5.11100 7.99300 27.62000
C  6.18600 7.93400 24.57000
O  6.55800 7.75000 23.41800
C  5.51500 9.16100 24.93500
N  9.18500 3.37200 25.05900
C  8.61700 4.05000 24.10200
C  9.10800 3.52800 22.75100
C  10.18900 2.54300 23.03700
C  9.96400 2.33900 24.58600
C  7.82100 3.01800 22.05500
C  11.68500 3.02600 22.70500
C  12.55900 2.08100 21.89800
N  10.05000 2.04500 27.51500
C  10.79400 1.23400 26.69500
C  11.67400 0.33800 27.44200
C  11.31000 0.64300 28.79900
C  10.37200 1.73500 28.78300
C  12.66200 -0.56200 26.88800
C  11.62300 0.46000 30.16700
O  12.48500 -0.30100 30.58600
C  10.85500 1.53300 31.03200
C  10.02800 0.69400 31.91700
O  8.83300 0.33000 31.72700
O  10.78200 0.51500 33.08900
C  9.99400 -0.30200 34.05300
H  6.33000 6.49900 29.74300
H  7.28400 5.51800 23.36400
H  11.12500 0.69300 24.56000
H  8.42100 3.11200 32.36200
H  7.68600 5.76900 31.76400
H  5.95500 4.69300 32.73400
H  6.37400 3.22200 31.93500
H  5.24400 4.39400 31.14000
H  9.83400 5.70400 32.22900
H  10.80200 4.43500 31.57800
H  11.30600 3.47200 33.44800
H  9.62700 3.37200 33.96100
H  4.86300 7.60200 28.60700
H  4.17400 8.10100 27.07400
H  5.55600 8.98200 27.73700
H  4.48600 8.91700 25.19900
H  5.49800 9.80700 24.05800
H  6.06100 9.70200 25.70800
H  9.39800 4.39600 22.15900
H  9.93600 1.56900 22.61700
H  6.92900 2.98000 22.68000
H  7.93300 2.06500 21.53900
H  7.63900 3.76500 21.28300
H  12.23800 3.29700 23.60400
H  11.58800 3.91500 22.08200
H  12.89000 2.59200 20.99300
H  11.99700 1.18700 21.62900
H  13.40900 1.73100 22.48400
H  12.21700 -1.22900 26.15000
H  13.06400 -1.20200 27.67300
H  13.48100 -0.02100 26.41300
H  11.51700 2.18200 31.60600
H  9.39700 -1.06900 33.55900
H  9.37700 0.29100 34.72800
H  10.75500 -0.75300 34.69000

