158

Mg 8.48200 4.64500 27.55600
C  9.70800 2.92100 30.30700
C  6.56300 6.61600 29.72300
C  6.97400 6.04000 24.92900
C  10.06200 2.36800 25.43500
N  8.19300 4.78400 29.67500
C  8.83300 3.95200 30.62800
C  8.58800 4.55500 32.08300
C  7.68300 5.77800 31.78500
C  7.43800 5.75500 30.31000
C  6.31900 5.70100 32.65900
C  9.89200 4.89100 32.81800
C  9.65200 5.94300 33.95200
H  10.42300 5.67400 35.24000
N  7.09600 6.23400 27.28400
C  6.42300 6.91500 28.30800
C  5.61500 7.93500 27.76300
C  5.74000 7.78300 26.32300
C  6.70200 6.69600 26.10200
C  4.73200 8.93500 28.65600
C  4.97200 8.53800 25.30900
O  5.19000 8.39300 24.11200
C  3.93100 9.53100 25.68700
N  8.39200 4.14800 25.51600
C  7.79900 5.01200 24.59600
C  8.23500 4.68500 23.12300
C  9.35400 3.63700 23.36000
C  9.30100 3.32700 24.87400
C  7.09300 4.18900 22.22700
C  10.82500 4.11400 22.89600
C  11.57300 5.03300 23.85700
N  9.63600 2.96700 27.75100
C  10.28900 2.14700 26.81400
C  11.17600 1.27600 27.52100
C  10.97300 1.52400 28.86900
C  9.98500 2.50600 28.97000
C  12.16000 0.45900 26.88800
C  11.42700 1.16900 30.21200
O  12.21000 0.33000 30.63100
C  10.53300 2.02200 31.11500
C  9.68600 1.11200 31.87300
O  8.90700 0.31700 31.40600
O  9.96900 1.23100 33.20000
C  9.11200 0.46400 34.17000
H  6.10700 7.27600 30.46300
H  6.65000 6.54200 24.01400
H  10.74800 1.79900 24.80400
H  8.07200 3.83200 32.71500
H  8.17700 6.73100 31.97800
H  6.07100 6.67800 33.07300
H  6.58700 5.04800 33.49000
H  5.51000 5.19800 32.13000
H  10.53600 5.29300 32.03600
H  10.20400 3.98000 33.32800
H  8.59100 6.05200 34.17900
H  10.06100 6.89500 33.61500
H  5.04500 9.95600 28.44200
H  4.79800 8.77900 29.73200
H  3.68200 8.81300 28.38800
H  4.31300 10.38600 26.24500
H  3.17400 9.04600 26.30300
H  3.66200 9.97600 24.72900
H  8.61200 5.60700 22.67900
H  9.18100 2.64300 22.94700
H  6.25100 3.88000 22.84700
H  7.40300 3.29100 21.69300
H  6.92800 5.14100 21.72300
H  10.80400 4.65300 21.94900
H  11.38000 3.17800 22.83000
H  10.98000 5.06100 24.77100
H  11.72400 6.01500 23.40900
H  12.56600 4.64500 24.08500
H  12.47100 0.92300 25.95200
H  11.61200 -0.41400 26.53300
H  12.90800 0.22400 27.64600
H  11.26100 2.56000 31.72100
H  9.71900 -0.24400 34.73300
H  8.23600 -0.02300 33.74200
H  8.80700 1.25000 34.86100
Mg 6.33000 54.13900 41.31600
C  5.93800 50.55200 41.00300
C  9.39700 54.03100 39.97300
C  6.28400 57.47800 41.27400
C  2.94000 54.13100 42.44700
N  7.41200 52.44100 40.55100
C  7.14400 51.07600 40.48400
C  8.38700 50.30500 39.93100
C  9.54000 51.40000 39.90400
C  8.74500 52.72000 40.17400
C  10.71200 51.25200 40.92600
C  8.21600 49.58800 38.54400
C  7.50000 50.34100 37.37600
H  6.81800 49.53300 36.19100
N  7.71400 55.62600 40.72600
C  8.94500 55.38300 40.18500
C  9.59700 56.58600 39.98900
C  8.70200 57.60400 40.31700
C  7.48900 56.91100 40.80500
C  11.00700 56.60100 39.44200
C  8.93500 59.12500 40.17600
O  9.98700 59.60800 39.70500
C  7.86800 60.22300 40.37500
N  4.71500 55.59200 41.66300
C  5.04200 56.90400 41.69500
C  3.81200 57.78600 41.94100
C  2.67900 56.64800 42.12500
C  3.49000 55.39600 42.09900
C  3.97500 58.77500 43.16400
C  1.59500 56.79900 41.00300
C  0.38000 57.59500 41.43500
N  4.71300 52.66800 41.60000
C  3.50600 52.82300 42.19500
C  2.95300 51.50900 42.59900
C  3.85600 50.54900 42.01200
C  4.90200 51.37400 41.43300
C  1.68900 51.26800 43.40400
C  4.17100 49.14500 41.89800
O  3.52000 48.22600 42.42100
C  5.55400 49.09700 41.21100
C  5.43300 48.17100 40.00600
O  4.88800 48.47500 38.89900
O  5.90200 46.89800 40.26700
C  5.50400 45.97000 39.21100
H  10.42600 54.01700 39.60900
H  6.29200 58.55300 41.46500
H  1.89700 54.06500 42.76300
H  8.66000 49.56800 40.68700
H  9.98500 51.40900 38.90900
H  11.70500 51.26600 40.47600
H  10.60400 50.24500 41.32800
H  10.63000 52.11200 41.59100
H  7.88000 48.56900 38.73700
H  9.20400 49.40000 38.12500
H  8.19800 51.04600 36.92500
H  6.73500 50.94000 37.87000
H  11.67300 56.08800 40.13600
H  11.28500 57.65000 39.34000
H  11.12500 56.20500 38.43400
H  8.21400 61.17000 39.96300
H  7.54000 60.27700 41.41300
H  7.03300 59.98400 39.71500
H  3.52700 58.36300 41.06100
H  2.24200 56.88000 43.09600
H  3.73900 59.82900 43.01200
H  5.03900 58.81400 43.39700
H  3.50800 58.56900 44.12700
H  1.28400 55.80900 40.66800
H  2.01600 57.33800 40.15400
H  0.15300 58.31400 40.64800
H  0.58800 58.18800 42.32500
H  -0.50000 56.97400 41.60400
H  1.71900 51.87100 44.31100
H  1.77700 50.26500 43.82300
H  0.78000 51.41200 42.82100
H  6.34100 48.60600 41.78400
H  4.41900 45.98900 39.10900
H  5.68400 44.93400 39.49900
H  5.97500 46.08000 38.23400

