158

Mg 47.06900 15.99100 27.82400
C  45.25400 15.27800 30.78200
C  48.97000 18.10700 29.83500
C  48.97200 16.67600 25.17600
C  44.99800 14.01000 25.95500
N  47.14600 16.51300 30.12600
C  46.33800 16.12600 31.13700
C  46.77300 16.67400 32.47100
C  47.75200 17.77000 32.10300
C  47.98900 17.47500 30.58200
C  47.39100 19.20000 32.51400
C  47.31500 15.60000 33.41500
C  47.10800 15.70800 34.92200
H  48.34400 15.58300 35.80500
N  48.64800 17.22000 27.53900
C  49.26400 18.00600 28.51700
C  50.45000 18.62900 27.92200
C  50.48800 18.30800 26.51500
C  49.26700 17.43200 26.33000
C  51.47200 19.46200 28.70800
C  51.37100 18.82800 25.41000
O  51.26100 18.47200 24.26200
C  52.55700 19.73400 25.73400
N  46.98000 15.46400 25.83000
C  47.96500 15.77000 24.93400
C  47.77800 14.96100 23.66100
C  46.45700 14.28500 23.82000
C  46.09500 14.52800 25.29400
C  47.81800 15.74900 22.34800
C  46.49800 12.75300 23.39800
C  45.99800 12.48200 21.89400
N  45.40300 14.92100 28.22700
C  44.61800 14.20300 27.30300
C  43.53200 13.63000 28.01300
C  43.71100 13.97000 29.38900
C  44.89200 14.83100 29.46700
C  42.43300 12.89000 27.25300
C  43.31700 13.75800 30.78700
O  42.44200 13.06400 31.31800
C  44.24700 14.63400 31.72600
C  43.41900 15.59500 32.44800
O  42.63500 16.33000 31.98600
O  43.74300 15.55100 33.77900
C  42.97600 16.34300 34.63500
H  49.53400 18.79900 30.46300
H  49.57900 16.80100 24.27700
H  44.32800 13.44500 25.30300
H  45.92500 17.15900 32.95300
H  48.64900 17.58000 32.69300
H  46.85000 19.37100 33.44500
H  46.99600 19.57000 31.56800
H  48.33200 19.73000 32.66000
H  48.36200 15.47900 33.13800
H  46.86300 14.65400 33.11600
H  46.39800 14.89900 35.09400
H  46.59400 16.62200 35.21900
H  51.71100 20.36500 28.14700
H  52.38800 18.96600 29.02800
H  51.07200 19.82100 29.65600
H  52.14300 20.71600 25.96400
H  53.24500 19.88300 24.90200
H  53.06300 19.35300 26.62100
H  48.59900 14.24400 23.66000
H  45.61600 14.69300 23.25800
H  48.62400 15.38300 21.71200
H  48.03600 16.79700 22.55500
H  46.91000 15.70000 21.74800
H  45.99600 12.08900 24.10200
H  47.55300 12.51300 23.52500
H  46.75600 11.83100 21.45700
H  45.87000 13.36000 21.26100
H  45.07500 11.90400 21.94900
H  42.13800 13.13000 26.23200
H  41.54800 13.33200 27.71100
H  42.38800 11.82900 27.49900
H  44.71400 13.98800 32.47000
H  43.34500 16.18600 35.64900
H  41.95300 15.99900 34.48100
H  43.04500 17.38600 34.32700
Mg 47.26200 24.66500 27.62600
C  47.77500 26.90900 30.36000
C  46.25200 22.32900 29.81000
C  46.79300 22.82200 25.04300
C  48.28100 27.41000 25.48400
N  46.89600 24.60300 29.86000
C  47.24100 25.61300 30.73800
C  46.92100 25.24900 32.14000
C  46.53600 23.67800 32.00300
C  46.54300 23.48900 30.51300
C  47.39100 22.68300 32.90900
C  45.79200 26.25800 32.69000
C  45.99000 26.84000 34.11700
H  44.91200 26.78200 35.15700
N  46.60900 22.70700 27.40700
C  46.20700 21.92900 28.37700
C  45.63900 20.72900 27.79600
C  45.81200 20.79600 26.41500
C  46.48300 22.12000 26.22100
C  45.14000 19.57400 28.65300
C  45.37700 19.83600 25.30700
O  45.73100 20.10600 24.15100
C  44.66600 18.48000 25.58900
N  47.73500 25.03300 25.54000
C  47.37500 24.07200 24.72000
C  47.46800 24.52200 23.20900
C  47.75300 26.05900 23.30500
C  48.03100 26.17000 24.82400
C  48.44600 23.64700 22.28600
C  46.57600 26.93400 22.88600
C  45.38800 27.10300 23.78700
N  47.89700 26.68500 27.83800
C  48.33800 27.63700 26.89500
C  48.62000 28.94100 27.57400
C  48.49300 28.59300 28.96800
C  48.03200 27.28700 29.03500
C  49.16500 30.20500 27.01300
C  48.58100 29.17100 30.29100
O  48.91100 30.31200 30.61000
C  48.13900 28.04100 31.23600
C  49.26900 27.72100 32.12300
O  50.18200 27.01000 31.77300
O  49.08000 28.11500 33.45600
C  49.97600 27.42500 34.43100
H  45.83100 21.64500 30.54900
H  46.47500 22.29800 24.14000
H  48.61200 28.26500 24.89100
H  47.85200 25.40600 32.68500
H  45.52900 23.68600 32.42100
H  48.42000 23.00500 33.06600
H  47.44400 21.75100 32.34800
H  46.81900 22.57200 33.83000
H  44.86000 25.70400 32.80100
H  45.76500 27.15800 32.07600
H  46.33600 27.87000 34.20500
H  46.86900 26.40900 34.59500
H  45.64400 18.68200 28.27900
H  44.05700 19.53700 28.54000
H  45.35600 19.51100 29.72000
H  45.32600 17.79800 26.12600
H  44.29700 17.99800 24.68400
H  43.76100 18.64700 26.17300
H  46.48000 24.33200 22.78900
H  48.67300 26.25100 22.75300
H  47.82900 23.26500 21.47300
H  48.86100 22.76700 22.77700
H  49.18800 24.23200 21.74300
H  46.22900 26.42800 21.98500
H  46.90000 27.91100 22.52900
H  45.16500 28.12200 24.10000
H  45.59500 26.45100 24.63600
H  44.53200 26.71500 23.23500
H  49.56400 30.94700 27.70500
H  48.30100 30.69800 26.56800
H  49.80200 29.94900 26.16600
H  47.40900 28.59000 31.83200
H  49.94100 26.36100 34.19700
H  49.60600 27.54200 35.45000
H  51.02000 27.70100 34.27900

