158

Mg 44.16200 4.18900 48.22300
C  41.68500 6.53400 47.04800
C  41.65300 1.78700 47.95300
C  46.50100 1.76600 48.43200
C  46.57900 6.53400 47.97200
N  41.91900 4.21400 47.65500
C  41.18300 5.28000 47.18000
C  39.81100 4.85000 46.66300
C  39.76700 3.39600 47.20400
C  41.20700 3.08500 47.63200
C  38.61600 3.06400 48.27300
C  39.61300 5.01700 45.12000
C  38.13600 5.26900 44.71200
H  37.72300 4.46200 43.42300
N  44.09000 1.99700 48.28300
C  42.90700 1.27900 48.07600
C  43.32600 -0.10600 48.14300
C  44.71000 -0.17700 48.41900
C  45.20900 1.22700 48.32600
C  42.42100 -1.26900 47.85600
C  45.45700 -1.46000 48.60300
O  44.88100 -2.54200 48.62500
C  46.92900 -1.46000 48.83600
N  46.22500 4.15100 47.98500
C  46.93800 3.00400 48.30100
C  48.45600 3.28700 48.33000
C  48.51400 4.83600 48.41700
C  47.09700 5.24900 48.04100
C  49.31300 2.54000 49.46100
C  49.58300 5.44700 47.57500
C  50.37300 6.55900 48.23000
N  44.19700 6.20900 47.73500
C  45.24900 7.03200 47.74200
C  44.79300 8.36600 47.49700
C  43.40000 8.28100 47.17300
C  43.09100 6.89900 47.28400
C  45.78600 9.55600 47.45200
C  42.23700 8.90600 46.69600
O  42.08600 10.07800 46.31200
C  41.01700 7.84900 46.75800
C  39.92500 8.19200 47.68600
O  39.66900 7.74900 48.81000
O  39.20900 9.21400 47.17500
C  37.89100 9.52700 47.78400
H  40.84900 1.05200 47.87400
H  47.26000 0.98800 48.53600
H  47.41000 7.24200 48.01300
H  39.10300 5.51500 47.15700
H  39.59300 2.74900 46.34400
H  39.09400 2.73900 49.19700
H  37.98300 2.27900 47.85800
H  38.12300 4.01100 48.48900
H  39.97100 4.10400 44.64300
H  40.24500 5.85400 44.82200
H  38.09100 6.35700 44.65800
H  37.56000 4.98000 45.59100
H  42.73400 -1.78500 46.94900
H  41.43600 -0.83400 47.68800
H  42.43800 -1.97100 48.69000
H  47.46000 -1.15000 47.93600
H  47.19900 -2.50200 49.00900
H  47.25800 -0.98100 49.75900
H  48.83500 2.87600 47.39500
H  48.63600 5.03300 49.48200
H  49.67800 1.67200 48.91300
H  48.70800 2.22400 50.31100
H  50.04300 3.17900 49.95800
H  49.10400 5.80800 46.66500
H  50.20500 4.63200 47.20500
H  51.41700 6.33100 48.44300
H  49.85800 6.87800 49.13700
H  50.38000 7.40800 47.54700
H  45.12100 10.41800 47.50000
H  46.37300 9.61500 46.53500
H  46.52900 9.51700 48.24800
H  40.57100 7.83300 45.76300
H  37.68100 10.59200 47.68500
H  37.74200 9.30000 48.83900
H  37.17400 9.09200 47.08700
Mg -5.08800 25.10700 26.18300
C  -3.37900 26.57300 28.83900
C  -6.53700 22.98800 28.54000
C  -6.60700 23.47100 23.60200
C  -3.03900 26.80100 23.86000
N  -4.93800 24.86600 28.37900
C  -4.30900 25.64700 29.26000
C  -4.74100 25.42100 30.70600
C  -5.39200 24.07000 30.65100
C  -5.66000 24.02200 29.10300
C  -4.51600 22.85700 31.24100
C  -5.64800 26.58300 31.33400
C  -5.55500 26.81800 32.83600
H  -4.72300 25.85900 33.73000
N  -6.38500 23.43100 26.07400
C  -6.89700 22.74000 27.16000
C  -7.70500 21.60900 26.62500
C  -7.77300 21.78200 25.18900
C  -6.83600 22.89300 24.87100
C  -8.54700 20.57900 27.50400
C  -8.49400 21.00800 24.07700
O  -8.22800 21.05100 22.89400
C  -9.55900 19.95600 24.35700
N  -5.06500 25.30900 24.00000
C  -5.71200 24.49200 23.15400
C  -5.69500 24.95200 21.74300
C  -4.38700 25.84100 21.78700
C  -4.06800 25.97600 23.28800
C  -5.64700 23.76900 20.76300
C  -4.41300 27.23800 21.11600
C  -3.34900 27.66100 20.06100
N  -3.65500 26.47900 26.35900
C  -2.92500 27.12400 25.29100
C  -2.06000 28.08700 25.91700
C  -2.17000 27.86000 27.30600
C  -3.19000 26.86700 27.54200
C  -1.12000 29.03800 25.29900
C  -1.52500 28.22000 28.54600
O  -0.65400 28.96900 28.86400
C  -2.45400 27.50100 29.63300
C  -1.59100 26.73600 30.57400
O  -0.82200 25.87100 30.25500
O  -1.66300 27.30300 31.80900
C  -0.80400 26.70200 32.84100
H  -7.04900 22.25200 29.16300
H  -7.27400 23.07800 22.83100
H  -2.32600 27.33100 23.22600
H  -3.80200 25.39800 31.25900
H  -6.42700 24.00800 30.98800
H  -5.19100 22.41000 31.97000
H  -3.61000 23.06300 31.81000
H  -4.28200 22.22100 30.38700
H  -6.70700 26.33400 31.26300
H  -5.38000 27.52700 30.85900
H  -6.53400 26.90100 33.30900
H  -5.06000 27.77700 32.98500
H  -8.36700 20.58000 28.57900
H  -8.37600 19.53800 27.23100
H  -9.61500 20.72100 27.34200
H  -10.02500 19.78100 23.38700
H  -10.25800 20.51400 24.98000
H  -9.26700 18.97100 24.72200
H  -6.66200 25.44100 21.62200
H  -3.57600 25.25700 21.35300
H  -5.87700 22.78300 21.16600
H  -4.64900 23.66100 20.33800
H  -6.16400 23.98300 19.82800
H  -4.64600 27.98400 21.87600
H  -5.41300 27.32700 20.69300
H  -2.58400 26.91700 19.83500
H  -2.87900 28.57600 20.42000
H  -3.96400 27.85100 19.18100
H  -0.22500 28.45800 25.07500
H  -1.12800 29.90100 25.96500
H  -1.51600 29.45000 24.37000
H  -3.10600 28.13700 30.23200
H  -1.12200 26.82100 33.87700
H  0.11400 27.24200 32.60800
H  -0.57900 25.65100 32.65900

