158

Mg 55.32800 24.66000 45.66200
C  52.52300 26.31600 44.54700
C  53.93600 21.71400 44.78300
C  58.37700 23.23800 46.08600
C  56.63200 27.76800 46.59900
N  53.46600 24.12500 44.73400
C  52.54300 24.94500 44.26900
C  51.32200 24.20400 43.81800
C  51.64500 22.71200 44.30700
C  53.11000 22.79300 44.62500
C  50.70300 22.33900 45.58300
C  51.28500 24.23600 42.21900
C  49.84800 24.01900 41.63000
H  49.59700 22.91600 40.58900
N  56.00800 22.70700 45.62700
C  55.28500 21.64700 45.24500
C  56.11100 20.45800 45.22400
C  57.39900 20.89400 45.62500
C  57.34700 22.36700 45.87200
C  55.55200 19.05100 44.78400
C  58.55900 19.92900 45.89200
O  58.54800 18.73400 45.47400
C  59.89700 20.32200 46.46500
N  57.26300 25.44700 46.04200
C  58.35800 24.64200 46.35500
C  59.59900 25.48800 46.65400
C  58.94400 26.89100 46.97600
C  57.49300 26.72200 46.53800
C  60.61000 24.96500 47.82300
C  59.80200 28.10600 46.54500
C  59.56600 28.72800 45.22600
N  54.68500 26.70900 45.67300
C  55.27100 27.80800 46.17400
C  54.32700 28.93600 46.14600
C  53.19000 28.40900 45.47600
C  53.51000 27.12100 45.17200
C  54.49500 30.30000 46.71600
C  51.80500 28.63100 45.01600
O  51.04400 29.59800 45.04800
C  51.31600 27.31800 44.28700
C  50.99700 27.58400 42.83900
O  51.80500 27.85800 41.90800
O  49.72500 27.33300 42.63400
C  49.20100 27.55000 41.24900
H  53.43600 20.82800 44.38700
H  59.35000 22.74600 46.03000
H  57.12300 28.69600 46.89900
H  50.45600 24.64300 44.31300
H  51.51500 22.01000 43.48300
H  50.16700 21.44400 45.26500
H  50.09800 23.17600 45.93000
H  51.29400 22.11700 46.47100
H  51.81400 23.43200 41.70700
H  51.70000 25.16100 41.81900
H  49.41300 24.89600 41.15000
H  49.25300 23.73500 42.49800
H  56.16600 18.19800 45.07100
H  55.53200 18.98500 43.69600
H  54.54200 18.85900 45.14600
H  60.42400 20.90100 45.70700
H  60.48600 19.46200 46.78400
H  59.63500 20.93700 47.32600
H  60.14200 25.44000 45.71000
H  58.79500 26.92100 48.05500
H  60.46900 24.01400 48.33500
H  60.64300 25.72900 48.60000
H  61.62100 25.01600 47.41800
H  60.80200 27.67200 46.52900
H  59.65500 28.75200 47.41100
H  58.75800 28.38400 44.58000
H  60.46100 28.54700 44.63100
H  59.35500 29.79500 45.29700
H  54.21900 31.06200 45.98800
H  55.56300 30.45200 46.87600
H  54.01100 30.35800 47.69100
H  50.39600 27.02300 44.79100
H  49.25100 28.59300 40.93800
H  48.12500 27.38000 41.21100
H  49.68200 26.95000 40.47600
Mg -9.97200 40.27500 38.91900
C  -8.94000 36.89000 38.12300
C  -6.86500 41.36800 37.95000
C  -11.31500 43.34300 38.83500
C  -13.29300 38.91000 39.32300
N  -8.18300 39.19000 37.96500
C  -7.92300 37.86700 37.95700
C  -6.43300 37.63900 37.72200
C  -5.79400 39.08200 37.84700
C  -7.05500 39.95500 38.06100
C  -4.88200 39.20500 39.10600
C  -6.15900 36.95500 36.36500
C  -6.71500 37.79100 35.17900
H  -7.81000 37.10500 34.27300
N  -9.18100 42.01000 38.45800
C  -7.87400 42.35600 38.14400
C  -7.73900 43.72000 37.82100
C  -9.03500 44.30500 37.90200
C  -9.91300 43.22600 38.39200
C  -6.47500 44.39900 37.34100
C  -9.41100 45.68100 37.38600
O  -8.57300 46.49800 36.98600
C  -10.83800 46.11500 37.31700
N  -11.99400 41.01600 39.15400
C  -12.22100 42.37500 39.10300
C  -13.75100 42.61200 39.21100
C  -14.34300 41.20500 39.55200
C  -13.18500 40.30200 39.35800
C  -14.05800 43.62700 40.26200
C  -15.68900 40.71300 38.89400
C  -16.66600 39.96300 39.85000
N  -10.95600 38.31300 38.86000
C  -12.26300 37.95900 39.11300
C  -12.38700 36.54700 39.00500
C  -11.10400 36.05100 38.72400
C  -10.31700 37.19100 38.52500
C  -13.68400 35.70200 39.20800
C  -10.31700 34.87400 38.41800
O  -10.56100 33.68400 38.44700
C  -8.89300 35.34600 38.02500
C  -7.86700 34.88200 39.11000
O  -8.00200 34.88100 40.30900
O  -6.79800 34.29000 38.39800
C  -5.76500 33.61100 39.21400
H  -5.85300 41.70900 37.72300
H  -11.78500 44.32500 38.91500
H  -14.27600 38.53500 39.61600
H  -6.05100 37.01200 38.52800
H  -5.18400 39.43400 37.01500
H  -4.79400 38.31400 39.72900
H  -5.28100 39.96100 39.78100
H  -3.88300 39.54200 38.82900
H  -6.64600 35.98000 36.32700
H  -5.09600 36.90900 36.13100
H  -5.80400 38.02700 34.62800
H  -7.07400 38.75700 35.53600
H  -6.55600 44.52200 36.26100
H  -5.60600 43.75200 37.46200
H  -6.11700 45.28900 37.85900
H  -11.22000 46.46800 38.27500
H  -11.52800 45.32600 37.01900
H  -10.86000 46.86500 36.52700
H  -14.16100 42.98600 38.27300
H  -14.37700 41.10600 40.63700
H  -13.14600 44.08100 40.65000
H  -14.46000 43.11800 41.13800
H  -14.79600 44.33900 39.89300
H  -15.59300 40.09300 38.00300
H  -16.26000 41.57200 38.54200
H  -16.15600 39.60900 40.74600
H  -16.78800 39.03200 39.29500
H  -17.60900 40.49700 39.96400
H  -14.11600 35.26700 38.30700
H  -14.49400 36.27700 39.65800
H  -13.48500 35.03800 40.05000
H  -8.69900 35.01600 37.00500
H  -5.94700 32.56300 39.45300
H  -5.81500 33.99400 40.23300
H  -4.71000 33.75900 38.98500

