158

Mg 1.93400 -1.21100 44.99200
C  5.30300 -0.39600 44.48300
C  1.08200 1.32300 42.61700
C  -1.15500 -2.44800 44.66800
C  2.97500 -4.08500 46.72200
N  3.13300 0.17200 43.60000
C  4.48500 0.37900 43.67800
C  4.86100 1.48700 42.72000
C  3.49600 2.11200 42.27700
C  2.44200 1.19700 42.88800
C  3.15100 3.50900 42.93000
C  5.70700 0.92200 41.44600
C  7.11100 1.56600 41.45500
H  7.58900 2.24300 40.19300
N  0.16200 -0.56900 43.94700
C  0.07400 0.46700 43.04200
C  -1.37500 0.63700 42.72100
C  -2.07800 -0.49100 43.29400
C  -0.97700 -1.21000 44.01500
C  -1.98200 1.69500 41.85300
C  -3.56800 -0.72400 43.12300
O  -4.15500 -0.15900 42.22100
C  -4.38900 -1.68200 43.96800
N  1.04400 -2.98400 45.61200
C  -0.29300 -3.23600 45.43800
C  -0.67300 -4.65800 46.05800
C  0.69000 -5.11500 46.73100
C  1.60800 -4.00200 46.37200
C  -1.93100 -4.67800 47.02900
C  1.20300 -6.49400 46.13900
C  2.03800 -7.31600 47.18600
N  3.72200 -2.09000 45.62700
C  4.01300 -3.22600 46.35600
C  5.43800 -3.24000 46.57600
C  5.99500 -2.14000 45.89900
C  4.89700 -1.49700 45.26700
C  6.18600 -4.26100 47.23600
C  7.24200 -1.43300 45.58200
O  8.43900 -1.56600 45.92800
C  6.78200 -0.28600 44.62400
C  7.25600 1.03600 45.16300
O  6.75900 1.55100 46.14200
O  8.30900 1.54100 44.38400
C  8.46000 3.00100 44.54500
H  0.74100 2.07300 41.90000
H  -2.17000 -2.83400 44.55900
H  3.27800 -4.90800 47.37200
H  5.49200 2.08600 43.37700
H  3.33600 1.97300 41.20800
H  3.10400 4.19800 42.08700
H  3.87800 3.90100 43.64100
H  2.23800 3.67900 43.49900
H  5.20200 1.25200 40.53800
H  5.85700 -0.15100 41.56100
H  7.92700 0.93500 41.81000
H  7.16900 2.38900 42.16700
H  -2.25300 1.35000 40.85500
H  -1.25200 2.47700 41.64400
H  -2.91100 2.11000 42.24200
H  -5.37600 -1.24600 44.12000
H  -3.90300 -1.86100 44.92700
H  -4.42800 -2.60600 43.39000
H  -0.89300 -5.34000 45.23700
H  0.64400 -5.18700 47.81800
H  -1.65100 -5.08900 48.00000
H  -2.82100 -5.16600 46.63300
H  -2.10300 -3.61600 47.20000
H  1.80600 -6.35000 45.24200
H  0.38400 -7.17000 45.89500
H  1.29500 -8.08400 47.40500
H  2.24300 -6.74700 48.09200
H  2.95600 -7.81800 46.88100
H  7.21800 -3.96000 47.41500
H  6.15500 -5.23900 46.75500
H  5.74400 -4.60300 48.17200
H  7.24200 -0.43200 43.64700
H  9.18000 3.13000 45.35400
H  7.56200 3.54200 44.84700
H  8.80400 3.48000 43.62900
Mg 0.69700 7.07700 25.14100
C  1.30200 8.92100 28.12400
C  1.02800 4.22900 27.26000
C  0.01900 5.26900 22.60100
C  0.88000 9.99500 23.38200
N  1.01800 6.60400 27.40800
C  1.19600 7.56400 28.41000
C  1.56800 6.89300 29.73400
C  1.72000 5.37500 29.38700
C  1.22800 5.38700 27.95000
C  3.15700 4.80400 29.56100
C  0.59800 7.26700 30.84800
C  1.18200 7.79600 32.17600
H  2.11000 6.91200 32.98900
N  0.60800 4.97700 24.87500
C  0.63900 3.99900 25.89100
C  0.45000 2.71700 25.24500
C  0.24100 2.97100 23.87000
C  0.31900 4.40600 23.67100
C  0.34500 1.46700 25.97100
C  -0.03800 1.96400 22.63800
O  -0.23000 2.50700 21.53400
C  -0.16600 0.47700 22.77900
N  0.71400 7.50000 23.22000
C  0.22000 6.60200 22.35100
C  -0.11700 7.28300 21.00300
C  -0.26700 8.78200 21.44400
C  0.55200 8.77800 22.73000
C  1.16500 7.00800 19.98900
C  -1.66400 9.39400 21.60200
C  -1.75100 10.88200 21.15800
N  1.13400 9.13800 25.61600
C  1.16200 10.22100 24.80300
C  1.36600 11.40000 25.63200
C  1.39600 10.88800 26.88500
C  1.27700 9.52400 26.82100
C  1.40900 12.87100 25.16700
C  1.62100 11.39500 28.24400
O  1.75100 12.47400 28.71400
C  1.52700 10.08000 29.09800
C  2.74000 10.01700 29.94700
O  3.85100 9.59200 29.61600
O  2.56000 10.75500 31.10400
C  3.60700 10.90400 32.04900
H  1.15600 3.28600 27.79500
H  -0.33500 4.69800 21.74000
H  0.70800 10.88900 22.77900
H  2.48800 7.37900 30.05900
H  1.02300 4.77900 29.97700
H  3.66700 5.48600 30.24100
H  3.70300 4.77500 28.61800
H  3.14900 3.79300 29.96800
H  -0.04400 6.40100 31.00500
H  -0.05300 8.03700 30.43400
H  0.48200 8.01800 32.98200
H  1.75200 8.68200 31.89600
H  0.09600 1.57400 27.02600
H  1.31500 0.97300 25.92500
H  -0.44900 0.83600 25.57300
H  -1.15100 0.20900 23.16200
H  0.61200 -0.07300 23.30800
H  -0.15200 0.05300 21.77500
H  -1.08200 7.02000 20.57100
H  0.25100 9.47800 20.78500
H  1.96400 6.80600 20.70300
H  1.34100 7.90200 19.39100
H  0.91200 6.15800 19.35600
H  -1.97900 9.38200 22.64500
H  -2.40800 8.96200 20.93200
H  -2.59700 11.05800 20.49300
H  -0.94800 11.24600 20.51700
H  -1.77700 11.52900 22.03500
H  1.05100 12.84200 24.13800
H  2.37900 13.34600 25.31500
H  0.68100 13.47500 25.70900
H  0.69500 10.29700 29.76700
H  3.39600 11.70900 32.75300
H  4.62300 11.14600 31.73800
H  3.63100 9.91800 32.51300

