158

Mg 47.48000 25.02400 27.75000
C  48.25800 27.35700 30.36400
C  46.75200 22.70800 30.26300
C  47.05800 22.85400 25.36600
C  48.75600 27.35800 25.35100
N  47.47500 25.10600 30.07700
C  47.79800 26.15700 30.90900
C  47.52600 25.77500 32.41800
C  47.26200 24.23900 32.31700
C  47.14900 23.98400 30.79500
C  48.28400 23.25900 33.05900
C  46.44800 26.56500 33.10600
C  46.18200 26.14800 34.55400
H  46.32500 27.10200 35.70100
N  46.84900 23.12400 27.78900
C  46.63000 22.31500 28.89900
C  46.10200 21.05500 28.43000
C  46.13000 21.09100 26.98200
C  46.70200 22.40500 26.64400
C  45.89000 19.90200 29.33700
C  45.65700 20.03700 25.98100
O  45.51500 20.19900 24.80300
C  45.11000 18.68600 26.54900
N  47.76100 25.11600 25.58400
C  47.53200 24.04600 24.79800
C  47.88600 24.30600 23.35100
C  48.27700 25.84400 23.36600
C  48.31500 26.11000 24.85500
C  48.82600 23.29400 22.76700
C  47.19400 26.73300 22.75100
C  47.72300 27.53500 21.58600
N  48.27800 26.96400 27.78300
C  48.79900 27.74400 26.69800
C  49.24300 29.03900 27.24800
C  49.08700 28.90000 28.63000
C  48.51000 27.60700 28.97700
C  49.95200 30.12800 26.50000
C  49.35800 29.50700 29.90500
O  49.96000 30.56500 30.13600
C  48.74700 28.62000 31.05500
C  49.70600 28.55500 32.22300
O  50.91300 28.20400 32.09900
O  49.05500 28.89700 33.36400
C  49.75300 29.01700 34.59700
H  46.52200 21.99900 31.06100
H  47.07000 22.06800 24.60900
H  49.18100 28.01500 24.59000
H  48.47000 26.02100 32.90500
H  46.29500 24.05600 32.78500
H  47.80300 22.75500 33.89700
H  49.16600 23.75600 33.46200
H  48.64000 22.60700 32.26100
H  45.48200 26.50800 32.60500
H  46.73600 27.61700 33.11500
H  46.86100 25.34900 34.85100
H  45.22200 25.63800 34.63400
H  44.90200 19.44400 29.30000
H  46.09200 20.17100 30.37400
H  46.51300 19.09400 28.95500
H  45.00000 18.03200 25.68400
H  44.04800 18.82800 26.75300
H  45.75400 18.25800 27.31700
H  46.95300 24.16800 22.80400
H  49.32000 26.01700 23.10000
H  48.38100 22.71100 21.96100
H  49.15000 22.59400 23.53700
H  49.73000 23.82500 22.46800
H  46.63000 27.26800 23.51400
H  46.43200 26.19600 22.18700
H  47.00100 27.65900 20.78000
H  48.65400 27.05900 21.27800
H  48.07100 28.53800 21.83300
H  49.27900 30.98200 26.42700
H  50.21900 29.78200 25.50100
H  50.80300 30.44500 27.10300
H  47.93300 29.29300 31.32300
H  50.81600 28.82000 34.45800
H  49.40600 28.28400 35.32600
H  49.67100 30.06600 34.87900
Mg 41.70000 40.97200 26.86000
C  41.03300 43.43100 29.36500
C  42.84400 39.01700 29.33600
C  42.66200 38.90400 24.39300
C  40.91600 43.45700 24.45400
N  41.95000 41.23500 29.13300
C  41.47100 42.25400 29.90700
C  41.43300 41.93200 31.44400
C  42.08000 40.47400 31.42300
C  42.38400 40.20800 29.88300
C  43.40400 40.22200 32.16300
C  40.00600 41.95000 32.08100
C  39.90300 42.80800 33.34800
H  38.95400 42.52600 34.50900
N  42.59800 39.17200 26.89400
C  43.00900 38.57400 27.99500
C  43.47400 37.24600 27.65300
C  43.43000 37.10300 26.23900
C  42.95400 38.42800 25.75900
C  43.78400 36.11200 28.70200
C  43.65700 35.94000 25.35000
O  43.44100 36.03100 24.12200
C  44.17700 34.63300 25.92200
N  41.81800 41.16900 24.82200
C  42.16500 40.13600 23.98400
C  41.97600 40.49000 22.50300
C  41.20000 41.81100 22.57300
C  41.33300 42.24300 24.05400
C  43.33000 40.75800 21.77600
C  39.73800 41.75000 22.08700
C  38.70700 41.04000 23.02200
N  41.05900 42.96900 26.73600
C  40.88700 43.88800 25.76200
C  40.49700 45.16500 26.30500
C  40.51400 44.98900 27.65800
C  40.91200 43.66400 27.93400
C  39.99900 46.29700 25.59100
C  40.27000 45.68200 28.95800
O  39.99800 46.81000 29.18000
C  40.59700 44.69900 30.03100
C  41.60000 45.27500 31.06600
O  42.78600 45.22100 31.09700
O  40.89800 45.80800 32.15500
C  41.81200 46.55600 33.05700
H  43.06500 38.27000 30.10200
H  42.87500 38.21000 23.57700
H  40.54500 44.06800 23.62800
H  42.13700 42.63300 31.89400
H  41.37600 39.73200 31.80100
H  44.20000 40.02200 31.44600
H  43.21900 39.46900 32.93000
H  43.77000 41.12700 32.64700
H  39.64200 40.94700 32.30700
H  39.29200 42.30800 31.34000
H  39.61700 43.84700 33.18200
H  40.92100 42.86100 33.73600
H  42.80500 35.68500 28.91900
H  44.08000 36.61100 29.62400
H  44.50100 35.33600 28.43200
H  45.24100 34.75400 26.12600
H  44.01700 33.99500 25.05200
H  43.57300 34.28100 26.75900
H  41.40500 39.70600 22.00500
H  41.59400 42.68700 22.05700
H  44.16300 40.63400 22.46800
H  43.41700 41.79800 21.46100
H  43.50200 40.00400 21.00800
H  39.64700 41.24000 21.12800
H  39.46900 42.80400 22.02500
H  39.04200 40.85000 24.04200
H  38.34600 40.06200 22.70400
H  37.81900 41.66300 22.91200
H  39.52200 45.91500 24.68900
H  40.74900 47.06400 25.40000
H  39.31000 46.73000 26.31600
H  39.71800 44.70200 30.67500
H  42.58100 47.09500 32.50400
H  42.39300 45.91800 33.72300
H  41.22900 47.30300 33.59700

