158

Mg 48.14700 34.65700 27.16000
C  46.39900 33.00400 29.76000
C  48.31200 37.42600 29.11700
C  49.24800 36.20300 24.48200
C  47.10500 31.98800 25.08600
N  47.56200 35.05400 29.29500
C  46.88200 34.29800 30.17800
C  46.85300 34.98100 31.65100
C  47.24000 36.49300 31.24100
C  47.78500 36.33300 29.83200
C  46.24400 37.62800 31.56100
C  47.83300 34.32600 32.67100
C  47.24800 34.18000 34.05500
H  47.55300 35.20000 35.16500
N  48.73000 36.57400 26.88400
C  48.81500 37.55200 27.82400
C  49.42300 38.73200 27.15000
C  49.70200 38.40000 25.80100
C  49.28600 36.99600 25.70700
C  49.67400 40.05400 27.95700
C  50.41200 39.29200 24.71400
O  50.61400 38.78600 23.66000
C  50.81100 40.65900 24.97600
N  47.98600 34.27000 25.10400
C  48.70700 34.95100 24.19300
C  48.86600 34.30100 22.78700
C  47.94900 33.11100 22.98800
C  47.67300 33.07500 24.44400
C  48.65100 35.16800 21.55200
C  48.71300 31.86000 22.43900
C  49.93200 31.37300 23.25800
N  47.12000 32.75700 27.36300
C  46.76300 31.81200 26.43400
C  46.06200 30.69400 27.00500
C  45.92600 31.14100 28.33900
C  46.48200 32.41700 28.47000
C  45.47600 29.53000 26.26700
C  45.39500 30.67800 29.59600
O  44.90100 29.65900 30.01900
C  45.39900 31.99500 30.52400
C  45.80100 31.61800 31.90200
O  46.86100 31.09100 32.24000
O  44.69800 31.74700 32.67700
C  44.90300 31.49400 34.12000
H  48.12200 38.36600 29.64000
H  49.72100 36.67700 23.61900
H  46.88000 31.06600 24.54600
H  45.84400 34.85700 32.04300
H  48.17300 36.69000 31.76900
H  45.46500 37.23600 32.21400
H  45.87200 38.01600 30.61200
H  46.67300 38.47500 32.09600
H  48.72000 34.95700 32.72300
H  48.13700 33.33400 32.33600
H  47.52800 33.26000 34.56800
H  46.17100 34.25700 33.90400
H  49.30400 40.92400 27.41500
H  50.69600 40.35400 28.18900
H  49.10400 40.17200 28.87800
H  50.00000 41.30900 25.30400
H  51.15600 41.13500 24.05800
H  51.65600 40.82800 25.64300
H  49.90200 33.97200 22.71300
H  47.06700 33.25000 22.36400
H  48.41700 36.17900 21.88400
H  47.81000 34.85700 20.93400
H  49.58700 35.14300 20.99400
H  49.06700 32.01400 21.41900
H  47.94900 31.08600 22.36900
H  49.61200 30.41600 23.67000
H  50.23400 32.09200 24.02000
H  50.83600 31.28300 22.65600
H  44.71500 30.00900 25.65000
H  45.00200 28.79000 26.91100
H  46.27800 29.17300 25.62100
H  44.44500 32.51600 30.60200
H  44.20500 31.94100 34.82800
H  45.93000 31.74700 34.38200
H  44.89500 30.41000 34.24000
Mg 36.28600 49.50100 24.08900
C  36.23000 48.06300 27.23400
C  34.99500 52.52600 25.41900
C  36.26100 50.92600 21.03500
C  37.45600 46.51300 22.82200
N  35.69000 50.10400 26.01900
C  35.86900 49.41800 27.19800
C  35.55300 50.37300 28.46800
C  35.01400 51.63900 27.81000
C  35.14900 51.38300 26.29800
C  33.60300 51.99300 28.36500
C  36.81400 50.42900 29.39400
C  36.62400 50.26800 30.89700
H  35.17900 50.10300 31.34600
N  35.76800 51.55100 23.30700
C  35.22300 52.57800 24.03100
C  34.96000 53.68300 23.10000
C  35.39600 53.23500 21.80700
C  35.80800 51.82400 22.00200
C  34.53800 55.04300 23.56700
C  35.51000 54.03600 20.55500
O  35.92100 53.56000 19.48200
C  35.20200 55.52300 20.44400
N  36.84200 48.84400 22.22800
C  36.68000 49.57400 21.10300
C  36.86700 48.72500 19.82500
C  37.23100 47.33900 20.44800
C  37.12000 47.56800 21.93100
C  35.51900 48.66900 18.93600
C  38.69000 46.99700 20.00200
C  39.77000 47.80800 20.69100
N  36.78900 47.59000 24.83700
C  37.26200 46.48200 24.24200
C  37.45500 45.32700 25.18900
C  37.04100 45.94100 26.41100
C  36.67400 47.28500 26.16200
C  37.72600 43.91200 25.02800
C  36.80400 45.73200 27.79700
O  36.85900 44.78400 28.49300
C  36.31200 47.09200 28.44100
C  35.02100 46.84200 29.15800
O  33.85300 46.91200 28.70200
O  35.26100 46.41500 30.42500
C  34.04300 45.90600 31.07500
H  34.59900 53.37400 25.98100
H  36.15100 51.32000 20.02200
H  37.70200 45.57700 22.31400
H  34.82200 49.77600 29.01400
H  35.77700 52.36700 28.08800
H  32.93000 52.09200 27.51300
H  33.55100 52.99600 28.78800
H  33.21900 51.25300 29.06600
H  37.27000 51.38100 29.12000
H  37.53500 49.70200 29.01900
H  36.93600 51.20800 31.35100
H  37.24800 49.45300 31.26500
H  34.07500 55.63600 22.77900
H  35.35900 55.65300 23.94400
H  33.87500 55.07100 24.43200
H  34.11600 55.61100 20.47300
H  35.52800 55.92100 19.48300
H  35.74800 55.94000 21.29000
H  37.64300 49.12000 19.17000
H  36.50000 46.54600 20.29000
H  34.75900 49.34500 19.32600
H  35.03600 47.69900 18.81600
H  35.61400 48.99900 17.90100
H  38.87300 47.18700 18.94400
H  38.90000 45.93100 20.09000
H  39.37300 48.67100 21.22600
H  40.59700 48.10900 20.04900
H  40.29500 47.31100 21.50800
H  38.64500 43.49900 25.44400
H  37.76800 43.68200 23.96400
H  36.86400 43.40300 25.46000
H  37.16400 47.33900 29.07500
H  33.55000 45.16100 30.45000
H  33.30200 46.67500 31.29400
H  34.26700 45.37100 31.99700

