158

Mg 2.25700 -1.78200 43.73700
C  5.60100 -0.84600 42.91600
C  1.15700 1.15600 42.16700
C  -0.82300 -2.98800 43.96500
C  3.51300 -4.67800 45.18200
N  3.24400 -0.17200 42.45600
C  4.61500 0.07200 42.43600
C  4.93500 1.32700 41.65500
C  3.51400 2.05400 41.75100
C  2.56500 0.98200 42.13000
C  3.48500 3.24400 42.74000
C  5.49500 1.02800 40.26100
C  6.73900 1.84700 39.88600
H  6.62100 2.60900 38.52800
N  0.42400 -1.05400 43.05000
C  0.16100 0.13900 42.42500
C  -1.19800 0.23000 42.21400
C  -1.88000 -0.94200 42.70900
C  -0.73600 -1.73500 43.20200
C  -1.83800 1.46000 41.51000
C  -3.36200 -1.22900 42.60100
O  -4.07300 -0.36400 42.09300
C  -3.95200 -2.46000 43.22100
N  1.47300 -3.66600 44.35500
C  0.15000 -3.79600 44.44500
C  -0.15800 -5.06700 45.22300
C  1.19800 -5.76600 45.42000
C  2.13500 -4.62500 45.05800
C  -0.87500 -4.80800 46.56400
C  1.60800 -7.12800 44.64600
C  1.57900 -8.31500 45.62800
N  4.08400 -2.62700 43.95600
C  4.50100 -3.79300 44.61300
C  5.91100 -3.87600 44.60700
C  6.40400 -2.71500 44.07500
C  5.21100 -2.05200 43.59300
C  6.64100 -5.08500 45.11800
C  7.58000 -1.93100 43.67400
O  8.76200 -2.21300 43.80200
C  7.12200 -0.61500 43.03800
C  7.54500 0.50800 43.90900
O  7.32200 0.63900 45.06400
O  8.21600 1.45700 43.15200
C  8.45500 2.76400 43.76800
H  0.77200 2.07900 41.72900
H  -1.77100 -3.44400 44.25800
H  3.77200 -5.53800 45.80300
H  5.70500 1.86400 42.21000
H  3.29300 2.62800 40.85100
H  4.52500 3.53500 42.89000
H  2.87600 3.09700 43.63200
H  3.10200 4.08100 42.15700
H  4.72800 1.33600 39.55100
H  5.70600 -0.03800 40.18200
H  7.48600 1.05500 39.85300
H  6.93100 2.48000 40.75200
H  -1.21000 2.20300 41.01900
H  -2.37500 1.89900 42.35100
H  -2.48600 1.06000 40.73000
H  -5.02500 -2.35900 43.05800
H  -3.68100 -2.43900 44.27700
H  -3.52200 -3.26600 42.62800
H  -0.70800 -5.62100 44.46200
H  1.26400 -5.91500 46.49700
H  -0.25400 -4.26000 47.27300
H  -1.17400 -5.76700 46.98700
H  -1.79400 -4.23700 46.43600
H  2.67000 -7.16000 44.40500
H  0.96100 -7.27700 43.78100
H  1.67100 -9.27900 45.12600
H  0.71300 -8.21700 46.28200
H  2.47000 -8.33900 46.25600
H  7.64000 -4.78800 45.43800
H  6.62300 -5.86800 44.35900
H  6.11800 -5.24100 46.06100
H  7.48700 -0.39200 42.03500
H  9.12400 2.57500 44.60700
H  7.51600 3.27000 43.99000
H  9.14000 3.28400 43.09700
Mg 46.55800 23.98300 28.22800
C  47.28200 26.24600 30.93400
C  45.90200 21.63600 30.72200
C  46.20000 21.82900 25.90700
C  48.16900 26.18200 26.17700
N  46.52800 23.92100 30.59700
C  46.83200 25.00800 31.39900
C  46.56100 24.65600 32.85900
C  46.49700 23.11300 32.85800
C  46.30200 22.81700 31.34000
C  47.70600 22.33400 33.40600
C  45.34000 25.45000 33.34900
C  45.37100 26.06900 34.74500
H  46.11900 25.28500 35.88700
N  46.04000 22.06800 28.28800
C  45.77200 21.28000 29.37100
C  45.25100 20.04600 28.90500
C  45.26900 20.11000 27.44300
C  45.91600 21.28200 27.14700
C  44.96500 18.90700 29.83000
C  44.66200 19.10800 26.42600
O  44.55000 19.37500 25.23800
C  43.86500 17.93000 26.90400
N  47.19300 24.01400 26.32500
C  46.78800 23.06500 25.50600
C  47.18600 23.25900 24.00400
C  47.78400 24.73400 24.15000
C  47.80000 24.96000 25.67900
C  48.23300 22.20500 23.51000
C  47.09500 25.91000 23.35900
C  45.89800 26.54500 24.04600
N  47.47800 25.92400 28.47200
C  48.03800 26.69100 27.49600
C  48.33700 27.92200 28.07400
C  48.04600 27.88200 29.44100
C  47.52800 26.57300 29.65900
C  48.99900 29.09200 27.31500
C  48.10500 28.59100 30.70900
O  48.52800 29.66000 30.99200
C  47.49100 27.61200 31.69600
C  48.30300 27.53400 32.98000
O  49.22800 26.74500 33.23300
O  47.80200 28.49200 33.82600
C  48.15500 28.29200 35.27400
H  45.63500 20.87700 31.46000
H  45.96400 21.31100 24.97400
H  48.70300 26.79300 25.44500
H  47.37500 24.99900 33.49700
H  45.62100 22.82500 33.43900
H  48.42200 23.05400 33.80300
H  48.18300 21.73000 32.63300
H  47.39600 21.69200 34.23000
H  44.41000 24.88400 33.30000
H  45.16000 26.23200 32.61200
H  44.31500 26.10700 35.01200
H  45.68000 27.10700 34.61500
H  45.12100 17.94300 29.34400
H  43.90400 18.96300 30.07600
H  45.58400 18.90000 30.72800
H  44.53800 17.20300 27.36000
H  43.31700 17.53000 26.05200
H  43.11600 18.32100 27.59200
H  46.29100 23.33900 23.38700
H  48.84100 24.76100 23.88700
H  48.96300 21.91600 24.26600
H  48.78300 22.57600 22.64500
H  47.55000 21.39500 23.25500
H  46.80100 25.58500 22.36100
H  47.88600 26.65500 23.27400
H  45.40200 25.92700 24.79500
H  45.11000 26.86300 23.36300
H  46.22900 27.49800 24.45900
H  48.36200 29.40600 26.48800
H  50.00300 28.86400 26.95700
H  48.97500 29.94300 27.99500
H  46.47400 27.97400 31.85300
H  48.42900 27.25900 35.49000
H  47.29300 28.62000 35.85400
H  48.92700 29.03400 35.47800

