158

Mg 16.95700 -2.13800 28.27400
C  15.83900 -0.06200 31.00000
C  18.74300 -3.79800 30.76600
C  18.27500 -3.84500 25.85500
C  15.32400 0.11100 26.13200
N  17.23200 -1.89200 30.64500
C  16.67900 -1.05100 31.49600
C  17.25400 -1.22700 32.88600
C  18.41900 -2.23600 32.66000
C  18.09500 -2.67700 31.27400
C  19.91500 -1.78900 32.85800
C  16.19500 -1.71800 33.95600
C  15.77200 -0.79200 35.04800
H  16.86700 -0.36200 36.02200
N  18.28800 -3.72100 28.33500
C  18.87500 -4.30600 29.42100
C  19.67500 -5.40400 28.94100
C  19.38800 -5.56400 27.50300
C  18.58600 -4.40700 27.14700
C  20.38200 -6.31800 29.86400
C  19.94500 -6.62600 26.52500
O  19.61700 -6.64700 25.36000
C  20.90200 -7.64800 27.01300
N  16.98100 -1.77500 26.28600
C  17.58900 -2.63400 25.44200
C  17.41200 -2.22600 23.92100
C  16.34600 -1.09600 24.03100
C  16.16100 -0.92100 25.57300
C  18.73300 -1.67000 23.32100
C  15.03500 -1.37600 23.30500
C  13.97300 -2.05200 24.22900
N  15.75300 -0.37900 28.47700
C  15.15600 0.35700 27.51000
C  14.29300 1.31600 28.09900
C  14.58600 1.21600 29.47800
C  15.43500 0.16200 29.63700
C  13.47300 2.32000 27.42900
C  14.25100 1.74200 30.77800
O  13.48200 2.68100 31.09600
C  15.10800 1.00400 31.81000
C  16.03100 2.14900 32.27600
O  17.04700 2.55300 31.70600
O  15.43300 2.71200 33.33100
C  16.01500 4.02100 33.84600
H  19.36400 -4.31100 31.50400
H  18.64600 -4.46600 25.03700
H  14.78600 0.76800 25.44500
H  17.58300 -0.25700 33.25900
H  18.22600 -3.05200 33.35700
H  20.52800 -2.50400 32.30900
H  20.17800 -1.96800 33.90100
H  20.13400 -0.76200 32.56800
H  16.54600 -2.58500 34.51500
H  15.31100 -2.08000 33.43100
H  15.02600 -1.42100 35.53300
H  15.27700 0.03300 34.53700
H  20.59600 -5.82000 30.81000
H  21.35300 -6.62200 29.47300
H  19.85300 -7.21200 30.19500
H  21.29800 -8.14400 26.12700
H  20.38500 -8.35000 27.66800
H  21.76400 -7.23400 27.53600
H  16.99800 -3.04300 23.33000
H  16.72500 -0.09000 23.84900
H  19.32100 -1.18000 24.09700
H  18.57600 -1.03300 22.45000
H  19.35200 -2.51600 23.02400
H  15.29800 -1.93400 22.40700
H  14.60800 -0.47300 22.86900
H  14.37300 -2.68300 25.02200
H  13.33400 -2.70900 23.63800
H  13.31200 -1.33600 24.71700
H  12.86500 2.87200 28.14600
H  12.82100 1.94700 26.63900
H  14.04500 3.09400 26.91700
H  14.51800 0.61300 32.63900
H  15.98700 4.82400 33.10900
H  16.88900 3.87400 34.48000
H  15.28900 4.38200 34.57400
Mg -12.43900 38.92800 41.50200
C  -10.71800 35.95900 40.58000
C  -9.71900 40.80400 40.34300
C  -14.23900 41.64300 41.97900
C  -15.14400 36.88700 42.46900
N  -10.46200 38.45000 40.60500
C  -9.93400 37.15000 40.31100
C  -8.67700 37.19400 39.49200
C  -8.27100 38.65700 39.66900
C  -9.56300 39.41000 40.17400
C  -7.01300 38.80000 40.61700
C  -8.82500 36.71900 38.08800
C  -7.90600 35.60000 37.55500
H  -7.01900 36.04900 36.41100
N  -12.02800 41.03600 41.26100
C  -10.87800 41.58900 40.80000
C  -11.06400 43.03300 40.64600
C  -12.34700 43.37400 41.11700
C  -12.91500 41.96800 41.52000
C  -10.06500 43.96500 39.89800
C  -13.04100 44.68900 41.04800
O  -12.48400 45.71700 40.64100
C  -14.37800 44.79100 41.60000
N  -14.42600 39.19800 42.04000
C  -14.84000 40.41800 42.38200
C  -16.18600 40.42500 43.13000
C  -16.51200 38.91800 43.09700
C  -15.28000 38.27300 42.52300
C  -16.24900 41.17900 44.52800
C  -17.79800 38.39100 42.32700
C  -18.72600 37.61400 43.23400
N  -12.83200 36.92000 41.75900
C  -13.98300 36.25100 42.04900
C  -13.78900 34.81500 41.98100
C  -12.53800 34.69900 41.38000
C  -11.93300 36.01200 41.30000
C  -14.78200 33.78400 42.38800
C  -11.58800 33.67700 40.81800
O  -11.59800 32.46900 40.65900
C  -10.31100 34.50900 40.50700
C  -9.35700 34.02800 41.56600
O  -9.63900 33.48800 42.63900
O  -8.12400 34.27500 41.15400
C  -7.11600 34.35900 42.24400
H  -8.83000 41.37100 40.05800
H  -14.96900 42.40100 42.27100
H  -15.91800 36.29500 42.96300
H  -7.97100 36.52800 39.98800
H  -7.98600 39.11900 38.72400
H  -6.67200 37.81000 40.91800
H  -7.34400 39.28900 41.53300
H  -6.28300 39.43100 40.11100
H  -8.58800 37.58100 37.46400
H  -9.84800 36.41200 37.86900
H  -8.63900 34.85500 37.24700
H  -7.21900 35.18200 38.29100
H  -10.30800 44.29300 38.88700
H  -9.08400 43.52500 39.71900
H  -9.87000 44.80100 40.56900
H  -14.72100 45.82500 41.64100
H  -14.23300 44.39900 42.60700
H  -15.12400 44.13500 41.15200
H  -16.85300 40.89300 42.40600
H  -16.52800 38.58300 44.13400
H  -15.53600 40.64700 45.15800
H  -17.22500 41.21600 45.01100
H  -15.82900 42.17500 44.38100
H  -17.50600 37.76500 41.48400
H  -18.16200 39.32800 41.90400
H  -19.06700 36.83600 42.55100
H  -19.59500 38.19900 43.53300
H  -18.22400 37.20900 44.11300
H  -15.80100 34.06800 42.12700
H  -14.77500 33.64200 43.46900
H  -14.54800 32.81300 41.95300
H  -9.96200 34.15500 39.53700
H  -7.14500 33.43100 42.81500
H  -7.32200 35.11400 43.00200
H  -6.09000 34.52700 41.91500

