158

Mg 17.18200 -2.16400 27.16200
C  16.32400 0.19900 29.67500
C  19.01200 -3.88000 29.47200
C  18.32800 -3.97400 24.66100
C  16.00500 0.31600 24.80200
N  17.51700 -1.94200 29.29400
C  17.12500 -0.86600 30.11700
C  17.58800 -1.15000 31.54300
C  18.54000 -2.37700 31.39500
C  18.32900 -2.75800 29.91300
C  20.04100 -2.22400 31.78200
C  16.40500 -1.50100 32.55700
C  16.50800 -0.94000 34.03400
H  17.93800 -0.59700 34.50900
N  18.32900 -3.79700 27.04000
C  19.00900 -4.36400 28.13300
C  19.58900 -5.67500 27.79600
C  19.53800 -5.60200 26.31600
C  18.71500 -4.46100 25.94800
C  20.27600 -6.52800 28.76500
C  20.31600 -6.45400 25.38200
O  20.30100 -6.33800 24.17500
C  21.12600 -7.65700 25.93000
N  17.21200 -1.85700 25.05100
C  17.71400 -2.79200 24.22200
C  17.65800 -2.26600 22.73800
C  16.82400 -0.99900 22.86700
C  16.67900 -0.82000 24.35500
C  19.09100 -1.99200 22.19000
C  15.47400 -1.19600 22.09900
C  15.21600 -0.15500 20.96700
N  16.21900 -0.25400 27.22300
C  15.75000 0.56200 26.16800
C  15.12600 1.71700 26.73000
C  15.23900 1.59100 28.16200
C  15.92100 0.37300 28.39600
C  14.35700 2.75800 26.02700
C  15.06300 2.24800 29.46900
O  14.56100 3.32500 29.73500
C  15.72500 1.32900 30.54500
C  16.69500 2.08500 31.41100
O  17.78100 2.55100 31.09500
O  16.12400 2.25800 32.63900
C  16.84000 3.18300 33.53000
H  19.53400 -4.44600 30.24600
H  18.66100 -4.66900 23.88800
H  15.67800 1.06600 24.07800
H  18.23700 -0.30500 31.77200
H  18.14500 -3.15500 32.04800
H  20.34100 -3.15500 32.26300
H  20.15400 -1.38300 32.46700
H  20.70900 -2.05000 30.93900
H  16.24700 -2.56500 32.73200
H  15.49600 -1.09600 32.11100
H  16.13400 -1.57100 34.84100
H  15.93500 -0.01300 34.04400
H  20.58400 -7.52600 28.45200
H  19.62200 -6.69800 29.62000
H  21.19100 -6.06300 29.13200
H  21.53800 -8.13300 25.04000
H  20.48000 -8.36400 26.45100
H  21.90900 -7.27900 26.58700
H  17.18500 -2.99900 22.08500
H  17.14800 -0.01900 22.51800
H  19.93800 -1.99200 22.87600
H  19.12400 -0.96800 21.81700
H  19.41300 -2.69500 21.42100
H  14.60600 -1.12500 22.75500
H  15.43600 -2.11700 21.51600
H  16.19000 0.06300 20.53000
H  14.70500 0.76300 21.25700
H  14.55400 -0.54700 20.19500
H  13.98900 2.39700 25.06700
H  14.89500 3.69900 25.90900
H  13.43100 2.96700 26.56400
H  14.88300 0.94700 31.12100
H  16.25100 3.49800 34.39100
H  17.33300 4.03400 33.05900
H  17.66200 2.77700 34.12000
Mg 47.47600 24.18300 27.76400
C  47.91400 26.48700 30.50100
C  46.72500 21.84800 30.12000
C  47.41600 21.93200 25.34800
C  48.59300 26.64000 25.58700
N  47.44200 24.20200 30.09400
C  47.42300 25.24800 30.95200
C  47.09300 24.86100 32.39700
C  46.74300 23.27600 32.25800
C  46.95200 23.10000 30.72700
C  47.42100 22.28500 33.30500
C  46.00600 25.73200 33.07300
C  46.33900 26.06700 34.58600
H  45.16000 26.11800 35.52200
N  47.05700 22.18100 27.66300
C  46.78200 21.40900 28.77600
C  46.45000 20.08900 28.33600
C  46.59400 20.04800 26.92400
C  47.03600 21.38500 26.55300
C  46.03900 18.88000 29.29000
C  46.41300 18.86300 25.93100
O  46.50600 18.94800 24.72500
C  46.08000 17.45700 26.43600
N  47.95600 24.27000 25.80200
C  47.79900 23.25300 24.97400
C  48.36000 23.58100 23.53200
C  48.51800 25.12900 23.62300
C  48.33800 25.37900 25.06900
C  49.67300 22.86900 23.07700
C  47.41500 25.85300 22.78600
C  46.06600 26.01200 23.46600
N  48.33300 26.07100 27.94700
C  48.60300 27.00100 26.94700
C  49.05200 28.21000 27.57200
C  48.81100 28.09600 28.97400
C  48.33700 26.75000 29.14000
C  49.61100 29.44900 26.97000
C  48.79800 28.76700 30.31900
O  49.19700 29.90900 30.66800
C  48.18500 27.76400 31.33600
C  49.03200 27.47400 32.53000
O  49.94500 26.73700 32.56700
O  48.66200 28.19100 33.60900
C  49.46400 28.25700 34.82100
H  46.29200 21.13500 30.82400
H  47.39500 21.18100 24.55500
H  48.85900 27.43400 24.88700
H  48.02600 24.85100 32.96000
H  45.67500 23.06400 32.31500
H  46.52700 21.76200 33.64700
H  48.09500 22.58000 34.10900
H  47.90800 21.55200 32.66300
H  45.04400 25.22300 33.12300
H  45.71300 26.64600 32.55800
H  46.81500 27.03400 34.75000
H  47.02000 25.28700 34.92800
H  46.60900 18.00300 28.98400
H  44.96200 18.72100 29.22800
H  46.34500 19.11600 30.30900
H  45.93200 16.72900 25.63800
H  45.15800 17.56700 27.00700
H  47.00000 17.21000 26.96600
H  47.61400 23.26700 22.80100
H  49.47500 25.48400 23.24300
H  49.58500 22.08700 22.32300
H  50.05200 22.36300 23.96500
H  50.38800 23.61800 22.73900
H  47.34200 25.15200 21.95500
H  47.87500 26.82800 22.61900
H  45.99300 25.23300 24.22500
H  45.34600 25.69000 22.71400
H  45.82100 27.00400 23.84400
H  48.93000 30.28800 27.11600
H  49.93500 29.41600 25.93000
H  50.47200 29.76400 27.56100
H  47.22500 28.11300 31.71800
H  50.39000 27.69000 34.72000
H  48.93700 27.63600 35.54500
H  49.68100 29.24200 35.23500

