158

Mg 16.68400 -2.70900 28.15600
C  15.37300 -0.29000 30.38600
C  18.65900 -4.10000 30.59500
C  18.26800 -4.57800 25.71600
C  15.37600 -0.65400 25.57100
N  16.93300 -2.25400 30.25200
C  16.29600 -1.22600 31.00000
C  16.80800 -1.25100 32.42200
C  17.86500 -2.38600 32.42400
C  17.87200 -2.95700 30.97300
C  19.19100 -1.85400 32.92200
C  15.65700 -1.42100 33.52100
C  15.46800 -0.49900 34.71200
H  16.83900 0.11300 35.26100
N  18.02600 -4.16800 28.18600
C  18.62100 -4.72500 29.32400
C  19.41700 -5.91800 28.94100
C  19.36900 -6.05600 27.50100
C  18.51700 -4.90800 27.06100
C  20.25900 -6.66200 29.93500
C  20.06700 -7.04500 26.54800
O  19.84800 -7.11000 25.34500
C  21.07100 -8.10900 27.18000
N  16.76800 -2.62800 25.93400
C  17.46700 -3.53600 25.18400
C  17.43300 -3.20000 23.70100
C  16.38200 -2.09600 23.61900
C  16.13800 -1.77100 25.13700
C  18.76600 -2.90900 23.09500
C  15.06000 -2.42700 22.91900
C  14.17600 -1.39600 22.37800
N  15.46200 -0.91900 27.99500
C  14.97000 -0.20900 26.89600
C  14.09900 0.89100 27.26600
C  14.16900 0.84500 28.66700
C  15.02900 -0.23600 29.04400
C  13.50200 1.84700 26.28300
C  13.79800 1.51300 29.87800
O  13.02200 2.47500 29.98300
C  14.50000 0.76100 30.99100
C  15.21100 1.89200 31.70600
O  16.34400 2.36100 31.48600
O  14.47600 2.36900 32.67900
C  15.00900 3.36800 33.57200
H  19.28600 -4.70300 31.25500
H  18.79700 -5.12700 24.93500
H  15.01000 0.00900 24.78400
H  17.30800 -0.29500 32.57700
H  17.42700 -3.10900 33.11100
H  19.29200 -0.77400 32.81700
H  19.93300 -2.35000 32.29700
H  19.32300 -2.07900 33.98000
H  15.56600 -2.45400 33.86000
H  14.75400 -1.19500 32.95400
H  14.91100 -1.20400 35.33000
H  14.84200 0.35700 34.46100
H  20.31300 -7.74100 29.79100
H  19.76200 -6.55800 30.89900
H  21.19200 -6.10000 29.98000
H  21.64200 -7.61400 27.96500
H  21.74600 -8.47800 26.40700
H  20.60500 -9.01500 27.56600
H  16.97700 -4.09400 23.27500
H  16.74500 -1.17300 23.16700
H  19.44600 -2.68600 23.91600
H  18.62700 -1.97900 22.54300
H  19.04900 -3.78700 22.51400
H  14.42000 -3.06400 23.53100
H  15.32900 -2.98100 22.02000
H  14.20700 -1.40000 21.28800
H  14.45900 -0.37500 22.63500
H  13.19400 -1.72600 22.71700
H  12.92700 1.33700 25.51000
H  14.27800 2.52200 25.92100
H  12.80800 2.56300 26.72400
H  13.83000 0.23300 31.67000
H  15.50100 2.97700 34.46300
H  14.12300 3.91500 33.89400
H  15.56500 4.09200 32.97500
Mg 43.79400 3.91000 47.14100
C  41.75300 6.85000 46.96900
C  40.74100 2.01000 47.08200
C  45.39600 1.04600 46.50700
C  46.55400 5.79200 46.71500
N  41.49600 4.39500 47.13600
C  40.95700 5.64900 47.08300
C  39.38100 5.56200 47.23900
C  39.17800 4.03500 47.29300
C  40.55800 3.42200 47.10500
C  38.44400 3.43900 48.56100
C  38.57200 6.27700 46.13100
C  38.67100 5.74600 44.76800
H  38.65000 6.73000 43.61000
N  43.22700 1.79800 46.93500
C  41.94900 1.24300 46.90300
C  42.01200 -0.18000 46.69200
C  43.41700 -0.51500 46.52800
C  44.08900 0.78200 46.56200
C  40.84300 -1.05400 46.39800
C  43.96700 -1.92900 46.24400
O  43.28000 -2.94600 46.19600
C  45.50000 -2.22000 45.91800
N  45.68000 3.52900 46.37900
C  46.13900 2.18600 46.52400
C  47.66400 2.22500 46.55200
C  48.04900 3.75800 46.73200
C  46.71600 4.42700 46.65800
C  48.25600 1.30400 47.63200
C  49.08300 4.31600 45.67100
C  50.49800 4.31500 46.25400
N  44.17300 5.92400 46.69300
C  45.38600 6.58900 46.68100
C  45.18500 7.99200 46.70300
C  43.79500 8.15800 46.89200
C  43.19500 6.87100 46.84500
C  46.25400 8.94000 46.56300
C  42.75700 9.11100 47.00700
O  42.75200 10.34500 47.07400
C  41.47200 8.27400 47.07400
C  40.71600 8.65800 48.33700
O  40.85800 8.10800 49.42300
O  39.88000 9.64800 48.04200
C  39.17300 10.24300 49.13900
H  39.81400 1.44400 47.19000
H  45.97800 0.12800 46.40100
H  47.53000 6.28100 46.68800
H  39.17600 5.99700 48.21700
H  38.58200 3.70200 46.44300
H  38.14000 4.35500 49.06600
H  39.12400 2.79300 49.11600
H  37.54700 2.88200 48.28800
H  38.90700 7.30600 46.00800
H  37.52100 6.23700 46.41900
H  37.70700 5.28300 44.56000
H  39.43500 4.97700 44.65800
H  41.07000 -1.63800 45.50600
H  39.98400 -0.42500 46.16600
H  40.42300 -1.59000 47.24900
H  45.62800 -1.64100 45.00300
H  45.56400 -3.23200 45.51900
H  46.16900 -2.10100 46.77000
H  47.89500 1.79800 45.57600
H  48.45300 3.93800 47.72800
H  49.24900 1.66800 47.89500
H  48.35900 0.26400 47.32100
H  47.67100 1.23500 48.54900
H  48.89400 5.33500 45.33600
H  49.07500 3.65300 44.80500
H  50.44100 4.15000 47.33000
H  50.90600 5.29200 45.99600
H  51.07700 3.46300 45.89700
H  47.15000 8.44300 46.19200
H  46.36600 9.39800 47.54600
H  45.94800 9.65500 45.80000
H  40.83500 8.42700 46.20200
H  39.81000 10.30900 50.02200
H  38.42600 9.50700 49.43600
H  38.58500 11.11500 48.85400

