158

Mg 46.98600 34.91000 27.98100
C  45.27400 33.02600 30.33000
C  47.24100 37.46500 30.34800
C  48.12200 36.78500 25.61700
C  46.42000 32.29900 25.64600
N  46.19900 35.23100 29.96800
C  45.66500 34.27500 30.82300
C  45.73000 34.73800 32.29400
C  45.86300 36.24800 32.10400
C  46.42300 36.36500 30.69300
C  44.50900 37.03700 32.23400
C  47.02800 34.12700 32.88400
C  47.06600 33.89300 34.38800
H  46.05600 34.71300 35.32200
N  47.68700 36.86000 28.02800
C  47.80900 37.73100 29.07800
C  48.46100 39.00100 28.61600
C  48.88900 38.71100 27.29500
C  48.21700 37.43400 26.90800
C  48.74200 40.09200 29.52900
C  49.74700 39.59800 26.37300
O  49.94000 39.13000 25.26000
C  50.16500 40.95100 26.73500
N  47.11900 34.61000 25.91400
C  47.68300 35.54000 25.15700
C  47.62500 35.14700 23.61700
C  47.43200 33.67700 23.74200
C  46.91600 33.47500 25.19600
C  46.35200 35.90500 22.97800
C  48.56900 32.70300 23.37300
C  50.09500 33.15700 23.43600
N  46.23200 32.91300 27.98500
C  46.06900 32.00800 26.94600
C  45.44200 30.76800 27.49700
C  45.11100 31.06400 28.81000
C  45.56600 32.40700 29.02300
C  45.14700 29.57300 26.59500
C  44.42900 30.66600 29.98900
O  43.80100 29.63600 30.23100
C  44.48000 31.91500 31.01600
C  44.92400 31.40200 32.32300
O  45.91800 30.78300 32.52800
O  44.01800 31.72600 33.25100
C  44.26500 31.03000 34.47600
H  47.27400 38.31200 31.03700
H  48.49900 37.34600 24.76000
H  46.23000 31.49100 24.93700
H  44.89000 34.31500 32.84600
H  46.60500 36.67800 32.77700
H  44.14700 37.61500 31.38400
H  44.55200 37.70400 33.09500
H  43.83500 36.25100 32.57600
H  47.81400 34.88000 32.82900
H  47.38200 33.18400 32.46900
H  48.05500 34.05200 34.81700
H  46.68800 32.88600 34.56600
H  49.81500 40.00700 29.70200
H  48.23300 40.08600 30.49300
H  48.51100 41.07000 29.10600
H  49.40800 41.61600 27.15000
H  50.65800 41.44500 25.89800
H  50.95200 40.78300 27.46900
H  48.53500 35.46200 23.10500
H  46.51800 33.39300 23.22000
H  46.80500 36.61600 22.28600
H  45.74400 36.38800 23.74200
H  45.73100 35.30900 22.30900
H  48.45500 32.44400 22.32000
H  48.47100 31.79000 23.96000
H  50.19300 34.17500 23.81000
H  50.46800 33.09600 22.41400
H  50.83800 32.54700 23.95100
H  45.95000 29.45300 25.86800
H  44.18500 29.64900 26.08900
H  45.10000 28.61900 27.12100
H  43.43100 32.20200 31.07800
H  43.46200 31.04700 35.21300
H  45.15200 31.53000 34.86500
H  44.43400 29.97800 34.24200
Mg 25.82000 52.05200 26.06600
C  23.91600 52.60000 28.94200
C  28.62000 51.84600 28.25700
C  27.86300 52.01800 23.41700
C  23.16400 52.83700 24.13900
N  26.17400 52.24200 28.37200
C  25.25900 52.38600 29.31500
C  25.80500 52.20500 30.68200
C  27.28900 51.88300 30.46500
C  27.37900 52.00500 28.95900
C  28.17100 52.84000 31.28300
C  25.13300 50.98600 31.48900
C  25.58100 50.85700 32.97300
H  24.81200 51.74400 33.95500
N  27.90900 51.97400 25.84000
C  28.83700 51.81000 26.82800
C  30.14100 51.73900 26.21000
C  29.98300 51.67800 24.83400
C  28.52900 51.88200 24.62400
C  31.36700 51.76700 27.10500
C  30.94900 51.54400 23.67500
O  30.64600 51.65600 22.47100
C  32.39000 51.26700 23.92600
N  25.58700 52.54000 24.14300
C  26.52500 52.37200 23.15900
C  25.99200 52.69400 21.78800
C  24.45800 52.62000 22.06400
C  24.41100 52.68500 23.55100
C  26.59000 53.93100 21.01100
C  23.65300 51.44600 21.36900
C  23.65400 51.34400 19.80600
N  23.87900 52.48400 26.34900
C  22.87700 52.78700 25.49000
C  21.66900 53.10400 26.13900
C  22.05000 53.05500 27.55400
C  23.42800 52.73200 27.61100
C  20.32800 53.52600 25.49300
C  21.59300 53.23300 28.90700
O  20.46000 53.62000 29.19300
C  22.73400 52.88500 29.87800
C  23.04200 54.07200 30.65500
O  23.69100 55.04500 30.26600
O  22.44700 54.08200 31.85200
C  22.58200 55.39300 32.61200
H  29.47200 51.69700 28.92400
H  28.45800 52.01600 22.50200
H  22.31600 52.92200 23.45700
H  25.72200 53.17000 31.18000
H  27.64700 50.88000 30.69900
H  27.76800 53.15600 32.24400
H  28.38100 53.78700 30.78500
H  29.11100 52.29200 31.35400
H  25.20100 50.04000 30.95200
H  24.04600 51.05600 31.49400
H  26.62100 51.18400 32.94200
H  25.55200 49.80100 33.24200
H  32.23800 52.30000 26.72300
H  31.63500 50.72600 27.28400
H  31.16700 52.32500 28.02000
H  32.66200 52.32100 23.98900
H  32.86200 50.78500 23.07000
H  32.61200 50.79900 24.88500
H  26.22600 51.82700 21.17000
H  24.16400 53.58100 21.64200
H  27.34600 54.29200 21.70900
H  25.90800 54.75500 20.80200
H  27.10200 53.83600 20.05400
H  22.65100 51.38600 21.79500
H  24.07500 50.53200 21.78800
H  24.24400 50.47600 19.51100
H  23.96000 52.31900 19.42700
H  22.66600 51.18700 19.37500
H  19.65900 53.34900 26.33500
H  20.29000 52.81800 24.66500
H  20.31600 54.53600 25.08300
H  22.55700 52.07300 30.58400
H  22.36400 56.27400 32.00900
H  23.36800 55.55200 33.35000
H  21.68900 55.37800 33.23700

