158

Mg 8.76800 2.64400 26.71000
C  10.11500 1.27400 29.65400
C  6.90400 4.70300 28.57400
C  7.35500 3.57100 23.87600
C  10.44400 -0.14100 25.03600
N  8.67600 2.98700 28.92900
C  9.32300 2.37500 29.91900
C  9.02600 3.04000 31.24400
C  7.89600 4.05600 30.89700
C  7.80300 3.97500 29.41200
C  6.47700 3.87800 31.64000
C  10.29000 3.63800 31.89400
C  10.20000 4.56700 33.11400
H  10.67500 3.96100 34.49800
N  7.36700 4.01400 26.30300
C  6.72500 4.80400 27.21700
C  5.78100 5.70400 26.47700
C  5.91000 5.40500 25.06200
C  6.85900 4.25400 25.02400
C  4.93200 6.66700 27.10900
C  5.13600 5.98300 23.87500
O  5.02400 5.41400 22.76300
C  4.37700 7.26900 24.07000
N  8.85900 1.68900 24.78100
C  8.17400 2.37900 23.74600
C  8.53600 1.81800 22.38900
C  9.47400 0.55400 22.69600
C  9.58900 0.68100 24.24100
C  7.25100 1.44500 21.47500
C  10.91800 0.76800 21.91000
C  11.31900 -0.36900 21.03400
N  10.11900 0.98000 27.15600
C  10.62000 -0.01900 26.39800
C  11.59800 -0.73800 27.17000
C  11.41700 -0.32600 28.45600
C  10.42900 0.71400 28.42900
C  12.41000 -1.85000 26.66500
C  11.65600 -0.67100 29.78900
O  12.30900 -1.56600 30.27100
C  10.91900 0.44400 30.71700
C  10.07100 -0.11800 31.79600
O  8.96500 -0.67300 31.61700
O  10.64700 0.05500 33.04000
C  10.04700 -0.55700 34.20700
H  6.40700 5.35500 29.29500
H  6.83800 3.62700 22.91600
H  10.86100 -0.98500 24.48200
H  8.64400 2.31200 31.96000
H  8.19800 5.09500 31.03700
H  6.60400 3.48700 32.64900
H  5.83200 3.36700 30.92400
H  6.07500 4.85500 31.90800
H  10.87000 4.06300 31.07500
H  10.80000 2.79100 32.35300
H  9.16700 4.87600 33.27500
H  10.69800 5.51000 32.88900
H  4.92000 6.73700 28.19700
H  3.88800 6.56200 26.81500
H  5.25200 7.62200 26.69200
H  3.97600 7.47900 23.07900
H  5.18600 7.97000 24.27600
H  3.58100 7.23500 24.81400
H  9.00600 2.63500 21.84000
H  8.98100 -0.39900 22.50600
H  6.32500 1.71000 21.98600
H  7.26000 0.35600 21.45000
H  7.40000 1.81900 20.46200
H  11.69600 1.02100 22.63000
H  10.88000 1.62800 21.24200
H  10.73600 -1.28500 21.13000
H  12.35900 -0.60900 21.25500
H  11.23900 -0.09900 19.98100
H  12.61600 -1.74700 25.60000
H  11.84300 -2.74200 26.93300
H  13.33700 -1.83200 27.23800
H  11.78200 0.95700 31.14200
H  8.96000 -0.53600 34.12800
H  10.23800 -0.05500 35.15600
H  10.46800 -1.53400 34.44700
Mg 17.12800 -2.19300 28.11700
C  15.88200 -0.03100 30.44800
C  19.06800 -3.60400 30.58300
C  18.81900 -3.93500 25.90800
C  15.64200 -0.37800 25.67400
N  17.57100 -1.73100 30.20400
C  16.75300 -0.97200 30.96700
C  17.04800 -1.14800 32.42100
C  18.33400 -1.96700 32.43200
C  18.39200 -2.46300 31.01400
C  19.61200 -1.15500 32.77700
C  15.87700 -1.68800 33.33600
C  15.78200 -1.48000 34.88900
H  17.00700 -0.80300 35.67800
N  18.46000 -3.77700 28.26400
C  19.14300 -4.20900 29.33700
C  19.83200 -5.38700 29.06500
C  19.80400 -5.56200 27.62600
C  18.97200 -4.40600 27.22700
C  20.48200 -6.20700 30.13600
C  20.45600 -6.55500 26.66400
O  20.44300 -6.53000 25.44300
C  21.23500 -7.65700 27.22600
N  17.24000 -2.15300 26.15200
C  17.96200 -3.01000 25.40100
C  17.75600 -2.74900 23.85400
C  16.67700 -1.60000 23.88000
C  16.47800 -1.39900 25.31600
C  19.15700 -2.49100 23.07500
C  15.46700 -1.80400 22.84100
C  15.23700 -0.57100 21.90600
N  15.93200 -0.58100 27.99500
C  15.31900 0.03800 26.95800
C  14.43600 1.11200 27.40700
C  14.70600 1.12200 28.79600
C  15.56500 0.06600 29.09100
C  13.62600 1.98900 26.55100
C  14.35300 1.83000 30.03900
O  13.74400 2.91900 30.17100
C  15.08900 1.00600 31.19900
C  16.04400 1.98200 31.70400
O  17.01100 2.39800 31.12700
O  15.56900 2.52400 32.87600
C  16.47000 3.40300 33.56400
H  19.60600 -4.05000 31.42200
H  19.34700 -4.59300 25.21500
H  15.04700 0.24600 25.00400
H  17.29900 -0.17800 32.85100
H  18.18500 -2.71600 33.21000
H  20.36000 -1.56900 32.10000
H  20.08900 -1.35400 33.73600
H  19.47300 -0.07700 32.70700
H  15.81400 -2.77000 33.22000
H  14.87200 -1.32200 33.12800
H  15.52700 -2.42800 35.36200
H  14.92400 -0.82500 35.04300
H  20.47600 -5.83500 31.16100
H  21.50300 -6.46400 29.85500
H  19.98400 -7.17600 30.14100
H  22.10500 -7.27100 27.75800
H  21.61400 -8.19500 26.35800
H  20.52900 -8.27500 27.78200
H  17.26200 -3.65600 23.50700
H  17.28500 -0.73600 23.61100
H  19.37400 -1.42400 23.03500
H  18.98900 -2.91800 22.08600
H  19.98600 -2.97100 23.59600
H  14.56900 -1.82900 23.45800
H  15.59000 -2.75000 22.31400
H  14.38200 -0.00200 22.26900
H  15.10500 -0.92300 20.88300
H  16.10600 0.08600 21.94700
H  14.22600 2.84400 26.24000
H  12.77500 2.29300 27.16000
H  13.23700 1.37400 25.73900
H  14.52300 0.70900 32.08200
H  16.98500 2.77800 34.29300
H  15.76800 4.10600 34.01100
H  17.22100 3.94300 32.98700

