158

Mg 53.79900 24.69400 44.65300
C  50.89100 26.42300 43.82800
C  52.62100 21.86500 43.13000
C  56.87300 23.24900 44.88300
C  55.15100 27.79400 45.67600
N  52.09600 24.25800 43.38800
C  50.97900 25.14600 43.28100
C  49.87500 24.51700 42.34700
C  50.21400 23.01400 42.49300
C  51.72700 22.96600 43.02900
C  49.24700 22.20100 43.44600
C  49.98200 25.03400 40.91400
C  48.57400 25.36000 40.20600
H  48.17900 24.46700 39.02300
N  54.69200 22.81300 44.12600
C  53.99500 21.75300 43.64900
C  54.78500 20.55900 43.60800
C  56.00300 20.86600 44.12300
C  55.93400 22.37300 44.37900
C  54.26100 19.17200 43.16900
C  57.25900 19.94500 44.35900
O  57.18300 18.71100 44.11100
C  58.66900 20.45800 44.77500
N  55.70900 25.42100 44.96400
C  56.82000 24.58800 45.07900
C  58.10400 25.37200 45.48100
C  57.58000 26.89200 45.63800
C  56.03800 26.73500 45.44800
C  58.93600 24.94100 46.70600
C  58.12200 27.83200 44.53600
C  59.13700 28.85400 44.95900
N  53.15600 26.77800 44.82100
C  53.77300 27.85000 45.37700
C  52.84800 28.95700 45.43200
C  51.61700 28.42200 44.90700
C  51.88200 27.14500 44.48900
C  53.17300 30.22100 46.03800
C  50.29100 28.73700 44.59400
O  49.65000 29.80000 44.70500
C  49.73600 27.46200 43.88100
C  49.29400 27.98100 42.59700
O  50.03200 28.36200 41.65300
O  47.89500 28.09600 42.57000
C  47.30800 28.68900 41.39000
H  52.13700 20.95000 42.78200
H  57.89400 22.86800 44.95900
H  55.68600 28.70300 45.96000
H  48.88100 24.71800 42.74800
H  50.20600 22.50700 41.52800
H  48.64100 21.55700 42.81000
H  48.63300 22.96600 43.92300
H  49.70000 21.50800 44.15500
H  50.50200 24.24000 40.37700
H  50.57300 25.94000 40.78000
H  48.85000 26.27600 39.68400
H  47.77400 25.47300 40.93800
H  54.74800 18.98000 42.21400
H  53.17200 19.21800 43.14200
H  54.56700 18.47300 43.94700
H  59.19600 21.05000 44.02700
H  59.26300 19.54700 44.85500
H  58.60100 20.94700 45.74700
H  58.85400 25.24500 44.70000
H  57.72600 27.29300 46.64100
H  59.80100 24.30000 46.53700
H  58.30500 24.32000 47.34100
H  59.35900 25.78800 47.24600
H  57.28000 28.48500 44.30500
H  58.43400 27.33700 43.61700
H  59.25800 29.55200 44.13100
H  60.12300 28.39400 45.01600
H  58.94400 29.32200 45.92400
H  54.06100 30.06400 46.65000
H  52.31000 30.56100 46.61000
H  53.33300 31.03000 45.32500
H  48.88900 27.13100 44.48100
H  47.06000 27.88800 40.69300
H  47.85000 29.55400 41.00900
H  46.38800 29.17600 41.71500
Mg 41.18700 40.74400 26.44200
C  40.38800 43.60300 28.56900
C  41.81600 39.07900 29.33100
C  42.24300 38.16600 24.59700
C  40.93400 42.90400 23.74400
N  41.04100 41.38400 28.73500
C  40.61500 42.44600 29.34800
C  40.60000 42.37700 30.83900
C  41.16800 40.94200 30.99300
C  41.34100 40.37200 29.64300
C  42.39900 40.89100 31.90600
C  39.14300 42.47000 31.33600
C  38.98000 43.17200 32.69900
H  38.23600 42.36300 33.83000
N  41.82700 38.78000 26.90500
C  42.05400 38.28600 28.14600
C  42.61000 36.95200 27.99900
C  42.56500 36.59300 26.60300
C  42.24900 37.85800 25.98400
C  43.00100 36.04600 29.22100
C  42.81400 35.29000 25.92100
O  42.88700 35.22900 24.69300
C  43.12200 34.12800 26.64200
N  41.56000 40.59800 24.54600
C  41.91600 39.38800 23.98100
C  41.97200 39.44200 22.43400
C  41.38600 40.85400 22.13300
C  41.25900 41.57000 23.52500
C  43.38600 39.08600 21.89400
C  40.03600 40.76200 21.26300
C  38.64900 41.12100 21.85400
N  40.81600 42.83900 26.30100
C  40.71700 43.52100 25.09700
C  40.43000 44.96700 25.30000
C  40.31200 45.06500 26.75000
C  40.56100 43.74600 27.27800
C  40.41000 45.97500 24.17200
C  40.03300 45.92200 27.81100
O  39.89200 47.11100 27.84700
C  40.10300 44.99500 29.09900
C  40.99400 45.55200 30.13000
O  42.18800 45.57900 30.13900
O  40.20100 46.03600 31.16500
C  40.92600 46.44900 32.40600
H  41.88700 38.56700 30.29300
H  42.47000 37.35900 23.89700
H  40.82100 43.56700 22.88400
H  41.23700 43.20900 31.14000
H  40.46600 40.26800 31.48300
H  42.57500 41.88500 32.31800
H  43.28900 40.64100 31.32800
H  42.36100 40.31900 32.83200
H  38.84600 41.45600 31.60500
H  38.45200 42.77900 30.55100
H  38.31000 44.01300 32.52100
H  39.98900 43.45300 33.00100
H  43.97200 35.67100 28.89700
H  42.27800 35.24000 29.34200
H  43.16400 36.61200 30.13800
H  42.30100 34.01400 27.35000
H  44.08400 34.24000 27.14200
H  43.07600 33.29100 25.94500
H  41.31200 38.65300 22.07200
H  42.09100 41.40300 21.50900
H  44.14800 39.59200 22.48600
H  43.55700 39.40400 20.86600
H  43.56500 38.01600 22.00300
H  39.98800 39.80800 20.73900
H  40.27100 41.42900 20.43400
H  38.81800 41.27600 22.92000
H  37.99000 40.27000 21.68400
H  38.23700 42.07300 21.52000
H  40.07800 46.90900 24.62700
H  39.75700 45.59900 23.38400
H  41.38900 46.17500 23.73800
H  39.07600 44.88200 29.44400
H  41.96100 46.72400 32.20300
H  40.84300 45.60300 33.09000
H  40.39900 47.20900 32.98200

