158

Mg 6.77500 53.70900 40.71700
C  6.94800 50.11900 40.56100
C  10.12100 53.71100 39.78800
C  6.44000 56.89300 40.13700
C  3.34600 53.27800 41.57100
N  8.26300 52.07400 40.23700
C  8.11200 50.72600 40.23400
C  9.49000 50.06700 39.69900
C  10.51600 51.18400 39.85300
C  9.58300 52.42800 39.95400
C  11.44500 51.16700 41.10900
C  9.44800 49.45500 38.28500
C  9.10000 50.47200 37.17600
H  7.64000 50.75100 36.72900
N  8.08600 55.11400 39.96900
C  9.46700 54.92200 39.79700
C  10.02800 56.23300 39.70400
C  8.96700 57.14500 39.58300
C  7.75100 56.39900 39.85900
C  11.58900 56.46900 39.54100
C  9.15500 58.62500 39.40300
O  10.25000 59.20600 39.31800
C  7.98100 59.63600 39.10800
N  4.95400 54.81600 40.55500
C  5.24100 56.21800 40.59000
C  3.89300 56.98000 40.83200
C  2.96500 55.90800 41.41800
C  3.76600 54.53700 41.19600
C  4.10500 58.31100 41.72900
C  1.61600 55.84500 40.69400
C  0.44300 56.80800 41.18900
N  5.37900 52.11000 41.00800
C  4.05300 52.07500 41.44900
C  3.68000 50.71300 41.82600
C  4.74300 49.93200 41.39500
C  5.75800 50.79400 40.90600
C  2.43000 50.32500 42.53300
C  5.18500 48.66700 41.32900
O  4.59700 47.62500 41.58700
C  6.48500 48.69700 40.56800
C  6.06900 48.28100 39.21900
O  5.32000 48.92200 38.46600
O  6.50500 47.00000 39.03800
C  5.82800 46.30500 37.91200
H  11.16500 53.72400 39.46700
H  6.31600 57.97800 40.15500
H  2.33800 53.17000 41.97700
H  9.75300 49.28900 40.41500
H  11.04000 51.46100 38.93800
H  11.81300 50.14300 41.04200
H  10.87100 51.31300 42.02400
H  12.34000 51.78700 41.05400
H  8.56500 48.81700 38.27800
H  10.25000 48.83000 37.89100
H  9.63800 50.33800 36.23800
H  9.48800 51.43200 37.51700
H  11.80000 56.39600 38.47500
H  12.08400 55.68600 40.11600
H  11.94700 57.43700 39.89300
H  7.14700 59.23200 38.53400
H  8.38900 60.49500 38.57400
H  7.74700 59.97200 40.11800
H  3.62400 57.21400 39.80200
H  2.71000 56.00700 42.47300
H  5.13800 58.33300 42.07900
H  3.52200 58.21700 42.64500
H  3.83200 59.19900 41.16000
H  1.29100 54.80700 40.63000
H  1.82100 56.15200 39.66900
H  -0.49600 56.40400 41.56800
H  0.19400 57.36800 40.28800
H  0.65900 57.47100 42.02700
H  2.62800 49.53500 43.25800
H  1.67800 49.95500 41.83500
H  2.08100 51.14100 43.16500
H  7.22100 48.04000 41.03100
H  6.55800 45.75000 37.32100
H  5.16100 46.88500 37.27500
H  5.02600 45.70000 38.33600
Mg -10.14500 40.06000 43.56000
C  -8.94600 36.98100 42.41500
C  -7.35600 41.50700 42.11500
C  -11.50600 43.18900 43.97400
C  -13.24800 38.52900 44.31000
N  -8.35300 39.29400 42.47400
C  -7.99000 37.95600 42.20100
C  -6.67200 37.84900 41.46900
C  -6.05600 39.26400 41.73500
C  -7.28400 40.11600 42.13000
C  -4.84300 39.26300 42.79500
C  -6.84600 37.47700 39.98000
C  -5.82400 36.42600 39.35000
H  -4.76700 36.94300 38.26700
N  -9.43300 42.05100 43.16100
C  -8.28300 42.42200 42.56500
C  -8.14300 43.83300 42.39700
C  -9.33900 44.37800 43.02900
C  -10.21300 43.23300 43.42000
C  -6.96700 44.50600 41.74900
C  -9.61700 45.87100 43.12600
O  -8.83800 46.71000 42.65200
C  -10.90600 46.43300 43.73600
N  -12.00300 40.73200 44.26600
C  -12.33700 42.06200 44.29900
C  -13.88500 42.17200 44.56700
C  -14.24500 40.76000 45.09100
C  -13.12500 39.94000 44.49900
C  -14.20000 43.31700 45.53300
C  -15.66500 40.36400 44.59300
C  -15.82200 39.95600 43.09700
N  -10.94600 38.13200 43.55100
C  -12.22600 37.66300 43.79700
C  -12.32700 36.23800 43.50300
C  -11.05700 35.99200 43.01000
C  -10.25100 37.14400 42.97700
C  -13.57100 35.42600 43.53400
C  -10.26800 34.94400 42.49700
O  -10.60700 33.68900 42.37600
C  -8.85400 35.53700 41.99700
C  -7.71300 34.75600 42.53900
O  -7.33800 34.57400 43.71800
O  -7.05200 34.16200 41.56200
C  -6.29300 33.00600 41.94500
H  -6.38900 41.97300 41.91500
H  -12.04600 44.13800 43.95000
H  -14.14800 37.97700 44.59000
H  -5.96400 37.09600 41.81400
H  -5.63100 39.57600 40.78200
H  -5.10800 38.53400 43.56000
H  -4.83300 40.25700 43.24300
H  -3.91900 39.06900 42.24800
H  -6.73400 38.42800 39.45900
H  -7.85900 37.10900 39.81900
H  -6.51300 35.70600 38.90900
H  -5.17300 35.87400 40.02800
H  -7.10100 45.52900 41.39800
H  -6.54500 44.07100 40.84300
H  -6.11800 44.62300 42.42300
H  -11.81600 46.19600 43.18500
H  -10.90900 47.51300 43.87700
H  -10.97700 46.12000 44.77800
H  -14.26100 42.37100 43.56400
H  -14.08800 40.60400 46.15800
H  -13.33300 43.91500 45.81400
H  -14.73600 42.89700 46.38500
H  -14.88200 44.03000 45.07100
H  -16.37400 41.13600 44.89300
H  -16.07200 39.47900 45.08100
H  -16.01400 40.89300 42.57500
H  -16.49200 39.09600 43.06800
H  -14.88000 39.52500 42.75800
H  -13.39700 34.35400 43.43700
H  -14.15100 35.70000 42.65300
H  -14.12500 35.48200 44.47100
H  -8.76900 35.52400 40.91100
H  -6.93400 32.44100 42.62200
H  -5.36500 33.23100 42.46900
H  -6.08100 32.48500 41.01200

