158

Mg -2.59700 17.13000 26.40000
C  -2.98500 14.73000 28.99000
C  -2.83600 19.56700 28.72600
C  -2.52300 19.43200 23.93900
C  -2.45200 14.52500 24.17300
N  -2.80600 17.08000 28.53400
C  -2.96200 16.02300 29.42800
C  -3.19900 16.55400 30.89700
C  -3.44900 18.15000 30.76300
C  -2.97300 18.30400 29.24500
C  -4.91300 18.58900 31.12200
C  -1.97700 16.29700 31.79700
C  -1.88700 16.94700 33.17600
H  -1.26600 16.21000 34.38000
N  -2.46700 19.17000 26.34500
C  -2.64000 20.04700 27.40100
C  -2.65600 21.41900 26.91800
C  -2.35800 21.41300 25.56500
C  -2.44500 19.95800 25.19900
C  -2.95200 22.61900 27.76200
C  -2.09300 22.53200 24.57600
O  -1.92200 22.30800 23.36200
C  -1.91800 23.88300 25.06500
N  -2.36900 17.00800 24.42000
C  -2.38700 18.08300 23.55700
C  -2.28200 17.60900 22.04800
C  -2.03100 16.02500 22.23900
C  -2.27700 15.80800 23.69000
C  -3.64700 17.96500 21.40400
C  -0.59000 15.63200 21.74300
C  0.51200 15.64400 22.78900
N  -2.73700 15.05400 26.43300
C  -2.58000 14.14500 25.48100
C  -2.73600 12.78400 26.04300
C  -2.96500 12.94400 27.38200
C  -2.87200 14.39800 27.60200
C  -2.32200 11.58000 25.31100
C  -3.18500 12.23700 28.66400
O  -3.35900 11.07200 28.87600
C  -3.10100 13.36400 29.71400
C  -1.94500 13.09500 30.58300
O  -0.82500 13.48000 30.44600
O  -2.39300 12.37800 31.70600
C  -1.51700 11.96600 32.84400
H  -3.07600 20.24900 29.54400
H  -2.60600 20.14500 23.11600
H  -2.37800 13.78600 23.37200
H  -4.10400 16.10400 31.30600
H  -2.68200 18.65600 31.34900
H  -5.59300 17.80300 31.45200
H  -5.31000 18.76000 30.12100
H  -4.90000 19.47900 31.75100
H  -1.11000 16.59700 31.20800
H  -2.08900 15.28700 32.19100
H  -2.96400 17.09500 33.25900
H  -1.30500 17.85000 32.99300
H  -3.37800 22.42300 28.74700
H  -3.74300 23.11400 27.19900
H  -2.10200 23.29900 27.79400
H  -2.84400 24.20700 25.53900
H  -1.80200 24.60800 24.25900
H  -1.09000 23.87600 25.77400
H  -1.48800 18.16100 21.54400
H  -2.65300 15.40700 21.59200
H  -4.34800 17.13000 21.39100
H  -3.55100 18.16700 20.33700
H  -4.09800 18.83800 21.87600
H  -0.31600 16.20700 20.85800
H  -0.62500 14.57600 21.47500
H  1.04200 14.69200 22.75700
H  0.15000 15.94700 23.77100
H  1.26700 16.31400 22.37700
H  -2.08000 10.79100 26.02300
H  -1.41100 11.75500 24.73900
H  -3.10600 11.24100 24.63300
H  -3.89300 13.38200 30.46300
H  -1.77800 10.91700 32.98400
H  -1.91700 12.50100 33.70500
H  -0.44200 12.13200 32.77100
Mg 5.86700 53.82000 40.62300
C  5.45400 50.33800 40.61800
C  9.08500 53.31700 39.68500
C  6.01700 57.20200 40.14200
C  2.54100 54.17100 41.60500
N  6.98700 52.13000 40.10300
C  6.67600 50.77100 40.15700
C  7.77900 49.89200 39.70900
C  8.99400 50.78700 40.00200
C  8.31200 52.18400 39.84300
C  9.75200 50.62500 41.30000
C  7.70200 49.44200 38.25800
C  6.76100 50.22700 37.29400
H  7.48600 51.23500 36.42500
N  7.29100 55.11900 40.03900
C  8.58800 54.67600 39.71400
C  9.35900 55.89500 39.38800
C  8.51500 57.08000 39.53800
C  7.23600 56.49300 39.97300
C  10.74800 55.77500 38.85800
C  8.92000 58.58700 39.28000
O  10.07600 58.80300 38.87200
C  7.95000 59.74700 39.38300
N  4.46900 55.41600 40.58200
C  4.75900 56.74900 40.52600
C  3.55300 57.70800 40.80000
C  2.43600 56.65700 41.24000
C  3.18100 55.29400 41.15700
C  3.84000 58.69300 41.97700
C  1.21100 56.68800 40.19100
C  -0.14600 56.62800 40.89900
N  4.22100 52.56900 41.03400
C  2.93900 52.81800 41.52300
C  2.33200 51.59700 41.95900
C  3.24700 50.60000 41.56800
C  4.36100 51.26700 41.04000
C  0.95500 51.45900 42.47900
C  3.47500 49.17000 41.48800
O  2.73000 48.19600 41.72200
C  4.91000 48.96500 40.76000
C  4.67600 48.32800 39.42300
O  4.29300 48.83300 38.33500
O  5.27400 47.08700 39.48900
C  5.39700 46.23500 38.23500
H  10.12700 53.01000 39.57000
H  6.01800 58.28600 40.00500
H  1.59000 54.01900 42.12100
H  7.83900 49.05400 40.40500
H  9.73700 50.64300 39.21800
H  9.31600 49.86000 41.94300
H  9.57700 51.47400 41.96200
H  10.80000 50.33800 41.22100
H  7.36100 48.40700 38.23600
H  8.67100 49.45500 37.75900
H  6.03600 50.81600 37.85600
H  6.08400 49.55800 36.76400
H  11.30100 55.18200 39.58500
H  11.21900 56.74700 38.70500
H  10.71300 55.19900 37.93300
H  7.39900 59.85900 40.31600
H  7.25200 59.86800 38.55400
H  8.52500 60.67200 39.34100
H  3.47700 58.30000 39.88700
H  2.17600 56.69100 42.29800
H  3.86400 59.71900 41.60900
H  4.82200 58.49500 42.40600
H  3.18200 58.66300 42.84500
H  1.15100 55.84500 39.50300
H  1.20400 57.67500 39.72700
H  -0.17200 56.94400 41.94200
H  -0.59700 55.63600 40.87100
H  -0.91600 57.22900 40.41500
H  0.30700 51.89900 41.72000
H  0.78700 51.91400 43.45400
H  0.74100 50.39100 42.44300
H  5.50400 48.37100 41.45400
H  6.32700 45.69900 38.42800
H  5.50300 46.76700 37.29000
H  4.60100 45.50000 38.11800

