158

Mg 5.96800 53.69900 40.49000
C  5.31600 50.20500 40.18200
C  9.20900 53.14400 39.56300
C  6.13600 56.92000 39.81100
C  2.39300 54.04300 40.81500
N  7.03600 51.91300 39.84200
C  6.61200 50.61800 39.79700
C  7.79100 49.70000 39.25600
C  9.01800 50.65100 39.39000
C  8.36000 52.01000 39.63600
C  9.99100 50.19500 40.42200
C  7.57400 49.03100 37.80700
C  6.77300 49.87600 36.77100
H  6.20000 49.23600 35.60500
N  7.54400 54.87400 39.94200
C  8.86500 54.49800 39.72900
C  9.63300 55.65600 39.82600
C  8.75100 56.78000 40.00600
C  7.37000 56.23800 39.84500
C  11.13700 55.54600 39.71100
C  9.17600 58.21400 40.19200
O  10.32700 58.54600 39.95800
C  8.21100 59.17700 40.77900
N  4.46100 55.23600 40.33800
C  4.82700 56.47300 39.99700
C  3.56500 57.40500 39.74400
C  2.41200 56.51200 40.10800
C  3.11600 55.17800 40.43200
C  3.47400 58.71800 40.54700
C  1.39400 56.33100 38.98600
C  0.48200 57.49400 38.67400
N  4.23700 52.46500 40.72200
C  2.91900 52.73100 40.98500
C  2.13900 51.55900 41.07800
C  3.04300 50.51600 40.78600
C  4.30700 51.16200 40.52800
C  0.64500 51.43900 41.38600
C  3.20800 49.09300 40.72400
O  2.34600 48.24300 40.84400
C  4.67500 48.83000 40.34900
C  4.74800 47.97600 39.12800
O  4.18300 48.24200 38.04500
O  5.25100 46.69900 39.48000
C  4.96200 45.77500 38.37300
H  10.25600 52.87600 39.40200
H  6.34400 57.99100 39.76200
H  1.31100 54.19100 40.84200
H  7.75200 48.85900 39.94800
H  9.58100 50.73600 38.46100
H  10.90600 50.28200 39.83600
H  9.97300 49.14100 40.69800
H  10.08400 50.71700 41.37400
H  7.10500 48.05100 37.89100
H  8.58000 48.96800 37.39100
H  7.54700 50.58100 36.47000
H  5.92200 50.35500 37.25400
H  11.63900 56.50600 39.82900
H  11.44800 55.22100 38.71900
H  11.62600 54.85800 40.40100
H  8.73000 59.99900 41.27300
H  7.59700 58.61400 41.48200
H  7.74100 59.75200 39.98100
H  3.55800 57.74800 38.70900
H  1.82900 56.82300 40.97400
H  4.32500 58.76400 41.22600
H  2.56500 58.93900 41.10600
H  3.63900 59.57800 39.89800
H  0.61400 55.64600 39.31900
H  1.84000 56.07100 38.02600
H  0.79600 58.04100 37.78500
H  0.30900 58.13700 39.53700
H  -0.51900 57.11700 38.46200
H  0.43000 51.13300 42.41000
H  0.26900 50.80400 40.58400
H  0.20200 52.42300 41.22800
H  5.14300 48.37400 41.22200
H  3.90700 45.83300 38.10600
H  5.08800 44.75500 38.73800
H  5.57000 46.06600 37.51700
Mg -9.17700 17.82600 41.57600
C  -5.74400 17.96000 42.13000
C  -9.08400 21.28700 40.97000
C  -12.42900 17.77400 40.59100
C  -9.06000 14.38800 41.71400
N  -7.63300 19.30400 41.39000
C  -6.23900 19.13100 41.69400
C  -5.48400 20.47500 41.41100
C  -6.66200 21.39900 41.75700
C  -7.92400 20.63000 41.36100
C  -6.65400 21.60800 43.31100
C  -5.11400 20.64100 39.91800
C  -3.74400 20.11700 39.54600
H  -3.65500 19.06800 38.49700
N  -10.57500 19.31500 40.84500
C  -10.32400 20.64200 40.70600
C  -11.46100 21.30200 40.13800
C  -12.47800 20.32700 39.99900
C  -11.84800 19.06200 40.51400
C  -11.49200 22.76500 39.88200
C  -13.92900 20.53700 39.44300
O  -14.32100 21.64500 39.16000
C  -14.93800 19.48000 39.25800
N  -10.54200 16.33200 41.16000
C  -11.86300 16.54400 41.02000
C  -12.61400 15.18100 41.11400
C  -11.56100 14.25600 41.59900
C  -10.24800 15.03500 41.42100
C  -13.80600 15.20400 42.02600
C  -11.53700 12.88100 40.78400
C  -12.35700 11.70300 41.39300
N  -7.68300 16.35800 41.83300
C  -7.80600 14.98400 41.80800
C  -6.55000 14.44800 42.05300
C  -5.68700 15.60200 42.22200
C  -6.42400 16.66600 42.11100
C  -6.10100 12.95500 42.17800
C  -4.34000 16.09800 42.48100
O  -3.33800 15.48200 42.74600
C  -4.33700 17.65800 42.38700
C  -3.81200 18.37300 43.60100
O  -4.09000 18.13500 44.73400
O  -2.95300 19.39300 43.25200
C  -2.50400 20.28500 44.33600
H  -9.02200 22.37600 41.01800
H  -13.48900 17.59400 40.40400
H  -8.98800 13.30700 41.85400
H  -4.59800 20.73400 41.99000
H  -6.58900 22.37100 41.26900
H  -5.76400 21.15800 43.75000
H  -7.45100 21.08000 43.83500
H  -6.81000 22.65200 43.58100
H  -5.18700 21.68300 39.60500
H  -5.76000 20.00700 39.31200
H  -3.23300 19.86000 40.47400
H  -3.17200 20.99700 39.25000
H  -11.07200 22.98700 38.90100
H  -11.00700 23.30100 40.69700
H  -12.50600 23.15200 39.98100
H  -14.45500 18.67900 38.69800
H  -15.89900 19.72100 38.80400
H  -15.13500 19.12300 40.26800
H  -13.06200 14.92500 40.15400
H  -11.69300 13.94900 42.63700
H  -14.57100 14.73700 41.40700
H  -14.25100 16.13700 42.37000
H  -13.84400 14.54400 42.89300
H  -10.52500 12.51600 40.61200
H  -12.05900 13.13900 39.86300
H  -12.34900 10.92600 40.62900
H  -13.34500 12.01300 41.73500
H  -11.87200 11.22000 42.24200
H  -5.80600 12.83000 43.22000
H  -5.33100 12.86000 41.41200
H  -6.94700 12.30200 41.96400
H  -3.67000 17.91200 41.56400
H  -3.17500 20.50400 45.16700
H  -2.07300 21.13600 43.81000
H  -1.65800 19.79600 44.81800

