158

Mg 1.27700 7.97600 26.81300
C  1.70500 10.25900 29.27500
C  1.82700 5.41400 29.09300
C  0.85500 5.69300 24.34900
C  1.21800 10.51800 24.46400
N  1.59300 7.92000 28.89400
C  1.77500 8.96200 29.74400
C  1.81600 8.52800 31.18600
C  2.13100 6.98700 31.08800
C  1.79700 6.74800 29.57900
C  3.53500 6.42400 31.56400
C  0.41400 8.75400 31.91200
C  0.55800 8.89600 33.45600
H  1.71800 8.24400 34.22700
N  1.40400 5.81900 26.67300
C  1.63700 4.96400 27.78200
C  1.59900 3.60000 27.34800
C  1.32800 3.64600 25.93400
C  1.17100 5.11200 25.62400
C  1.72200 2.42000 28.24700
C  1.18400 2.49900 24.94000
O  1.05900 2.62000 23.68600
C  1.20700 1.06700 25.44700
N  1.13600 8.07200 24.71300
C  0.77100 6.99400 23.90500
C  0.28500 7.38700 22.48000
C  0.38900 9.00800 22.61900
C  0.90800 9.24400 23.99000
C  1.23400 6.77600 21.44100
C  -0.88200 9.73900 22.30100
C  -0.72400 10.77600 21.22600
N  1.52400 9.91600 26.73700
C  1.45400 10.87900 25.73800
C  1.65900 12.16800 26.28700
C  1.81400 12.01500 27.69100
C  1.62000 10.64100 27.94600
C  1.67300 13.48200 25.60500
C  2.15100 12.69400 28.92300
O  2.45500 13.83200 29.22300
C  2.00700 11.52600 30.01000
C  3.06400 11.59000 31.05300
O  4.23800 11.79300 30.87600
O  2.59100 11.43200 32.29900
C  3.63300 11.47700 33.36400
H  2.18200 4.70500 29.84400
H  0.85400 4.95200 23.54700
H  1.09900 11.38200 23.80700
H  2.67100 8.94100 31.72100
H  1.35600 6.44600 31.63000
H  4.07900 7.25400 32.01500
H  4.16900 5.94900 30.81700
H  3.32200 5.63000 32.28000
H  -0.18400 7.89400 31.61000
H  -0.01700 9.66700 31.50100
H  -0.39200 8.49700 33.81200
H  0.49500 9.96300 33.66800
H  0.81200 2.12400 28.76900
H  2.52200 2.67200 28.94200
H  2.18600 1.56000 27.76500
H  2.26000 0.80200 25.54100
H  0.75700 0.48100 24.64600
H  0.71900 0.92900 26.41200
H  -0.69500 6.92500 22.36000
H  1.13100 9.36700 21.90500
H  2.13800 6.31200 21.83600
H  1.41900 7.51100 20.65800
H  0.69100 5.93800 21.00300
H  -1.27500 10.30600 23.14500
H  -1.71400 9.09900 22.00700
H  -1.48700 10.70900 20.45100
H  0.24000 10.68600 20.72600
H  -0.68400 11.71900 21.77200
H  2.02800 13.48300 24.57400
H  2.51200 13.99500 26.07600
H  0.69500 13.95600 25.68900
H  1.08300 11.88900 30.46100
H  3.95200 12.49700 33.58300
H  4.44500 10.77600 33.17000
H  3.18800 11.10700 34.28800
Mg 25.49300 50.21300 27.08700
C  23.37900 51.54000 29.65700
C  27.62800 49.17200 29.69500
C  27.85200 49.59100 24.90700
C  23.46200 51.62200 24.75200
N  25.44300 50.31400 29.39800
C  24.41900 50.80900 30.13400
C  24.66700 50.47600 31.59600
C  26.00400 49.68800 31.68900
C  26.38100 49.68400 30.19500
C  27.10100 50.37400 32.68300
C  23.49400 49.61900 32.23900
C  22.96400 50.09200 33.59300
H  23.92100 50.77900 34.64800
N  27.50700 49.52400 27.28400
C  28.12900 49.15000 28.38200
C  29.45200 48.73800 28.00600
C  29.55900 48.68700 26.59300
C  28.31600 49.30500 26.21200
C  30.44200 48.13300 29.00000
C  30.57100 48.09600 25.62400
O  30.49100 48.23300 24.41700
C  31.66500 47.26500 26.23600
N  25.76300 50.88600 25.17100
C  26.76300 50.29700 24.39500
C  26.51800 50.44800 22.86900
C  25.02700 50.95500 22.90400
C  24.70800 51.17300 24.38300
C  27.54000 51.40800 22.24300
C  23.97400 49.88700 22.34200
C  23.37400 50.12000 20.99600
N  23.75000 51.22900 27.14200
C  23.04900 51.77400 26.08800
C  21.90700 52.57500 26.52100
C  21.98600 52.51200 27.95800
C  23.17000 51.80300 28.27000
C  20.85200 53.08800 25.60900
C  21.31100 52.84500 29.20300
O  20.22900 53.44600 29.33300
C  22.22800 52.23700 30.41000
C  22.63900 53.39700 31.18500
O  23.23000 54.34500 30.71600
O  22.29300 53.27500 32.47200
C  22.54800 54.35700 33.47400
H  28.29000 48.76300 30.46100
H  28.36300 49.05600 24.10300
H  22.79700 51.98300 23.96500
H  24.78800 51.42300 32.12200
H  25.86900 48.70800 32.14700
H  26.61300 51.02100 33.41200
H  27.77100 50.92200 32.02000
H  27.67200 49.59700 33.19100
H  23.69200 48.55100 32.31900
H  22.62100 49.66400 31.58800
H  22.46400 49.28700 34.13200
H  22.16000 50.77100 33.30900
H  30.45600 47.04300 29.00900
H  30.32700 48.56400 29.99500
H  31.42700 48.48300 28.69200
H  31.35000 46.60400 27.04400
H  32.50000 47.83500 26.64100
H  31.97600 46.50800 25.51600
H  26.62800 49.45900 22.42500
H  24.97100 51.86600 22.30800
H  28.36600 51.68000 22.90000
H  27.08200 52.35600 21.96300
H  27.94500 50.95800 21.33600
H  23.09600 49.73600 22.97000
H  24.37200 48.87300 22.33000
H  23.66900 49.32700 20.31000
H  23.80100 51.07900 20.70200
H  22.28600 50.13300 21.06000
H  19.87400 53.08000 26.08900
H  20.94000 52.51200 24.68800
H  21.11300 54.12300 25.38400
H  21.65900 51.56400 31.05000
H  22.17700 55.30500 33.08400
H  23.60800 54.48100 33.69700
H  22.16500 54.13200 34.46900

