158

Mg 30.12100 58.42500 40.56000
C  27.26400 56.46500 39.97200
C  31.91600 55.54300 39.97100
C  32.82700 60.34800 40.40300
C  28.04000 61.27100 40.69300
N  29.49600 56.24100 40.04200
C  28.36400 55.68300 39.82000
C  28.53700 54.17600 39.39000
C  29.99300 53.86100 39.84400
C  30.52000 55.28700 39.94000
C  30.12600 52.97200 41.10300
C  28.27200 54.06200 37.82500
C  26.96800 53.51300 37.38600
H  26.14100 54.33100 36.38900
N  32.10000 57.98200 40.40200
C  32.66500 56.73200 40.22900
C  34.12900 56.90200 40.29900
C  34.39100 58.28500 40.62100
C  33.05700 58.97800 40.54300
C  35.13500 55.87200 39.91100
C  35.73900 58.84700 40.99800
O  36.75700 58.15500 40.97800
C  35.89200 60.32000 41.41600
N  30.38800 60.54300 40.47000
C  31.63700 61.10500 40.42400
C  31.62100 62.65500 40.48900
C  30.06200 62.95300 40.59800
C  29.43000 61.52400 40.68300
C  32.59600 63.28200 41.55600
C  29.47400 63.78500 39.46500
C  28.98400 65.16900 39.83300
N  28.04100 58.85500 40.48700
C  27.33400 60.04500 40.48600
C  25.91900 59.68100 40.35300
C  25.86400 58.31600 40.24800
C  27.18600 57.85200 40.22800
C  24.67400 60.60300 40.36800
C  24.91700 57.23100 40.09700
O  23.72700 57.31100 40.08900
C  25.86200 55.94700 39.89100
C  25.51500 54.99000 40.98700
O  25.31300 55.32500 42.15000
O  25.32100 53.72400 40.48200
C  24.92600 52.86200 41.56200
H  32.61400 54.70600 39.91000
H  33.72600 60.96700 40.39400
H  27.47800 62.18600 40.89200
H  27.78100 53.61800 39.94300
H  30.51800 53.24600 39.11300
H  30.45200 51.94900 40.91600
H  29.12600 52.92400 41.53600
H  30.71900 53.46000 41.87600
H  29.12800 53.47100 37.49800
H  28.32400 55.00900 37.28700
H  26.34300 53.38600 38.27000
H  27.28000 52.57100 36.93500
H  35.92900 56.34900 39.33800
H  34.62300 55.11000 39.32300
H  35.61600 55.44700 40.79300
H  36.86900 60.39100 41.89300
H  35.08800 60.68500 42.05600
H  35.96900 60.94300 40.52500
H  31.99800 62.91000 39.49900
H  29.93500 63.25900 41.63700
H  33.38200 63.87700 41.09000
H  33.15600 62.54800 42.13700
H  32.11300 63.91900 42.29700
H  28.55500 63.31700 39.11000
H  30.19900 63.82600 38.65200
H  29.02800 65.82100 38.95900
H  29.51700 65.63000 40.66400
H  27.95800 65.19800 40.20000
H  24.90600 61.33900 41.13800
H  23.80300 59.99800 40.62000
H  24.45900 61.13300 39.44000
H  25.53800 55.46900 38.96700
H  23.93800 53.16400 41.91000
H  25.59400 53.03300 42.40600
H  24.95100 51.79700 41.33100
Mg -11.06900 40.63300 42.03600
C  -10.40100 37.21200 40.96200
C  -7.85500 41.47500 41.10300
C  -12.05900 43.83500 41.79300
C  -14.24600 39.58200 42.70100
N  -9.32900 39.45900 40.96900
C  -9.25700 38.06700 40.70600
C  -7.88700 37.70000 40.18400
C  -7.02300 38.99700 40.62600
C  -8.08700 40.10100 40.81500
C  -6.18200 38.69700 41.88900
C  -7.90900 37.50400 38.67400
C  -7.15300 36.22900 38.24100
H  -5.84600 36.49300 37.41700
N  -10.06600 42.38700 41.62000
C  -8.74300 42.50800 41.38500
C  -8.36000 43.90400 41.39400
C  -9.61300 44.60300 41.46500
C  -10.63400 43.60900 41.67200
C  -6.94400 44.28300 41.27600
C  -9.73500 46.14300 41.25500
O  -8.76700 46.83200 40.83800
C  -11.06700 46.77600 41.38000
N  -12.93500 41.55400 42.06300
C  -13.12700 42.89500 41.96000
C  -14.61400 43.26300 42.15600
C  -15.19200 41.87900 42.65700
C  -14.03600 40.94700 42.57100
C  -14.92900 44.51300 42.94500
C  -16.50100 41.46800 41.98100
C  -17.70200 40.89800 42.81000
N  -12.11600 38.81900 42.02200
C  -13.37800 38.51300 42.31000
C  -13.66900 37.00200 42.27600
C  -12.54600 36.55500 41.71300
C  -11.59000 37.64500 41.56400
C  -14.94000 36.28300 42.67900
C  -11.93000 35.28500 41.30000
O  -12.28300 34.13600 41.48400
C  -10.52700 35.69600 40.77000
C  -9.44300 34.96500 41.52800
O  -8.89400 35.33500 42.51400
O  -9.16700 33.81600 40.90900
C  -8.15300 32.92600 41.46000
H  -6.80500 41.68600 40.89000
H  -12.39900 44.87200 41.83800
H  -15.23100 39.28600 43.06700
H  -7.48500 36.82300 40.69100
H  -6.31300 39.23700 39.83400
H  -6.68700 38.23300 42.73600
H  -5.85200 39.67600 42.23500
H  -5.31100 38.06100 41.73400
H  -7.37800 38.32500 38.19400
H  -8.92100 37.57800 38.27700
H  -7.89400 35.58300 37.76800
H  -6.86400 35.65600 39.12100
H  -6.25800 43.62500 41.81000
H  -6.66600 45.32700 41.42600
H  -6.61900 44.26400 40.23600
H  -11.65100 46.26800 40.61300
H  -11.05400 47.86500 41.42900
H  -11.46900 46.63900 42.38400
H  -14.96500 43.31100 41.12500
H  -15.57000 41.91000 43.67900
H  -14.05700 45.14800 43.10200
H  -15.39000 44.27200 43.90300
H  -15.74900 45.07300 42.49500
H  -16.28900 40.70900 41.22700
H  -16.89000 42.32900 41.43700
H  -18.10100 39.93200 42.50200
H  -18.60000 41.50800 42.72000
H  -17.35800 40.82600 43.84200
H  -14.87000 35.74600 43.62500
H  -15.12500 35.48700 41.95800
H  -15.83000 36.91000 42.62000
H  -10.66900 35.37900 39.73700
H  -8.65800 32.02100 41.79700
H  -7.65900 33.35200 42.33300
H  -7.38400 32.72700 40.71400

