158

Mg 48.21100 44.18400 43.20500
C  44.77800 44.22000 42.72200
C  48.07000 40.70700 42.52700
C  51.46200 44.19400 43.46200
C  48.22800 47.66000 42.98300
N  46.54900 42.56300 42.47800
C  45.23400 42.86300 42.57800
C  44.40600 41.61700 42.52300
C  45.49600 40.46000 42.61000
C  46.80500 41.24700 42.45200
C  45.44300 39.61600 43.87500
C  43.55300 41.55100 41.23400
C  44.12200 42.23500 40.00800
H  43.77600 41.54600 38.71300
N  49.61200 42.62600 42.97300
C  49.32900 41.27100 42.81800
C  50.59500 40.59500 42.75700
C  51.62900 41.55300 43.07200
C  50.94600 42.89000 43.17600
C  50.81200 39.12000 42.50500
C  53.15200 41.27300 43.34000
O  53.64300 40.18300 43.37100
C  54.06500 42.40900 43.72500
N  49.61300 45.71100 43.07500
C  50.85700 45.44200 43.41500
C  51.77400 46.68000 43.52800
C  50.78000 47.83900 43.16600
C  49.46900 47.07700 43.07100
C  52.55500 46.95600 44.78200
C  51.09400 48.61500 41.85000
C  51.87000 49.97100 42.07400
N  46.84500 45.69300 42.89600
C  46.97800 47.05600 42.93400
C  45.68700 47.71300 42.87300
C  44.74700 46.62500 42.87400
C  45.52400 45.40700 42.85800
C  45.46700 49.21600 42.92400
C  43.29800 46.24900 42.92600
O  42.34500 46.96200 43.00100
C  43.27800 44.65400 42.75500
C  42.24400 44.18400 43.69100
O  41.25900 43.60500 43.28800
O  42.53100 44.47800 44.97700
C  41.63400 44.06600 46.02600
H  47.95400 39.62500 42.43000
H  52.51200 44.35400 43.71200
H  48.30800 48.74700 42.90700
H  43.68400 41.75000 43.33000
H  45.51700 39.77800 41.76000
H  46.01700 38.70400 43.70800
H  44.41600 39.28900 44.03700
H  45.85600 40.11100 44.75400
H  42.61800 42.04600 41.49500
H  43.40200 40.48600 41.05600
H  45.20400 42.30000 40.12100
H  43.75500 43.26100 39.97200
H  51.39600 38.85400 41.62300
H  49.93300 38.49600 42.34300
H  51.05700 38.65100 43.45800
H  54.33800 43.20000 43.02600
H  55.05300 42.00900 43.95800
H  53.66700 42.86200 44.63300
H  52.51600 46.59300 42.73500
H  50.71900 48.60900 43.93400
H  52.22100 46.28600 45.57400
H  52.42300 47.95400 45.20100
H  53.60000 46.70700 44.59700
H  50.16100 48.85600 41.34100
H  51.79600 48.04200 41.24400
H  51.23100 50.83800 41.90500
H  52.63900 49.92400 41.30300
H  52.30600 50.11100 43.06300
H  44.63200 49.46400 42.26900
H  46.37900 49.70900 42.58800
H  45.26000 49.53200 43.94700
H  42.81300 44.37300 41.81000
H  42.10200 43.27500 46.61100
H  40.68200 43.65800 45.68700
H  41.38600 44.87900 46.70800
Mg -10.92900 16.44500 42.94100
C  -7.46500 17.40000 42.88400
C  -11.65000 19.90100 42.45100
C  -14.03500 15.64000 42.69000
C  -9.86700 13.16600 42.66700
N  -9.65600 18.48600 42.56700
C  -8.27600 18.56000 42.73800
C  -7.86300 20.01000 42.49300
C  -9.17200 20.80800 42.59000
C  -10.24500 19.73700 42.45100
C  -9.25000 21.53800 43.99100
C  -7.00200 20.18400 41.20200
C  -5.56700 20.68700 41.22400
H  -4.64400 20.06300 40.20100
N  -12.61500 17.54800 42.75200
C  -12.72900 18.96000 42.57600
C  -14.10300 19.32300 42.39400
C  -14.84400 18.13400 42.69100
C  -13.85400 17.03700 42.78200
C  -14.66900 20.72700 42.05400
C  -16.38900 18.03800 42.70500
O  -17.07600 18.97600 42.31100
C  -17.01400 16.80200 43.33700
N  -11.83200 14.65200 42.69600
C  -13.17200 14.55200 42.66000
C  -13.62500 13.09000 42.91600
C  -12.27600 12.32500 42.57100
C  -11.21300 13.40900 42.64100
C  -14.35500 12.92700 44.29500
C  -12.38300 11.58400 41.13400
C  -12.86700 10.11500 41.08300
N  -9.09800 15.49500 42.74400
C  -8.84400 14.16100 42.74700
C  -7.41400 13.89300 42.83300
C  -6.82600 15.15500 42.97500
C  -7.91200 16.09300 42.87300
C  -6.84000 12.51200 42.74900
C  -5.56600 15.79400 43.14300
O  -4.38000 15.40100 43.29500
C  -5.94300 17.30400 43.25100
C  -5.69200 17.64000 44.63500
O  -5.94400 16.96100 45.61000
O  -5.12600 18.85600 44.64100
C  -4.88500 19.48200 46.01100
H  -11.93000 20.92300 42.18700
H  -15.04400 15.22200 42.67800
H  -9.62800 12.10700 42.79000
H  -7.20900 20.14000 43.35500
H  -9.27900 21.60100 41.84900
H  -8.31200 21.74900 44.50600
H  -9.76500 20.92200 44.72800
H  -9.90400 22.40400 43.88800
H  -7.57100 20.87100 40.57600
H  -7.04400 19.21400 40.70600
H  -5.05400 20.45100 42.15700
H  -5.50500 21.77300 41.15800
H  -14.83200 20.84800 40.98300
H  -13.98000 21.54000 42.28100
H  -15.56900 21.09500 42.54600
H  -18.03600 17.00200 43.66000
H  -16.35400 16.38100 44.09500
H  -17.03600 16.10000 42.50300
H  -14.42300 12.99000 42.18000
H  -12.02700 11.59800 43.34300
H  -14.36200 13.91800 44.74900
H  -13.83700 12.25300 44.97700
H  -15.41200 12.67000 44.23400
H  -11.59100 11.88300 40.44800
H  -13.27800 12.00100 40.67300
H  -12.13900 9.36900 40.76500
H  -13.76100 10.14400 40.46000
H  -13.27200 9.93400 42.07800
H  -7.54000 11.77600 42.35400
H  -6.61200 12.05200 43.71000
H  -5.88900 12.44300 42.22100
H  -5.32600 17.90500 42.58400
H  -3.99600 20.04800 45.73400
H  -4.57000 18.71700 46.72000
H  -5.71500 20.10800 46.34100

