158

Mg 9.35700 3.23900 27.23000
C  10.52800 1.69000 30.16000
C  7.33800 5.17300 29.28500
C  7.57000 4.04400 24.51300
C  10.82000 0.57300 25.46700
N  9.06000 3.43500 29.49700
C  9.62900 2.64500 30.48100
C  9.27700 3.14900 31.85600
C  8.07000 4.09600 31.57300
C  8.21400 4.31000 30.04500
C  6.69400 3.57100 31.92200
C  10.56000 3.81800 32.46900
C  10.37300 4.80100 33.66500
H  10.86500 4.15600 34.97700
N  7.84900 4.55000 26.96200
C  7.20000 5.33500 27.91000
C  6.24700 6.22600 27.28500
C  6.35200 5.96400 25.89800
C  7.29400 4.81000 25.69500
C  5.32400 7.13700 28.02100
C  5.66200 6.67000 24.74400
O  5.96600 6.36300 23.57900
C  4.51500 7.54400 24.97300
N  9.11200 2.42300 25.26900
C  8.32800 2.96100 24.28500
C  8.44700 2.20200 23.02600
C  9.73500 1.31400 23.28700
C  9.98300 1.46900 24.73300
C  7.28800 1.35200 22.50000
C  11.01100 1.67600 22.53200
C  11.67700 0.49500 21.89500
N  10.56700 1.59600 27.69300
C  11.07600 0.57700 26.86000
C  11.98100 -0.28700 27.60500
C  11.79800 0.14000 28.92500
C  10.92600 1.23000 28.88800
C  12.89100 -1.20800 27.06300
C  12.22000 -0.12600 30.25500
O  12.93100 -0.99900 30.71500
C  11.33400 0.82900 31.13900
C  10.44600 -0.03400 32.01300
O  9.37400 -0.55600 31.66500
O  11.06700 -0.14700 33.22700
C  10.28900 -0.72800 34.28700
H  6.66400 5.67200 29.98400
H  6.98300 4.24200 23.61400
H  11.25700 -0.29500 24.96900
H  9.12200 2.29400 32.51300
H  8.06700 5.01000 32.16700
H  6.80700 2.56400 32.32600
H  6.09100 3.44800 31.02200
H  6.19600 4.21800 32.64400
H  11.06400 4.31900 31.64300
H  11.09500 2.92400 32.79000
H  9.34200 5.14200 33.76100
H  10.98100 5.69100 33.50500
H  5.73500 8.14100 27.91300
H  5.33500 6.85500 29.07300
H  4.27800 7.05800 27.72700
H  3.70600 7.14000 25.58100
H  4.07700 7.55400 23.97500
H  4.85600 8.56500 25.14100
H  8.58900 2.90900 22.20800
H  9.44800 0.26400 23.24200
H  6.78900 0.95500 23.38400
H  7.83600 0.57300 21.97000
H  6.68900 1.98800 21.84800
H  11.75100 2.09300 23.21500
H  10.83400 2.32700 21.67600
H  11.93800 0.72700 20.86300
H  10.95700 -0.32100 21.84700
H  12.50600 0.11900 22.49500
H  12.28100 -1.96200 26.56600
H  13.61700 -1.59200 27.77900
H  13.34500 -0.54400 26.32700
H  12.09400 1.36000 31.71200
H  9.29400 -0.31100 34.44300
H  10.76800 -0.37600 35.20100
H  10.21600 -1.81500 34.31500
Mg 8.67100 46.90100 25.53600
C  6.75300 46.69900 28.42500
C  11.26300 48.06100 27.42200
C  10.42200 47.29000 22.73700
C  5.72000 46.42600 23.70000
N  8.97900 47.32200 27.76000
C  8.05400 47.21800 28.78100
C  8.64400 47.84700 30.08700
C  9.95900 48.52700 29.58800
C  10.09500 47.92400 28.20600
C  10.10100 50.12000 29.69500
C  8.91600 46.86700 31.27600
C  8.20400 47.25100 32.60400
H  8.19200 46.06600 33.64400
N  10.60900 47.47000 25.15100
C  11.55900 47.73300 26.11400
C  12.87500 47.73800 25.46200
C  12.70500 47.50500 24.04400
C  11.20500 47.43000 23.92000
C  14.17600 48.10600 26.16400
C  13.66000 47.40200 22.87300
O  13.23000 47.39800 21.69700
C  15.12100 47.14500 23.17300
N  8.17100 46.71300 23.52700
C  9.03500 47.07700 22.53800
C  8.41700 47.28300 21.15300
C  6.95400 46.88300 21.51800
C  6.92300 46.66000 22.97400
C  8.54800 48.69000 20.52000
C  6.57500 45.51900 20.77600
C  5.13400 45.44500 20.23300
N  6.65400 46.59500 25.88500
C  5.60200 46.29800 25.09700
C  4.40700 46.05500 25.82100
C  4.83800 46.21100 27.13800
C  6.17600 46.49600 27.14800
C  3.02600 45.91300 25.24200
C  4.41400 46.21500 28.51800
O  3.31800 46.07200 29.00000
C  5.67900 46.60300 29.39000
C  5.81900 45.56500 30.40400
O  6.23900 44.45000 30.21400
O  5.25100 45.95100 31.57200
C  4.86300 44.98100 32.56700
H  12.09200 48.40300 28.04500
H  10.98200 47.35700 21.80200
H  4.81000 46.27500 23.11500
H  7.97300 48.60000 30.49900
H  10.76400 48.06800 30.16200
H  9.14000 50.63400 29.69300
H  10.70200 50.47200 28.85600
H  10.64800 50.36900 30.60500
H  9.96400 46.71900 31.53400
H  8.44900 45.93400 30.95900
H  7.18100 47.60600 32.48000
H  8.73900 48.03800 33.13500
H  14.76500 48.75100 25.51300
H  14.73500 47.21900 26.46200
H  14.02500 48.73200 27.04400
H  15.42600 48.18800 23.25900
H  15.72500 46.71700 22.37300
H  15.30800 46.67300 24.13800
H  8.92300 46.60100 20.46800
H  6.22900 47.62500 21.18400
H  7.60000 49.18800 20.72100
H  8.70800 48.72000 19.44200
H  9.31200 49.38400 20.87100
H  6.63600 44.62300 21.39400
H  7.19700 45.46700 19.88200
H  4.60300 46.29500 20.66000
H  4.73200 44.47700 20.53300
H  5.05700 45.48700 19.14600
H  3.03500 45.46400 24.24900
H  2.54600 46.88900 25.32600
H  2.52700 45.13900 25.82500
H  5.53500 47.52900 29.94700
H  3.77500 45.04500 32.55200
H  5.24900 45.26400 33.54600
H  5.25100 43.96900 32.44800

