158

Mg 46.83600 16.65300 27.40900
C  45.01000 16.51000 30.41100
C  49.18900 18.43000 28.99600
C  48.32100 16.94500 24.40700
C  44.21800 15.00900 25.81500
N  46.91700 17.62000 29.51600
C  46.19700 17.22000 30.62200
C  46.88400 17.65400 31.91900
C  48.19100 18.50800 31.36500
C  48.14600 18.15300 29.91300
C  48.15700 19.98500 31.64100
C  47.33500 16.45700 32.73300
C  47.06300 16.56500 34.20700
H  47.05200 18.00700 34.82100
N  48.48400 17.64100 26.76900
C  49.39900 18.33400 27.58200
C  50.50600 18.75400 26.72100
C  50.21300 18.33800 25.40500
C  48.96700 17.63400 25.53400
C  51.64900 19.59800 27.29700
C  50.98400 18.62400 24.09500
O  50.70700 18.26500 22.96400
C  52.18400 19.48700 24.26200
N  46.37600 15.94200 25.36800
C  47.20400 16.14300 24.33700
C  46.67300 15.49000 23.01100
C  45.26300 14.88100 23.52500
C  45.30200 15.18800 25.03700
C  46.46600 16.66400 21.96100
C  45.01300 13.39500 23.09100
C  44.23500 13.26500 21.79600
N  45.05800 15.80300 28.00600
C  44.01400 15.27500 27.22100
C  42.85100 14.91000 28.02100
C  43.24000 15.44000 29.31400
C  44.56100 15.95700 29.17600
C  41.72400 14.08700 27.59800
C  42.82500 15.54600 30.72200
O  41.77500 15.14100 31.22200
C  44.05100 16.12000 31.46600
C  43.56300 17.20800 32.32100
O  43.16000 18.31400 31.99300
O  43.54300 16.68300 33.60300
C  42.68000 17.48900 34.46000
H  49.96100 18.92700 29.58600
H  48.86300 17.08100 23.46800
H  43.31200 14.63200 25.33600
H  46.29400 18.33600 32.53100
H  49.11700 18.13600 31.80300
H  49.05200 20.20600 32.22100
H  47.28500 20.27200 32.22900
H  48.17900 20.50300 30.68200
H  48.39900 16.22200 32.71100
H  46.81600 15.60400 32.29400
H  47.82100 15.98700 34.73600
H  46.18500 15.93800 34.36700
H  52.60900 19.12800 27.08500
H  51.66200 19.62800 28.38600
H  51.66000 20.60500 26.88100
H  51.88900 20.38300 24.80900
H  52.51000 19.92900 23.32000
H  52.99800 18.95900 24.75900
H  47.44200 14.79500 22.67400
H  44.45600 15.43300 23.04400
H  46.47700 17.63500 22.45600
H  45.46500 16.50600 21.55900
H  47.16300 16.59100 21.12600
H  44.45300 12.97100 23.92500
H  45.97800 12.89000 23.07100
H  44.90700 12.73300 21.12300
H  44.07800 14.21400 21.28400
H  43.29200 12.74200 21.95400
H  41.98200 13.07300 27.29500
H  41.29500 14.54400 26.70600
H  41.05700 14.08300 28.46000
H  44.56600 15.40100 32.10300
H  42.94500 18.54300 34.37200
H  42.63000 17.05400 35.45800
H  41.70800 17.45200 33.96700
Mg 48.02600 35.52300 27.60600
C  46.25500 33.53100 29.99100
C  48.29300 37.94900 30.19400
C  49.43700 37.57000 25.35000
C  47.62800 33.12100 25.24800
N  47.25300 35.77500 29.79700
C  46.68100 34.76500 30.59000
C  46.67600 35.08200 32.05900
C  47.04400 36.61600 32.12900
C  47.55700 36.84900 30.65200
C  45.94700 37.58300 32.70600
C  47.78700 34.28200 32.73000
C  47.76200 34.01400 34.24700
H  46.92500 34.91400 35.19100
N  48.71000 37.45000 27.75300
C  48.64400 38.29600 28.89900
C  49.23600 39.57500 28.51800
C  49.75600 39.42200 27.19600
C  49.31500 38.07700 26.70800
C  49.27300 40.77700 29.42400
C  50.48300 40.46600 26.38600
O  50.84000 40.28400 25.20100
C  51.05300 41.67500 27.05100
N  48.20200 35.52000 25.48400
C  48.89100 36.47000 24.78900
C  49.30600 35.99200 23.38300
C  48.90400 34.49700 23.41300
C  48.17800 34.34100 24.78100
C  48.64200 36.95100 22.30500
C  50.03600 33.38800 23.17400
C  49.94000 32.66900 21.79300
N  46.92400 33.87900 27.45500
C  46.92800 32.92100 26.47300
C  46.22500 31.73400 26.85200
C  45.80200 32.04700 28.21100
C  46.36600 33.25700 28.57000
C  46.03000 30.50200 26.08900
C  45.15100 31.40200 29.33000
O  44.63000 30.26700 29.39700
C  45.22100 32.53800 30.47900
C  45.50900 31.88200 31.79500
O  46.22400 30.88700 31.91500
O  44.72300 32.50800 32.68300
C  44.44200 31.92400 34.01400
H  48.54600 38.71700 30.92800
H  49.94900 38.15300 24.58200
H  47.68100 32.28400 24.54900
H  45.72800 34.91500 32.57200
H  47.94400 36.67300 32.74100
H  46.07000 37.67500 33.78500
H  44.98000 37.09800 32.57600
H  45.93000 38.57200 32.24800
H  48.74800 34.74600 32.50900
H  47.88500 33.26600 32.34800
H  48.79000 34.22900 34.53600
H  47.54800 32.96200 34.43900
H  48.91700 41.67500 28.92000
H  50.28000 40.96300 29.79800
H  48.62400 40.58600 30.27900
H  51.68700 42.13000 26.29000
H  51.75300 41.37300 27.83100
H  50.26900 42.35200 27.39000
H  50.38700 36.11000 23.44700
H  48.17000 34.36400 22.61800
H  48.02400 36.31100 21.67500
H  49.27900 37.64400 21.75600
H  47.92800 37.57800 22.84100
H  50.14100 32.60400 23.92400
H  50.94400 33.98900 23.13600
H  48.92900 32.75600 21.39700
H  50.17000 31.62000 21.98000
H  50.44200 33.11100 20.93200
H  44.97100 30.29500 25.93900
H  46.38200 29.61800 26.62000
H  46.59300 30.46500 25.15600
H  44.25600 33.04400 30.46300
H  43.38800 31.64700 34.00700
H  44.74000 32.62700 34.79200
H  45.00800 30.99600 34.10000

