158

Mg -0.67600 7.80100 26.58500
C  0.26400 9.39900 29.63400
C  -0.76900 4.89900 28.24900
C  -0.62800 6.51700 23.70600
C  0.05500 11.04500 25.03500
N  -0.21300 7.30900 28.73700
C  -0.07900 8.06800 29.81500
C  -0.30900 7.32700 31.14100
C  -0.58000 5.86100 30.55200
C  -0.42900 5.98100 29.04200
C  0.20700 4.71600 31.21700
C  -1.53200 7.84000 32.00100
C  -1.32300 8.27500 33.43300
H  0.02800 7.84100 34.13100
N  -0.76800 5.92500 26.04400
C  -0.90400 4.80400 26.83500
C  -1.10100 3.62800 26.01200
C  -1.00600 4.18600 24.65100
C  -0.84800 5.67000 24.79100
C  -1.21200 2.18100 26.57700
C  -1.18000 3.43200 23.34500
O  -1.33900 3.96500 22.24800
C  -1.34400 1.91600 23.42100
N  -0.53900 8.72900 24.60800
C  -0.42700 7.89800 23.58300
C  -0.12300 8.70000 22.26600
C  -0.38800 10.18400 22.75300
C  -0.34900 10.04000 24.26100
C  1.35700 8.47600 21.87100
C  -1.60800 10.77100 22.03100
C  -1.34100 11.43100 20.65800
N  -0.04500 9.86400 27.18500
C  0.25900 11.01200 26.43600
C  0.79300 11.97900 27.29800
C  0.75800 11.41300 28.60200
C  0.25200 10.14200 28.43600
C  1.18800 13.36600 26.98700
C  1.05800 11.69500 29.95400
O  1.61400 12.61800 30.54800
C  0.53100 10.40600 30.72300
C  1.62800 10.08600 31.71100
O  2.63100 9.41700 31.45600
O  1.38500 10.80000 32.86800
C  2.56900 10.87800 33.70200
H  -1.00500 3.93500 28.70500
H  -0.52300 6.05200 22.72300
H  0.37700 12.02100 24.66600
H  0.62300 7.26900 31.70400
H  -1.63300 5.58800 30.49100
H  0.83300 5.17000 31.98500
H  0.99400 4.38800 30.53700
H  -0.43500 3.90300 31.55800
H  -2.32000 7.09300 31.89900
H  -1.83000 8.75900 31.49800
H  -2.12900 7.97900 34.10400
H  -1.26300 9.35700 33.55200
H  -0.38700 1.62100 26.13600
H  -2.13300 1.70900 26.23400
H  -0.94800 1.98400 27.61600
H  -1.48100 1.58700 22.39100
H  -2.23000 1.64300 23.99400
H  -0.48100 1.37900 23.81600
H  -0.86000 8.54300 21.47800
H  0.46000 10.83300 22.53600
H  1.95000 9.37300 22.05000
H  1.43900 8.10700 20.84900
H  1.79300 7.69500 22.49500
H  -1.92700 11.61200 22.64700
H  -2.39500 10.03900 21.84900
H  -0.69200 10.78300 20.06900
H  -0.91800 12.42600 20.79900
H  -2.31200 11.46600 20.16300
H  0.64400 14.08700 27.59700
H  1.08300 13.65400 25.94100
H  2.23700 13.41000 27.27700
H  -0.30400 10.60300 31.39700
H  3.23100 11.61400 33.24700
H  2.96300 9.86800 33.81100
H  2.30400 11.25900 34.68800
Mg -4.44400 25.97600 26.18100
C  -3.05300 27.29500 29.15800
C  -6.37100 23.82300 28.03100
C  -5.15600 24.16300 23.37700
C  -2.06400 27.82400 24.41500
N  -4.56400 25.46500 28.40300
C  -4.02000 26.27200 29.41000
C  -4.58500 25.87600 30.82300
C  -5.46800 24.62000 30.43800
C  -5.51800 24.62900 28.89400
C  -4.84400 23.34900 31.01700
C  -5.36400 27.12600 31.40300
C  -5.11600 27.47900 32.88100
H  -4.91500 26.23500 33.84200
N  -5.72500 24.38700 25.73300
C  -6.49800 23.73800 26.61300
C  -7.47600 22.88900 25.89600
C  -7.06700 22.94700 24.53700
C  -5.89700 23.82700 24.47700
C  -8.53900 22.12200 26.60300
C  -7.62700 22.11000 23.35900
O  -7.19200 22.11700 22.23300
C  -8.78700 21.22900 23.66500
N  -3.66600 25.97500 24.17900
C  -4.18900 25.16500 23.17500
C  -3.36400 25.43400 21.88500
C  -2.50200 26.70700 22.14800
C  -2.74900 26.84900 23.66000
C  -2.44500 24.28000 21.33300
C  -2.80500 27.94900 21.36400
C  -1.60600 28.20400 20.39100
N  -2.86600 27.28800 26.62300
C  -2.13700 28.06100 25.81600
C  -1.32900 28.99500 26.57700
C  -1.55900 28.71100 27.89200
C  -2.62100 27.67600 27.88300
C  -0.42200 30.01400 25.92600
C  -1.25300 28.99400 29.27800
O  -0.41900 29.68900 29.82200
C  -2.29800 28.17400 30.17500
C  -1.42700 27.37900 31.01400
O  -0.65000 26.50300 30.65500
O  -1.73600 27.61200 32.31700
C  -0.94300 26.93400 33.30700
H  -7.02700 23.13100 28.56100
H  -5.35600 23.67900 22.41900
H  -1.38000 28.42700 23.81500
H  -3.73800 25.58900 31.44600
H  -6.53100 24.73000 30.65500
H  -4.25700 22.92300 30.20300
H  -5.61400 22.61400 31.25200
H  -4.22600 23.61500 31.87500
H  -6.42200 26.99500 31.17400
H  -4.91700 27.91600 30.79900
H  -6.04300 27.99300 33.13700
H  -4.28900 28.18900 32.88400
H  -9.50700 22.33300 26.14800
H  -8.60700 22.41900 27.65000
H  -8.38300 21.04700 26.51500
H  -8.63100 20.51500 24.47400
H  -9.28400 20.81700 22.78700
H  -9.53800 21.93900 24.01200
H  -4.13800 25.67400 21.15600
H  -1.44100 26.46300 22.19400
H  -1.49500 24.49700 20.84600
H  -3.07000 23.82700 20.56300
H  -2.14800 23.66700 22.18400
H  -2.94000 28.84100 21.97500
H  -3.67900 27.73000 20.75000
H  -0.77400 27.50300 20.45600
H  -1.16400 29.18700 20.55000
H  -2.05200 28.28100 19.39900
H  -0.80900 30.44200 25.00200
H  0.61800 29.75500 25.72500
H  -0.31800 30.77300 26.70100
H  -2.98700 28.87400 30.64700
H  -1.09700 25.85700 33.36800
H  -1.37300 27.34200 34.22200
H  0.11900 27.17500 33.30700

