158

Mg 49.22700 35.09700 27.57700
C  47.33200 33.49200 30.16800
C  49.69800 37.69400 29.85500
C  50.87600 36.70100 25.17300
C  48.58100 32.40100 25.53900
N  48.60500 35.50300 29.78200
C  48.00100 34.65500 30.60500
C  48.07500 35.15500 32.03200
C  48.39900 36.73900 31.86200
C  48.91300 36.70700 30.43500
C  47.15200 37.71500 31.88200
C  49.21500 34.48000 32.84700
C  49.03300 34.42800 34.36700
H  47.94500 35.30700 35.03400
N  50.23500 36.93300 27.49700
C  50.34400 37.84000 28.59500
C  50.95300 39.01200 28.01800
C  51.36800 38.67900 26.71900
C  50.90000 37.37300 26.43600
C  51.24400 40.17600 28.95700
C  52.06000 39.58500 25.69800
O  52.21000 39.28100 24.53100
C  52.23500 41.04600 26.06400
N  49.64400 34.63900 25.61800
C  50.46000 35.40400 24.79100
C  50.85100 34.63100 23.45100
C  50.19100 33.25400 23.76400
C  49.48300 33.33600 25.06200
C  50.48000 35.31100 22.12500
C  51.14200 32.02800 23.76300
C  50.74400 30.76100 22.95600
N  48.02100 33.39600 27.71600
C  47.87400 32.41700 26.77500
C  46.90000 31.45000 27.23900
C  46.71000 31.76900 28.57700
C  47.37000 32.98400 28.80900
C  46.54600 30.10100 26.57400
C  46.01200 31.37000 29.76900
O  45.23000 30.47100 29.98400
C  46.35800 32.44600 30.86000
C  46.58400 31.85200 32.21300
O  47.57100 31.21600 32.59200
O  45.50200 32.27500 33.08600
C  45.80700 32.01900 34.49900
H  49.72300 38.55800 30.52200
H  51.40300 37.11600 24.31200
H  48.47300 31.58300 24.82400
H  47.06200 35.04700 32.42000
H  49.21700 37.00600 32.53100
H  47.18300 38.12400 30.87300
H  47.28100 38.57200 32.54400
H  46.22100 37.16300 32.01200
H  50.16200 34.99100 32.67100
H  49.26400 33.47500 32.42900
H  50.02000 34.68400 34.75200
H  48.92300 33.40100 34.71400
H  50.36900 40.43800 29.55300
H  51.48500 41.09700 28.42500
H  52.06500 40.05400 29.66300
H  52.82000 41.53400 25.28500
H  52.75000 41.24600 27.00400
H  51.25500 41.51500 25.98900
H  51.92500 34.52600 23.60300
H  49.36500 33.06900 23.07700
H  49.95800 36.20600 22.46500
H  49.78900 34.74500 21.50000
H  51.41200 35.62900 21.65900
H  51.29500 31.63600 24.76900
H  52.15800 32.29800 23.47900
H  51.18500 29.93800 23.51900
H  51.21100 30.83900 21.97400
H  49.65700 30.73400 22.88200
H  45.48000 30.00900 26.36800
H  46.90800 29.26500 27.17200
H  47.04000 29.91000 25.62100
H  45.45100 33.03200 31.00600
H  45.05200 32.53600 35.09100
H  46.75600 32.44700 34.82300
H  45.66200 30.95200 34.66800
Mg -12.18600 16.34900 41.54000
C  -9.25600 14.25800 41.07400
C  -10.49400 18.81400 40.06100
C  -15.10100 17.92000 41.05700
C  -13.82600 13.48000 42.53300
N  -10.19900 16.36800 40.49100
C  -9.05700 15.55800 40.58800
C  -7.75100 16.20300 40.05800
C  -8.16500 17.66700 40.14800
C  -9.73300 17.65000 40.29800
C  -7.41600 18.62100 41.18400
C  -7.40400 15.71300 38.64300
C  -5.95600 15.28300 38.29900
H  -5.25300 15.88100 37.04900
N  -12.69500 18.25900 40.87800
C  -11.81200 19.07200 40.32700
C  -12.57900 20.32800 39.88700
C  -13.92000 20.14500 40.33500
C  -13.94700 18.77000 40.84300
C  -11.97400 21.52400 39.25600
C  -15.04600 21.12500 40.37900
O  -14.83600 22.28300 40.04100
C  -16.40200 20.83000 40.88300
N  -14.21300 15.74100 41.59800
C  -15.23100 16.59500 41.39900
C  -16.56300 15.83200 41.58700
C  -16.19400 14.45800 42.27300
C  -14.66200 14.56200 42.12300
C  -17.61800 16.66500 42.42300
C  -16.80500 13.26900 41.50400
C  -17.56300 12.14900 42.26000
N  -11.73500 14.29100 41.75800
C  -12.47800 13.28200 42.36900
C  -11.64300 12.11400 42.67300
C  -10.31200 12.40400 42.19100
C  -10.45200 13.72700 41.61600
C  -12.08100 10.80100 43.30100
C  -8.94300 11.96800 42.00700
O  -8.47900 10.85800 42.28200
C  -8.23700 13.18500 41.23600
C  -6.98800 13.56400 41.96500
O  -6.91700 13.82100 43.11800
O  -5.82200 13.60100 41.13200
C  -4.50100 14.03600 41.65900
H  -9.81600 19.61700 39.76500
H  -16.08500 18.39300 41.07300
H  -14.43500 12.65900 42.91800
H  -6.89500 15.95700 40.68700
H  -8.06600 18.19500 39.19900
H  -6.98700 19.46200 40.64100
H  -6.56200 18.07000 41.57900
H  -8.14000 18.96300 41.92400
H  -7.71100 16.45300 37.90400
H  -8.12400 14.90500 38.51300
H  -5.88200 14.19800 38.23700
H  -5.28600 15.46500 39.13900
H  -12.59600 22.08500 38.55900
H  -11.11300 21.17200 38.68700
H  -11.57800 22.13100 40.07000
H  -16.21500 20.33400 41.83500
H  -17.01700 20.22400 40.21600
H  -16.98100 21.71500 41.14700
H  -16.92400 15.57700 40.59100
H  -16.46000 14.43400 43.33000
H  -17.22100 17.48300 43.02400
H  -18.20800 16.06300 43.11300
H  -18.31400 17.10900 41.71100
H  -15.98900 12.72600 41.02800
H  -17.50300 13.55800 40.71900
H  -18.44800 11.95400 41.65500
H  -17.90500 12.48200 43.24000
H  -16.84700 11.33000 42.33700
H  -12.92300 10.54100 42.66000
H  -12.53600 10.82500 44.29100
H  -11.34100 10.00600 43.20200
H  -7.94200 12.77500 40.27100
H  -4.56600 15.11800 41.54900
H  -3.72400 13.54500 41.07400
H  -4.46800 13.67500 42.68700

