158

Mg 0.97700 7.69900 27.42900
C  1.66700 9.76700 30.28900
C  0.31900 5.11600 29.80300
C  0.08800 5.77400 24.95800
C  1.69600 10.43400 25.36400
N  1.19700 7.34500 29.84000
C  1.29800 8.44100 30.72400
C  1.04900 8.00900 32.19700
C  0.74800 6.45300 32.00000
C  0.73700 6.27400 30.49700
C  1.79600 5.52200 32.72400
C  -0.20900 8.69300 32.69400
C  -0.26400 9.13100 34.15200
H  0.37400 8.26600 35.28200
N  0.34700 5.75500 27.39000
C  0.25400 4.80600 28.41000
C  -0.16500 3.54400 27.86300
C  -0.29500 3.71500 26.47400
C  0.05100 5.12300 26.17900
C  -0.24000 2.31100 28.80500
C  -0.66300 2.66600 25.41000
O  -0.63200 2.90300 24.21000
C  -1.11700 1.33900 25.86300
N  0.82800 8.07300 25.48800
C  0.55200 7.08200 24.61800
C  0.59800 7.58200 23.13800
C  1.14600 8.99200 23.25000
C  1.19100 9.25700 24.78100
C  1.35000 6.60500 22.23800
C  0.31600 10.07800 22.38800
C  -0.78500 10.84300 23.02100
N  1.70700 9.57700 27.69000
C  1.91400 10.56900 26.71700
C  2.20800 11.81600 27.43000
C  2.00200 11.54700 28.79900
C  1.80600 10.19000 28.92900
C  2.40200 13.16800 26.80800
C  2.05100 12.10000 30.10300
O  2.26300 13.26000 30.39800
C  1.78500 11.02400 31.11300
C  2.72900 11.11400 32.16800
O  3.89200 10.80300 32.11600
O  2.17000 11.73800 33.21200
C  3.01800 11.89500 34.39400
H  -0.00900 4.35900 30.51900
H  -0.17300 5.08300 24.15400
H  1.93100 11.20300 24.62400
H  1.93300 8.17400 32.81300
H  -0.21700 6.27100 32.47200
H  2.45000 4.93200 32.08100
H  1.20200 4.80200 33.28700
H  2.31400 6.14000 33.45800
H  -1.11800 8.10400 32.57300
H  -0.42900 9.52500 32.02500
H  -1.35200 9.18000 34.20200
H  0.09000 10.15300 34.28600
H  0.56300 1.60400 28.60100
H  -1.17900 1.77100 28.68200
H  -0.11400 2.55400 29.86000
H  -1.63800 0.84300 25.04300
H  -1.82700 1.48200 26.67700
H  -0.33900 0.66000 26.21200
H  -0.42900 7.60900 22.77300
H  2.19900 9.03400 22.97100
H  1.30800 7.01700 21.22900
H  0.84500 5.64100 22.29800
H  2.38100 6.50700 22.57700
H  -0.17200 9.56700 21.55800
H  1.06000 10.77000 21.99300
H  -1.56300 11.09800 22.30100
H  -0.44500 11.77500 23.47300
H  -1.33400 10.22400 23.73100
H  1.40300 13.59800 26.74200
H  2.96800 13.14100 25.87600
H  2.93000 13.85900 27.46500
H  0.83000 11.27800 31.57300
H  3.10500 10.93900 34.91100
H  2.53200 12.57700 35.09100
H  4.01400 12.29200 34.19700
Mg -5.19600 25.78400 26.98000
C  -3.66400 27.08200 29.88100
C  -6.70100 23.29400 28.74800
C  -5.86400 24.29500 24.05500
C  -2.82000 27.89600 25.09800
N  -5.01400 25.24800 29.04400
C  -4.54400 26.04700 30.11200
C  -5.11300 25.47200 31.43900
C  -6.04500 24.31800 31.04100
C  -5.82500 24.20800 29.47400
C  -5.85100 23.04300 31.83000
C  -5.60200 26.61900 32.41000
C  -6.72300 26.27700 33.44200
H  -6.39300 25.36400 34.69500
N  -6.25200 24.08600 26.44800
C  -6.87500 23.23300 27.34400
C  -7.70400 22.31200 26.63200
C  -7.49100 22.49900 25.21900
C  -6.51800 23.67700 25.19900
C  -8.76400 21.53200 27.34200
C  -8.03400 21.78900 24.05100
O  -7.78000 22.11200 22.86800
C  -9.07700 20.73600 24.05400
N  -4.50000 26.06200 24.92400
C  -4.97600 25.31800 23.89400
C  -4.57200 25.79700 22.52300
C  -3.50300 26.87000 22.93400
C  -3.61200 26.97400 24.38900
C  -4.01000 24.65500 21.56300
C  -3.70000 28.21400 22.18800
C  -3.68100 28.31900 20.66500
N  -3.61500 27.27200 27.36100
C  -2.76900 27.97900 26.51300
C  -2.09100 28.90900 27.31400
C  -2.27800 28.50500 28.65400
C  -3.28600 27.56900 28.60100
C  -1.12700 30.01300 26.82600
C  -1.91500 28.86100 29.97800
O  -1.10300 29.60600 30.48500
C  -2.81100 28.02600 30.86500
C  -2.00800 27.21900 31.85600
O  -1.21000 26.36200 31.56600
O  -2.14600 27.74100 33.13300
C  -1.10100 27.37500 34.06800
H  -7.11800 22.46500 29.32300
H  -6.16000 23.77800 23.14000
H  -2.16300 28.59100 24.57100
H  -4.37000 24.96600 32.05600
H  -7.09300 24.61700 31.01900
H  -6.71500 22.85500 32.46800
H  -5.02200 23.02300 32.53700
H  -5.64400 22.18900 31.18600
H  -5.99600 27.35900 31.71300
H  -4.86800 27.15400 33.01200
H  -7.54400 25.87400 32.84800
H  -7.11300 27.18700 33.89800
H  -8.83400 20.52700 26.92600
H  -9.70700 22.02500 27.10500
H  -8.61400 21.56400 28.42100
H  -8.55700 19.78300 24.14700
H  -9.77300 20.81500 23.21900
H  -9.63400 20.98000 24.95900
H  -5.46500 26.17400 22.02400
H  -2.59200 26.42000 22.54000
H  -4.71300 24.34700 20.78800
H  -3.86600 23.75600 22.16100
H  -3.06000 24.91900 21.09900
H  -2.91800 28.88900 22.53700
H  -4.68800 28.61500 22.41700
H  -4.70900 28.33000 20.30400
H  -3.30800 27.34200 20.35800
H  -3.11500 29.16400 20.27300
H  -0.27100 29.90600 27.49100
H  -1.70700 30.93600 26.84100
H  -0.77800 29.78900 25.81800
H  -3.36300 28.81500 31.37600
H  -1.17500 26.28700 34.09800
H  -1.23200 27.86800 35.03100
H  -0.19600 27.78800 33.62200

