158

Mg 25.55100 -1.42800 29.61500
C  27.77400 -1.59400 32.49400
C  22.97200 -0.93700 31.90100
C  23.47800 -1.37500 26.98300
C  28.20200 -2.35700 27.63100
N  25.44000 -1.32200 31.89300
C  26.48300 -1.32200 32.93100
C  25.96800 -0.86300 34.28900
C  24.38000 -0.74400 33.94600
C  24.23900 -1.08600 32.44400
C  23.51100 -1.63900 34.85700
C  26.59700 0.44700 34.85100
C  27.47400 0.30900 36.14800
H  27.13700 1.26900 37.33000
N  23.49100 -1.17100 29.42300
C  22.64900 -0.96000 30.47200
C  21.30900 -0.90300 29.91400
C  21.40200 -0.94200 28.52800
C  22.80100 -1.08500 28.22900
C  20.10700 -0.68100 30.76100
C  20.22800 -0.83900 27.53900
O  20.33200 -1.08700 26.38100
C  18.80900 -0.46000 28.01900
N  25.75600 -2.07600 27.61900
C  24.76000 -1.81800 26.71800
C  25.30500 -1.67300 25.23500
C  26.81200 -1.93600 25.54000
C  26.96200 -2.11300 27.00300
C  24.62400 -2.54800 24.16400
C  27.86400 -0.94600 24.87600
C  27.88200 0.51000 25.47100
N  27.58600 -1.97800 29.95900
C  28.55200 -2.25400 29.01400
C  29.83700 -2.31900 29.64400
C  29.62600 -2.02200 31.02600
C  28.21000 -1.94600 31.14200
C  31.09200 -2.80700 29.00600
C  30.11600 -1.85200 32.40800
O  31.21700 -1.90300 32.78000
C  28.97100 -1.60600 33.38300
C  28.90400 -2.68100 34.28300
O  28.43800 -3.81700 34.06400
O  29.32800 -2.21700 35.51000
C  29.13200 -3.02500 36.67500
H  22.15900 -0.84300 32.62400
H  22.87100 -1.11300 26.11400
H  29.06900 -2.52100 26.98800
H  26.20200 -1.69100 34.95700
H  24.07800 0.29000 34.11100
H  22.74900 -1.05900 35.37800
H  24.14900 -2.17600 35.55800
H  23.01400 -2.43400 34.30100
H  25.94800 1.32100 34.91500
H  27.41600 0.72000 34.18600
H  28.53100 0.52700 35.99600
H  27.42800 -0.65500 36.65500
H  19.65000 0.25000 30.42500
H  20.20700 -0.64800 31.84600
H  19.58200 -1.63100 30.65500
H  18.44000 -1.05400 28.85600
H  18.05900 -0.27600 27.25000
H  19.12100 0.50100 28.42700
H  25.09400 -0.63100 24.99200
H  27.08700 -2.90600 25.12700
H  25.35600 -2.90700 23.44100
H  24.02000 -1.85900 23.57300
H  24.01000 -3.32300 24.62400
H  27.68600 -1.03300 23.80400
H  28.84400 -1.42000 24.92800
H  27.03400 0.76900 26.10600
H  27.58700 1.20400 24.68400
H  28.86200 0.74600 25.88700
H  31.52700 -2.02900 28.37900
H  30.85500 -3.68800 28.40900
H  31.87500 -3.01700 29.73400
H  29.13600 -0.65600 33.89000
H  28.07800 -3.10200 36.94400
H  29.63000 -2.71500 37.59300
H  29.43700 -4.04200 36.42600
Mg 46.44600 23.94700 28.19700
C  47.05400 26.12100 30.78100
C  45.86300 21.40300 30.42900
C  46.25300 21.88800 25.56400
C  47.19800 26.61900 26.03800
N  46.47000 23.78800 30.26700
C  46.69500 24.84000 31.21300
C  46.46700 24.33700 32.64300
C  46.32800 22.76000 32.44900
C  46.13800 22.65600 30.96700
C  47.64600 22.00000 32.86000
C  45.22900 25.03100 33.26700
C  45.61700 25.68700 34.68400
H  44.49700 25.89400 35.76700
N  46.08300 21.93600 28.02200
C  45.82100 21.04300 29.04000
C  45.44300 19.78900 28.47500
C  45.51500 19.90500 27.02500
C  45.95600 21.28300 26.82600
C  45.21300 18.58700 29.38400
C  45.27400 18.86700 25.98600
O  45.35800 19.20100 24.78200
C  45.02000 17.43300 26.32900
N  46.62200 24.19500 26.13900
C  46.48400 23.27000 25.27500
C  46.62000 23.72700 23.80300
C  46.47900 25.27400 23.97000
C  46.76400 25.38200 25.44800
C  47.93700 23.27000 23.11700
C  45.18100 25.91000 23.48700
C  43.99800 25.74800 24.34800
N  47.01500 25.97600 28.30900
C  47.38200 26.93000 27.39200
C  47.90800 28.11700 27.94200
C  47.80300 27.83200 29.31400
C  47.24500 26.54200 29.46900
C  48.40700 29.39300 27.25800
C  48.14500 28.40300 30.60400
O  48.65900 29.49500 30.89500
C  47.56300 27.30500 31.62100
C  48.65300 26.98100 32.63900
O  49.50500 26.09500 32.46700
O  48.47000 27.75100 33.77200
C  49.60100 27.52800 34.76000
H  45.79400 20.64100 31.20800
H  46.31400 21.23800 24.68900
H  47.44600 27.46100 25.38900
H  47.38000 24.57700 33.18700
H  45.45300 22.38300 32.97800
H  48.55200 22.59800 32.76500
H  47.76200 21.06200 32.31700
H  47.66600 21.67000 33.89800
H  44.41800 24.35200 33.52700
H  44.98000 25.75400 32.49000
H  46.09300 26.60800 34.34800
H  46.51600 25.23600 35.10400
H  44.23400 18.12500 29.25500
H  45.22800 18.73900 30.46300
H  45.97800 17.84200 29.16300
H  45.94100 16.95000 26.65500
H  44.87300 17.04000 25.32300
H  44.14600 17.27600 26.96000
H  45.79100 23.33800 23.21200
H  47.34900 25.71200 23.48200
H  48.77100 23.93200 23.34800
H  47.83200 23.01800 22.06200
H  48.35800 22.41900 23.65300
H  45.18800 25.53100 22.46500
H  45.55600 26.93200 23.43400
H  44.01800 26.59400 25.03500
H  44.06700 24.81200 24.90200
H  43.17000 25.82500 23.64400
H  48.35400 30.32600 27.81700
H  47.94400 29.58100 26.28900
H  49.41000 29.15300 26.90400
H  46.68500 27.69300 32.13700
H  49.72600 26.48100 35.03600
H  49.28100 27.98300 35.69700
H  50.53900 27.94100 34.38800

