158

Mg 26.24200 50.91800 25.72200
C  24.06600 52.26400 28.05600
C  28.43700 50.13500 28.30200
C  28.54700 50.00300 23.41100
C  24.23400 52.08500 23.19900
N  26.23600 51.18900 27.95700
C  25.19800 51.64900 28.68900
C  25.46600 51.44100 30.22700
C  26.99800 50.99800 30.28800
C  27.23400 50.70600 28.76900
C  27.98500 52.16200 30.61200
C  24.54800 50.32900 30.97000
C  24.19400 50.41800 32.48000
H  25.10200 51.19300 33.41600
N  28.18100 50.15500 25.84800
C  28.89100 49.87100 27.01900
C  30.17300 49.25800 26.65400
C  30.30400 49.44200 25.24900
C  28.97900 49.90700 24.74700
C  31.23200 48.77200 27.69200
C  31.43500 49.12100 24.31200
O  31.41100 49.33000 23.10800
C  32.76100 48.57900 24.90600
N  26.46400 51.11900 23.63300
C  27.39600 50.55800 22.86000
C  27.06100 50.71600 21.37500
C  25.63600 51.34000 21.35500
C  25.43800 51.53600 22.81700
C  28.24300 51.51000 20.64900
C  24.57900 50.47200 20.50700
C  24.00800 49.17400 21.04100
N  24.42600 51.98600 25.61300
C  23.69100 52.44700 24.53500
C  22.39500 53.00400 25.04100
C  22.50400 52.91000 26.39300
C  23.75300 52.32500 26.70800
C  21.38300 53.65400 24.14600
C  21.80400 53.27200 27.57300
O  20.67400 53.79400 27.76500
C  22.83300 52.83000 28.77200
C  23.23100 53.98500 29.64000
O  24.03300 54.88800 29.43500
O  22.70100 53.92000 30.84200
C  23.09600 54.78800 31.95400
H  29.14100 49.85900 29.09000
H  29.24400 49.57500 22.68800
H  23.61800 52.45400 22.37600
H  25.26300 52.41300 30.67700
H  27.20300 50.10700 30.88000
H  28.10400 52.24600 31.69200
H  27.54600 53.07100 30.19800
H  28.94200 52.07600 30.09800
H  25.08100 49.38000 30.90600
H  23.55600 50.24800 30.52400
H  24.15300 49.43200 32.94300
H  23.17000 50.77700 32.59000
H  31.69900 47.82200 27.43400
H  30.80900 48.59600 28.68100
H  31.96100 49.58100 27.74700
H  33.52100 48.46000 24.13300
H  32.51700 47.57700 25.25600
H  33.07000 49.20600 25.74200
H  26.99600 49.73700 20.89900
H  25.55900 52.34900 20.94800
H  28.99500 51.82500 21.37300
H  27.77900 52.43700 20.31300
H  28.64700 50.97000 19.79300
H  25.02600 50.28200 19.53100
H  23.72100 51.14100 20.45100
H  22.92500 49.16500 20.92200
H  24.04900 49.03200 22.12100
H  24.46700 48.31700 20.54800
H  21.73400 53.84900 23.13300
H  21.10800 54.57300 24.66400
H  20.51600 53.00100 24.04900
H  22.33600 52.12600 29.44000
H  22.12000 55.22700 32.15800
H  23.93500 55.44400 31.72000
H  23.35200 54.20800 32.84000
Mg 8.98900 48.15800 28.46800
C  7.06800 47.79200 31.48400
C  11.76400 48.48900 30.38500
C  10.60600 49.42100 25.76600
C  5.89500 48.35400 26.80000
N  9.26200 48.45100 30.68000
C  8.38800 48.10300 31.65800
C  9.22300 48.03100 33.04900
C  10.66000 48.41000 32.62700
C  10.58600 48.48600 31.07800
C  11.30100 49.72200 33.26800
C  9.08500 46.72900 33.96000
C  10.15500 46.63300 35.06000
H  9.83200 45.64400 36.15600
N  10.94000 48.77500 28.12500
C  11.98000 48.59700 29.02400
C  13.22500 48.63700 28.28000
C  12.88100 49.05700 26.92300
C  11.43200 49.12400 26.88100
C  14.64400 48.55500 28.86200
C  13.78700 49.24900 25.68300
O  13.28200 49.53100 24.62500
C  15.26300 48.92100 25.80700
N  8.32700 48.95600 26.58200
C  9.21600 49.40300 25.58300
C  8.39600 49.75000 24.33700
C  6.99900 49.35500 24.69500
C  7.04600 48.78500 26.11300
C  8.65400 51.27400 23.86900
C  6.33000 48.46600 23.68300
C  5.98400 49.05400 22.28000
N  6.85900 47.97000 28.95600
C  5.75800 48.04200 28.20200
C  4.54700 47.82300 28.98900
C  5.01300 47.54000 30.29100
C  6.41300 47.76000 30.23400
C  3.20800 47.89800 28.40700
C  4.71400 47.15200 31.65400
O  3.60800 46.74500 32.08000
C  6.04100 47.25900 32.47700
C  6.35500 45.88800 32.93500
O  6.86400 45.00100 32.16200
O  5.84100 45.72100 34.23300
C  6.18200 44.37700 34.76600
H  12.61700 48.52700 31.06600
H  10.94400 49.66500 24.75700
H  4.93200 48.41200 26.28800
H  8.85400 48.86700 33.64400
H  11.36400 47.58900 32.76200
H  12.27300 50.08400 32.93400
H  11.41400 49.60500 34.34600
H  10.60400 50.54400 33.10500
H  9.10600 45.86400 33.29700
H  8.13000 46.84900 34.47100
H  10.39900 47.61700 35.46200
H  11.05500 46.23800 34.58900
H  15.17200 47.74100 28.36700
H  14.54300 48.31100 29.91900
H  15.11700 49.53000 28.74400
H  15.38700 47.91300 26.20100
H  15.69400 49.73700 26.38800
H  15.76900 48.95800 24.84200
H  8.76500 49.12700 23.52300
H  6.52400 50.33600 24.71600
H  7.75100 51.88400 23.85600
H  9.15500 51.33100 22.90300
H  9.30500 51.83200 24.54200
H  5.38700 48.13500 24.11700
H  6.90300 47.55600 23.50800
H  6.58800 48.55000 21.52500
H  6.16200 50.12900 22.32000
H  4.96800 48.89000 21.92100
H  3.07600 48.86700 27.92700
H  2.47000 47.95700 29.20600
H  2.99400 47.11700 27.67700
H  6.11500 47.96900 33.30100
H  5.32900 44.06400 35.36800
H  7.12200 44.49300 35.30500
H  6.16000 43.67400 33.93300

