158

Mg 47.53300 16.05900 28.76600
C  45.40400 15.89900 31.58700
C  49.60900 18.13800 30.61600
C  48.94600 16.94200 25.85700
C  45.04400 14.48500 27.00100
N  47.47500 17.05100 30.85900
C  46.57200 16.60400 31.91200
C  47.09800 17.14600 33.25400
C  48.44100 17.96900 32.82800
C  48.55100 17.65600 31.38200
C  48.31700 19.49100 33.16200
C  47.44600 16.14900 34.34300
C  46.87700 16.27100 35.83000
H  46.78600 17.74300 36.41600
N  49.11700 17.23700 28.31900
C  49.86400 17.98700 29.21700
C  51.02900 18.53800 28.51700
C  50.85600 18.21300 27.14400
C  49.58300 17.39900 27.01700
C  51.98800 19.40200 29.17300
C  51.67000 18.54900 25.95900
O  51.38100 18.43100 24.79800
C  53.01800 19.29500 26.12400
N  47.15800 15.67400 26.73300
C  47.81700 16.16600 25.71000
C  47.36700 15.71600 24.39700
C  46.14600 14.90300 24.73800
C  46.07500 15.00200 26.20800
C  47.11000 16.99900 23.34600
C  46.04100 13.47100 24.12300
C  45.15300 13.24800 22.96100
N  45.64200 15.31800 29.18300
C  44.79600 14.61400 28.35600
C  43.61100 14.24100 29.04200
C  43.81100 14.60100 30.37900
C  45.04400 15.32900 30.36800
C  42.38500 13.52900 28.41100
C  43.28300 14.59000 31.69500
O  42.28900 14.03100 32.12400
C  44.28500 15.48900 32.52000
C  43.51300 16.56400 33.20100
O  42.72600 17.34700 32.72500
O  43.82000 16.51200 34.57100
C  43.04100 17.46900 35.40800
H  50.19200 18.81700 31.24300
H  49.49300 17.09900 24.92400
H  44.19600 13.97600 26.53700
H  46.35100 17.88600 33.54200
H  49.29400 17.63700 33.41900
H  47.48700 19.70800 33.83400
H  48.07000 20.14200 32.32400
H  49.28100 19.82800 33.54200
H  48.51700 15.94900 34.36300
H  46.99800 15.19500 34.06500
H  47.48200 15.65300 36.49300
H  45.88600 15.84400 35.98300
H  52.96100 18.91100 29.19200
H  51.63000 19.90900 30.06800
H  52.02900 20.20600 28.43800
H  53.62100 19.20200 25.22000
H  53.49000 18.87100 27.01000
H  52.98500 20.36600 26.32200
H  48.12300 15.05500 23.97300
H  45.25800 15.42400 24.38200
H  46.07100 17.16500 23.06000
H  47.75200 16.81700 22.48400
H  47.51900 17.87700 23.84500
H  45.81200 12.75200 24.90900
H  47.06200 13.24600 23.81700
H  44.79200 14.19600 22.56100
H  44.25800 12.72300 23.29300
H  45.55500 12.58400 22.19500
H  42.44100 12.45900 28.60900
H  42.28900 13.75000 27.34800
H  41.56300 14.01400 28.93700
H  44.74500 14.86700 33.28700
H  41.98500 17.20000 35.40400
H  43.17300 18.51300 35.12400
H  43.29400 17.23100 36.44100
Mg -11.54600 38.69400 42.39400
C  -9.59900 35.91600 41.20800
C  -9.12300 40.74900 40.72900
C  -13.59900 41.08000 42.74900
C  -13.88200 36.38600 43.60600
N  -9.58300 38.36900 40.98700
C  -8.97400 37.13200 40.72400
C  -7.63800 37.28000 40.06400
C  -7.42800 38.88700 40.11700
C  -8.78300 39.37700 40.62900
C  -6.22100 39.53500 40.76900
C  -7.67900 36.73600 38.55900
C  -6.53600 35.61900 38.23200
H  -5.78600 35.69800 36.82300
N  -11.38100 40.66900 41.86900
C  -10.29700 41.33100 41.28300
C  -10.58100 42.76800 41.36300
C  -11.96900 42.95400 41.84900
C  -12.38000 41.49000 42.19500
C  -9.58800 43.85000 40.85600
C  -12.76800 44.25100 42.00000
O  -12.20800 45.28800 41.68600
C  -14.22300 44.39200 42.46200
N  -13.61100 38.71100 42.89300
C  -14.20500 39.90000 43.07900
C  -15.70700 39.68200 43.36000
C  -15.85200 38.10200 43.69300
C  -14.36100 37.69500 43.39100
C  -16.24500 40.50400 44.51600
C  -16.82600 37.33300 42.76300
C  -18.20100 36.90100 43.39500
N  -11.74600 36.64500 42.46500
C  -12.71800 35.89200 43.14100
C  -12.35800 34.48400 42.99600
C  -11.13900 34.47500 42.26700
C  -10.88000 35.83700 41.88900
C  -13.04900 33.36100 43.52600
C  -10.15500 33.58900 41.73200
O  -10.16600 32.39800 41.82500
C  -9.16200 34.46200 40.88800
C  -7.84800 34.04700 41.33300
O  -7.11800 33.19700 40.75600
O  -7.61200 34.67100 42.52100
C  -6.41100 34.24500 43.25800
H  -8.25600 41.37300 40.50600
H  -14.19600 41.95800 43.00400
H  -14.62000 35.74500 44.09400
H  -6.82500 36.83000 40.63300
H  -7.39100 39.28700 39.10400
H  -5.53500 38.71000 40.96400
H  -6.54200 40.09800 41.64500
H  -5.67700 40.15900 40.06000
H  -7.68900 37.50200 37.78300
H  -8.65100 36.24500 38.50800
H  -7.02400 34.65800 38.39700
H  -5.77100 35.68800 39.00600
H  -9.96700 44.42900 40.01400
H  -8.59500 43.46800 40.61700
H  -9.55400 44.57100 41.67200
H  -14.81900 43.67100 41.90300
H  -14.52300 45.37400 42.09600
H  -14.31700 44.40500 43.54800
H  -16.17000 39.97500 42.41700
H  -16.10100 37.98800 44.74800
H  -16.90900 41.32300 44.24300
H  -15.48200 40.95500 45.15200
H  -16.81100 39.86800 45.19700
H  -16.32600 36.46700 42.33000
H  -16.98800 38.01100 41.92500
H  -18.97100 37.58800 43.04200
H  -18.14300 36.92700 44.48300
H  -18.48700 35.88500 43.12400
H  -12.90800 33.18200 44.59200
H  -12.64000 32.55200 42.92000
H  -14.13400 33.40000 43.43300
H  -9.26100 34.09900 39.86500
H  -6.37200 33.15600 43.25000
H  -6.65900 34.52700 44.28100
H  -5.49500 34.78000 43.00600

