158

Mg 1.77800 -2.20400 43.12600
C  5.15100 -1.50000 42.35000
C  0.98000 0.69200 41.45000
C  -1.40100 -3.11600 43.23200
C  2.77500 -5.48900 43.90700
N  3.00700 -0.66800 41.95100
C  4.31300 -0.53700 41.88800
C  4.71900 0.84000 41.20500
C  3.35200 1.57100 41.11300
C  2.38000 0.46400 41.50800
C  3.19100 2.88900 42.00500
C  5.48700 0.68500 39.86300
C  6.49100 1.76400 39.59900
H  6.62300 2.41900 38.18400
N  -0.00200 -1.23900 42.53300
C  -0.11500 -0.01700 41.93800
C  -1.51100 0.33800 41.86700
C  -2.21400 -0.81800 42.31900
C  -1.23100 -1.79700 42.77200
C  -1.92100 1.63800 41.20800
C  -3.75800 -0.96000 42.36200
O  -4.55500 -0.08300 42.00800
C  -4.42800 -2.12200 43.08000
N  0.81000 -4.06200 43.45300
C  -0.49800 -4.15400 43.53100
C  -0.94600 -5.49700 44.17600
C  0.41100 -6.32300 44.18600
C  1.37100 -5.28200 43.69600
C  -1.73400 -5.48300 45.44400
C  0.33200 -7.63300 43.35900
C  1.28700 -8.78200 43.73200
N  3.56300 -3.29400 43.24600
C  3.84100 -4.57100 43.63700
C  5.28400 -4.75600 43.81200
C  5.79900 -3.62800 43.27700
C  4.72200 -2.76100 42.87800
C  5.90200 -6.04200 44.40700
C  7.04400 -2.89200 42.97800
O  8.21900 -3.11900 43.13000
C  6.59500 -1.49300 42.39600
C  7.02400 -0.39200 43.30500
O  6.67800 -0.16800 44.43800
O  7.97600 0.35000 42.71800
C  8.60100 1.40500 43.56700
H  0.73800 1.65700 40.99900
H  -2.41600 -3.50300 43.34600
H  3.11700 -6.46200 44.26600
H  5.39600 1.38900 41.86000
H  3.00700 1.87500 40.12500
H  3.86800 2.85000 42.85800
H  2.19900 2.99600 42.44300
H  3.44800 3.75300 41.39200
H  4.80300 0.74900 39.01600
H  5.99100 -0.28000 39.82100
H  7.44900 1.28400 39.79800
H  6.34100 2.67500 40.18000
H  -1.77100 1.53700 40.13300
H  -1.24900 2.44500 41.49900
H  -2.94600 1.95600 41.39900
H  -5.47900 -1.86900 43.21400
H  -3.91200 -2.24800 44.03200
H  -4.35400 -3.04900 42.51100
H  -1.55000 -6.00800 43.42600
H  0.60400 -6.49100 45.24500
H  -1.60800 -4.52600 45.95100
H  -1.47800 -6.26400 46.15900
H  -2.80000 -5.59200 45.24200
H  0.57700 -7.51400 42.30400
H  -0.67400 -8.05200 43.33600
H  1.83600 -8.65500 44.66500
H  1.96400 -9.05400 42.92200
H  0.59300 -9.62100 43.78800
H  6.95300 -5.96600 44.68600
H  5.78900 -6.93900 43.79800
H  5.36600 -6.18100 45.34600
H  7.05500 -1.41400 41.41100
H  9.59100 1.49100 43.12100
H  8.55000 1.43700 44.65500
H  8.06800 2.32300 43.31800
Mg 9.82700 48.57200 24.98000
C  7.81800 48.79600 27.85100
C  12.45500 49.76100 26.81000
C  11.64700 48.01800 22.39100
C  6.82200 48.14100 23.14700
N  10.02300 49.12700 27.04700
C  9.15000 49.03500 28.09300
C  9.76700 49.54700 29.37400
C  11.03100 50.35800 28.88400
C  11.20200 49.80800 27.48700
C  10.85300 51.89700 28.87600
C  10.12500 48.35200 30.41300
C  9.56600 48.41500 31.84400
H  9.59100 47.26500 32.84300
N  11.79700 48.92700 24.65300
C  12.72000 49.33700 25.51600
C  14.04800 49.27000 24.86100
C  13.86800 48.69600 23.61900
C  12.37200 48.51500 23.49200
C  15.29500 49.70900 25.65000
C  14.84800 48.29600 22.54300
O  14.54000 47.85200 21.46600
C  16.34000 48.54000 22.67900
N  9.27100 48.13600 23.05000
C  10.24700 47.88800 22.15300
C  9.57300 47.63500 20.69700
C  8.03200 47.52000 21.03500
C  8.00700 47.88700 22.48200
C  9.85600 48.73100 19.60900
C  7.31600 46.14700 20.78100
C  7.74900 44.96700 21.61900
N  7.66200 48.58700 25.37600
C  6.61400 48.38600 24.54100
C  5.44300 48.29300 25.36100
C  5.83600 48.49600 26.66600
C  7.21200 48.59600 26.59400
C  4.01200 47.97500 24.86600
C  5.42000 48.63700 28.01800
O  4.30200 48.69100 28.54500
C  6.71200 48.81700 28.87100
C  6.86800 47.59400 29.75500
O  7.43000 46.60300 29.49100
O  6.19500 47.84600 30.93200
C  6.16500 46.80700 31.85200
H  13.25800 50.18300 27.41900
H  12.14700 47.88000 21.43000
H  5.93600 47.94400 22.54000
H  9.14500 50.24200 29.93900
H  11.92800 50.02200 29.40300
H  10.02600 52.10100 29.55500
H  10.52600 52.23200 27.89200
H  11.74500 52.45000 29.17200
H  11.21300 48.30100 30.41800
H  9.98300 47.35600 29.99300
H  8.55200 48.80700 31.91000
H  10.21200 49.20600 32.22500
H  15.47700 49.08600 26.52600
H  15.04100 50.69600 26.03700
H  16.22400 49.79500 25.08700
H  16.56300 49.59000 22.86800
H  16.83800 48.20800 21.76800
H  16.74200 47.92600 23.48500
H  9.92800 46.63700 20.43800
H  7.54900 48.40400 20.62000
H  8.96700 49.00400 19.04100
H  10.63100 48.40300 18.91600
H  10.07800 49.68800 20.08000
H  7.59200 45.85500 19.76800
H  6.25900 46.40300 20.84500
H  6.86200 44.49800 22.04400
H  8.37800 45.30800 22.44100
H  8.36700 44.28200 21.03800
H  3.53500 47.29300 25.57000
H  4.00800 47.35400 23.97000
H  3.42500 48.89200 24.81800
H  6.70800 49.63500 29.59200
H  6.59800 47.04600 32.82400
H  6.69200 45.92100 31.49600
H  5.13900 46.54400 32.10900

