158

Mg 54.40500 24.30000 45.99400
C  51.54200 26.26100 45.10800
C  52.67500 21.53200 45.08900
C  57.26300 22.71700 45.85400
C  56.10600 27.38300 46.60900
N  52.45100 23.96100 44.87000
C  51.43900 24.87300 44.72100
C  50.18300 24.20500 44.28100
C  50.43600 22.68800 44.65100
C  51.94000 22.71500 44.93200
C  49.60100 22.46900 45.94800
C  49.91200 24.46200 42.77900
C  48.40000 24.90700 42.48000
H  47.53100 23.90300 41.81600
N  54.95100 22.32300 45.56800
C  54.06900 21.33000 45.24600
C  54.78600 20.10700 45.07800
C  56.12400 20.44600 45.16700
C  56.18600 21.86700 45.52700
C  54.22200 18.74100 44.57900
C  57.32100 19.49900 45.08700
O  57.07600 18.32300 44.89600
C  58.77500 19.85600 45.24000
N  56.38400 24.94200 46.27500
C  57.43400 24.06400 46.22700
C  58.78300 24.68400 46.52800
C  58.45700 26.22000 46.69900
C  56.86700 26.19500 46.50300
C  59.49500 24.03200 47.76100
C  59.12900 27.24200 45.65000
C  59.53300 28.58600 46.30500
N  53.96000 26.39700 46.06600
C  54.73700 27.44200 46.37200
C  53.82800 28.64200 46.36600
C  52.62400 28.18800 45.98100
C  52.76900 26.80800 45.74900
C  54.14300 30.12000 46.54600
C  51.27300 28.60700 45.55300
O  50.77600 29.69100 45.54000
C  50.52000 27.38400 44.96000
C  50.16900 27.73200 43.60000
O  50.98600 28.00700 42.74400
O  48.80100 27.91700 43.55200
C  48.32400 28.56800 42.33400
H  52.11200 20.61900 44.88500
H  58.22900 22.25800 45.63100
H  56.70000 28.28800 46.74900
H  49.45200 24.78600 44.84300
H  50.25900 21.96400 43.85500
H  50.21300 22.14400 46.79000
H  48.84700 21.75900 45.60700
H  49.18200 23.40700 46.31200
H  49.87900 23.53400 42.20900
H  50.61200 25.18200 42.35500
H  48.46500 25.73700 41.77600
H  47.82700 25.23600 43.34600
H  54.12600 17.99400 45.36700
H  54.94300 18.35800 43.85700
H  53.27500 18.78800 44.04100
H  59.05300 20.49400 44.40100
H  59.33100 18.92800 45.10900
H  59.04400 20.24100 46.22300
H  59.53700 24.63500 45.74300
H  58.50000 26.35600 47.78000
H  58.93300 23.09900 47.80200
H  59.42000 24.55000 48.71700
H  60.50500 23.80200 47.42300
H  58.48200 27.41700 44.79100
H  60.00300 26.84500 45.13400
H  60.52000 28.98800 46.07500
H  59.38700 28.66900 47.38200
H  58.86800 29.37200 45.94700
H  53.70100 30.83800 45.85600
H  55.22900 30.21800 46.52400
H  54.04000 30.52400 47.55300
H  49.63100 27.15800 45.54800
H  47.24900 28.74400 42.31300
H  48.46700 28.08700 41.36700
H  48.79500 29.54700 42.25100
Mg 48.08500 34.56200 27.13700
C  46.24900 33.00100 29.77300
C  48.57400 37.16900 29.31900
C  49.42900 36.29200 24.61400
C  47.14500 31.90000 25.17500
N  47.65600 34.85000 29.30500
C  46.92400 34.12900 30.19200
C  46.87400 34.74000 31.60500
C  47.31500 36.21900 31.24000
C  47.92800 36.08900 29.89200
C  46.15300 37.26200 31.40600
C  47.86000 34.04300 32.65200
C  47.31300 33.69200 34.01000
H  46.04800 34.41000 34.43900
N  49.06300 36.43700 27.03400
C  49.09700 37.36700 28.02500
C  49.65500 38.60700 27.52100
C  49.84900 38.39500 26.13600
C  49.48700 37.00900 25.83900
C  49.84200 39.83400 28.33400
C  50.28400 39.35000 25.08300
O  50.35400 39.09600 23.89300
C  50.71800 40.74300 25.55200
N  48.46100 34.17100 25.23400
C  48.91100 34.99700 24.30400
C  48.90300 34.42700 22.85700
C  48.45200 32.94800 23.14300
C  47.95100 32.96300 24.64000
C  47.88000 35.23300 21.90600
C  49.49800 31.81100 23.10000
C  48.98600 30.50700 22.56000
N  46.97600 32.71500 27.38200
C  46.64900 31.77400 26.44600
C  45.88700 30.71500 27.09100
C  45.71700 31.23100 28.32900
C  46.35300 32.44500 28.46900
C  45.36700 29.40400 26.58000
C  45.09900 30.85400 29.55400
O  44.62300 29.82200 29.94100
C  45.28200 32.10100 30.52800
C  45.72200 31.46700 31.85500
O  46.79500 30.96600 32.03200
O  44.63100 31.36700 32.69400
C  44.84600 30.61600 33.97200
H  48.66400 37.93800 30.09000
H  49.72100 36.86900 23.73400
H  46.94000 31.19600 24.36500
H  45.81900 34.71100 31.87900
H  48.08700 36.56300 31.92900
H  45.16500 36.82300 31.54900
H  46.10200 37.95400 30.56500
H  46.45700 37.79000 32.30900
H  48.81500 34.54900 32.78800
H  48.06900 33.08200 32.18100
H  48.09400 33.91900 34.73500
H  47.18800 32.63400 34.24100
H  50.80200 40.29300 28.09500
H  49.58600 39.61400 29.37000
H  49.16900 40.58600 27.92300
H  49.88800 41.23000 26.06400
H  50.83200 41.32800 24.63900
H  51.61900 40.58000 26.14400
H  49.89500 34.50900 22.41200
H  47.65500 32.70700 22.44000
H  47.59000 36.12100 22.46800
H  46.94000 34.74700 21.64700
H  48.39200 35.44400 20.96700
H  50.04200 31.68900 24.03700
H  50.28000 32.26800 22.49300
H  49.68400 30.15600 21.80000
H  47.98500 30.54600 22.12800
H  48.91300 29.75100 23.34100
H  45.08800 29.30600 25.53100
H  44.42100 29.16300 27.06400
H  46.17700 28.74600 26.89200
H  44.38100 32.68600 30.70900
H  44.67400 29.56900 33.72100
H  44.10200 30.95600 34.69300
H  45.84900 30.80600 34.35400

