158

Mg 1.31300 7.10200 26.01300
C  1.57300 9.27900 28.71700
C  1.95800 4.43300 28.23500
C  0.91400 4.98500 23.47100
C  1.15100 9.85000 23.86000
N  1.38100 6.92000 28.25800
C  1.43200 7.96800 29.13200
C  1.38600 7.56500 30.63000
C  1.81500 5.97300 30.37000
C  1.72300 5.69900 28.82600
C  3.12800 5.59200 30.97500
C  -0.01700 7.84900 31.26800
C  -0.09000 7.78400 32.79500
H  1.17800 7.47200 33.58600
N  1.53700 4.97800 25.85300
C  1.67200 4.07500 26.90000
C  1.43200 2.70400 26.35900
C  1.26500 2.80900 24.93700
C  1.26600 4.31800 24.65000
C  1.28800 1.45300 27.31300
C  1.03200 1.73800 23.92300
O  0.62800 2.02800 22.78500
C  1.19500 0.35400 24.27100
N  0.92200 7.39300 24.03700
C  0.82600 6.37500 23.17500
C  0.52200 6.88000 21.65200
C  0.54200 8.38700 21.87400
C  0.84600 8.56900 23.33200
C  1.49600 6.49900 20.44900
C  -0.65900 9.14600 21.29500
C  -0.40600 10.08300 20.13900
N  1.40200 9.08700 26.15700
C  1.28300 10.12300 25.21700
C  1.61300 11.41400 25.83400
C  1.70900 11.09700 27.20800
C  1.56200 9.73300 27.33700
C  1.73700 12.74000 25.21700
C  1.82100 11.71200 28.47300
O  1.84700 12.89400 28.80900
C  1.79600 10.57800 29.48900
C  3.15200 10.59300 30.11500
O  4.17900 10.04800 29.76400
O  3.04700 11.20300 31.34200
C  4.14800 10.94600 32.30400
H  2.41900 3.64700 28.83700
H  0.72400 4.40100 22.56900
H  1.22300 10.72900 23.21600
H  2.15100 8.13700 31.15700
H  0.99400 5.37900 30.77000
H  2.96200 4.77700 31.67900
H  3.50800 6.50700 31.42800
H  3.75400 5.23400 30.15800
H  -0.71800 7.20100 30.74200
H  -0.32100 8.85800 30.98600
H  -0.81600 7.00100 33.01300
H  -0.44600 8.73100 33.20000
H  1.18200 1.54600 28.39400
H  1.99900 0.64300 27.15000
H  0.41000 0.94200 26.91800
H  0.31900 0.05100 24.84300
H  1.99300 0.32800 25.01400
H  1.36800 -0.27000 23.39400
H  -0.45500 6.48200 21.37700
H  1.43700 8.72100 21.35000
H  2.47700 6.13500 20.75200
H  1.57300 7.26000 19.67200
H  1.12400 5.55700 20.04600
H  -1.05800 9.82100 22.05300
H  -1.51700 8.49300 21.13200
H  -0.84200 9.72100 19.20800
H  0.65400 10.28100 19.97900
H  -0.88200 11.02800 20.40100
H  0.91900 12.75700 24.49700
H  2.71900 12.79600 24.74900
H  1.52600 13.51800 25.95000
H  1.00600 10.71800 30.22700
H  5.12100 10.87400 31.81900
H  3.83900 9.99700 32.74300
H  4.23500 11.83000 32.93600
Mg 6.74700 56.51400 41.83000
C  5.94100 53.10000 41.35500
C  9.79800 55.94700 40.29400
C  7.20200 59.84600 41.60300
C  3.39600 56.94400 42.87200
N  7.72900 54.74500 40.91800
C  7.16700 53.46600 40.74700
C  8.11900 52.48800 40.02600
C  9.43800 53.38600 40.09600
C  8.97500 54.81300 40.43200
C  10.50500 52.91900 41.11300
C  7.67700 52.14200 38.58900
C  8.24400 50.78700 38.12000
H  7.51900 50.11900 36.94400
N  8.28000 57.71700 41.13300
C  9.45100 57.28800 40.54100
C  10.28500 58.44800 40.27700
C  9.59800 59.56400 40.70000
C  8.33200 59.06700 41.20000
C  11.67000 58.36600 39.68800
C  10.12600 61.03500 40.62800
O  11.28400 61.22600 40.17300
C  9.40600 62.21900 41.17800
N  5.36900 58.16200 41.94200
C  5.91100 59.47300 42.02600
C  4.77500 60.47000 42.23900
C  3.74500 59.53500 42.92800
C  4.15700 58.09000 42.52700
C  5.11800 61.86500 42.85300
C  2.26400 59.79100 42.52700
C  1.33400 60.08200 43.73000
N  5.03900 55.30500 42.08000
C  3.78800 55.61900 42.66500
C  3.12600 54.34500 43.06000
C  3.91600 53.34900 42.54300
C  5.10500 53.95800 41.97000
C  1.76200 54.25000 43.61800
C  4.02900 51.91100 42.37500
O  3.24400 51.05700 42.70400
C  5.37700 51.67000 41.57600
C  4.89700 51.01200 40.36600
O  4.10100 51.43100 39.58200
O  5.33900 49.74500 40.34900
C  4.75300 48.82900 39.43600
H  10.73700 55.71100 39.78900
H  7.21000 60.91900 41.40100
H  2.48100 57.17800 43.41900
H  8.22400 51.64100 40.70400
H  10.02800 53.30800 39.18300
H  11.48900 52.83900 40.65000
H  10.24700 51.90300 41.41000
H  10.53000 53.46300 42.05700
H  8.03400 52.96400 37.96800
H  6.59800 52.10000 38.43500
H  8.00400 50.13000 38.95600
H  9.33000 50.88000 38.09000
H  11.90500 57.41700 39.20700
H  12.44900 58.55300 40.42700
H  11.82300 59.02300 38.83100
H  9.13000 61.98900 42.20800
H  8.53400 62.47300 40.57700
H  10.03600 63.10200 41.07300
H  4.39800 60.67500 41.23700
H  3.98400 59.79100 43.96000
H  4.26700 62.28700 43.38800
H  5.42000 62.49700 42.01800
H  6.00200 61.58100 43.42300
H  2.02500 58.95400 41.87200
H  2.19900 60.68400 41.90400
H  0.93400 61.09100 43.82600
H  1.91800 60.03000 44.64900
H  0.49000 59.39500 43.79300
H  1.14800 53.55300 43.04800
H  1.29600 55.23200 43.54500
H  1.89400 53.92100 44.64900
H  6.04200 51.10300 42.22700
H  5.13400 49.08200 38.44700
H  3.67200 48.95900 39.37700
H  5.06400 47.81700 39.69700

