158

Mg 54.35200 24.68900 44.50000
C  51.45800 26.55700 43.73700
C  52.81300 21.84500 43.50400
C  57.36800 23.15700 44.87900
C  55.84400 27.65300 45.49400
N  52.44700 24.32700 43.55300
C  51.39200 25.22900 43.30400
C  50.13500 24.42200 42.86900
C  50.64900 22.97400 42.97600
C  52.09200 23.05100 43.36400
C  49.81900 22.11200 43.98200
C  49.66200 24.82800 41.38700
C  48.34700 24.17100 40.94900
H  48.25300 23.39600 39.63200
N  55.08000 22.73700 44.10100
C  54.23700 21.67200 43.80000
C  55.07000 20.47600 43.89500
C  56.38400 20.79400 44.25600
C  56.35700 22.27200 44.37700
C  54.51500 19.13200 43.58000
C  57.45500 19.78400 44.50300
O  57.20700 18.61100 44.36200
C  58.80500 20.15100 44.99900
N  56.40200 25.35600 44.97600
C  57.43800 24.54200 45.09800
C  58.76500 25.25100 45.56500
C  58.21200 26.72800 45.54100
C  56.73600 26.60400 45.24800
C  59.28800 24.86300 47.00300
C  58.87000 27.68300 44.47600
C  59.37800 28.99500 45.06500
N  53.77600 26.68500 44.86100
C  54.44700 27.69900 45.34500
C  53.54500 28.87000 45.43100
C  52.36400 28.43400 44.78800
C  52.60000 27.15800 44.40600
C  53.82400 30.17700 46.11300
C  51.01100 28.86500 44.35100
O  50.41200 29.94300 44.37700
C  50.37900 27.66400 43.56900
C  50.07300 28.05200 42.12800
O  50.86500 28.35100 41.22800
O  48.71000 27.97800 42.03400
C  48.14400 28.43100 40.76100
H  52.34400 20.86900 43.35800
H  58.28200 22.68600 45.24600
H  56.40400 28.55500 45.75200
H  49.33100 24.79500 43.50300
H  50.62800 22.54200 41.97600
H  49.12000 22.78400 44.47800
H  50.54800 21.71100 44.68600
H  49.25000 21.31200 43.50900
H  50.40600 24.49800 40.66200
H  49.67600 25.91700 41.35700
H  47.70800 25.03500 40.76600
H  47.89300 23.64900 41.79100
H  55.10600 18.76400 42.74100
H  53.42500 19.13000 43.55200
H  54.76800 18.48300 44.41800
H  59.09200 21.09300 44.53200
H  59.39000 19.30300 44.64400
H  58.90900 20.09900 46.08300
H  59.56700 25.00700 44.86800
H  58.31800 27.27900 46.47600
H  59.54700 25.76800 47.55200
H  60.13100 24.19700 46.81900
H  58.54300 24.38500 47.63900
H  58.10900 27.81600 43.70700
H  59.63800 26.99400 44.12500
H  60.46800 28.98800 45.06100
H  59.06100 29.17400 46.09300
H  58.96400 29.84100 44.51700
H  54.21700 30.78900 45.30100
H  54.57500 30.04100 46.89100
H  52.95900 30.62000 46.60600
H  49.55000 27.31200 44.18300
H  47.84500 29.47800 40.81400
H  47.12500 28.06600 40.63900
H  48.85100 28.31800 39.94000
Mg -2.53200 34.28000 26.62500
C  -4.44100 32.89700 29.25900
C  -1.72900 36.94500 28.64400
C  -0.88700 35.73200 24.07300
C  -4.06900 31.98000 24.55800
N  -3.21500 34.81200 28.68000
C  -3.76700 33.99200 29.63600
C  -3.75400 34.73200 30.98700
C  -2.97300 36.09600 30.62100
C  -2.65300 35.97400 29.17200
C  -3.75800 37.36100 30.97400
C  -3.09600 34.02600 32.15700
C  -2.67200 34.84800 33.42500
H  -3.19700 34.53000 34.83800
N  -1.45300 36.12100 26.37100
C  -1.22100 37.06000 27.29400
C  -0.29000 38.09400 26.82300
C  0.00600 37.71800 25.48200
C  -0.83400 36.53300 25.20900
C  0.30800 39.23400 27.72000
C  0.93500 38.34900 24.42200
O  1.03500 37.96100 23.28500
C  1.76000 39.51200 24.86600
N  -2.62500 33.98500 24.63600
C  -1.79300 34.67700 23.79600
C  -1.69100 33.95400 22.40900
C  -2.65800 32.73100 22.57400
C  -3.15200 32.93000 24.04700
C  -2.02300 34.75800 21.10300
C  -1.82300 31.40800 22.46500
C  -2.59600 30.24800 21.90200
N  -3.99300 32.75400 26.80900
C  -4.49100 31.87500 25.88500
C  -5.38100 30.85500 26.50000
C  -5.40200 31.27800 27.89900
C  -4.56200 32.40300 27.98200
C  -6.03000 29.71000 25.76700
C  -5.94600 30.95600 29.21600
O  -6.67400 30.04100 29.47700
C  -5.26900 31.93700 30.19500
C  -6.29900 32.60200 31.04700
O  -7.11100 33.40200 30.57600
O  -6.26900 32.15700 32.32600
C  -7.39400 32.50700 33.25200
H  -1.41400 37.72600 29.34000
H  -0.31000 36.01100 23.18900
H  -4.45400 31.19800 23.90000
H  -4.81200 34.89900 31.18700
H  -2.00200 36.14500 31.11300
H  -3.47800 38.19000 30.32400
H  -3.56900 37.63900 32.01000
H  -4.81900 37.19900 30.77900
H  -2.35600 33.31200 31.79500
H  -3.78200 33.29500 32.58600
H  -2.84900 35.91900 33.33100
H  -1.58800 34.77100 33.50500
H  1.34100 38.94800 27.91400
H  -0.30700 39.32100 28.61700
H  0.23000 40.19500 27.21200
H  2.21100 39.35900 25.84600
H  1.11400 40.38500 24.95600
H  2.55500 39.75700 24.16100
H  -0.65400 33.65200 22.26100
H  -3.55800 32.78300 21.96200
H  -2.37100 35.78000 21.25500
H  -2.68900 34.27300 20.39000
H  -1.14400 34.90200 20.47500
H  -1.54700 31.21800 23.50200
H  -0.87700 31.55500 21.94600
H  -1.96100 29.72500 21.18700
H  -3.55800 30.49500 21.45200
H  -2.73500 29.56100 22.73700
H  -7.02500 29.90300 25.36600
H  -6.10200 28.86600 26.45400
H  -5.38500 29.55400 24.90300
H  -4.57600 31.45500 30.88400
H  -8.03200 33.19800 32.70000
H  -7.04400 32.89100 34.21000
H  -7.98300 31.61600 33.47200

