158

Mg 16.62900 -1.78100 27.35700
C  15.76600 0.24200 30.00200
C  18.73000 -3.67600 29.47600
C  18.03900 -3.40400 24.65100
C  14.85600 0.26900 25.21600
N  17.17700 -1.61400 29.52700
C  16.67700 -0.73200 30.45300
C  17.12300 -1.21200 31.86400
C  18.26600 -2.27100 31.56000
C  18.06300 -2.57100 30.10800
C  19.69100 -1.84400 31.96600
C  15.92200 -1.65800 32.77600
C  15.97000 -1.26600 34.26600
H  17.01200 -0.30300 34.75500
N  18.00800 -3.40600 27.14100
C  18.75000 -3.99700 28.07300
C  19.44000 -5.14600 27.50300
C  19.13900 -5.22500 26.16000
C  18.34700 -3.93500 25.88000
C  20.20800 -6.14200 28.36800
C  19.56500 -6.14300 25.11300
O  19.41200 -5.92200 23.89900
C  20.17600 -7.48600 25.54500
N  16.39600 -1.64400 25.22500
C  17.16000 -2.38100 24.35800
C  16.93300 -1.93500 22.86300
C  15.93800 -0.73000 23.08600
C  15.69800 -0.69300 24.59400
C  18.25700 -1.50200 22.12600
C  14.51000 -0.88700 22.40900
C  13.92000 0.30100 21.57900
N  15.42000 -0.03100 27.49700
C  14.78400 0.68000 26.54600
C  13.91200 1.68800 27.23200
C  14.37600 1.59500 28.58300
C  15.29900 0.60700 28.67500
C  13.09100 2.71500 26.62200
C  14.11900 2.08900 29.86000
O  13.37100 2.93900 30.24600
C  15.06600 1.32300 30.88100
C  15.85800 2.24500 31.71700
O  17.05500 2.42500 31.66600
O  15.06100 2.87800 32.70100
C  15.71100 3.72200 33.67300
H  19.19400 -4.22600 30.29800
H  18.46700 -3.90200 23.77800
H  14.29900 0.90600 24.52600
H  17.60600 -0.31000 32.23900
H  18.03100 -3.22200 32.03900
H  20.11500 -2.84800 32.00400
H  19.89600 -1.37000 32.92600
H  20.16300 -1.17200 31.25000
H  15.89300 -2.74700 32.74500
H  14.97300 -1.37100 32.32400
H  16.12100 -2.18400 34.83500
H  14.95800 -0.89400 34.42900
H  21.01700 -6.51400 27.74000
H  19.60000 -7.00700 28.63300
H  20.63300 -5.68100 29.25900
H  20.19400 -8.21600 24.73600
H  19.63700 -7.86900 26.41200
H  21.23600 -7.28300 25.69400
H  16.45600 -2.78400 22.37300
H  16.31300 0.23600 22.74800
H  17.97400 -0.97600 21.21400
H  19.03100 -2.22500 21.87100
H  18.74800 -0.70000 22.67800
H  13.76000 -1.21100 23.13100
H  14.58400 -1.66700 21.65100
H  12.84500 0.36700 21.75000
H  14.03800 -0.06900 20.56100
H  14.42900 1.22500 21.85500
H  12.44800 2.31000 25.84100
H  13.79000 3.44900 26.22100
H  12.45100 3.08200 27.42400
H  14.48200 0.77900 31.62400
H  15.09500 4.54600 34.03400
H  16.48500 4.27200 33.13700
H  16.19500 3.19500 34.49600
Mg 26.61800 49.69400 26.17000
C  24.56200 50.77700 28.83100
C  29.02400 48.78200 28.30400
C  28.42600 48.67500 23.37700
C  24.21200 50.90000 24.04200
N  26.66700 49.71000 28.31300
C  25.78200 50.18400 29.27200
C  26.26400 49.87100 30.66200
C  27.74900 49.29800 30.45700
C  27.86100 49.27600 28.94900
C  28.83300 50.10300 31.22300
C  25.29600 48.75800 31.32700
C  24.80800 49.23900 32.72000
H  25.66000 49.69300 33.89900
N  28.49800 48.86600 25.85200
C  29.30200 48.54900 26.87500
C  30.51700 47.91600 26.34200
C  30.39700 47.90300 24.90100
C  29.05300 48.48100 24.65200
C  31.70700 47.59600 27.26900
C  31.42500 47.46900 23.84000
O  31.26700 47.57100 22.61100
C  32.74300 46.82000 24.38500
N  26.45400 49.84300 23.97700
C  27.22600 49.18000 23.04500
C  26.69500 49.32100 21.66200
C  25.33400 49.99000 21.82800
C  25.32800 50.23800 23.40000
C  27.70500 49.95300 20.66800
C  24.24900 49.16600 21.27400
C  23.12700 49.88700 20.44700
N  24.80400 50.63300 26.38200
C  23.94400 51.12000 25.39100
C  22.86400 51.75600 26.00000
C  22.98000 51.62200 27.37100
C  24.21400 50.97700 27.55000
C  21.78800 52.43100 25.25800
C  22.45600 51.94600 28.62500
O  21.57700 52.69700 28.86600
C  23.39800 51.22000 29.62500
C  23.80700 52.24500 30.58500
O  24.57600 53.19400 30.35200
O  22.98400 52.14700 31.72000
C  23.44300 52.92600 32.92900
H  29.83700 48.57300 29.00300
H  29.05100 48.38200 22.53100
H  23.43500 51.23200 23.34900
H  26.29200 50.82000 31.19600
H  27.85300 48.23700 30.68500
H  28.42300 50.89000 31.85600
H  29.40800 50.77800 30.58900
H  29.40300 49.45000 31.88400
H  25.80100 47.79900 31.44900
H  24.36500 48.61000 30.78000
H  24.19800 48.38400 33.00900
H  24.18900 50.09400 32.44600
H  32.14200 46.66400 26.90900
H  31.43800 47.60400 28.32500
H  32.49700 48.32400 27.08500
H  33.36800 46.37600 23.61000
H  32.46300 46.01200 25.06200
H  33.37000 47.54900 24.89800
H  26.57600 48.33000 21.22300
H  25.40800 50.94200 21.30300
H  28.62600 50.28200 21.15000
H  27.23200 50.78800 20.15200
H  27.96400 49.26900 19.86000
H  23.76500 48.60500 22.07400
H  24.71100 48.44600 20.59800
H  23.18000 50.94600 20.70000
H  22.05700 49.71300 20.56200
H  23.30900 49.77300 19.37800
H  21.34400 51.68200 24.60300
H  22.20200 53.14600 24.54800
H  21.08500 52.90400 25.94500
H  22.80100 50.44400 30.10400
H  24.06400 52.31000 33.57800
H  22.49800 53.14000 33.42900
H  23.87700 53.91400 32.78000

