158

Mg 41.25700 9.54900 28.84800
C  43.09000 10.83100 31.52300
C  39.00300 8.27400 31.10000
C  39.48400 8.45600 26.28000
C  43.82500 10.42600 26.66600
N  41.24500 9.37500 31.10200
C  42.00000 10.14200 31.95100
C  41.45300 9.99900 33.37800
C  40.28500 8.96100 33.24600
C  40.15800 8.85300 31.71900
C  40.53500 7.53900 33.75400
C  41.08500 11.34300 34.02200
C  40.62300 11.20100 35.48600
H  40.93800 12.39600 36.38400
N  39.47900 8.57200 28.71600
C  38.68200 8.16600 29.69200
C  37.50500 7.60600 29.15300
C  37.54500 7.67300 27.77500
C  38.85400 8.25900 27.53200
C  36.46900 6.90800 30.11000
C  36.54800 7.22600 26.80400
O  36.66100 7.20400 25.59800
C  35.20900 6.90600 27.31600
N  41.65300 9.46200 26.80600
C  40.76800 8.93300 25.93400
C  41.24600 9.02500 24.47700
C  42.72200 9.63300 24.60900
C  42.73900 9.92800 26.09400
C  41.13400 7.72800 23.67900
C  42.87200 10.88600 23.67700
C  42.30800 12.23100 24.26000
N  43.09100 10.46600 28.94500
C  44.06100 10.70900 28.01500
C  45.17400 11.39700 28.61900
C  44.82000 11.60200 29.98800
C  43.60800 10.88200 30.15000
C  46.43500 11.78700 27.94200
C  45.20300 12.26100 31.32300
O  46.12100 13.04000 31.60500
C  44.05500 11.77000 32.26800
C  44.76600 11.06900 33.37300
O  45.21000 9.88600 33.39900
O  44.64200 11.79100 34.53300
C  44.83300 11.01300 35.77500
H  38.33100 7.83800 31.84300
H  39.00100 8.15300 25.34900
H  44.66700 10.70200 26.02900
H  42.28200 9.70900 34.02400
H  39.38600 9.32300 33.74500
H  41.57900 7.41100 34.04000
H  40.24400 6.75900 33.05100
H  39.94100 7.29900 34.63600
H  40.27700 11.68000 33.37200
H  41.94800 12.00600 33.97100
H  41.03900 10.31000 35.95700
H  39.54000 11.14800 35.37500
H  36.73000 6.77900 31.16100
H  36.31900 5.89100 29.74900
H  35.52500 7.43700 29.98000
H  34.54500 6.75900 26.46400
H  34.82000 7.71600 27.93300
H  35.16700 5.99600 27.91600
H  40.57100 9.74100 24.00900
H  43.45400 8.85800 24.38100
H  40.79500 6.91400 24.32000
H  42.03300 7.26200 23.27500
H  40.50800 7.83700 22.79400
H  42.21100 10.61500 22.85300
H  43.91400 10.82200 23.36300
H  43.16900 12.73600 24.69700
H  41.52000 12.13300 25.00800
H  41.92500 12.80300 23.41500
H  46.75700 10.93800 27.33900
H  47.13100 12.03400 28.74500
H  46.33300 12.66600 27.30600
H  43.39500 12.56500 32.61600
H  44.17300 10.15200 35.88000
H  44.48100 11.60900 36.61700
H  45.90400 10.83600 35.87600
Mg -11.41400 37.94500 42.34900
C  -8.94000 35.52700 41.95100
C  -9.41000 40.19100 40.51400
C  -13.86000 40.13800 42.32300
C  -13.57800 35.53300 43.75300
N  -9.47100 37.83300 41.29400
C  -8.64200 36.73100 41.24000
C  -7.40500 37.03400 40.49000
C  -7.38400 38.62900 40.47900
C  -8.81600 38.91500 40.77800
C  -6.49200 39.25400 41.63700
C  -7.28500 36.46800 39.01100
C  -5.91500 35.68700 38.81000
H  -4.93300 36.09400 37.64500
N  -11.60500 39.92200 41.62200
C  -10.66300 40.69400 40.93500
C  -11.21800 41.98100 40.62900
C  -12.50300 42.04800 41.23800
C  -12.66300 40.68700 41.84000
C  -10.46700 43.06500 39.83900
C  -13.44700 43.26900 41.26300
O  -13.20100 44.33700 40.71700
C  -14.67000 43.22300 42.10000
N  -13.50000 37.78800 42.84000
C  -14.21600 38.89700 42.77200
C  -15.68800 38.58000 43.28100
C  -15.66300 37.02500 43.60200
C  -14.16300 36.72900 43.37900
C  -16.23800 39.46200 44.45700
C  -16.56800 36.08000 42.82400
C  -17.01700 34.79100 43.58700
N  -11.30600 35.94500 42.93400
C  -12.22900 35.10800 43.48900
C  -11.55600 33.80300 43.71200
C  -10.23800 33.93300 43.16300
C  -10.17300 35.23800 42.69400
C  -12.12500 32.62500 44.40400
C  -8.94300 33.30100 42.97800
O  -8.46200 32.23300 43.44500
C  -8.06400 34.32800 42.10400
C  -6.82100 34.59100 42.99900
O  -5.79300 33.91800 43.05000
O  -6.88100 35.76300 43.68600
C  -5.65000 36.21800 44.23300
H  -8.77100 40.92700 40.02100
H  -14.69200 40.76800 42.00200
H  -14.35600 34.92700 44.22000
H  -6.56300 36.74600 41.11800
H  -7.17500 39.00800 39.47800
H  -5.53300 39.53200 41.19800
H  -6.44000 38.69100 42.56800
H  -6.96600 40.19900 41.90300
H  -7.22300 37.35300 38.37800
H  -8.08700 35.79100 38.71600
H  -6.19700 34.66300 38.56900
H  -5.40200 35.46800 39.74600
H  -9.94000 43.73900 40.51400
H  -11.09400 43.73700 39.25200
H  -9.83600 42.61900 39.07000
H  -14.64800 42.56100 42.96500
H  -15.53300 43.31600 41.44100
H  -14.55800 44.21300 42.54200
H  -16.42300 38.61600 42.47700
H  -15.79000 36.75700 44.65000
H  -15.48600 39.94600 45.08100
H  -16.84900 38.90700 45.17000
H  -16.84000 40.27100 44.04600
H  -15.99700 35.80600 41.93600
H  -17.49600 36.51800 42.45700
H  -18.10600 34.73800 43.58600
H  -16.69300 34.82800 44.62700
H  -16.68100 33.86900 43.11300
H  -11.45000 31.78700 44.22900
H  -13.14100 32.39900 44.07900
H  -12.16100 32.81700 45.47600
H  -7.85200 33.90500 41.12200
H  -5.70400 37.29000 44.42400
H  -4.74800 36.18300 43.62300
H  -5.46300 35.62400 45.12800

