158

Mg 44.16200 4.18900 48.22300
C  41.68500 6.53400 47.04800
C  41.65300 1.78700 47.95300
C  46.50100 1.76600 48.43200
C  46.57900 6.53400 47.97200
N  41.91900 4.21400 47.65500
C  41.18300 5.28000 47.18000
C  39.81100 4.85000 46.66300
C  39.76700 3.39600 47.20400
C  41.20700 3.08500 47.63200
C  38.61600 3.06400 48.27300
C  39.61300 5.01700 45.12000
C  38.13600 5.26900 44.71200
H  37.72300 4.46200 43.42300
N  44.09000 1.99700 48.28300
C  42.90700 1.27900 48.07600
C  43.32600 -0.10600 48.14300
C  44.71000 -0.17700 48.41900
C  45.20900 1.22700 48.32600
C  42.42100 -1.26900 47.85600
C  45.45700 -1.46000 48.60300
O  44.88100 -2.54200 48.62500
C  46.92900 -1.46000 48.83600
N  46.22500 4.15100 47.98500
C  46.93800 3.00400 48.30100
C  48.45600 3.28700 48.33000
C  48.51400 4.83600 48.41700
C  47.09700 5.24900 48.04100
C  49.31300 2.54000 49.46100
C  49.58300 5.44700 47.57500
C  50.37300 6.55900 48.23000
N  44.19700 6.20900 47.73500
C  45.24900 7.03200 47.74200
C  44.79300 8.36600 47.49700
C  43.40000 8.28100 47.17300
C  43.09100 6.89900 47.28400
C  45.78600 9.55600 47.45200
C  42.23700 8.90600 46.69600
O  42.08600 10.07800 46.31200
C  41.01700 7.84900 46.75800
C  39.92500 8.19200 47.68600
O  39.66900 7.74900 48.81000
O  39.20900 9.21400 47.17500
C  37.89100 9.52700 47.78400
H  40.84900 1.05200 47.87400
H  47.26000 0.98800 48.53600
H  47.41000 7.24200 48.01300
H  39.10300 5.51500 47.15700
H  39.59300 2.74900 46.34400
H  39.09400 2.73900 49.19700
H  37.98300 2.27900 47.85800
H  38.12300 4.01100 48.48900
H  39.97100 4.10400 44.64300
H  40.24500 5.85400 44.82200
H  38.09100 6.35700 44.65800
H  37.56000 4.98000 45.59100
H  42.73400 -1.78500 46.94900
H  41.43600 -0.83400 47.68800
H  42.43800 -1.97100 48.69000
H  47.46000 -1.15000 47.93600
H  47.19900 -2.50200 49.00900
H  47.25800 -0.98100 49.75900
H  48.83500 2.87600 47.39500
H  48.63600 5.03300 49.48200
H  49.67800 1.67200 48.91300
H  48.70800 2.22400 50.31100
H  50.04300 3.17900 49.95800
H  49.10400 5.80800 46.66500
H  50.20500 4.63200 47.20500
H  51.41700 6.33100 48.44300
H  49.85800 6.87800 49.13700
H  50.38000 7.40800 47.54700
H  45.12100 10.41800 47.50000
H  46.37300 9.61500 46.53500
H  46.52900 9.51700 48.24800
H  40.57100 7.83300 45.76300
H  37.68100 10.59200 47.68500
H  37.74200 9.30000 48.83900
H  37.17400 9.09200 47.08700
Mg 0.14300 43.40200 26.00900
C  2.28400 43.11200 28.79700
C  -2.41300 42.51700 28.15500
C  -1.84300 43.20100 23.37500
C  2.83100 44.27000 24.03400
N  -0.06000 42.73700 28.25100
C  0.93500 42.84400 29.17500
C  0.47100 42.66700 30.64500
C  -1.01900 42.12400 30.34200
C  -1.24100 42.55700 28.85300
C  -1.27700 40.58900 30.56600
C  0.61000 44.02600 31.46200
C  1.26700 43.89800 32.81000
H  0.87600 42.64700 33.65200
N  -1.90700 42.93400 25.80200
C  -2.82100 42.65500 26.77200
C  -4.10700 42.47500 26.22000
C  -3.91000 42.58300 24.77100
C  -2.46400 42.92300 24.56200
C  -5.27100 42.31400 27.16400
C  -4.92800 42.48900 23.60800
O  -4.70900 42.62400 22.45800
C  -6.34500 42.05800 23.96700
N  0.49500 43.63700 24.01200
C  -0.54700 43.57000 23.08600
C  -0.12800 44.05000 21.68100
C  1.34100 44.56600 21.99200
C  1.57000 44.20700 23.39900
C  -0.20600 42.89300 20.62200
C  1.53000 46.06700 21.76600
C  1.40200 46.61300 20.37500
N  2.11500 43.63800 26.28900
C  3.12300 43.96000 25.41600
C  4.44000 43.93900 26.08800
C  4.05500 43.66900 27.42500
C  2.68100 43.41800 27.48500
C  5.77100 44.03300 25.43300
C  4.66700 43.41600 28.70500
O  5.89100 43.38700 28.96600
C  3.53000 43.09600 29.71100
C  3.81100 41.68300 30.19500
O  3.87100 40.65700 29.50500
O  4.09400 41.69000 31.49900
C  4.85800 40.62800 32.12800
H  -3.24600 42.23700 28.80500
H  -2.50600 43.30200 22.51300
H  3.61700 44.77600 23.47100
H  0.97200 41.84900 31.16200
H  -1.74900 42.66300 30.94700
H  -1.79600 40.54700 31.52400
H  -0.32800 40.07900 30.39800
H  -1.83500 40.28400 29.68100
H  -0.34300 44.50500 31.68600
H  1.23500 44.71400 30.89400
H  1.05900 44.82400 33.34600
H  2.34700 44.02200 32.73600
H  -5.19400 41.25100 27.39300
H  -6.23000 42.45400 26.66600
H  -5.09100 42.88800 28.07300
H  -7.07800 42.85100 23.82100
H  -6.28700 41.55600 24.93200
H  -6.64800 41.22300 23.33600
H  -0.74900 44.90300 21.40700
H  2.08000 44.00900 21.41600
H  0.76400 42.72100 20.15600
H  -0.78700 43.28900 19.78900
H  -0.67800 41.94600 20.88300
H  2.47800 46.43200 22.16200
H  0.90200 46.55900 22.50800
H  0.99200 47.60000 20.59100
H  0.64000 46.18400 19.72600
H  2.37300 46.76600 19.90400
H  5.77900 44.08300 24.34400
H  6.49500 43.34700 25.87200
H  6.11800 45.05000 25.61800
H  3.41300 43.79900 30.53600
H  4.19700 39.92400 32.63300
H  5.52900 41.05500 32.87300
H  5.36600 39.98600 31.40800

