158

Mg 53.55300 24.24900 45.07600
C  51.30400 26.55400 43.82100
C  52.05500 21.84800 43.08100
C  56.17100 22.22800 45.43400
C  55.44600 26.94600 46.40800
N  52.00100 24.18200 43.51000
C  51.28500 25.34900 43.11500
C  50.26500 24.98200 42.01100
C  50.12300 23.46800 42.25500
C  51.49500 23.11400 42.97200
C  48.82700 23.18100 43.09500
C  50.90200 25.35700 40.67200
C  49.91500 25.74300 39.59200
H  50.54200 26.46000 38.35800
N  53.94600 22.21100 44.63800
C  53.19000 21.42500 43.84700
C  53.69500 20.07300 43.85400
C  54.83300 20.12700 44.77000
C  55.02500 21.51300 44.99500
C  53.23100 18.94600 43.00900
C  55.66500 18.93800 45.12700
O  55.40200 17.82200 44.68100
C  56.96600 18.99800 45.94900
N  55.56300 24.55200 45.87100
C  56.43200 23.52100 45.86600
C  57.79100 23.99900 46.30800
C  57.50200 25.48100 46.71300
C  56.02700 25.70700 46.37600
C  58.51700 23.22100 47.51100
C  58.52000 26.50600 46.09100
C  59.12100 27.53800 47.06500
N  53.31600 26.36700 45.31200
C  54.15600 27.31900 45.86000
C  53.36300 28.54400 45.99600
C  52.18400 28.30400 45.22800
C  52.28700 26.96300 44.80600
C  53.74700 29.81000 46.70900
C  50.91100 28.87500 44.77700
O  50.38500 29.98400 44.99500
C  50.31800 27.69300 43.85000
C  50.07900 28.33600 42.54800
O  50.93400 28.76800 41.80200
O  48.74100 28.37000 42.27200
C  48.29200 28.90600 40.98000
H  51.53800 21.16100 42.40700
H  57.10100 21.66400 45.53200
H  56.12000 27.78500 46.58800
H  49.29800 25.47400 42.11900
H  50.08300 22.87100 41.34400
H  49.17600 22.57500 43.93200
H  48.14100 22.62100 42.46000
H  48.35600 24.02000 43.60800
H  51.55800 24.61900 40.21000
H  51.42400 26.26500 40.97500
H  49.02200 26.28100 39.91200
H  49.50700 24.80900 39.20400
H  54.02000 18.51500 42.39200
H  52.43000 19.20600 42.31700
H  52.72000 18.24000 43.66300
H  57.13000 18.02400 46.40900
H  56.97100 19.89000 46.57600
H  57.77700 19.13700 45.23400
H  58.42700 23.91300 45.42700
H  57.54100 25.65500 47.78800
H  58.56500 23.92100 48.34600
H  59.48800 22.78900 47.27100
H  58.08000 22.34800 47.99600
H  57.94700 27.11900 45.39500
H  59.30700 25.91500 45.62200
H  59.06400 27.37300 48.14100
H  58.59800 28.47600 46.87800
H  60.10600 27.84800 46.71600
H  53.77200 30.56600 45.92400
H  54.74900 29.78700 47.13500
H  53.00500 30.03700 47.47500
H  49.36300 27.34400 44.24200
H  48.34700 29.98600 41.11800
H  47.26800 28.53600 40.93700
H  48.97700 28.51900 40.22600
Mg -5.58100 24.46400 26.32200
C  -3.81600 26.21800 28.65500
C  -6.94400 22.53700 28.66800
C  -7.27000 22.76800 23.77200
C  -3.99700 26.30500 23.76900
N  -5.49800 24.45300 28.46600
C  -4.73000 25.30300 29.24200
C  -5.14100 25.11400 30.71400
C  -5.84000 23.76200 30.71900
C  -6.13500 23.56700 29.18800
C  -5.11500 22.62100 31.45300
C  -6.14000 26.21900 31.11500
C  -6.44600 26.55000 32.58600
H  -5.96600 25.56500 33.66200
N  -6.92800 22.93800 26.25900
C  -7.42300 22.30300 27.35800
C  -8.37000 21.33000 26.95400
C  -8.46300 21.36000 25.54800
C  -7.54800 22.37300 25.15800
C  -9.19700 20.63000 28.05300
C  -9.50200 20.56500 24.63400
O  -9.49300 20.68400 23.36100
C  -10.55600 19.64400 25.24700
N  -5.55900 24.44300 24.06300
C  -6.36400 23.73600 23.24200
C  -6.38800 24.10600 21.76300
C  -5.28800 25.28200 21.85700
C  -4.89800 25.33200 23.31500
C  -5.97400 22.93900 20.85800
C  -5.89500 26.62900 21.36600
C  -5.54100 27.01400 19.88500
N  -4.17700 26.04400 26.20900
C  -3.64100 26.64300 25.10500
C  -2.59200 27.55500 25.57400
C  -2.62700 27.48700 27.02600
C  -3.61600 26.50200 27.27500
C  -1.69800 28.38700 24.79100
C  -2.04400 27.92500 28.30000
O  -1.18700 28.80800 28.56800
C  -2.92000 27.20200 29.39700
C  -2.13800 26.76900 30.59900
O  -1.71200 25.61900 30.75200
O  -2.02000 27.73600 31.58100
C  -1.69000 27.15400 32.90100
H  -7.41600 21.85900 29.38300
H  -7.74100 22.12100 23.03000
H  -3.47300 26.90300 23.02100
H  -4.25200 25.17700 31.34200
H  -6.85700 23.80300 31.11000
H  -4.55700 22.02500 30.73100
H  -5.75300 21.99000 32.07200
H  -4.32600 23.05300 32.06900
H  -7.12000 25.93900 30.72800
H  -5.72000 27.10900 30.64700
H  -7.48800 26.77000 32.82000
H  -5.90400 27.47700 32.77300
H  -9.60800 21.34300 28.76800
H  -8.52500 20.01100 28.64700
H  -10.03100 20.03200 27.68600
H  -9.95200 18.81900 25.62500
H  -11.15100 19.26100 24.41900
H  -11.32100 20.08100 25.88900
H  -7.37100 24.47800 21.47600
H  -4.41300 25.04500 21.25300
H  -4.97900 23.13500 20.46000
H  -6.68500 22.79700 20.04500
H  -5.89000 22.00700 21.41700
H  -5.53500 27.46800 21.96300
H  -6.97500 26.60100 21.50900
H  -4.81600 26.33600 19.43600
H  -5.13300 28.01500 19.74000
H  -6.49400 26.94200 19.36100
H  -1.25900 27.93000 23.90400
H  -0.88100 28.76400 25.40700
H  -2.28800 29.22600 24.42200
H  -3.58300 28.00700 29.71300
H  -1.75900 27.88700 33.70500
H  -0.68600 26.73200 32.94600
H  -2.42200 26.37200 33.10400

