158

Mg 25.42000 1.54600 29.38800
C  27.23500 1.37700 32.46900
C  22.64900 1.46800 31.21200
C  23.84100 1.71900 26.50100
C  28.54900 0.92200 27.75100
N  24.97100 1.63200 31.58700
C  25.87500 1.56900 32.64700
C  25.09200 1.69100 34.00900
C  23.57900 1.62700 33.56100
C  23.70400 1.49600 32.04500
C  22.75700 0.51900 34.21400
C  25.43700 2.90000 34.85100
C  25.93300 2.63700 36.32800
H  25.56300 3.50000 37.50600
N  23.50400 1.48200 28.91300
C  22.48700 1.53300 29.75600
C  21.28300 1.73700 29.04300
C  21.58800 1.73400 27.66900
C  23.05700 1.72100 27.62700
C  19.91400 1.63700 29.76200
C  20.71400 1.93900 26.47600
O  21.10000 1.71600 25.33000
C  19.28700 2.47900 26.64500
N  26.09000 1.22900 27.35300
C  25.20400 1.50000 26.29700
C  25.93800 1.68100 24.97700
C  27.42500 1.38200 25.42100
C  27.39500 1.12900 26.92600
C  25.48700 0.66300 23.87000
C  28.37600 2.44000 24.97100
C  29.85300 2.03000 24.80400
N  27.43100 1.21600 29.95800
C  28.54100 0.87900 29.14800
C  29.79700 0.82900 29.96900
C  29.28000 0.96500 31.29000
C  27.87200 1.17400 31.26600
C  31.19000 0.60000 29.41100
C  29.67400 1.11400 32.65700
O  30.80400 1.03500 33.10200
C  28.34300 1.25800 33.50800
C  28.20900 0.06100 34.31700
O  28.07200 -1.07600 33.95100
O  28.21900 0.44600 35.61100
C  28.09300 -0.60600 36.61700
H  21.68300 1.43600 31.72000
H  23.43500 1.88900 25.50100
H  29.54100 0.82400 27.30500
H  25.30200 0.84200 34.66000
H  22.98200 2.52200 33.74000
H  21.90000 0.92500 34.75100
H  23.26700 0.00900 35.03100
H  22.36900 -0.25200 33.54900
H  24.51700 3.48300 34.82800
H  26.07200 3.63900 34.36200
H  27.02300 2.64000 36.29700
H  25.79200 1.62900 36.72000
H  19.67000 2.69800 29.79700
H  20.03300 1.12100 30.71500
H  19.25500 1.05400 29.11700
H  18.70000 1.68900 27.11400
H  18.74600 2.76300 25.74200
H  19.44600 3.42600 27.16200
H  25.86800 2.72900 24.68600
H  27.73600 0.40200 25.05800
H  24.99800 1.25200 23.09500
H  24.68400 0.00400 24.19800
H  26.37000 0.14400 23.49800
H  28.30600 3.21000 25.73900
H  27.99900 2.79600 24.01200
H  30.33000 2.63900 24.03600
H  30.04900 1.00900 24.47700
H  30.34000 2.22300 25.76000
H  31.24000 -0.46900 29.61800
H  31.96900 1.19900 29.88300
H  31.33600 0.89600 28.37200
H  28.44500 2.18500 34.07100
H  28.17200 -1.65500 36.33200
H  27.16000 -0.63800 37.18000
H  28.71700 -0.40100 37.48700
Mg 48.10400 16.42200 29.61000
C  45.54700 16.10800 32.00800
C  50.01700 17.85500 32.06600
C  50.21700 16.78800 27.23100
C  45.79200 14.87000 27.31300
N  47.72100 17.04100 31.80500
C  46.72700 16.61400 32.54800
C  47.01200 16.81400 33.95300
C  48.41700 17.61900 34.01300
C  48.77100 17.52400 32.53900
C  48.39400 19.04300 34.53000
C  46.92200 15.56100 34.87800
C  47.78000 15.50900 36.10400
H  47.83500 16.65200 37.10900
N  49.89600 17.22900 29.62800
C  50.60500 17.65400 30.74700
C  51.96800 18.01500 30.27000
C  51.95300 17.89700 28.81000
C  50.63700 17.26800 28.50700
C  52.98400 18.52700 31.26800
C  53.04500 18.26900 27.80800
O  52.92700 18.18400 26.56400
C  54.31600 18.88600 28.32400
N  47.94100 16.12900 27.41500
C  49.04200 16.26000 26.71200
C  48.83600 15.70700 25.28500
C  47.47100 14.91900 25.37100
C  47.05500 15.29700 26.83700
C  48.81900 16.86300 24.20900
C  47.54200 13.33700 25.24700
C  46.91600 12.68500 23.94000
N  46.19700 15.52800 29.64600
C  45.39600 14.96400 28.64800
C  44.13300 14.51800 29.24900
C  44.17300 14.97500 30.56500
C  45.37200 15.63300 30.71900
C  43.02500 13.78600 28.49200
C  43.41100 14.90700 31.85800
O  42.34500 14.42100 32.18200
C  44.28000 15.69600 32.82100
C  43.62900 16.83300 33.63300
O  43.76600 18.04000 33.49400
O  43.02100 16.12600 34.64400
C  42.61600 16.99200 35.74000
H  50.77500 18.28500 32.72400
H  51.05700 16.64600 26.54800
H  45.28700 14.11700 26.70300
H  46.22800 17.51100 34.25000
H  49.18700 16.96600 34.42300
H  49.24900 19.27200 35.16500
H  47.53800 19.12300 35.20000
H  48.43600 19.83100 33.77900
H  47.12900 14.69900 34.24500
H  45.90000 15.52200 35.25600
H  48.73900 15.13200 35.74800
H  47.37600 14.65700 36.65100
H  53.48100 17.64300 31.66800
H  52.48700 18.99700 32.11700
H  53.68200 19.21900 30.79800
H  54.63600 18.23300 29.13700
H  54.12900 19.91600 28.62800
H  55.06400 18.83800 27.53300
H  49.62200 14.97300 25.10100
H  46.74800 15.26000 24.63000
H  49.45600 16.68700 23.34200
H  49.16700 17.77200 24.70000
H  47.81200 17.02700 23.82800
H  46.92300 12.91600 26.03900
H  48.55000 12.99400 25.48000
H  47.57000 12.05000 23.34200
H  46.69700 13.51900 23.27200
H  46.02500 12.09300 24.14700
H  43.02400 14.01300 27.42600
H  42.11900 14.20100 28.93500
H  43.14000 12.71000 28.61900
H  44.57500 14.96300 33.57100
H  41.89700 16.44100 36.34700
H  41.92000 17.80500 35.52900
H  43.42400 17.08800 36.46500

