158

Mg 34.71400 3.46100 29.13200
C  32.54100 4.13700 31.72400
C  37.27700 3.02500 31.48100
C  36.76200 2.62000 26.71000
C  32.14200 3.82300 26.92500
N  34.84400 3.56000 31.41000
C  33.80400 3.87800 32.22200
C  34.15400 3.75800 33.74100
C  35.80800 3.57800 33.61200
C  36.04300 3.37500 32.09100
C  36.73700 4.78000 34.11300
C  33.42200 2.56200 34.35000
C  32.97200 2.81300 35.78100
H  34.01400 3.47300 36.73300
N  36.75200 2.88800 29.07200
C  37.63700 2.73600 30.12100
C  38.96100 2.42500 29.62700
C  38.79000 2.29500 28.19300
C  37.38800 2.56300 27.89000
C  40.15600 2.21100 30.46500
C  39.86200 1.84800 27.18400
O  39.65000 1.85100 25.96900
C  41.27900 1.43800 27.64700
N  34.47800 3.10500 27.12200
C  35.52300 2.90900 26.32600
C  35.12000 2.96200 24.86000
C  33.55700 3.21000 24.86300
C  33.34600 3.34200 26.41600
C  35.91500 4.00000 23.93300
C  32.83600 2.00300 24.35300
C  32.84300 1.64800 22.82800
N  32.79500 4.00600 29.24700
C  31.86300 4.12700 28.25800
C  30.63400 4.69300 28.77700
C  30.86500 4.73700 30.11800
C  32.19200 4.23500 30.39000
C  29.44800 5.05100 28.00500
C  30.31800 5.10400 31.38900
O  29.25900 5.70200 31.67200
C  31.32000 4.57300 32.48500
C  31.65800 5.72800 33.31300
O  32.36900 6.68600 33.04800
O  31.06100 5.56200 34.54000
C  31.59800 6.48200 35.52900
H  38.03400 2.89200 32.25700
H  37.45100 2.60100 25.86300
H  31.32300 3.92800 26.21000
H  33.90100 4.67000 34.28200
H  36.20100 2.69500 34.11600
H  36.01500 5.59600 34.14800
H  37.55100 5.03700 33.43600
H  37.10400 4.48600 35.09600
H  34.09300 1.70600 34.27500
H  32.50400 2.31800 33.81400
H  32.60800 1.82900 36.07600
H  32.06000 3.40000 35.89100
H  40.59700 1.25300 30.19000
H  39.87600 2.11700 31.51400
H  40.81600 3.07900 30.48700
H  41.89100 2.09500 28.26600
H  41.87200 1.39500 26.73300
H  41.25500 0.48400 28.17300
H  35.39000 2.03000 24.36500
H  33.30100 4.14300 24.36100
H  36.43600 4.61700 24.66400
H  35.21400 4.46000 23.23700
H  36.67200 3.50100 23.32900
H  31.77700 2.12200 24.58400
H  33.16800 1.11000 24.88300
H  33.49800 2.15200 22.11700
H  31.79000 1.67400 22.55000
H  33.28300 0.65000 22.84000
H  29.19900 4.25800 27.30000
H  29.58100 6.05000 27.58900
H  28.61400 5.14100 28.70100
H  31.01400 3.74600 33.12500
H  30.88600 7.30500 35.58200
H  32.66400 6.69900 35.45900
H  31.44500 5.86300 36.41200
Mg -11.48700 16.18300 41.36300
C  -8.27600 14.75600 41.28100
C  -10.11000 18.83700 39.59400
C  -14.54400 17.38400 40.85700
C  -12.74300 13.13600 42.51100
N  -9.33400 16.80100 40.71100
C  -8.21800 16.09400 40.73800
C  -7.01000 16.71200 39.96800
C  -7.60600 18.09100 39.51900
C  -9.10400 17.88300 39.89800
C  -6.94800 19.42700 40.11400
C  -6.65900 15.74200 38.78100
C  -5.21800 15.13800 38.78300
H  -4.34900 15.45100 37.62800
N  -12.18700 17.93900 40.47800
C  -11.49300 18.84000 39.75700
C  -12.35800 19.86500 39.30100
C  -13.65800 19.59900 39.69600
C  -13.51800 18.24700 40.37300
C  -11.80800 21.00000 38.41100
C  -14.86900 20.53300 39.44300
O  -14.68000 21.61300 38.93900
C  -16.21100 20.07500 39.86100
N  -13.39600 15.42200 41.68400
C  -14.49800 16.14900 41.46200
C  -15.74800 15.31000 41.75400
C  -15.16200 13.89100 42.10200
C  -13.67800 14.17900 42.15900
C  -16.61800 15.94900 42.89700
C  -15.42800 12.80900 41.02800
C  -16.53600 11.76000 41.33100
N  -10.71300 14.30200 42.00400
C  -11.35300 13.17000 42.37800
C  -10.39500 12.11100 42.53800
C  -9.10900 12.73800 42.18200
C  -9.36700 14.02900 41.90000
C  -10.74000 10.74100 42.99800
C  -7.71500 12.50900 42.09000
O  -7.15300 11.40300 42.14000
C  -7.12500 13.89100 41.64400
C  -6.33100 14.40200 42.71500
O  -6.73800 14.43600 43.85200
O  -5.15500 14.94400 42.32300
C  -4.38600 15.80800 43.18800
H  -9.63800 19.67500 39.07600
H  -15.56300 17.76700 40.77700
H  -13.10600 12.14400 42.78900
H  -6.15600 16.74900 40.64400
H  -7.55000 18.12800 38.43200
H  -5.97300 19.11600 40.49100
H  -7.60300 19.85900 40.87100
H  -6.70400 20.15300 39.33900
H  -6.73900 16.23200 37.81100
H  -7.40100 14.94300 38.76300
H  -5.27700 14.05300 38.86700
H  -4.64100 15.55500 39.60800
H  -11.14800 20.52800 37.68300
H  -11.29800 21.65800 39.11400
H  -12.55200 21.64800 37.94900
H  -16.90400 20.81000 39.45100
H  -16.10700 20.09100 40.94600
H  -16.55700 19.10400 39.50500
H  -16.36500 15.26100 40.85700
H  -15.50800 13.56700 43.08300
H  -17.50600 16.51200 42.61000
H  -15.99300 16.59500 43.51400
H  -16.93200 15.13500 43.55000
H  -14.46200 12.40300 40.72800
H  -15.74000 13.32000 40.11700
H  -16.82400 11.91300 42.37200
H  -16.24200 10.72600 41.15000
H  -17.31000 11.93500 40.58400
H  -11.14000 10.87500 44.00300
H  -9.83700 10.15900 43.18200
H  -11.43300 10.26900 42.30100
H  -6.45200 13.66000 40.81800
H  -3.66000 15.28900 43.81300
H  -5.02800 16.43800 43.80400
H  -3.75500 16.50100 42.63200

