158

Mg 48.98800 34.94600 26.70400
C  47.01400 33.50100 29.23000
C  49.16400 37.88700 28.53900
C  50.18900 36.57400 23.96200
C  47.73700 32.27300 24.55500
N  48.08100 35.64500 28.67300
C  47.51100 34.80200 29.56800
C  47.69900 35.41800 30.98700
C  47.86800 36.88700 30.59300
C  48.40400 36.81300 29.18800
C  46.62000 37.75800 30.84000
C  48.95300 34.76200 31.69700
C  48.81200 34.21500 33.14900
H  47.82500 34.87700 34.19500
N  49.78300 36.84000 26.40500
C  49.79100 37.90300 27.30400
C  50.47700 38.98900 26.68700
C  50.85200 38.63600 25.36100
C  50.33900 37.30100 25.16000
C  50.59600 40.40600 27.29600
C  51.45400 39.48000 24.26400
O  51.63000 39.01100 23.21700
C  51.95200 40.85800 24.57200
N  48.74900 34.64200 24.57100
C  49.42000 35.43900 23.68300
C  49.18800 34.82800 22.26700
C  48.75400 33.39800 22.53200
C  48.34200 33.41000 23.96500
C  48.17500 35.75200 21.46300
C  49.92500 32.36200 22.38000
C  50.12800 31.94600 20.88200
N  47.76400 33.12300 26.85600
C  47.40500 32.13100 25.90900
C  46.63200 31.17900 26.57700
C  46.39500 31.62100 27.87600
C  47.04500 32.84700 27.97600
C  46.15400 29.93300 25.97600
C  45.79600 31.40700 29.16300
O  45.10800 30.51100 29.61200
C  46.12900 32.63100 30.07900
C  46.79800 31.99400 31.26500
O  47.87000 31.40800 31.33100
O  45.94600 32.02400 32.34100
C  46.17700 31.17500 33.51500
H  49.20200 38.71800 29.24700
H  50.78700 36.90700 23.11100
H  47.50100 31.43300 23.89800
H  46.79400 35.42100 31.59500
H  48.54100 37.38100 31.29400
H  47.03200 38.68500 31.23900
H  45.87300 37.23000 31.43200
H  46.17700 38.11200 29.90900
H  49.68000 35.56700 31.59100
H  49.18000 33.86700 31.11800
H  49.81000 34.30300 33.57900
H  48.50100 33.17400 33.22900
H  51.61000 40.80200 27.23400
H  50.23500 40.52100 28.31800
H  49.84700 40.97100 26.74100
H  52.83800 40.74200 25.19600
H  51.19800 41.57000 24.90900
H  52.41000 41.25900 23.66800
H  50.12800 34.92200 21.72300
H  48.00200 33.19600 21.77000
H  48.09000 36.70400 21.98800
H  47.20000 35.28800 21.31600
H  48.45100 35.84700 20.41300
H  49.66800 31.48400 22.97100
H  50.82600 32.82800 22.77900
H  49.38100 32.33600 20.19100
H  50.05000 30.85900 20.90300
H  51.17800 32.18900 20.71800
H  45.20300 29.53300 26.33000
H  46.87600 29.15100 26.21200
H  46.14700 30.07600 24.89600
H  45.17000 33.05600 30.37300
H  45.57200 31.44700 34.38000
H  47.22300 31.21200 33.81800
H  45.92300 30.15200 33.23900
Mg 5.70700 54.10800 39.54100
C  5.91200 50.49400 39.47800
C  9.07200 54.22000 39.28100
C  5.48300 57.31500 38.52700
C  2.26900 53.68800 39.46800
N  7.23500 52.51100 39.28800
C  7.10400 51.12600 39.24100
C  8.49200 50.49100 39.26400
C  9.32800 51.68900 39.78200
C  8.51400 52.88500 39.44800
C  9.75200 51.69400 41.25600
C  9.03600 49.92400 37.92300
C  8.72800 50.78600 36.61900
H  8.02800 50.10500 35.45700
N  7.13100 55.65100 38.98400
C  8.45600 55.47200 39.03200
C  9.07400 56.72400 38.66300
C  8.05700 57.59300 38.39800
C  6.80000 56.86600 38.67500
C  10.64700 56.98600 38.68400
C  8.21800 59.03700 38.12100
O  9.33400 59.51700 37.82600
C  7.11000 60.05500 38.20300
N  4.06100 55.28300 38.97900
C  4.24300 56.69700 38.81700
C  2.94300 57.35100 38.87500
C  1.90400 56.19400 38.92800
C  2.76500 54.97000 39.23600
C  2.83700 58.41200 40.05100
C  1.09400 55.99600 37.56000
C  -0.32600 55.36700 37.64100
N  4.36600 52.44000 39.70800
C  3.01300 52.44300 39.66200
C  2.48000 51.07900 39.92800
C  3.59400 50.29400 39.93400
C  4.68100 51.14500 39.71300
C  1.04800 50.74200 40.13700
C  4.08000 49.00400 39.86500
O  3.43700 47.96900 39.93200
C  5.59700 49.02300 39.66800
C  5.89000 48.14200 38.46300
O  5.23400 48.15900 37.44100
O  6.84800 47.19800 38.81500
C  6.97400 46.18500 37.75900
H  10.13400 54.41400 39.44400
H  5.28100 58.19600 37.91400
H  1.18800 53.61300 39.60800
H  8.40100 49.68600 39.99400
H  10.17100 51.86900 39.11500
H  9.37300 52.65500 41.60300
H  10.82000 51.50300 41.36500
H  9.13900 50.90100 41.68400
H  8.70400 48.90900 37.70600
H  10.11400 49.86000 38.07400
H  9.67700 51.14300 36.21900
H  8.08800 51.64900 36.80000
H  10.91500 57.53100 37.77900
H  11.27600 56.09600 38.67200
H  10.88800 57.49000 39.62000
H  7.48300 61.07300 38.31200
H  6.53300 59.85100 39.10500
H  6.52600 59.94100 37.29000
H  2.93800 57.81900 37.89100
H  1.25600 56.15600 39.80300
H  3.84200 58.59000 40.43300
H  2.17300 58.05200 40.83700
H  2.37900 59.31400 39.64600
H  1.72500 55.29800 37.01100
H  1.09400 56.94200 37.01900
H  -1.05100 55.84800 36.98500
H  -0.71400 55.66000 38.61700
H  -0.32800 54.28200 37.53700
H  0.80600 50.81700 41.19700
H  0.89900 49.69200 39.88200
H  0.38100 51.40300 39.58400
H  6.11300 48.55800 40.50800
H  7.14700 46.72600 36.82900
H  6.06100 45.60100 37.63900
H  7.87700 45.59000 37.89600

