158

Mg -0.46600 6.98600 24.44600
C  0.54600 9.03700 27.17500
C  0.19800 4.30200 26.31200
C  -1.29000 5.20500 21.75200
C  -0.43000 9.86400 22.45700
N  0.54700 6.77400 26.41400
C  0.54800 7.69900 27.42900
C  0.55800 6.99900 28.87900
C  0.43200 5.53600 28.51000
C  0.41200 5.54200 26.96100
C  1.46400 4.50700 28.99000
C  -0.63100 7.39500 29.76100
C  -0.25300 7.79800 31.23200
H  1.08400 7.32000 31.76100
N  -0.54800 4.92900 24.09400
C  -0.21800 4.03100 24.98200
C  -0.47500 2.71300 24.37300
C  -0.96100 2.91700 23.03900
C  -0.97500 4.41800 22.89100
C  -0.13900 1.44400 25.17400
C  -1.23200 1.89100 21.94700
O  -1.62800 2.18600 20.82500
C  -0.89000 0.40600 22.13000
N  -0.81800 7.44000 22.45700
C  -1.18600 6.57400 21.49600
C  -1.35900 7.11200 20.13400
C  -1.26900 8.63400 20.43400
C  -0.75900 8.70600 21.90400
C  -0.31000 6.61700 19.11400
C  -2.57400 9.29200 20.37000
C  -2.66900 10.34100 19.19900
N  -0.03500 8.99600 24.66700
C  -0.02700 10.05800 23.78000
C  0.33300 11.33600 24.38600
C  0.46100 10.96900 25.72500
C  0.32100 9.56700 25.89500
C  0.41800 12.73000 23.79500
C  0.69200 11.49600 27.06400
O  0.90100 12.65700 27.42300
C  0.70600 10.23500 28.09800
C  2.05500 10.36300 28.80500
O  3.17900 10.23400 28.35200
O  1.79000 10.92000 30.07800
C  2.82200 11.22300 31.03200
H  0.24100 3.43000 26.96700
H  -1.50400 4.53700 20.91500
H  -0.52100 10.82800 21.95200
H  1.49100 7.36200 29.30900
H  -0.48400 5.06800 28.87100
H  2.14700 4.98200 29.69400
H  2.11700 4.28600 28.14600
H  1.01000 3.61700 29.42600
H  -1.40200 6.62700 29.81700
H  -1.15900 8.20100 29.25100
H  -1.04400 7.34900 31.83200
H  -0.42400 8.86600 31.36700
H  -0.42000 1.48300 26.22700
H  0.92900 1.22500 25.20200
H  -0.66400 0.62400 24.68400
H  -1.69900 -0.03900 22.70900
H  0.12700 0.47300 22.51700
H  -0.84600 -0.13300 21.18400
H  -2.29900 6.68400 19.78700
H  -0.50200 9.17900 19.88300
H  0.66500 6.34100 19.51600
H  -0.15700 7.50600 18.50200
H  -0.69400 5.78500 18.52500
H  -2.82600 9.78100 21.31100
H  -3.34300 8.54600 20.16800
H  -3.44200 10.05000 18.48700
H  -1.73300 10.44400 18.65000
H  -2.94500 11.29900 19.63900
H  -0.23200 12.90000 22.93700
H  1.44300 12.89800 23.46500
H  0.08400 13.46400 24.52800
H  -0.03300 10.44500 28.87100
H  3.04000 12.28900 30.96300
H  3.72300 10.62500 30.89100
H  2.38300 11.04500 32.01300
Mg -11.53800 16.31700 40.53100
C  -8.39300 14.95700 39.91200
C  -10.24200 19.37500 39.62600
C  -14.64100 17.55100 40.19600
C  -12.83300 13.10800 40.81900
N  -9.51100 17.05700 39.80500
C  -8.39900 16.35800 39.68200
C  -7.13300 17.21700 39.40000
C  -7.75700 18.65000 39.57000
C  -9.26900 18.36400 39.74500
C  -7.21600 19.57200 40.69500
C  -6.61400 16.86600 37.93600
C  -5.16500 17.22700 37.61000
H  -4.81000 17.70600 36.21200
N  -12.29000 18.27100 40.18300
C  -11.58300 19.37000 39.74000
C  -12.51000 20.46800 39.54400
C  -13.80800 20.01600 39.95900
C  -13.64200 18.54500 40.11600
C  -12.05300 21.87300 39.26600
C  -15.01200 20.90500 40.01900
O  -14.96200 22.12300 39.75800
C  -16.26400 20.29500 40.62900
N  -13.44300 15.43300 40.38900
C  -14.55600 16.15700 40.23700
C  -15.81900 15.24700 40.16100
C  -15.21200 13.76200 40.28500
C  -13.76400 14.10100 40.52800
C  -16.88700 15.55900 41.30800
C  -15.28900 12.87400 38.95700
C  -16.00200 11.53600 39.08400
N  -10.83700 14.39800 40.61400
C  -11.44300 13.19100 40.80000
C  -10.45800 12.15700 40.71200
C  -9.21500 12.80300 40.39100
C  -9.51300 14.16000 40.32300
C  -10.81800 10.69800 40.89200
C  -7.84700 12.57400 40.13500
O  -7.24300 11.52000 40.08700
C  -7.23100 13.93200 39.80300
C  -6.23900 14.10000 40.92800
O  -6.52700 14.52600 42.01400
O  -4.98000 13.96800 40.40200
C  -3.85600 14.51600 41.20100
H  -9.89500 20.41000 39.63000
H  -15.66300 17.89400 40.01900
H  -13.26700 12.11200 40.92400
H  -6.38400 17.03300 40.17000
H  -7.74500 19.13500 38.59400
H  -6.25300 19.16700 41.00600
H  -7.84800 19.60200 41.58300
H  -7.23400 20.57800 40.27500
H  -7.26800 17.29100 37.17500
H  -6.68100 15.77900 37.91000
H  -4.54800 16.36300 37.85400
H  -4.92600 18.07000 38.25800
H  -12.54700 22.25400 38.37200
H  -11.00000 21.89200 38.98400
H  -12.33400 22.50300 40.11100
H  -16.90600 21.15400 40.82300
H  -16.06100 19.71000 41.52600
H  -16.74400 19.63800 39.90400
H  -16.28500 15.39300 39.18700
H  -15.70200 13.19000 41.07300
H  -17.17800 14.66800 41.86500
H  -17.74600 15.85700 40.70600
H  -16.48100 16.23200 42.06400
H  -14.30100 12.78700 38.50500
H  -15.79100 13.43900 38.17000
H  -15.41600 10.72600 38.65200
H  -17.05200 11.63100 38.80600
H  -16.20800 11.20300 40.10100
H  -9.84700 10.21300 40.79700
H  -11.50500 10.35100 40.12000
H  -11.19500 10.47600 41.89100
H  -6.72600 13.83600 38.84200
H  -3.06500 14.85400 40.53100
H  -3.42300 13.78700 41.88600
H  -4.14600 15.46000 41.66300

