158

Mg 8.71200 3.05700 28.21400
C  9.98000 1.49100 30.83900
C  6.90600 5.21100 30.23400
C  7.47400 4.67700 25.43800
C  10.35600 0.80800 26.03500
N  8.37600 3.21400 30.33100
C  9.11500 2.57200 31.24700
C  8.86200 3.01700 32.68400
C  7.61900 3.99600 32.48600
C  7.59800 4.14100 30.91900
C  6.22800 3.64700 33.17800
C  10.10600 3.49400 33.45000
C  9.90300 4.38000 34.70000
H  10.47000 3.97000 36.05600
N  7.31500 4.61100 27.93700
C  6.67000 5.35800 28.85300
C  6.08200 6.50600 28.28000
C  6.23100 6.39000 26.86100
C  7.04500 5.12100 26.68200
C  5.52000 7.63500 29.19800
C  5.72000 7.35000 25.77400
O  6.13400 7.24700 24.58100
C  4.79900 8.40000 26.18700
N  8.83300 2.71800 26.11200
C  8.18300 3.48400 25.19400
C  8.72100 3.27500 23.72400
C  9.66000 2.01700 23.89500
C  9.60800 1.77400 25.43600
C  7.50400 3.12400 22.69400
C  11.00800 2.15200 23.22700
C  12.06900 3.04000 23.88700
N  9.77600 1.39800 28.34000
C  10.44100 0.56400 27.36400
C  11.40200 -0.36800 28.01000
C  11.20000 -0.00800 29.39700
C  10.21600 0.99800 29.50900
C  12.30100 -1.38300 27.40100
C  11.62400 -0.39100 30.78100
O  12.39400 -1.26500 31.15400
C  10.89300 0.67100 31.76500
C  10.14400 -0.22200 32.71400
O  9.26100 -0.95100 32.31500
O  10.46400 0.05200 33.98500
C  9.58700 -0.68300 34.93900
H  6.63900 5.93000 31.01100
H  7.27100 5.26300 24.53900
H  10.79100 0.08000 25.34800
H  8.47400 2.13500 33.19300
H  7.92800 4.99800 32.78300
H  6.34200 2.66800 33.64500
H  5.46900 3.60500 32.39700
H  5.94400 4.34400 33.96600
H  10.86900 3.85400 32.76100
H  10.48400 2.56900 33.88600
H  8.84000 4.61500 34.76500
H  10.43400 5.30900 34.49200
H  5.90800 8.62900 28.97400
H  5.86400 7.50200 30.22400
H  4.43500 7.69900 29.10800
H  5.42300 9.13800 26.69100
H  3.99700 8.02600 26.82400
H  4.35900 8.79900 25.27300
H  9.41700 4.08800 23.51900
H  9.18100 1.14500 23.45000
H  6.62700 3.11900 23.34100
H  7.56400 2.16100 22.18700
H  7.46700 3.94400 21.97700
H  10.91200 2.60400 22.24000
H  11.38200 1.15200 23.00900
H  11.84800 3.35100 24.90800
H  12.44500 3.87200 23.29100
H  12.92000 2.35900 23.90900
H  13.00700 -1.02500 26.65200
H  11.64000 -2.14400 26.98700
H  12.95700 -1.72300 28.20300
H  11.52100 1.24000 32.45000
H  10.36400 -1.33800 35.33300
H  8.85900 -1.39300 34.54700
H  9.14200 -0.04700 35.70400
Mg 36.19100 49.49100 25.60600
C  36.42600 47.53100 28.73100
C  35.05200 52.03700 27.42800
C  35.70700 50.99600 22.74800
C  36.85300 46.43900 23.94700
N  35.78500 49.66100 27.85300
C  36.04900 48.83600 28.93100
C  35.94900 49.58500 30.28400
C  35.33500 50.89300 29.78800
C  35.34300 50.92100 28.25200
C  33.86900 51.22700 30.22700
C  37.42100 49.76800 31.05500
C  37.56400 49.71900 32.59900
H  36.44500 49.95300 33.59100
N  35.47900 51.28100 25.09100
C  35.05800 52.22700 26.03300
C  34.78200 53.46300 25.32400
C  35.20500 53.26700 23.95900
C  35.50300 51.81800 23.87300
C  34.15800 54.58400 26.00000
C  35.26900 54.19400 22.69800
O  35.55600 53.71200 21.60400
C  35.04200 55.73200 22.81700
N  36.37500 48.79400 23.62600
C  35.97300 49.64000 22.58900
C  36.19600 48.91500 21.15200
C  36.80400 47.54100 21.61400
C  36.73500 47.59700 23.19800
C  34.87400 48.97800 20.25800
C  38.24200 47.20700 21.08100
C  38.34500 45.88100 20.24000
N  36.59200 47.40100 26.13100
C  36.81600 46.32500 25.38300
C  37.06800 45.12100 26.08000
C  36.97900 45.56300 27.45500
C  36.63200 46.94300 27.42600
C  37.47300 43.80400 25.60700
C  37.07100 45.20100 28.86700
O  37.38200 44.09000 29.40200
C  36.77900 46.44700 29.69700
C  35.75600 46.10100 30.70200
O  34.56000 46.08300 30.50900
O  36.36100 46.01800 31.91200
C  35.43300 46.05500 33.06600
H  34.93700 52.98100 27.96500
H  35.69200 51.42000 21.74200
H  37.05200 45.47500 23.47500
H  35.29100 49.06500 30.98100
H  35.88000 51.76500 30.15000
H  33.21600 51.48200 29.39200
H  33.94700 52.09800 30.87700
H  33.43100 50.41700 30.81100
H  37.87300 50.63200 30.56700
H  38.07900 49.03500 30.58900
H  38.42400 50.36900 32.76000
H  37.95100 48.73300 32.85800
H  33.67200 55.26400 25.30100
H  35.01000 55.05700 26.48700
H  33.49100 54.23800 26.79100
H  35.45700 55.99500 23.79000
H  33.96400 55.89100 22.85100
H  35.52900 56.19600 21.96000
H  36.99300 49.52000 20.72000
H  36.21300 46.75200 21.15000
H  34.44300 48.04300 19.89800
H  34.96500 49.53700 19.32700
H  34.16200 49.60900 20.79000
H  38.91500 47.16100 21.93700
H  38.55500 48.07700 20.50400
H  38.89000 46.13100 19.33000
H  37.39900 45.41300 19.96900
H  38.86700 45.18700 20.89900
H  36.60200 43.36500 25.12100
H  37.79600 43.24900 26.48800
H  38.27100 43.77300 24.86500
H  37.67600 46.75000 30.23800
H  35.05500 45.03500 33.12200
H  34.60700 46.74100 32.87800
H  35.88400 46.25100 34.03900

