158

Mg 47.59000 23.84000 28.34100
C  48.37000 26.05100 30.94200
C  46.67000 21.45400 30.69100
C  47.16400 21.58300 25.82900
C  48.51700 26.14900 26.08400
N  47.42100 23.83400 30.58500
C  47.77000 24.84000 31.45700
C  47.70200 24.34100 32.89200
C  47.25400 22.89100 32.72700
C  47.03300 22.70900 31.24900
C  48.26000 21.87800 33.22500
C  46.79400 25.30700 33.81200
C  47.18200 25.30700 35.36400
H  46.53100 26.39800 36.21300
N  46.88100 21.80300 28.18700
C  46.59700 21.04300 29.31200
C  46.19900 19.74100 28.87200
C  46.37800 19.71300 27.43400
C  46.72500 21.07400 27.08600
C  45.80500 18.56700 29.80400
C  46.22300 18.51700 26.46700
O  46.23300 18.74900 25.25900
C  46.01700 17.08700 26.90900
N  47.75300 23.91700 26.29500
C  47.60400 22.84200 25.45700
C  48.01600 23.12500 24.05000
C  48.17700 24.65700 24.09300
C  48.18000 24.94200 25.58500
C  49.28300 22.23600 23.63600
C  47.06900 25.37900 23.28000
C  45.78500 25.62300 24.02100
N  48.45200 25.65800 28.41800
C  48.74800 26.52800 27.43800
C  49.25900 27.75100 27.95200
C  49.14000 27.55700 29.30700
C  48.59700 26.31400 29.57300
C  49.76100 29.00000 27.21300
C  49.43300 28.26100 30.52800
O  50.08500 29.28000 30.78700
C  48.86300 27.39100 31.68100
C  49.99300 27.20800 32.55400
O  50.97100 26.48800 32.28600
O  49.65000 27.70200 33.78600
C  50.67200 27.55500 34.82900
H  46.32300 20.67700 31.37500
H  47.14500 20.92400 24.95800
H  48.90100 26.84200 25.33200
H  48.72100 24.48300 33.25100
H  46.32600 22.79200 33.29100
H  47.70600 21.04900 33.66300
H  48.99800 22.17600 33.97000
H  48.86200 21.57700 32.36700
H  45.73200 25.06400 33.80000
H  46.92700 26.35000 33.52300
H  48.27100 25.28300 35.41100
H  46.79400 24.31400 35.59000
H  45.70800 17.57600 29.36000
H  44.82500 18.79600 30.22200
H  46.46600 18.49300 30.66800
H  45.11300 16.88800 27.48400
H  46.89500 16.82000 27.49800
H  46.11100 16.35900 26.10300
H  47.18800 22.93500 23.36700
H  49.05700 24.90800 23.50100
H  48.87500 21.38200 23.09500
H  49.73400 21.91100 24.57500
H  50.02300 22.83300 23.10300
H  46.93600 24.81500 22.35700
H  47.43200 26.36000 22.97400
H  45.69300 24.97300 24.89200
H  45.02100 25.28700 23.31900
H  45.65000 26.64200 24.38200
H  50.60600 29.35700 27.80100
H  48.90200 29.66600 27.13000
H  50.09000 28.72700 26.21000
H  48.07100 27.93900 32.19200
H  50.07200 27.35000 35.71600
H  51.02000 28.58700 34.87500
H  51.52600 26.90500 34.63900
Mg -11.88300 16.62300 42.38500
C  -8.52800 17.68600 42.67500
C  -12.83400 19.95800 42.19700
C  -14.87200 15.67800 41.46100
C  -10.68500 13.29800 42.17500
N  -10.85000 18.53400 42.40200
C  -9.41600 18.72400 42.49700
C  -9.13500 20.14800 42.26700
C  -10.39000 20.90500 42.60400
C  -11.46800 19.72800 42.46300
C  -10.46600 21.59000 44.03600
C  -8.59300 20.36300 40.77300
C  -7.20900 21.10100 40.58000
H  -6.13600 20.35200 39.84000
N  -13.65500 17.67700 42.01700
C  -13.82000 19.00300 41.94600
C  -15.17600 19.30200 41.39500
C  -15.82900 18.05300 41.17900
C  -14.74900 17.06300 41.50600
C  -15.71900 20.73300 41.26200
C  -17.29800 17.77100 40.84600
O  -18.04100 18.65400 40.51700
C  -17.84400 16.36300 40.85300
N  -12.60800 14.72300 41.52900
C  -13.99000 14.67300 41.66100
C  -14.44200 13.23500 41.83400
C  -13.07900 12.48300 41.81500
C  -12.04300 13.55000 41.89100
C  -15.24100 12.96800 43.08800
C  -12.84500 11.72300 40.48800
C  -13.48600 10.37100 40.51200
N  -10.07100 15.64800 42.56200
C  -9.71500 14.30000 42.44000
C  -8.26400 14.15800 42.60500
C  -7.81700 15.51800 42.71900
C  -8.94800 16.30900 42.74900
C  -7.51000 12.95600 42.47100
C  -6.57600 16.34600 42.73800
O  -5.42500 16.04800 42.66400
C  -7.03500 17.76400 42.76200
C  -6.57400 18.45200 43.91800
O  -6.53600 17.94500 45.02500
O  -6.16500 19.70900 43.61900
C  -5.61300 20.52100 44.76300
H  -13.18100 20.99400 42.18500
H  -15.81500 15.18200 41.22100
H  -10.44300 12.23800 42.27000
H  -8.31300 20.45500 42.91400
H  -10.53700 21.63700 41.81000
H  -10.68900 22.64500 43.87600
H  -9.49000 21.51700 44.51700
H  -11.17900 21.08800 44.69000
H  -9.25500 20.94800 40.13400
H  -8.50600 19.36500 40.34400
H  -6.88000 21.39800 41.57500
H  -7.48900 22.00500 40.03800
H  -16.21800 21.02100 42.18700
H  -16.53100 20.80000 40.53800
H  -14.96400 21.41600 40.87000
H  -18.91500 16.52400 40.72600
H  -17.82700 15.94300 41.85800
H  -17.34600 15.75500 40.09700
H  -14.99800 12.97900 40.93200
H  -12.74000 11.78000 42.57600
H  -16.30800 12.83200 42.91100
H  -15.09300 13.70600 43.87700
H  -14.91800 12.05500 43.58700
H  -11.78000 11.57200 40.30800
H  -13.28100 12.27900 39.65900
H  -14.09800 10.05900 41.35900
H  -12.67800 9.63900 40.52300
H  -13.98700 10.10100 39.58300
H  -6.49900 13.03400 42.86800
H  -7.36900 12.85500 41.39400
H  -7.98300 12.04400 42.83500
H  -6.55700 18.19200 41.88200
H  -6.04300 20.36300 45.75200
H  -5.87400 21.52200 44.42100
H  -4.52700 20.50200 44.67600

