158

Mg 5.83600 54.44700 39.88300
C  5.49300 50.96900 40.47700
C  8.90300 53.84900 38.54400
C  5.81600 57.66400 38.89700
C  2.53100 54.84400 41.20200
N  7.06600 52.54900 39.42500
C  6.66800 51.25700 39.72400
C  7.82900 50.32500 39.36300
C  9.03400 51.34100 39.29100
C  8.32400 52.66400 39.01600
C  9.94200 51.39400 40.54300
C  7.58200 49.54000 38.02100
C  6.47300 49.97000 37.08100
H  6.81200 50.47500 35.60900
N  7.14400 55.58800 38.87000
C  8.45900 55.16300 38.46500
C  9.20000 56.35700 38.04500
C  8.23300 57.44900 38.04000
C  6.98600 56.93300 38.61800
C  10.68300 56.29000 37.68000
C  8.52700 58.85800 37.69700
O  9.64100 59.14000 37.29100
C  7.49200 60.01300 37.82600
N  4.20400 55.99000 39.62200
C  4.56400 57.25000 39.45700
C  3.46400 58.20400 39.86000
C  2.62400 57.36800 40.85000
C  3.10800 55.95900 40.48300
C  3.89500 59.50700 40.52700
C  1.10100 57.40000 40.54500
C  0.13900 57.28000 41.79400
N  4.31800 53.19800 40.66800
C  3.04000 53.51500 41.21700
C  2.46200 52.28200 41.78900
C  3.40800 51.29100 41.53100
C  4.46100 51.83000 40.73500
C  1.23000 52.24500 42.59300
C  3.65800 49.88100 41.75300
O  2.99400 49.11300 42.39600
C  4.98500 49.54600 40.94700
C  4.60600 48.66100 39.78400
O  4.11600 49.03500 38.76900
O  4.93000 47.34100 40.06200
C  4.78400 46.37200 38.96500
H  9.90300 53.73700 38.12100
H  5.75100 58.70500 38.57500
H  1.72300 55.14900 41.87000
H  7.91300 49.57500 40.15000
H  9.72500 51.15600 38.46900
H  9.66800 50.74800 41.37600
H  10.09400 52.39100 40.95700
H  10.95300 51.09400 40.26800
H  7.52800 48.47900 38.26600
H  8.48500 49.55500 37.41000
H  5.93500 50.84500 37.44500
H  5.83400 49.09000 37.01700
H  11.31700 55.65300 38.29700
H  11.28600 57.18000 37.85700
H  10.65200 55.94300 36.64800
H  6.58200 59.93100 37.23200
H  7.89200 61.00200 37.59900
H  7.35000 60.12600 38.90100
H  2.82400 58.36000 38.99200
H  2.79600 57.58200 41.90500
H  4.84000 59.32100 41.03900
H  3.17800 59.92800 41.23200
H  4.16300 60.21100 39.73900
H  0.90300 56.51100 39.94700
H  0.82100 58.20600 39.86500
H  -0.44100 58.20200 41.84700
H  0.61000 57.20700 42.77400
H  -0.51400 56.45500 41.51000
H  0.51800 51.66200 42.00900
H  0.84600 53.16600 43.03200
H  1.52300 51.47800 43.30900
H  5.64700 48.91200 41.53600
H  5.09100 46.63300 37.95200
H  3.74000 46.06400 38.89600
H  5.40500 45.53700 39.28900
Mg -10.70400 17.20600 40.95400
C  -7.16900 17.16300 41.04600
C  -10.57800 20.56500 40.48500
C  -14.04500 17.14500 40.29600
C  -10.56000 13.71300 41.11800
N  -9.03800 18.65000 40.59000
C  -7.68900 18.42900 40.71000
C  -6.85600 19.65600 40.48900
C  -7.99300 20.75600 40.70900
C  -9.30900 19.96600 40.61700
C  -7.93000 21.63400 42.03600
C  -6.34300 19.67100 39.01700
C  -4.84100 19.46900 38.88000
H  -4.35000 18.48500 37.80900
N  -12.11400 18.66000 40.53800
C  -11.83800 19.93700 40.32300
C  -12.97000 20.66200 39.99800
C  -14.11200 19.80500 39.93300
C  -13.49700 18.46300 40.30700
C  -12.92000 22.21800 39.58200
C  -15.58500 20.16800 39.67600
O  -15.90600 21.32300 39.53500
C  -16.63600 19.20400 39.62800
N  -12.08500 15.66300 40.62700
C  -13.36500 15.87200 40.44800
C  -14.17300 14.55500 40.47600
C  -13.07200 13.49200 40.64800
C  -11.79200 14.34300 40.74100
C  -15.35700 14.53000 41.48400
C  -13.06000 12.33500 39.55700
C  -12.78900 12.74200 38.09000
N  -9.17400 15.67500 41.02300
C  -9.30400 14.32900 41.23700
C  -8.06900 13.75500 41.60400
C  -7.20200 14.86900 41.50800
C  -7.96400 15.98900 41.12700
C  -7.73100 12.30700 41.88400
C  -5.79800 15.27500 41.68400
O  -4.78000 14.67000 41.93800
C  -5.75400 16.78400 41.38100
C  -5.06100 17.50900 42.53400
O  -3.88000 17.83600 42.53600
O  -5.97100 17.74100 43.49900
C  -5.33300 18.05900 44.79400
H  -10.51600 21.65200 40.56800
H  -15.07400 17.05000 39.94200
H  -10.63200 12.64600 41.33800
H  -6.14600 19.79900 41.30400
H  -8.06300 21.47900 39.89600
H  -7.98800 22.68200 41.74100
H  -6.97400 21.49700 42.54200
H  -8.75400 21.44400 42.72400
H  -6.61500 20.64100 38.60000
H  -6.77800 18.97100 38.30400
H  -4.44000 19.21300 39.86000
H  -4.46400 20.42900 38.52800
H  -12.65600 22.23200 38.52400
H  -12.19200 22.71700 40.22100
H  -13.88700 22.70900 39.69400
H  -16.48000 18.43200 38.87500
H  -17.57800 19.71300 39.42100
H  -16.69600 18.72200 40.60400
H  -14.64200 14.33400 39.51700
H  -13.16900 13.19200 41.69200
H  -15.26700 15.25200 42.29600
H  -15.58800 13.47300 41.61700
H  -16.13000 14.81500 40.76900
H  -14.07600 11.95800 39.43600
H  -12.34900 11.65000 40.01800
H  -11.76100 12.45200 37.87000
H  -12.86700 13.82700 38.02700
H  -13.43600 12.27700 37.34700
H  -8.38100 11.89600 42.65600
H  -6.65800 12.31200 42.07500
H  -7.99400 11.74300 40.98900
H  -5.10200 16.89300 40.51300
H  -6.03100 18.48900 45.51300
H  -4.53900 18.80500 44.73600
H  -4.93900 17.15400 45.25600

