158

Mg 25.86600 50.93200 26.85300
C  23.43800 51.72100 29.36900
C  28.09900 50.12300 29.33800
C  27.97900 50.49100 24.47100
C  23.58800 52.16300 24.46500
N  25.76700 51.07000 29.13200
C  24.63700 51.24800 29.89600
C  24.95000 51.02900 31.33900
C  26.52500 50.69100 31.35400
C  26.83100 50.51000 29.83000
C  27.39400 51.80400 31.96400
C  24.00900 49.97800 31.94400
C  23.65800 49.95100 33.46700
H  24.16300 51.02900 34.41900
N  27.80400 50.35500 26.89700
C  28.58200 50.08500 28.01100
C  29.88700 49.70400 27.51300
C  29.83900 49.78700 26.12200
C  28.52000 50.29000 25.78500
C  31.05500 49.37400 28.35600
C  31.03600 49.59600 25.05800
O  30.91000 49.70700 23.84300
C  32.36200 49.19000 25.50600
N  25.82600 51.40100 24.75900
C  26.83000 51.01800 23.99100
C  26.62000 51.24900 22.44900
C  25.16800 51.77900 22.44200
C  24.84500 51.86700 23.97100
C  27.71000 52.14600 21.78900
C  24.17800 50.86200 21.62400
C  23.91700 49.43100 22.18700
N  23.93400 51.73900 26.88300
C  23.15100 52.17000 25.81300
C  21.82600 52.45300 26.26300
C  21.93200 52.46200 27.66600
C  23.20200 51.87200 27.99100
C  20.56900 52.96000 25.46400
C  21.17500 52.74700 28.91800
O  20.06900 53.26700 29.13700
C  22.20400 52.31500 30.04000
C  22.56000 53.52700 30.79500
O  22.92500 54.59600 30.36300
O  22.56800 53.19200 32.10700
C  23.15700 54.21300 33.03200
H  28.70200 49.82400 30.19700
H  28.63400 50.09100 23.69400
H  22.83400 52.50100 23.75200
H  24.71900 52.00100 31.77500
H  26.73900 49.72100 31.80200
H  26.71700 52.65100 32.07400
H  28.14500 52.20100 31.28100
H  27.87800 51.51300 32.89700
H  24.54100 49.02800 31.88200
H  23.17900 49.85300 31.24900
H  23.90400 48.96000 33.84800
H  22.57400 50.06400 33.47500
H  31.70500 50.24700 28.42600
H  31.58100 48.54500 27.88200
H  30.66500 49.07300 29.32800
H  32.44500 48.26000 26.06900
H  32.64800 49.99400 26.18400
H  33.01600 49.02500 24.65000
H  26.75300 50.31700 21.90000
H  25.15900 52.78300 22.01800
H  27.27600 53.14400 21.73000
H  27.91200 51.80800 20.77300
H  28.57600 52.40400 22.40000
H  24.51000 50.90600 20.58700
H  23.23300 51.39400 21.73600
H  24.05500 48.64600 21.44300
H  22.91200 49.28200 22.58200
H  24.68600 49.09000 22.88100
H  19.70900 52.82600 26.12000
H  20.34300 52.43300 24.53700
H  20.81400 53.98700 25.19300
H  21.75800 51.54700 30.67200
H  22.60300 55.12600 32.81100
H  24.22100 54.28500 32.80600
H  22.97000 53.98800 34.08200
Mg -5.45300 25.17900 27.23600
C  -3.39300 27.12800 29.50700
C  -6.08400 23.04500 29.87700
C  -6.80100 23.07800 25.03600
C  -4.10600 27.16500 24.75000
N  -4.84800 25.19300 29.42100
C  -4.07500 26.08100 30.11500
C  -4.14000 25.72300 31.63800
C  -4.77700 24.29500 31.69700
C  -5.24700 24.15600 30.20200
C  -3.74500 23.19900 32.18500
C  -4.98100 26.83600 32.32500
C  -6.00800 26.53600 33.43500
H  -5.61600 25.91300 34.77200
N  -6.43500 23.36600 27.43900
C  -6.52000 22.60800 28.58200
C  -7.31400 21.39500 28.35700
C  -7.60100 21.45300 26.96300
C  -6.95800 22.69500 26.39700
C  -7.45100 20.30600 29.42700
C  -8.14400 20.39300 26.09000
O  -8.30600 20.50700 24.90400
C  -8.80400 19.12000 26.66100
N  -5.43100 25.12800 25.13000
C  -6.19100 24.22000 24.43600
C  -6.27100 24.56500 22.97400
C  -5.33300 25.80600 22.82400
C  -4.88200 26.04500 24.33500
C  -5.73300 23.36700 22.07100
C  -5.92700 27.05000 22.09000
C  -5.26800 27.63200 20.84900
N  -3.92800 26.76100 27.03200
C  -3.60900 27.55000 25.99600
C  -2.67400 28.52400 26.41800
C  -2.59200 28.46100 27.79400
C  -3.39700 27.34200 28.11600
C  -1.76000 29.42700 25.59300
C  -1.92100 28.93400 28.93900
O  -1.08900 29.82400 29.06300
C  -2.49100 28.11600 30.17100
C  -1.42600 27.54700 31.02700
O  -0.58300 26.78100 30.63800
O  -1.49700 28.03300 32.27400
C  -0.80500 27.31700 33.38200
H  -6.34600 22.42700 30.73900
H  -7.37100 22.45600 24.34200
H  -3.73400 27.85300 23.98800
H  -3.13100 25.75200 32.05100
H  -5.63900 24.30800 32.36400
H  -3.59700 22.47700 31.38200
H  -4.14400 22.78000 33.10900
H  -2.73300 23.55800 32.37500
H  -5.52400 27.37200 31.54700
H  -4.22000 27.48600 32.75600
H  -6.82700 25.99000 32.96700
H  -6.32800 27.52700 33.75500
H  -8.28300 19.62900 29.23000
H  -7.71900 20.69000 30.41200
H  -6.50700 19.78000 29.57200
H  -8.14900 18.41900 27.17900
H  -9.14000 18.53300 25.80600
H  -9.52900 19.38200 27.43100
H  -7.33400 24.74300 22.80900
H  -4.41400 25.50800 22.31700
H  -5.17900 23.67800 21.18500
H  -6.58200 22.86100 21.61100
H  -5.12500 22.66300 22.64000
H  -6.04300 27.97600 22.65400
H  -6.94600 26.78700 21.80600
H  -6.06000 27.60300 20.10000
H  -4.44000 27.01800 20.49500
H  -4.94100 28.66700 20.95500
H  -2.32200 29.77400 24.72600
H  -0.91000 28.82800 25.26500
H  -1.42000 30.30700 26.13800
H  -3.19200 28.66900 30.79800
H  0.26100 27.53700 33.32300
H  -0.88600 26.23300 33.30600
H  -1.16900 27.57900 34.37600

