158

Mg -2.42900 17.02000 26.14100
C  -2.84200 14.72900 28.74100
C  -2.94700 19.61800 28.31400
C  -2.23000 19.15900 23.53200
C  -2.55300 14.37900 23.80600
N  -2.69400 17.12100 28.31900
C  -2.79400 16.07900 29.19600
C  -2.78500 16.56900 30.69900
C  -2.90400 18.16000 30.49900
C  -2.92600 18.34300 28.95500
C  -4.13400 18.82200 31.12200
C  -1.46700 16.13000 31.48500
C  -0.99400 16.81500 32.77200
H  -0.53200 15.96100 33.97200
N  -2.63100 19.04800 25.98600
C  -2.73600 19.99200 27.00700
C  -2.78200 21.33800 26.47400
C  -2.57200 21.13100 25.13300
C  -2.39400 19.73300 24.80100
C  -3.03800 22.63500 27.24000
C  -2.44500 22.17400 24.02200
O  -2.31700 22.02100 22.79200
C  -2.43700 23.57800 24.43300
N  -2.36800 16.76400 23.97400
C  -2.32900 17.82500 23.11600
C  -2.28300 17.37600 21.66400
C  -2.67100 15.86500 21.78400
C  -2.46000 15.66700 23.27100
C  -3.15500 18.05900 20.67800
C  -2.04500 14.87900 20.72300
C  -2.96500 14.26100 19.65800
N  -2.58100 14.99300 26.18800
C  -2.59300 13.99100 25.17700
C  -2.93600 12.69200 25.72500
C  -3.00300 12.89200 27.14500
C  -2.78200 14.29400 27.35100
C  -3.19100 11.49100 24.95600
C  -3.25900 12.28500 28.39800
O  -3.57700 11.14300 28.64400
C  -3.07600 13.42300 29.44500
C  -1.93600 13.09000 30.26300
O  -0.75400 13.36600 29.95300
O  -2.32900 12.46500 31.38800
C  -1.27300 12.08500 32.35700
H  -3.03200 20.38100 29.09100
H  -2.17000 19.76700 22.62800
H  -2.86100 13.59800 23.10700
H  -3.62800 16.13700 31.24000
H  -1.99900 18.60900 30.90900
H  -5.05300 18.82800 30.53700
H  -3.85100 19.82700 31.43500
H  -4.42200 18.39800 32.08400
H  -0.59400 16.19000 30.83500
H  -1.53300 15.08200 31.77600
H  -1.84600 17.42400 33.07500
H  -0.21200 17.45700 32.36800
H  -3.28400 22.39300 28.27400
H  -3.85900 23.20500 26.80400
H  -2.11700 23.21700 27.26200
H  -3.46100 23.75500 24.76100
H  -2.15500 24.25700 23.62800
H  -1.81300 23.79700 25.29900
H  -1.29100 17.44600 21.21700
H  -3.75000 15.83100 21.63300
H  -3.56900 17.41000 19.90600
H  -2.65800 18.82500 20.08300
H  -3.96500 18.55200 21.21700
H  -1.49300 14.02100 21.10800
H  -1.33900 15.47900 20.14800
H  -3.98100 14.58200 19.89000
H  -2.77400 13.18800 19.63700
H  -2.84900 14.73100 18.68100
H  -3.81300 10.75300 25.46400
H  -2.20100 11.08500 24.74800
H  -3.73100 11.80700 24.06300
H  -3.93400 13.47000 30.11400
H  -1.21500 10.99900 32.42900
H  -1.52300 12.63900 33.26200
H  -0.29400 12.49800 32.11300
Mg -2.39000 34.18300 26.70800
C  -3.95300 32.73900 29.42100
C  -0.81300 36.40300 28.79700
C  -1.16800 35.98600 24.07200
C  -4.52500 32.50800 24.60500
N  -2.49400 34.65800 28.85600
C  -3.05900 33.78900 29.80300
C  -2.51900 34.03200 31.20800
C  -1.66800 35.30600 30.92600
C  -1.73800 35.57700 29.42100
C  -2.07900 36.59000 31.72400
C  -1.75100 32.81000 31.79500
C  -2.38100 32.27900 33.20300
H  -1.42500 32.35300 34.36400
N  -1.12800 35.92900 26.46600
C  -0.55400 36.64300 27.46800
C  0.52000 37.53000 26.93400
C  0.39100 37.33500 25.52200
C  -0.73300 36.40200 25.30800
C  1.25600 38.54000 27.75800
C  1.20700 37.89700 24.44600
O  1.10500 37.71200 23.24700
C  2.43200 38.60700 24.88400
N  -3.02100 34.50000 24.62800
C  -2.23500 35.17000 23.77600
C  -2.55300 34.67000 22.35300
C  -3.35600 33.41300 22.55900
C  -3.68800 33.50000 23.98700
C  -3.40900 35.69200 21.61000
C  -2.59300 32.04400 22.14700
C  -3.20700 31.08200 21.10300
N  -3.92800 32.87000 26.90000
C  -4.70400 32.27100 25.96200
C  -5.46200 31.20100 26.60900
C  -5.17600 31.31900 27.93900
C  -4.28400 32.41900 28.06500
C  -6.33900 30.09800 25.93500
C  -5.43500 30.81800 29.21800
O  -6.21100 29.93600 29.55900
C  -4.65400 31.66000 30.25600
C  -5.59700 32.23600 31.24600
O  -6.28000 33.19900 31.14100
O  -5.66400 31.42600 32.38500
C  -6.62200 31.91000 33.35600
H  -0.17500 36.95400 29.49100
H  -0.74800 36.27600 23.10600
H  -5.00800 31.81200 23.91600
H  -3.40500 34.25000 31.80500
H  -0.63500 34.99300 31.08100
H  -1.21400 36.88700 32.31700
H  -3.01700 36.43400 32.25700
H  -2.18800 37.43800 31.04800
H  -0.71900 33.08700 32.01300
H  -1.75300 32.02900 31.03500
H  -2.80700 31.27600 33.24600
H  -3.18900 32.90100 33.58900
H  0.63800 38.79700 28.61800
H  1.41800 39.49200 27.25100
H  2.20100 38.15000 28.13600
H  3.06900 38.71700 24.00600
H  3.03900 38.02400 25.57700
H  2.21700 39.62400 25.21300
H  -1.65500 34.35500 21.82200
H  -4.29300 33.41500 22.00100
H  -2.97300 36.65200 21.88800
H  -4.47900 35.57800 21.78500
H  -3.27400 35.57300 20.53500
H  -2.45300 31.42300 23.03100
H  -1.58700 32.24600 21.77700
H  -3.34200 30.06700 21.47800
H  -2.50000 30.86400 20.30300
H  -4.05500 31.54200 20.59600
H  -6.04200 29.06100 26.08800
H  -6.43000 30.25000 24.85900
H  -7.32500 30.20500 26.38800
H  -3.93100 30.97200 30.69300
H  -7.56500 31.98300 32.81500
H  -6.19100 32.86300 33.66400
H  -6.56700 31.20400 34.18500

