158

Mg 26.26300 0.78400 28.73700
C  28.09200 -0.05400 31.69800
C  23.52900 1.22600 30.66200
C  24.47300 0.84100 25.85600
C  29.11500 -0.30900 26.89700
N  25.93500 0.61900 30.92000
C  26.82400 0.41700 31.96500
C  26.22100 0.82900 33.32600
C  24.71800 1.01000 32.95300
C  24.71000 0.95300 31.42700
C  23.77000 -0.00800 33.71200
C  27.03400 1.98200 33.93200
C  27.55100 1.71000 35.31000
H  27.49500 2.81800 36.27600
N  24.24500 1.00500 28.33900
C  23.29200 1.23900 29.22200
C  22.03100 1.43300 28.50000
C  22.29400 1.23300 27.14300
C  23.70000 1.09700 27.06100
C  20.73500 1.71800 29.25000
C  21.36200 1.24500 25.93800
O  21.71100 1.11500 24.77300
C  19.89000 1.49800 26.24600
N  26.76900 0.30800 26.70500
C  25.85800 0.75300 25.69200
C  26.53700 0.58700 24.29900
C  28.06200 0.51500 24.69300
C  27.99000 0.09400 26.15800
C  26.02700 -0.65700 23.45400
C  28.90400 1.79800 24.34600
C  29.28500 1.90400 22.85400
N  28.14300 -0.00800 29.11300
C  29.18900 -0.47300 28.29200
C  30.28100 -0.95500 29.11800
C  29.90500 -0.72900 30.38700
C  28.63300 -0.21100 30.38800
C  31.58400 -1.35300 28.59400
C  30.37900 -0.86100 31.72500
O  31.41600 -1.24700 32.18000
C  29.22700 -0.44200 32.71600
C  28.83600 -1.42600 33.78300
O  27.95100 -2.22500 33.78600
O  29.62400 -1.21800 34.91100
C  29.39200 -2.11500 35.99100
H  22.85000 1.75200 31.33600
H  23.96400 1.02300 24.90700
H  30.07400 -0.52700 26.42200
H  26.43800 -0.04800 33.93700
H  24.41000 2.03700 33.14700
H  24.42400 -0.72100 34.21500
H  23.15700 -0.50200 32.95900
H  23.18100 0.53900 34.44800
H  26.47100 2.91400 33.88800
H  27.93400 2.10900 33.33000
H  28.60000 1.44700 35.17400
H  27.13100 0.80800 35.75600
H  19.98900 0.92500 29.21900
H  20.41100 2.74400 29.07400
H  21.11600 1.81600 30.26700
H  19.48700 0.94100 27.09200
H  19.38700 1.18200 25.33300
H  19.76300 2.54500 26.52100
H  26.25600 1.50500 23.78300
H  28.63400 -0.27900 24.21300
H  26.71000 -1.47600 23.23100
H  25.46900 -0.26900 22.60100
H  25.17200 -0.99400 24.03900
H  29.74700 1.93200 25.02300
H  28.29000 2.66200 24.59700
H  28.88800 1.14600 22.17900
H  30.36000 1.77200 22.73300
H  28.88300 2.83900 22.46500
H  32.34900 -1.10000 29.32800
H  31.91200 -0.77700 27.72900
H  31.55400 -2.42500 28.39900
H  29.67200 0.35900 33.30500
H  28.44500 -1.82000 36.44200
H  30.24400 -2.10900 36.67200
H  29.32400 -3.16100 35.69300
Mg 26.41300 50.13400 26.77700
C  24.49200 51.46800 29.35500
C  28.83700 49.35000 29.01100
C  28.23500 49.09500 24.23900
C  24.21600 51.56000 24.55400
N  26.69500 50.60700 29.01300
C  25.72800 50.96100 29.90300
C  26.18700 50.83000 31.38900
C  27.56300 50.13100 31.16100
C  27.72800 49.98600 29.64000
C  28.80100 50.75000 31.88800
C  25.08000 50.03200 32.23800
C  25.53900 49.01700 33.37500
H  24.62000 49.00600 34.64800
N  28.25300 49.33800 26.65100
C  29.12500 49.13700 27.67700
C  30.34800 48.53200 27.24100
C  30.25800 48.51200 25.81400
C  28.89500 48.97600 25.50700
C  31.43000 48.00400 28.17800
C  31.30200 48.25500 24.76400
O  31.08400 48.41300 23.54700
C  32.69500 47.97300 25.21800
N  26.20000 50.16400 24.65700
C  27.02300 49.57400 23.80500
C  26.48900 49.55300 22.34100
C  25.19900 50.42500 22.50200
C  25.17100 50.71400 23.99300
C  27.54400 50.09700 21.33200
C  23.89700 49.82000 22.02700
C  22.88700 50.81600 21.46200
N  24.59100 51.15200 26.87100
C  23.80600 51.60700 25.88500
C  22.66500 52.37100 26.42700
C  22.88800 52.32000 27.85100
C  24.07300 51.51300 28.00100
C  21.55200 53.11000 25.70600
C  22.34400 52.64100 29.14000
O  21.38100 53.30900 29.49900
C  23.37400 52.11400 30.16300
C  23.74100 53.34100 31.02000
O  24.52100 54.27400 30.79100
O  22.94300 53.19400 32.19800
C  23.30300 54.01700 33.35800
H  29.55000 49.02600 29.77200
H  28.69200 48.50100 23.44500
H  23.55300 51.97200 23.79000
H  26.30200 51.85900 31.73000
H  27.41600 49.08500 31.43100
H  29.20000 51.66700 31.45500
H  29.54300 49.95200 31.87100
H  28.56600 50.98700 32.92600
H  24.51900 49.35800 31.59100
H  24.41100 50.80200 32.62100
H  26.57300 49.24200 33.63800
H  25.45000 48.02300 32.93500
H  32.29200 48.64900 28.00500
H  31.71900 46.98600 27.91800
H  31.15200 48.13200 29.22400
H  33.37200 48.05800 24.36800
H  32.60400 47.03900 25.77300
H  32.97100 48.72900 25.95400
H  26.10300 48.61700 21.93700
H  25.43400 51.38200 22.03700
H  28.50900 50.24500 21.81700
H  27.32400 51.03900 20.82800
H  27.62900 49.19900 20.72100
H  23.40000 49.23400 22.80000
H  24.11100 49.10300 21.23400
H  21.91100 50.86700 21.94300
H  22.67200 50.60000 20.41500
H  23.25900 51.83500 21.56500
H  21.03000 52.60200 24.89500
H  21.96000 54.02200 25.27200
H  20.79200 53.43500 26.41700
H  22.88300 51.37200 30.79100
H  23.49700 55.06500 33.12900
H  24.21600 53.49800 33.65000
H  22.59000 53.95100 34.18000

