158

Mg 45.28800 5.17400 47.68800
C  43.34700 7.84200 46.97300
C  42.80300 3.12400 46.72100
C  47.45800 2.59100 47.89000
C  48.00300 7.41400 48.02100
N  43.34800 5.49600 46.84700
C  42.73800 6.64800 46.70300
C  41.25200 6.53000 46.24100
C  41.01800 5.00600 46.41900
C  42.48000 4.47700 46.66500
C  40.09400 4.56800 47.51400
C  41.14800 7.01700 44.73000
C  39.88200 7.88000 44.37700
H  39.14500 7.67200 43.03800
N  45.13300 3.11700 47.35900
C  44.05600 2.45300 46.89400
C  44.42000 1.08100 46.63500
C  45.75400 0.90000 47.05900
C  46.17700 2.20000 47.55700
C  43.50200 0.00600 46.13400
C  46.55800 -0.41400 46.87200
O  46.10700 -1.36900 46.28300
C  47.89400 -0.48900 47.60400
N  47.42900 5.05600 47.74900
C  48.04100 3.84700 48.02900
C  49.51000 3.99300 48.25600
C  49.71500 5.55500 48.33600
C  48.28700 6.05800 48.11900
C  49.97700 3.20400 49.48300
C  50.66800 6.14500 47.25300
C  51.47600 7.27900 47.69700
N  45.65700 7.27600 47.62200
C  46.72400 8.04700 47.84000
C  46.42700 9.45600 47.74700
C  45.07500 9.45500 47.32300
C  44.65700 8.13900 47.35700
C  47.39000 10.60100 47.77700
C  43.94300 10.27400 46.97700
O  43.79800 11.47200 46.82600
C  42.73600 9.24000 46.78900
C  41.71200 9.54200 47.84400
O  41.49600 8.96400 48.85900
O  40.76800 10.44600 47.30800
C  39.50400 10.61600 48.14800
H  41.97600 2.45100 46.48500
H  48.24800 1.84600 48.00200
H  48.85800 8.08800 48.10900
H  40.58700 7.15700 46.83500
H  40.63200 4.52900 45.51900
H  39.41300 5.39700 47.70200
H  40.47400 4.18500 48.46200
H  39.63400 3.66900 47.10500
H  41.21100 6.11600 44.12100
H  42.06000 7.60300 44.61100
H  40.20400 8.91500 44.26300
H  39.08100 7.88400 45.11500
H  43.73800 -0.35300 45.13200
H  42.42600 0.17800 46.13600
H  43.75100 -0.85900 46.75000
H  48.09200 -1.54800 47.76700
H  47.50400 -0.05600 48.52600
H  48.77100 0.04500 47.24000
H  50.00800 3.60200 47.36800
H  49.92600 5.93500 49.33600
H  50.28100 2.16700 49.34200
H  49.06400 3.17300 50.07700
H  50.68900 3.82000 50.03100
H  49.93700 6.47400 46.51500
H  51.30200 5.33700 46.88800
H  52.44500 7.13700 47.21900
H  51.54700 7.22000 48.78300
H  51.07200 8.20800 47.29500
H  46.87700 11.55100 47.62200
H  48.06200 10.55000 46.92000
H  48.03100 10.62100 48.65900
H  42.19000 9.42600 45.86400
H  39.57700 11.09400 49.12500
H  39.17000 9.60700 48.38700
H  38.77200 11.09400 47.49800
Mg 17.04400 52.28800 26.13500
C  18.85900 50.89800 28.69000
C  14.55800 53.13800 28.29800
C  15.03700 53.25200 23.50600
C  19.28100 50.87400 23.78700
N  16.73600 51.97800 28.21900
C  17.69900 51.59500 29.12300
C  17.30900 52.00300 30.50300
C  15.73700 52.05800 30.29400
C  15.62700 52.51500 28.84600
C  15.04000 50.67900 30.39600
C  18.09800 53.29400 31.05000
C  18.27400 53.34600 32.57300
H  17.42800 52.40400 33.41400
N  15.08700 53.21700 25.93100
C  14.24400 53.47400 26.96200
C  13.07500 54.10500 26.41700
C  13.19700 54.17300 25.01400
C  14.49100 53.56500 24.73200
C  11.84900 54.51300 27.25400
C  12.26500 54.76000 23.97200
O  12.44900 54.69700 22.75600
C  11.08100 55.50100 24.38900
N  17.07500 51.93700 23.88300
C  16.21200 52.61400 23.06000
C  16.56300 52.38500 21.57700
C  18.01800 51.75400 21.68900
C  18.14200 51.48100 23.19300
C  15.50500 51.42900 20.86700
C  19.10400 52.70500 21.20300
C  19.15600 54.11100 21.88300
N  18.69200 51.10200 26.14500
C  19.46000 50.55500 25.11700
C  20.58500 49.87400 25.78000
C  20.41200 49.94100 27.16700
C  19.24000 50.69800 27.33100
C  21.79500 49.29100 25.13700
C  20.91800 49.61700 28.52600
O  21.89300 49.03600 28.85600
C  19.86300 50.25600 29.56600
C  19.51700 49.11800 30.52400
O  19.03300 48.06100 30.12400
O  19.83300 49.41500 31.84700
C  19.50900 48.40300 32.77400
H  13.73200 53.26400 29.00000
H  14.60900 53.74200 22.62900
H  20.10400 50.57100 23.13600
H  17.43300 51.11800 31.12700
H  15.13500 52.72300 30.91300
H  14.16100 50.81100 31.02700
H  15.67900 49.91500 30.83900
H  14.72800 50.29000 29.42700
H  17.53400 54.20900 30.86900
H  19.04200 53.36700 30.51000
H  18.05100 54.32500 32.99700
H  19.30800 53.08900 32.80500
H  11.67500 55.58500 27.16500
H  11.97000 54.36600 28.32700
H  10.93500 54.00200 26.94900
H  10.46900 55.92100 23.59100
H  11.47300 56.37200 24.91500
H  10.52800 54.78900 25.00200
H  16.58500 53.29300 20.97400
H  17.99500 50.75100 21.26100
H  14.77200 51.02500 21.56600
H  16.05300 50.57100 20.47800
H  14.93700 51.99300 20.12800
H  18.81500 52.93400 20.17800
H  20.06400 52.18900 21.23000
H  19.83200 54.82400 21.41100
H  19.78000 53.92100 22.75600
H  18.19000 54.57700 22.07400
H  21.70000 48.20900 25.04800
H  22.57300 49.57200 25.84600
H  21.91000 49.77800 24.16900
H  20.46100 50.96400 30.14000
H  18.49100 48.05600 32.59200
H  19.63700 48.76300 33.79400
H  20.26700 47.62000 32.79200

