158

Mg 3.30700 -0.37800 43.98200
C  6.25700 1.57000 44.14400
C  1.71400 2.33300 42.57700
C  0.61800 -2.34700 43.68600
C  5.10500 -3.09400 45.14800
N  4.06000 1.62300 43.21400
C  5.22600 2.23000 43.48600
C  5.27500 3.69500 42.99500
C  3.72900 4.01400 42.94700
C  3.06700 2.59200 42.91100
C  3.32300 4.95200 44.11400
C  6.03500 3.97900 41.64300
C  6.51700 2.64400 40.89600
H  7.02900 2.94600 39.49700
N  1.42200 -0.01800 43.19900
C  0.91300 1.12700 42.62600
C  -0.57400 0.93000 42.33500
C  -0.90900 -0.35600 42.74000
C  0.36600 -1.00300 43.21300
C  -1.44100 2.00500 41.72200
C  -2.31000 -0.90000 42.73300
O  -3.23300 -0.14300 42.41300
C  -2.82200 -2.29400 43.18900
N  2.97000 -2.49200 44.10300
C  1.72200 -3.01700 44.13200
C  1.76500 -4.53500 44.41400
C  3.24000 -4.82200 44.82300
C  3.83100 -3.42000 44.65300
C  0.60400 -5.09700 45.26200
C  4.05400 -5.86700 43.94400
C  4.69900 -6.91000 44.77800
N  5.32300 -0.80700 44.47200
C  5.91400 -1.88100 44.98900
C  7.29500 -1.66900 45.42300
C  7.45200 -0.29900 45.13300
C  6.24500 0.19200 44.51800
C  8.15800 -2.67900 46.16900
C  8.36700 0.85500 45.19300
O  9.48900 0.87400 45.67000
C  7.61400 2.09500 44.54700
C  7.58000 3.26600 45.48100
O  8.45400 4.10800 45.53500
O  6.53800 3.19100 46.34300
C  6.57200 4.08300 47.49900
H  1.05200 3.13200 42.23700
H  -0.23000 -3.01500 43.52300
H  5.59700 -4.00300 45.50000
H  5.80600 4.18800 43.80900
H  3.53100 4.56600 42.02800
H  3.12800 4.46700 45.07000
H  2.56200 5.65500 43.77500
H  4.18300 5.57800 44.34900
H  6.99200 4.48500 41.76900
H  5.41000 4.60400 41.00600
H  5.79000 1.83800 40.79800
H  7.36400 2.27000 41.47100
H  -2.03300 2.47800 42.50600
H  -2.02000 1.78900 40.82400
H  -0.73400 2.75300 41.36400
H  -2.69700 -2.34700 44.27100
H  -2.33100 -3.13200 42.69300
H  -3.87000 -2.39500 42.90700
H  1.56000 -5.02600 43.46300
H  3.28400 -5.19000 45.84800
H  0.98400 -5.99200 45.75300
H  -0.24800 -5.29200 44.61000
H  0.38800 -4.38200 46.05600
H  4.81100 -5.36900 43.33800
H  3.49600 -6.37200 43.15600
H  3.95300 -7.21300 45.51200
H  5.60300 -6.50700 45.23500
H  4.95400 -7.86800 44.32500
H  7.90900 -2.76800 47.22700
H  9.11200 -2.15200 46.17000
H  8.32700 -3.66100 45.72600
H  8.26900 2.44500 43.74900
H  5.97200 4.98300 47.37200
H  7.57000 4.41800 47.78100
H  6.28400 3.45800 48.34400
Mg 24.46000 -7.51100 46.11400
C  26.90200 -5.12700 45.05900
C  22.11400 -5.99100 44.13600
C  22.41400 -10.02300 46.78000
C  27.13300 -9.26100 47.63100
N  24.54200 -5.79400 44.81600
C  25.61100 -4.91800 44.60100
C  25.22900 -3.79000 43.59100
C  23.62900 -3.99600 43.41200
C  23.42800 -5.35500 44.27200
C  22.76100 -2.82600 43.91400
C  25.92800 -3.86300 42.30900
C  26.48100 -2.53000 41.76500
H  25.52000 -1.89500 40.73900
N  22.38000 -7.86300 45.68600
C  21.63500 -7.17000 44.82000
C  20.33900 -7.77500 44.78700
C  20.34200 -8.95300 45.59200
C  21.72600 -8.98700 46.11100
C  19.14800 -7.06300 44.16300
C  19.16600 -9.87900 45.83500
O  18.20000 -9.71200 45.07400
C  19.22300 -10.98900 46.77800
N  24.81100 -9.31600 46.97800
C  23.75400 -10.15700 47.12700
C  24.14100 -11.47100 47.89200
C  25.64200 -11.24700 48.23900
C  25.87700 -9.90000 47.52600
C  23.26000 -11.94000 49.13700
C  26.74000 -12.31000 48.08600
C  27.49300 -12.85700 49.31600
N  26.56500 -7.34000 46.28100
C  27.53700 -8.10900 46.97100
C  28.85400 -7.48900 46.88000
C  28.67600 -6.32800 46.11400
C  27.26900 -6.28900 45.77300
C  30.01500 -7.93000 47.67700
C  29.32000 -5.04900 45.63900
O  30.43100 -4.64300 45.87500
C  28.21900 -4.34100 44.79800
C  28.23100 -2.96600 45.05300
O  28.91500 -2.19800 44.35400
O  27.49000 -2.57500 46.13800
C  27.50700 -1.19300 46.45100
H  21.35700 -5.51400 43.51000
H  21.72100 -10.80100 47.10500
H  28.05000 -9.68300 48.04800
H  25.43600 -2.80200 44.00200
H  23.30800 -4.14000 42.38000
H  23.32100 -2.04600 44.42900
H  21.93300 -3.11800 44.56100
H  22.19800 -2.19600 43.22500
H  25.17300 -4.21100 41.60500
H  26.76900 -4.55700 42.31300
H  27.48000 -2.79100 41.41600
H  26.71100 -1.80500 42.54500
H  19.30600 -6.00500 43.95800
H  18.21900 -7.30100 44.68200
H  19.00600 -7.44800 43.15400
H  19.49500 -10.51900 47.72300
H  20.03000 -11.63100 46.42600
H  18.31200 -11.58100 46.86300
H  23.90200 -12.25100 47.16900
H  25.69100 -11.00200 49.30000
H  22.92300 -12.94800 48.89700
H  22.48100 -11.20700 49.34700
H  23.90900 -11.99100 50.01000
H  27.39500 -11.98500 47.27800
H  26.27600 -13.15500 47.57700
H  27.03900 -13.84800 49.33700
H  27.14000 -12.21700 50.12400
H  28.57100 -12.84200 49.15400
H  29.75400 -8.47200 48.58700
H  30.75200 -7.14800 47.85900
H  30.58300 -8.68300 47.13100
H  28.44500 -4.58500 43.76000
H  27.07000 -1.18700 47.44900
H  27.04900 -0.59400 45.66400
H  28.50400 -0.78800 46.62700

