158

Mg 44.02300 4.28600 46.65800
C  42.04900 7.27900 47.01400
C  41.15100 2.59400 46.14900
C  45.76600 1.65400 45.56100
C  46.93200 6.13000 46.55500
N  41.89400 4.97600 46.37400
C  41.28200 6.14900 46.72100
C  39.73400 6.09400 46.80300
C  39.54400 4.47300 46.81000
C  40.93600 3.97600 46.45700
C  39.09900 3.85000 48.18600
C  39.06100 6.88800 45.59200
C  39.92200 6.99800 44.26600
H  39.21900 6.87600 42.89100
N  43.46600 2.23100 46.16300
C  42.25600 1.72800 45.98400
C  42.25100 0.30400 45.62800
C  43.66900 0.04400 45.48000
C  44.40300 1.31600 45.67300
C  41.05000 -0.59900 45.48000
C  44.27600 -1.25200 45.06800
O  43.59900 -2.27800 44.94800
C  45.69100 -1.47000 44.94000
N  45.99500 3.95700 46.07300
C  46.44800 2.72400 45.85100
C  47.98800 2.62900 45.86800
C  48.38400 4.05200 46.17200
C  47.01000 4.76400 46.35500
C  48.54000 1.59500 46.90300
C  49.22700 4.71100 44.96500
C  50.73600 4.73500 44.94900
N  44.49600 6.26200 46.85200
C  45.72500 6.86800 46.76300
C  45.47900 8.31300 46.98900
C  44.05500 8.50100 47.14900
C  43.48800 7.21500 46.96500
C  46.48400 9.41200 46.81400
C  43.04800 9.46100 47.42200
O  43.11600 10.71200 47.58900
C  41.67900 8.70000 47.28900
C  40.92300 8.85800 48.59200
O  40.85700 8.00800 49.53200
O  40.15500 9.93300 48.55400
C  39.12400 9.87100 49.55400
H  40.23700 1.99700 46.14900
H  46.39100 0.87500 45.11900
H  47.82800 6.75500 46.53200
H  39.32900 6.50600 47.72800
H  38.85000 4.06300 46.07600
H  39.93300 3.37600 48.70300
H  38.34600 3.08500 47.99600
H  38.61000 4.63300 48.76500
H  38.80700 7.91700 45.84400
H  38.16300 6.29900 45.40500
H  40.61900 6.16600 44.36600
H  40.34000 7.98200 44.47700
H  40.75400 -0.88200 46.49100
H  41.33500 -1.31300 44.70800
H  40.19000 -0.10800 45.02400
H  46.33000 -1.22700 45.78900
H  46.04600 -0.91600 44.07000
H  45.95700 -2.50600 44.73000
H  48.34300 2.29700 44.89200
H  48.98100 4.15400 47.07800
H  49.41300 2.11100 47.30300
H  48.89700 0.65400 46.48500
H  47.85800 1.60200 47.75300
H  48.86400 5.71900 44.76700
H  48.94500 4.19000 44.05000
H  51.11400 3.88800 45.52200
H  51.13000 5.58300 45.50900
H  51.18600 4.71300 43.95600
H  46.06900 10.42000 46.81100
H  46.95100 9.35000 45.83100
H  47.22200 9.30400 47.60900
H  41.11000 9.16400 46.48400
H  38.39900 10.65500 49.33200
H  39.51400 9.89800 50.57100
H  38.51400 8.98000 49.41000
Mg 0.21500 43.63100 26.08700
C  2.45500 43.42900 28.87200
C  -2.33300 43.21900 28.24200
C  -1.79800 43.06400 23.48900
C  3.04300 43.61900 24.03900
N  0.08900 43.33200 28.30900
C  1.07200 43.45100 29.23200
C  0.50800 43.52900 30.64600
C  -1.01200 43.31200 30.43100
C  -1.14200 43.40800 28.87500
C  -1.65700 41.84100 30.81700
C  0.86100 44.88100 31.24800
C  0.89200 44.84700 32.80200
H  0.49500 43.63100 33.55000
N  -1.85800 43.35300 25.88800
C  -2.72800 43.13900 26.92200
C  -3.99000 43.02200 26.41800
C  -3.92200 42.92300 24.97500
C  -2.50700 43.13600 24.68000
C  -5.29600 43.23400 27.38000
C  -4.90600 42.67100 23.99600
O  -4.76000 42.80700 22.80800
C  -6.27900 42.23200 24.44600
N  0.63000 43.47500 24.09400
C  -0.43000 43.26400 23.21000
C  0.15100 43.22600 21.77200
C  1.69600 43.53900 21.91000
C  1.80800 43.58200 23.44000
C  -0.23500 41.95300 20.99400
C  2.07500 44.84500 21.18100
C  1.41500 46.17800 21.67200
N  2.40200 43.49800 26.31300
C  3.39800 43.62900 25.40300
C  4.69600 43.56700 26.05100
C  4.40000 43.42800 27.44000
C  2.98200 43.53200 27.52500
C  6.01100 43.58800 25.31100
C  4.91000 43.34400 28.78200
O  6.08300 43.35000 29.11700
C  3.67800 43.40900 29.78600
C  3.71500 42.31600 30.75700
O  3.63400 41.10000 30.51100
O  3.93500 42.92800 31.95300
C  4.15800 42.01600 33.10100
H  -3.09200 42.93500 28.97400
H  -2.43800 42.88000 22.62300
H  3.86600 43.61000 23.32200
H  0.84700 42.70600 31.27600
H  -1.61300 44.12400 30.84000
H  -2.27300 41.34900 30.06500
H  -2.39000 41.95000 31.61700
H  -0.82600 41.17600 31.05100
H  0.09800 45.61100 30.97600
H  1.81500 45.14300 30.79100
H  0.21400 45.66400 33.04800
H  1.94500 45.09100 32.94600
H  -6.15800 42.61800 27.12100
H  -5.62000 44.27400 27.35700
H  -5.13900 42.94000 28.41800
H  -6.18500 41.54700 25.28800
H  -6.91000 41.86200 23.63800
H  -6.65600 43.12900 24.93500
H  -0.39900 44.01100 21.25100
H  2.28400 42.68200 21.58400
H  -0.63800 41.19100 21.66000
H  0.66100 41.42700 20.66300
H  -0.96900 42.16700 20.21700
H  1.76900 44.66000 20.15200
H  3.16300 44.84100 21.25300
H  0.54000 46.20600 22.32100
H  1.07700 46.75300 20.81000
H  2.10900 46.84400 22.18400
H  6.39500 44.60600 25.24600
H  5.88400 43.27500 24.27400
H  6.73800 42.91400 25.76400
H  3.77100 44.38800 30.25700
H  3.80600 42.59500 33.95500
H  5.23000 41.85200 33.21200
H  3.66400 41.05700 33.26100

