158

Mg 53.16700 23.98800 44.67100
C  50.52400 26.25600 43.89200
C  51.34000 21.56400 43.30400
C  56.05200 22.31000 44.45000
C  55.02200 26.95900 45.37700
N  51.16100 23.93000 43.81000
C  50.28200 24.96000 43.53900
C  48.99500 24.37100 42.90100
C  49.08000 22.85900 43.33000
C  50.62200 22.73300 43.45200
C  48.41800 22.59600 44.78400
C  48.83100 24.73100 41.38000
C  50.16200 24.70700 40.52300
H  50.92200 23.39700 40.26100
N  53.56700 22.09700 44.08000
C  52.66800 21.22800 43.61300
C  53.33300 19.99000 43.45800
C  54.72300 20.11400 43.71700
C  54.85400 21.55000 44.16000
C  52.61400 18.74000 42.88100
C  55.86600 19.04300 43.64900
O  55.62600 18.00000 43.13000
C  57.18200 19.18300 44.24100
N  55.25600 24.52100 44.88200
C  56.25600 23.64800 44.75000
C  57.65300 24.38700 44.74500
C  57.29200 25.86300 45.06400
C  55.75200 25.82100 45.13600
C  58.65900 23.75700 45.83600
C  57.80000 26.92300 44.09500
C  57.20800 27.11700 42.63800
N  52.85500 26.23300 44.83000
C  53.63600 27.20300 45.30800
C  52.81700 28.46900 45.47500
C  51.57900 28.14000 44.86200
C  51.65800 26.77000 44.48500
C  53.28900 29.71800 46.16400
C  50.23400 28.56000 44.49500
O  49.77800 29.70100 44.53000
C  49.59300 27.43700 43.75100
C  49.40900 27.91900 42.36800
O  50.22000 27.80800 41.44800
O  48.11900 28.39000 42.20400
C  47.79800 28.85900 40.82000
H  50.69100 20.74400 42.99100
H  57.03000 21.83100 44.54000
H  55.53200 27.91700 45.26000
H  48.11900 24.83200 43.35900
H  48.70900 22.15800 42.58300
H  48.96800 23.25200 45.45900
H  48.65000 21.57100 45.07400
H  47.33700 22.70100 44.70000
H  48.17400 25.56900 41.14500
H  48.33500 23.90900 40.86600
H  50.77500 25.37100 41.13200
H  49.91600 25.11800 39.54400
H  51.52900 18.76300 42.98200
H  52.83200 17.82700 43.43600
H  52.66500 18.58700 41.80300
H  57.77000 19.78800 43.55000
H  57.64500 18.19700 44.23700
H  57.08000 19.58200 45.25000
H  58.10700 24.35800 43.75400
H  57.58400 26.06200 46.09500
H  58.14400 22.87000 46.20400
H  58.84200 24.41100 46.68800
H  59.60200 23.45400 45.38100
H  58.85000 26.78200 43.84000
H  57.88100 27.86800 44.63100
H  56.88500 28.14900 42.50800
H  56.43500 26.37000 42.45300
H  57.94800 27.05700 41.84000
H  53.64100 30.34600 45.34600
H  54.07800 29.51400 46.88700
H  52.39600 30.23600 46.51500
H  48.59900 27.20900 44.13400
H  46.84400 29.37300 40.69600
H  47.87500 28.03600 40.11000
H  48.58400 29.55900 40.53700
Mg 42.84900 41.85200 26.11400
C  41.96000 44.16900 28.52300
C  44.05800 39.68400 28.48300
C  43.83300 39.78800 23.66800
C  42.23500 44.37200 23.61600
N  42.93300 41.96200 28.26600
C  42.52400 42.96500 29.10600
C  42.53300 42.42000 30.57500
C  43.56100 41.26800 30.45600
C  43.55700 40.89600 28.96800
C  44.97000 41.49400 30.96100
C  41.09900 41.89100 30.99000
C  40.92800 41.68700 32.52400
H  40.07800 42.65400 33.32100
N  43.55500 39.88100 26.10300
C  44.04300 39.16300 27.11100
C  44.43600 37.86800 26.62400
C  43.93700 37.75300 25.28600
C  43.73800 39.19400 24.90600
C  44.99800 36.89400 27.59800
C  43.71300 36.52800 24.44300
O  43.36800 36.50300 23.29300
C  43.79500 35.25800 25.10100
N  43.16800 42.09100 23.94800
C  43.64200 41.05500 23.17200
C  43.89500 41.55800 21.74400
C  43.22200 42.88100 21.75100
C  42.86500 43.17300 23.18300
C  45.36600 41.68800 21.38900
C  41.90800 43.03100 20.79700
C  40.61500 42.51100 21.40300
N  42.31400 43.95900 26.01800
C  42.02600 44.79000 24.98400
C  41.53300 46.03300 25.55200
C  41.47200 45.83600 26.89700
C  41.98300 44.54700 27.12500
C  41.20400 47.24400 24.82900
C  41.04300 46.38500 28.13400
O  40.45200 47.37100 28.35400
C  41.24900 45.25500 29.29500
C  42.02500 45.92900 30.37100
O  43.23500 46.06800 30.43100
O  41.15700 46.41600 31.30500
C  41.60200 47.35600 32.32800
H  44.47000 38.96500 29.19400
H  44.11300 39.12500 22.84600
H  41.81800 44.99500 22.82200
H  42.83500 43.21900 31.25100
H  43.20500 40.41200 31.02800
H  45.06500 42.42600 31.51900
H  45.65100 41.51800 30.11100
H  45.23900 40.73300 31.69400
H  40.97000 40.89300 30.57100
H  40.22900 42.45100 30.64700
H  41.93200 41.64100 32.94600
H  40.54000 40.67900 32.67100
H  45.57400 36.12000 27.09300
H  44.11100 36.42600 28.02600
H  45.56200 37.34900 28.41200
H  44.78500 34.87600 25.35100
H  43.24600 34.55900 24.47000
H  43.08700 35.33000 25.92600
H  43.48100 40.74700 21.14500
H  43.83500 43.71000 21.39800
H  45.51600 41.37800 20.35500
H  45.90800 40.96200 21.99400
H  45.79900 42.67500 21.55700
H  42.07300 42.43400 19.89900
H  41.75300 44.05000 20.44200
H  40.08800 43.43600 21.63700
H  40.65600 41.81400 22.24000
H  39.91300 42.02300 20.72600
H  40.93800 48.06300 25.49700
H  40.47800 47.11300 24.02600
H  42.09800 47.67400 24.37800
H  40.36500 44.78100 29.72100
H  41.71600 46.77100 33.24000
H  40.80500 48.09100 32.44600
H  42.65800 47.61000 32.24200

