158

Mg 43.51700 4.22800 47.30900
C  41.20100 6.87200 47.19600
C  40.76700 2.10000 46.74500
C  45.65000 1.67100 46.78200
C  46.14400 6.52400 47.02000
N  41.22000 4.44300 47.01600
C  40.54300 5.59300 47.10000
C  39.03900 5.31500 47.20000
C  38.89400 3.76500 47.30700
C  40.37600 3.39200 46.95700
C  38.22500 3.22800 48.58200
C  38.27500 6.05800 46.05400
C  38.59500 5.60400 44.60300
H  39.30000 6.67900 43.71200
N  43.30100 2.14200 46.87600
C  42.05600 1.48500 46.69400
C  42.30100 0.08200 46.57200
C  43.67500 -0.16000 46.50200
C  44.29700 1.25200 46.74400
C  41.23900 -0.95900 46.25600
C  44.26500 -1.47600 46.08800
O  43.63000 -2.50500 45.91300
C  45.72900 -1.54900 45.90500
N  45.58900 4.11200 46.90500
C  46.21400 2.91800 46.83900
C  47.76500 3.09400 47.06400
C  47.95600 4.66500 47.09400
C  46.48800 5.16700 46.99600
C  48.30300 2.23600 48.29500
C  48.94100 5.21600 45.99200
C  50.35200 5.27900 46.48500
N  43.73900 6.26500 47.30500
C  44.84100 7.12600 47.21100
C  44.44100 8.52200 47.45100
C  43.03500 8.40800 47.40600
C  42.60600 7.09500 47.20700
C  45.27700 9.70200 47.73500
C  41.81900 9.22600 47.60300
O  41.76000 10.41900 47.84700
C  40.57700 8.26300 47.45900
C  39.71700 8.34900 48.71200
O  40.24700 8.19400 49.83400
O  38.37200 8.36800 48.44200
C  37.44700 8.24700 49.56100
H  39.92200 1.40900 46.74100
H  46.34500 0.83300 46.86700
H  47.01900 7.13700 47.24800
H  38.68100 5.64500 48.17500
H  38.31400 3.32800 46.49500
H  38.73700 2.34400 48.96400
H  37.18400 2.97900 48.37200
H  38.29400 3.91700 49.42400
H  38.35600 7.14500 46.06600
H  37.25800 5.71600 46.24700
H  37.60400 5.37700 44.21000
H  39.29200 4.77100 44.69800
H  41.37700 -1.84200 46.88000
H  41.42100 -1.11600 45.19300
H  40.26700 -0.54900 46.53000
H  46.21900 -1.25600 46.83400
H  45.95400 -0.79200 45.15300
H  46.21000 -2.46600 45.56400
H  48.21900 2.65500 46.17600
H  48.32300 5.02800 48.05400
H  47.42800 1.82500 48.79900
H  48.85600 2.98700 48.86000
H  48.88200 1.34700 48.04400
H  48.57100 6.20300 45.71300
H  48.93700 4.63100 45.07300
H  50.48600 5.20600 47.56500
H  50.73900 6.26200 46.21800
H  50.90200 4.48500 45.97900
H  45.18700 9.87000 48.80800
H  44.79500 10.51600 47.19400
H  46.31600 9.54600 47.44600
H  40.09900 8.65500 46.56100
H  37.81900 8.82200 50.41000
H  37.23200 7.20500 49.79900
H  36.45400 8.56800 49.24700
Mg 9.93600 47.97200 26.30200
C  8.01700 48.09800 29.17800
C  12.55500 49.47800 28.04700
C  11.92400 47.28900 23.73000
C  7.11600 47.15800 24.40200
N  10.20600 48.67700 28.33800
C  9.38000 48.44300 29.44700
C  9.94900 49.01000 30.74700
C  11.12800 49.82300 30.23300
C  11.35300 49.36100 28.73200
C  10.96500 51.36000 30.46200
C  10.42200 47.92800 31.85800
C  9.81700 48.30900 33.30400
H  9.73100 47.17200 34.31900
N  12.01200 48.18000 26.01500
C  12.89000 48.79900 26.87000
C  14.18900 48.55400 26.39600
C  14.07500 48.02900 25.01700
C  12.65800 47.84600 24.83900
C  15.40900 49.13900 27.15100
C  15.18000 47.67200 23.98200
O  14.91500 47.33100 22.86000
C  16.66600 47.75700 24.38100
N  9.59100 47.52100 24.28700
C  10.57000 47.15900 23.39700
C  10.05900 46.54400 22.08200
C  8.55200 46.50000 22.32800
C  8.38300 47.03100 23.75300
C  10.41500 47.38600 20.82700
C  8.00400 45.05200 22.15700
C  8.42000 44.02300 23.26500
N  7.94700 47.93400 26.63600
C  6.93300 47.43000 25.77200
C  5.74700 47.22700 26.53300
C  6.07900 47.53500 27.90800
C  7.44700 47.91600 27.90100
C  4.44000 46.76800 26.02400
C  5.56800 47.71100 29.29000
O  4.45300 47.73900 29.80300
C  6.83600 47.94600 30.17500
C  7.17900 46.79100 31.08400
O  7.96200 45.86900 30.84500
O  6.41700 47.01400 32.20000
C  6.22200 45.85800 33.07700
H  13.27400 49.97000 28.70600
H  12.59500 47.05200 22.90100
H  6.33600 46.76900 23.74400
H  9.20900 49.70200 31.15000
H  12.02500 49.44300 30.72200
H  11.07700 51.78800 29.46600
H  11.65600 51.70000 31.23400
H  9.94100 51.59400 30.75200
H  11.50000 47.90200 32.01100
H  10.09000 46.98100 31.43300
H  8.79000 48.67100 33.25900
H  10.46700 49.11200 33.65200
H  15.14500 49.45300 28.16100
H  15.99100 49.81100 26.52100
H  16.10800 48.32200 27.33200
H  16.76200 47.33900 25.38300
H  17.10000 48.73700 24.57700
H  17.24800 47.25600 23.60700
H  10.60800 45.60300 22.13100
H  8.09800 47.12000 21.55400
H  11.44900 47.28700 20.49700
H  10.15500 48.40400 21.11700
H  9.77200 47.05800 20.01100
H  8.19900 44.71400 21.14000
H  6.92500 45.13000 22.29600
H  8.61900 44.47700 24.23600
H  9.34500 43.53300 22.96100
H  7.56200 43.35200 23.31200
H  3.82300 47.50700 25.51300
H  3.87800 46.50900 26.92100
H  4.56200 45.85500 25.44200
H  6.70700 48.85000 30.77000
H  5.17000 45.58300 33.00400
H  6.58500 46.13000 34.06900
H  6.77200 44.97900 32.74100

