158

Mg 24.24000 -6.82200 46.05900
C  26.53200 -4.37900 45.21000
C  21.88400 -5.29000 43.94000
C  22.15200 -9.42100 46.51400
C  26.81200 -8.56500 47.90700
N  24.26400 -5.09000 44.63400
C  25.30300 -4.21200 44.46100
C  24.93100 -3.07400 43.54200
C  23.37900 -3.31800 43.35700
C  23.14800 -4.67700 43.88500
C  22.47200 -2.15400 44.00100
C  25.77300 -3.13800 42.18000
C  26.70000 -2.00100 41.95600
H  26.85000 -1.32400 40.58400
N  22.21600 -7.26500 45.37400
C  21.47400 -6.53200 44.54200
C  20.27600 -7.26400 44.24800
C  20.25400 -8.45100 45.03200
C  21.51100 -8.43100 45.69700
C  19.19200 -6.71300 43.27300
C  19.17800 -9.44900 45.11400
O  18.22600 -9.36500 44.39100
C  19.08700 -10.60700 46.05600
N  24.54000 -8.78000 46.99700
C  23.41400 -9.62800 47.03400
C  23.83300 -10.97900 47.78200
C  25.32100 -10.67400 48.27400
C  25.64600 -9.26800 47.65900
C  22.77200 -11.46400 48.84700
C  26.37700 -11.62700 47.64600
C  27.36000 -12.22900 48.73000
N  26.26800 -6.54600 46.60900
C  27.12600 -7.31100 47.34500
C  28.36200 -6.51000 47.38600
C  28.14500 -5.42200 46.60800
C  26.87700 -5.48500 46.10700
C  29.63900 -6.94500 47.97600
C  28.74700 -4.19700 46.09200
O  29.86600 -3.76700 46.33600
C  27.76600 -3.55600 45.17000
C  27.55400 -2.16800 45.61800
O  26.87600 -1.75700 46.54000
O  28.13300 -1.31600 44.69800
C  27.97000 0.13300 44.86300
H  21.05200 -4.79800 43.43200
H  21.47200 -10.26900 46.61900
H  27.53100 -9.08200 48.54600
H  25.02900 -2.10400 44.02800
H  23.19700 -3.35300 42.28200
H  21.79500 -2.52800 44.76900
H  21.98000 -1.64000 43.17600
H  22.99800 -1.32300 44.47000
H  25.21400 -3.26600 41.25400
H  26.39800 -4.03100 42.18600
H  27.66900 -2.30800 42.34900
H  26.44600 -1.22900 42.68200
H  19.48500 -7.15200 42.32000
H  19.13600 -5.62400 43.25000
H  18.20900 -7.13400 43.48300
H  18.03400 -10.75300 46.29400
H  19.59100 -10.50300 47.01700
H  19.55500 -11.50100 45.64400
H  23.87900 -11.74000 47.00300
H  25.38900 -10.43800 49.33600
H  22.16300 -12.29600 48.49600
H  22.00000 -10.70200 48.95300
H  23.21000 -11.53500 49.84300
H  26.93900 -11.10700 46.87000
H  25.88200 -12.48200 47.18400
H  27.22600 -13.29900 48.89100
H  27.29200 -11.72200 49.69200
H  28.38400 -12.07500 48.39000
H  29.42600 -7.19500 49.01600
H  30.15900 -5.99300 48.08300
H  30.13100 -7.77500 47.46900
H  28.18400 -3.57800 44.16400
H  26.96200 0.39000 44.53800
H  28.52800 0.73700 44.14700
H  28.09200 0.52300 45.87400
Mg 47.29800 25.02400 29.01000
C  48.23100 27.49600 31.52400
C  46.30800 23.10600 31.59400
C  46.83900 22.65800 26.82400
C  48.61400 27.14400 26.63800
N  47.23400 25.35000 31.37100
C  47.49100 26.45800 32.15200
C  47.19200 26.17300 33.63500
C  46.87800 24.64600 33.58700
C  46.82600 24.30300 32.12200
C  47.76900 23.59400 34.34800
C  46.08600 27.15500 34.13400
C  46.57900 28.09300 35.23600
H  47.07700 27.43100 36.60600
N  46.50400 23.21100 29.18800
C  46.14700 22.53700 30.34400
C  45.69300 21.23500 29.95400
C  45.65000 21.14900 28.53100
C  46.34400 22.41900 28.09000
C  45.25000 20.29800 30.98500
C  45.17500 20.05700 27.64300
O  45.25600 20.14400 26.41300
C  44.64200 18.73300 28.17300
N  47.99500 24.84100 27.14800
C  47.57100 23.77200 26.38500
C  47.93000 23.96500 24.91300
C  48.40100 25.42300 24.81100
C  48.32100 25.85800 26.29900
C  48.94900 22.96700 24.25500
C  47.58400 26.42000 23.88700
C  48.43800 27.33400 23.03200
N  48.31000 26.87400 29.08300
C  48.73400 27.66900 28.02100
C  49.20300 28.87800 28.44400
C  49.04400 28.85000 29.84100
C  48.54500 27.60100 30.17900
C  49.74600 30.04700 27.55600
C  49.14100 29.68800 31.06600
O  49.67800 30.84700 31.10600
C  48.66500 28.74600 32.21800
C  49.80100 28.50600 33.16400
O  50.65600 27.66000 33.06200
O  49.81000 29.47000 34.14000
C  50.80100 29.15500 35.19600
H  45.85600 22.50000 32.38200
H  46.67500 22.01600 25.95700
H  48.83600 27.79000 25.78600
H  48.13400 26.48500 34.08600
H  45.88200 24.47600 33.99500
H  48.19100 22.93800 33.58700
H  47.15500 23.09700 35.09900
H  48.57000 24.15000 34.83500
H  45.24800 26.55000 34.48000
H  45.74400 27.74800 33.28600
H  45.74300 28.76200 35.43900
H  47.50500 28.60400 34.97100
H  44.23300 20.04600 30.68300
H  45.23000 20.67900 32.00600
H  45.76500 19.33800 31.03200
H  45.19200 18.39000 29.04900
H  44.55900 18.02500 27.34900
H  43.66800 19.01300 28.57400
H  46.96300 23.96600 24.41100
H  49.47200 25.36800 24.61600
H  49.95200 23.39500 24.23500
H  48.76600 22.48800 23.29400
H  48.99700 22.16200 24.98800
H  47.05800 27.13100 24.52300
H  46.91900 25.79400 23.29200
H  48.47800 26.98200 22.00100
H  49.42100 27.50200 23.47200
H  48.00300 28.33200 23.09100
H  49.43500 31.05600 27.82800
H  49.53600 29.92800 26.49300
H  50.82800 30.08000 27.68900
H  47.87800 29.28500 32.74600
H  50.50200 28.24900 35.72300
H  50.90500 29.97300 35.90800
H  51.81400 29.03900 34.81200

