158

Mg 35.54100 1.88600 29.73600
C  33.31400 2.71000 32.23800
C  38.06300 1.80700 32.18500
C  37.87500 1.52900 27.34200
C  32.99700 1.83500 27.41300
N  35.69400 2.16400 31.98900
C  34.60900 2.45900 32.80800
C  34.99300 2.35200 34.30700
C  36.62700 2.36700 34.24300
C  36.84400 2.06900 32.71700
C  37.33100 3.74800 34.52800
C  34.26300 1.21100 35.03700
C  33.84000 1.57000 36.48500
H  34.19700 2.94900 37.07300
N  37.65500 1.69000 29.71200
C  38.50200 1.57500 30.84000
C  39.86400 1.49000 30.38600
C  39.89600 1.49700 28.96900
C  38.43200 1.60400 28.62300
C  41.05400 1.48900 31.38900
C  41.06600 1.40900 27.95200
O  40.90700 1.56000 26.77700
C  42.46000 1.05500 28.43800
N  35.45300 1.80300 27.69600
C  36.56500 1.75500 26.90700
C  36.15100 1.63300 25.40400
C  34.60000 1.48200 25.44900
C  34.29400 1.63700 26.94300
C  36.76500 2.70800 24.44000
C  34.13700 0.13300 24.80700
C  32.70200 0.10800 24.15800
N  33.57300 2.37400 29.74300
C  32.61400 2.22700 28.71700
C  31.33600 2.58200 29.17800
C  31.54500 2.76800 30.58400
C  32.92500 2.65900 30.87600
C  30.07000 2.72800 28.44400
C  30.93400 3.01100 31.83000
O  29.73400 3.17600 32.16300
C  32.01700 3.12500 32.95300
C  32.10700 4.46700 33.52200
O  32.97600 5.29600 33.20300
O  31.21000 4.64200 34.56200
C  31.31400 5.89200 35.32300
H  38.86800 1.87500 32.92000
H  38.49200 1.30500 26.46900
H  32.15700 1.67100 26.73500
H  34.49900 3.24400 34.69300
H  36.98100 1.54700 34.86800
H  36.61200 4.26600 35.16200
H  37.35900 4.26100 33.56700
H  38.28300 3.83500 35.05200
H  35.00300 0.41500 35.10800
H  33.50400 0.84100 34.34800
H  34.29400 0.81100 37.12200
H  32.77200 1.38700 36.60300
H  41.74700 0.75900 30.97000
H  40.77000 1.16800 32.39100
H  41.43300 2.51000 31.43300
H  43.12200 0.99200 27.57300
H  42.33400 0.07100 28.88900
H  42.82200 1.82900 29.11400
H  36.55200 0.66900 25.09400
H  34.09800 2.28600 24.91100
H  37.39500 3.39400 25.00700
H  36.17600 3.19900 23.66500
H  37.40700 2.05200 23.85200
H  34.39000 -0.62600 25.54700
H  34.75900 -0.12500 23.95000
H  31.99100 -0.38500 24.82100
H  32.79600 -0.32400 23.16200
H  32.35400 1.10900 23.90200
H  29.66900 3.71900 28.22800
H  29.20100 2.40400 29.01700
H  30.11600 2.21100 27.48600
H  31.76500 2.43900 33.76200
H  31.18800 6.71800 34.62300
H  32.33800 5.87500 35.69800
H  30.57700 5.77900 36.11700
Mg 46.42300 16.36900 28.78500
C  44.19500 15.97000 31.48600
C  48.52000 17.96800 30.83100
C  48.23800 17.19200 26.02000
C  43.82000 15.12100 26.60900
N  46.33600 16.72800 30.85400
C  45.37300 16.54800 31.80500
C  45.75900 17.10400 33.21200
C  47.07500 17.90200 32.90300
C  47.34600 17.51800 31.41700
C  47.22900 19.37300 33.42000
C  45.91500 15.88900 34.10100
C  45.48000 16.03000 35.61900
H  45.24600 17.46400 36.23900
N  48.14200 17.39300 28.46700
C  48.98500 17.90900 29.46900
C  50.12900 18.50000 28.85100
C  49.98500 18.38100 27.39500
C  48.77400 17.55800 27.26600
C  51.17000 19.35700 29.52300
C  50.83100 18.94800 26.21200
O  50.46300 18.97500 25.05400
C  52.13800 19.53800 26.56300
N  46.00100 16.33700 26.59900
C  46.97400 16.68700 25.67500
C  46.36100 16.56800 24.24300
C  45.14100 15.57300 24.41100
C  44.99900 15.60200 25.97900
C  46.11600 17.97300 23.55600
C  45.28500 14.03100 23.97400
C  44.34100 13.60000 22.93200
N  44.44400 15.64700 28.93000
C  43.58700 15.11400 28.04100
C  42.32200 14.75700 28.64800
C  42.54500 14.96900 30.07100
C  43.81600 15.59400 30.16700
C  41.02600 14.32900 27.94800
C  41.98400 14.99900 31.38500
O  40.87300 14.69800 31.73200
C  43.07600 15.49400 32.37100
C  42.45000 16.67700 32.94500
O  42.41500 17.76700 32.43600
O  42.06800 16.50500 34.20600
C  41.35700 17.65300 34.86200
H  49.09200 18.56700 31.54200
H  48.85900 17.34400 25.13500
H  43.06400 14.61600 26.00300
H  44.98900 17.77700 33.59200
H  47.84000 17.41100 33.50500
H  47.89500 19.41000 34.28300
H  46.26800 19.86800 33.56500
H  47.88100 19.85100 32.68900
H  46.97300 15.65900 34.22100
H  45.47300 14.99000 33.67000
H  46.25900 15.46000 36.12400
H  44.53000 15.50700 35.73100
H  52.00500 18.65700 29.54700
H  50.91800 19.64600 30.54400
H  51.36700 20.30700 29.02700
H  51.95500 20.43600 27.15400
H  52.62000 19.77300 25.61400
H  52.71700 18.75500 27.05300
H  47.17000 16.02900 23.74900
H  44.29700 16.09700 23.96200
H  46.61400 18.81500 24.03800
H  45.04400 18.16500 23.58800
H  46.37600 17.94000 22.49800
H  45.18400 13.29600 24.77300
H  46.33300 13.94600 23.68800
H  43.70700 12.78400 23.27800
H  44.84000 13.11000 22.09600
H  43.65900 14.36300 22.55800
H  40.73600 15.10000 27.23500
H  40.20000 14.30500 28.65900
H  41.08600 13.31100 27.56300
H  43.28300 14.71500 33.10500
H  40.39300 17.82600 34.38300
H  41.83800 18.63000 34.82000
H  41.10900 17.36700 35.88400

