158

Mg 29.36700 58.89400 41.26000
C  26.76300 56.91000 39.99600
C  31.56700 56.86600 39.84100
C  31.65800 61.37600 41.66200
C  26.83600 61.18700 42.38200
N  29.15000 57.17600 39.88600
C  28.05600 56.48100 39.62100
C  28.34000 55.34400 38.64300
C  29.87500 55.16300 38.85300
C  30.24400 56.45800 39.63200
C  30.25800 53.79500 39.67600
C  27.85300 55.77800 37.25700
C  26.99800 54.77100 36.45500
H  27.34400 54.50100 34.99000
N  31.32700 59.12100 40.73700
C  32.10600 58.13500 40.26700
C  33.46600 58.53500 40.22600
C  33.57300 59.85300 40.82100
C  32.17700 60.16300 41.12800
C  34.55000 57.75200 39.40700
C  34.77700 60.72500 41.07100
O  35.92600 60.31200 40.78200
C  34.68300 62.05700 41.60500
N  29.27200 60.96800 42.00600
C  30.36300 61.76000 42.08800
C  29.94000 63.12800 42.56300
C  28.45700 63.06700 42.82000
C  28.16600 61.67900 42.32600
C  30.70300 63.77100 43.65000
C  27.59400 64.24100 42.14400
C  26.54300 64.70600 43.15200
N  27.20000 58.92800 41.41900
C  26.34100 59.91300 41.91100
C  25.01900 59.41500 41.74500
C  25.09000 58.26500 41.02600
C  26.47700 58.08600 40.76600
C  23.68100 60.08800 42.17200
C  24.40200 57.16700 40.44100
O  23.23200 56.94900 40.46300
C  25.42000 56.27400 39.68900
C  25.26600 54.98600 40.27100
O  25.79300 54.63300 41.35400
O  24.60500 54.16500 39.36300
C  24.85700 52.71100 39.52700
H  32.22700 56.04600 39.55000
H  32.28700 62.25400 41.82200
H  26.08200 61.86300 42.79100
H  27.88100 54.44400 39.05300
H  30.34900 55.17500 37.87200
H  29.35400 53.29800 40.02700
H  30.77000 54.00000 40.61700
H  30.77700 53.09300 39.02300
H  28.72100 55.95200 36.62200
H  27.29400 56.69000 37.46400
H  25.98400 55.16900 36.46900
H  26.87500 53.83700 37.00400
H  34.63600 56.74500 39.81500
H  35.56700 58.14600 39.39700
H  34.26200 57.64600 38.36100
H  34.22900 62.74600 40.89400
H  35.72400 62.38000 41.64500
H  34.26100 62.08300 42.60900
H  30.01400 63.84000 41.74100
H  28.25600 63.01900 43.89100
H  31.69300 63.33200 43.77100
H  30.25800 63.53400 44.61600
H  30.85600 64.84300 43.52900
H  27.03700 63.95100 41.25300
H  28.17600 65.13200 41.90600
H  25.57100 64.51100 42.70000
H  26.68600 65.78500 43.22100
H  26.58400 64.29500 44.16100
H  22.91000 59.36700 41.89900
H  23.53800 60.94000 41.50800
H  23.52500 60.44400 43.19000
H  25.19700 56.29700 38.62300
H  24.06700 52.25600 40.12400
H  25.69400 52.51500 40.19700
H  25.07400 52.11500 38.64000
Mg -1.81300 34.16000 27.53400
C  -4.09900 32.40600 29.70200
C  -0.63300 35.86400 30.24200
C  -0.12200 36.03400 25.36700
C  -3.53600 32.59700 24.85900
N  -2.36700 34.22900 29.78400
C  -3.36500 33.37900 30.41100
C  -3.34000 33.65100 31.87000
C  -2.43400 34.97200 31.97500
C  -1.75400 35.06500 30.59100
C  -3.23700 36.27200 32.20100
C  -2.61700 32.53500 32.63800
C  -3.40700 32.11900 33.95000
H  -2.61500 32.29800 35.28000
N  -0.36700 35.67700 27.86900
C  -0.03900 36.27500 29.01500
C  1.05600 37.24000 28.74000
C  1.26000 37.18300 27.33000
C  0.23800 36.24400 26.76300
C  1.82900 38.07000 29.73500
C  2.33000 37.96000 26.46600
O  2.40400 37.72300 25.25700
C  3.24400 38.85000 27.09400
N  -1.76900 34.17500 25.39100
C  -1.04000 35.14400 24.74800
C  -1.25700 35.02200 23.20600
C  -2.24300 33.84400 23.07900
C  -2.61600 33.59300 24.56600
C  -1.77000 36.48200 22.67300
C  -1.81000 32.56100 22.28700
C  -0.78400 31.57500 22.98000
N  -3.40200 32.83800 27.26100
C  -3.88200 32.16500 26.13900
C  -4.71600 31.08600 26.50300
C  -4.80800 31.17100 27.88200
C  -4.04100 32.26400 28.31000
C  -5.43800 30.08600 25.58600
C  -5.55000 30.60500 29.02800
O  -6.29400 29.62200 29.08300
C  -5.00600 31.42400 30.24400
C  -6.05800 31.92800 31.21300
O  -6.88000 32.82200 31.04400
O  -6.06200 31.17800 32.37200
C  -7.19200 31.42500 33.29900
H  -0.21000 36.32500 31.13600
H  0.42700 36.75600 24.75900
H  -4.10100 32.11100 24.06100
H  -4.32700 33.80000 32.30700
H  -1.65900 34.95600 32.74100
H  -3.43600 36.77600 31.25600
H  -2.53800 36.89800 32.75600
H  -4.02700 36.11200 32.93500
H  -1.55500 32.68400 32.83000
H  -2.55400 31.60800 32.06900
H  -3.68200 31.06600 33.88900
H  -4.32700 32.70400 33.95600
H  1.48800 37.89800 30.75600
H  1.79500 39.13400 29.49800
H  2.87300 37.76500 29.65300
H  3.80000 39.53900 26.45800
H  3.89200 38.22800 27.71200
H  2.74600 39.53900 27.77600
H  -0.32900 34.76700 22.69500
H  -3.00700 34.25700 22.42100
H  -1.21300 36.75100 21.77600
H  -1.76700 37.34000 23.34500
H  -2.73400 36.47400 22.16500
H  -1.29500 33.03400 21.45100
H  -2.72700 32.01300 22.06900
H  -0.45200 32.01700 23.91900
H  0.10400 31.32000 22.40200
H  -1.31200 30.64700 23.20000
H  -5.61500 29.17200 26.15400
H  -4.87900 29.81300 24.69200
H  -6.40100 30.49700 25.28100
H  -4.47500 30.59300 30.70700
H  -8.15800 31.23500 32.83200
H  -7.26600 32.46900 33.60400
H  -7.18500 30.73900 34.14600

