158

Mg 47.44000 34.81900 27.89600
C  45.37700 33.06800 30.22900
C  47.84300 37.33100 30.33200
C  48.30700 37.03400 25.61700
C  46.35500 32.56400 25.51700
N  46.75100 35.05600 30.02400
C  45.91400 34.23100 30.79500
C  46.08300 34.58000 32.31400
C  46.58300 36.07600 32.18200
C  47.06700 36.18800 30.72500
C  45.46600 37.02400 32.49900
C  47.20900 33.76800 32.96600
C  47.06800 33.56000 34.48300
H  46.26300 34.55800 35.31900
N  48.29600 36.74000 27.99600
C  48.46000 37.58700 29.12400
C  49.13500 38.79100 28.77900
C  49.25300 38.70700 27.34100
C  48.55200 37.45300 26.91000
C  49.45000 39.85900 29.83000
C  49.66100 39.75600 26.30600
O  49.68000 39.59900 25.10100
C  50.24100 41.03900 26.94700
N  47.24800 34.82600 25.80500
C  47.72800 35.83900 25.03900
C  47.40300 35.68700 23.52400
C  46.92300 34.15900 23.53800
C  46.86900 33.78600 25.04300
C  46.32200 36.70000 23.09700
C  47.83300 33.20500 22.75800
C  47.13500 32.36900 21.70800
N  46.32100 33.10900 27.82600
C  46.01900 32.21100 26.78200
C  45.19700 31.10900 27.21000
C  44.94900 31.41500 28.60800
C  45.61500 32.60600 28.90100
C  44.79300 29.78400 26.56600
C  44.30200 30.88900 29.82700
O  43.70900 29.88000 30.09200
C  44.30100 32.18800 30.81900
C  44.48600 31.83800 32.26000
O  45.44300 31.27000 32.68100
O  43.36600 32.22600 32.93600
C  43.33000 32.00700 34.39900
H  48.01100 38.00300 31.17600
H  48.37400 37.75500 24.79900
H  45.98100 31.96900 24.68200
H  45.14500 34.54400 32.86700
H  47.36800 36.22700 32.92400
H  45.82200 37.57700 33.36800
H  44.49200 36.58400 32.71300
H  45.25600 37.81500 31.77900
H  48.21700 34.17600 32.88400
H  47.27600 32.83400 32.40800
H  48.06000 33.56000 34.93400
H  46.57200 32.60000 34.62600
H  50.53100 39.98000 29.89800
H  49.09000 39.59900 30.82500
H  49.03700 40.80300 29.47600
H  49.34700 41.52100 27.34300
H  50.52300 41.53300 26.01800
H  51.03000 40.86300 27.67900
H  48.31300 35.81000 22.93600
H  45.93200 34.04400 23.10000
H  45.76200 36.29400 22.25500
H  46.77400 37.67100 22.89400
H  45.56600 36.91100 23.85400
H  48.37800 32.56900 23.45700
H  48.58900 33.78400 22.22800
H  46.04900 32.40600 21.62500
H  47.20900 31.35200 22.09100
H  47.72200 32.36600 20.79000
H  43.90000 29.90200 25.95300
H  44.73300 29.02800 27.35000
H  45.60500 29.49000 25.90000
H  43.26700 32.53200 30.77900
H  43.29000 32.97800 34.89300
H  44.16500 31.39600 34.74100
H  42.36700 31.54400 34.61600
Mg 0.45200 43.16900 25.25700
C  2.88000 42.29500 27.65500
C  -1.86400 43.27600 27.81300
C  -1.90500 43.38800 22.97900
C  2.79900 42.48600 22.70100
N  0.53500 42.70600 27.43300
C  1.62700 42.40900 28.23700
C  1.19800 42.30800 29.70800
C  -0.37800 42.29000 29.59700
C  -0.65900 42.76000 28.19400
C  -0.97900 40.89900 29.72600
C  1.63400 43.54400 30.57800
C  1.41300 43.44900 32.06300
H  1.18800 42.12600 32.66700
N  -1.60300 43.52600 25.37300
C  -2.35900 43.56700 26.49400
C  -3.76100 43.99900 26.15300
C  -3.82300 43.92700 24.73400
C  -2.47100 43.56800 24.26100
C  -4.73500 44.49600 27.18300
C  -5.00700 44.09100 23.89200
O  -4.93800 43.75000 22.71500
C  -6.26100 44.31900 24.50000
N  0.49500 43.01800 23.10600
C  -0.64100 43.22400 22.43800
C  -0.37200 43.11100 20.93700
C  1.19300 42.94700 20.80300
C  1.59100 42.94600 22.26000
C  -1.12500 41.95100 20.23000
C  1.86200 44.13200 20.03300
C  2.18000 45.45400 20.76600
N  2.40500 42.62900 25.15200
C  3.23000 42.42600 24.04000
C  4.56200 42.33400 24.49500
C  4.48300 42.20700 25.89500
C  3.11200 42.40800 26.23100
C  5.80300 42.23500 23.76600
C  5.28100 42.01200 27.12000
O  6.45500 41.89000 27.29300
C  4.25000 42.09200 28.29300
C  4.41200 40.95400 29.23700
O  4.06100 39.82200 28.94100
O  5.01500 41.23500 30.37000
C  5.02900 40.14800 31.47100
H  -2.60800 43.51200 28.57600
H  -2.60600 43.37000 22.14100
H  3.54300 42.20400 21.95300
H  1.63600 41.42500 30.17400
H  -0.84700 42.97400 30.30400
H  -0.22900 40.15700 29.99800
H  -1.48500 40.59800 28.80900
H  -1.67900 40.88900 30.56200
H  0.97900 44.36700 30.29000
H  2.66600 43.81700 30.35800
H  0.53000 44.02500 32.34000
H  2.23500 43.89600 32.62300
H  -4.27900 44.47000 28.17200
H  -5.62400 43.87300 27.28300
H  -5.17000 45.45400 26.89900
H  -7.04800 44.32300 23.74500
H  -6.23200 45.18100 25.16700
H  -6.36000 43.44500 25.14400
H  -0.65800 44.04900 20.46000
H  1.49700 42.08700 20.20500
H  -0.49700 41.13000 19.88500
H  -1.64800 42.21900 19.31100
H  -1.74100 41.52200 21.02000
H  1.19100 44.34600 19.20100
H  2.71600 43.73900 19.48100
H  2.15700 45.34400 21.85000
H  1.46900 46.24900 20.54100
H  3.14800 45.82900 20.43400
H  5.82300 42.74600 22.80300
H  5.93600 41.16700 23.59300
H  6.63200 42.58200 24.38200
H  4.43700 43.03800 28.80100
H  4.11500 39.55400 31.48400
H  5.17500 40.63400 32.43600
H  5.89900 39.52200 31.27300

