158

Mg 46.76800 15.84700 29.10900
C  44.65400 15.32200 31.84200
C  49.00000 17.61400 31.26900
C  48.90900 16.35000 26.53800
C  44.70300 14.11700 27.05600
N  46.75200 16.47800 31.26700
C  45.82900 16.07000 32.16800
C  46.15000 16.56700 33.65500
C  47.36800 17.54700 33.30500
C  47.76200 17.25400 31.79200
C  47.14800 19.07500 33.49900
C  46.46800 15.38700 34.53900
C  45.89900 15.43000 35.95700
H  45.89800 16.66400 36.87200
N  48.64900 16.81100 28.94300
C  49.39600 17.36800 29.91000
C  50.72900 17.68900 29.31800
C  50.65500 17.49500 27.90400
C  49.32200 16.87200 27.74500
C  51.93700 18.03900 30.14700
C  51.73200 17.74300 26.82800
O  51.57800 17.55700 25.62100
C  52.98300 18.44600 27.14000
N  46.63700 15.53900 27.04400
C  47.68100 15.74100 26.23200
C  47.26500 15.29300 24.80600
C  46.13500 14.22600 25.00300
C  45.77100 14.69200 26.43400
C  46.88200 16.49000 23.87500
C  46.66500 12.82700 25.09700
C  46.49100 12.06100 23.76300
N  45.04000 14.92400 29.30600
C  44.22600 14.33800 28.35500
C  43.03000 13.75000 29.01500
C  43.16900 14.22000 30.37600
C  44.36900 14.90400 30.50200
C  41.96300 13.00300 28.38500
C  42.59300 14.14700 31.63900
O  41.63500 13.52600 32.09900
C  43.59700 14.82000 32.64100
C  42.84600 15.78000 33.50800
O  42.51200 16.89400 33.15900
O  42.57700 15.19700 34.70100
C  41.95900 15.92800 35.83100
H  49.73500 18.11400 31.90200
H  49.56100 16.39100 25.66300
H  44.08400 13.33500 26.61200
H  45.28100 17.12300 34.00700
H  48.23300 17.23100 33.88800
H  47.14700 19.56000 32.52300
H  47.91700 19.48900 34.15100
H  46.22900 19.27400 34.05000
H  47.54100 15.32500 34.71900
H  46.19600 14.46000 34.03500
H  46.61600 14.74700 36.41200
H  44.93000 14.93200 35.96600
H  52.73600 17.30400 30.05300
H  51.61000 18.19400 31.17500
H  52.32200 18.96600 29.72300
H  53.45700 18.49200 26.16000
H  53.62000 17.91800 27.84900
H  52.90700 19.47900 27.48100
H  48.18600 14.86400 24.41200
H  45.24900 14.38700 24.38900
H  45.81400 16.48500 23.65400
H  47.40300 16.43700 22.91900
H  47.17100 17.45000 24.30200
H  46.15300 12.29200 25.89700
H  47.70700 12.90300 25.41100
H  46.09400 11.05900 23.92400
H  47.37200 12.11900 23.12400
H  45.75600 12.56800 23.13800
H  42.27000 11.96200 28.48700
H  41.66500 13.31500 27.38400
H  41.12500 13.10000 29.07500
H  44.00900 14.03900 33.28000
H  40.89600 15.68900 35.87100
H  42.00200 17.01700 35.83400
H  42.31400 15.53200 36.78200
Mg 6.94500 54.32600 41.50600
C  6.93000 50.73200 41.15300
C  10.23800 54.33900 40.75100
C  6.73500 57.71200 41.42800
C  3.52600 54.12800 42.00800
N  8.33800 52.74800 40.91000
C  8.13700 51.34600 40.81800
C  9.44200 50.56400 40.46300
C  10.50900 51.71000 40.72200
C  9.69400 53.04700 40.80300
C  11.40000 51.58300 41.99900
C  9.50200 50.03400 39.01500
C  9.20500 50.99500 37.84400
H  7.94000 50.77600 36.97400
N  8.31300 55.80500 41.18700
C  9.63400 55.63300 40.85600
C  10.35500 56.95800 40.65300
C  9.30400 57.94900 40.95600
C  8.00200 57.18000 41.18000
C  11.81500 57.14300 40.32100
C  9.48900 59.47600 41.01400
O  10.61100 59.96100 40.70100
C  8.39200 60.55500 41.45200
N  5.26600 55.74400 41.59000
C  5.47500 57.13700 41.67400
C  4.23100 57.83200 42.10100
C  3.17100 56.68300 42.09200
C  4.02200 55.42100 41.85500
C  4.31300 58.52000 43.48400
C  1.95900 56.83600 41.10300
C  0.62200 57.36400 41.73400
N  5.51400 52.82600 41.60100
C  4.21500 52.88000 41.98700
C  3.65600 51.57500 42.14200
C  4.72400 50.72800 41.80900
C  5.79800 51.48400 41.49300
C  2.33700 51.22200 42.59100
C  5.06200 49.35900 41.93000
O  4.45800 48.40400 42.38600
C  6.53600 49.25600 41.44700
C  6.61700 48.39300 40.27000
O  6.35500 48.70600 39.10500
O  6.91400 47.11700 40.71600
C  6.97700 46.16700 39.57500
H  11.32600 54.31600 40.66600
H  6.52900 58.76800 41.61600
H  2.54100 54.09500 42.47800
H  9.74300 49.76300 41.13800
H  11.19300 51.68000 39.87400
H  11.06100 50.81700 42.69600
H  11.23800 52.48400 42.59000
H  12.45600 51.51400 41.73600
H  8.86400 49.15100 39.00500
H  10.46300 49.58200 38.76900
H  10.00800 50.93300 37.11000
H  9.11100 51.96200 38.33900
H  11.97200 58.04500 39.72900
H  12.16900 56.30000 39.72700
H  12.54800 57.18300 41.12700
H  8.67000 61.60300 41.33900
H  8.01800 60.32600 42.45000
H  7.54100 60.52100 40.77100
H  3.96700 58.53600 41.31200
H  2.79000 56.57700 43.10700
H  4.30400 59.60900 43.50700
H  5.21100 58.21600 44.02200
H  3.38300 58.25100 43.98600
H  1.78200 55.90400 40.56800
H  2.23500 57.43600 40.23600
H  0.58500 57.60400 42.79600
H  -0.19800 56.66200 41.57900
H  0.18800 58.29600 41.37100
H  1.87300 50.79800 41.70000
H  1.66300 52.02000 42.90300
H  2.25700 50.46100 43.36700
H  7.11700 48.79300 42.24500
H  7.07600 45.13300 39.90300
H  7.78700 46.45500 38.90500
H  6.06900 46.22600 38.97400

