158

Mg 24.20600 -6.07900 44.78400
C  26.50200 -3.68500 43.59200
C  21.69600 -4.54500 43.27600
C  22.30800 -8.83900 45.40000
C  27.04200 -7.61700 46.35000
N  24.17900 -4.36000 43.44500
C  25.19100 -3.48700 43.11500
C  24.69300 -2.39700 42.12400
C  23.13000 -2.62500 42.35100
C  22.94500 -3.92800 43.08400
C  22.42300 -1.50300 43.15300
C  25.26600 -2.64100 40.68200
C  25.44800 -1.37000 39.77400
H  24.73900 -1.35200 38.36600
N  22.26500 -6.58000 44.34200
C  21.38800 -5.80000 43.76700
C  20.07900 -6.39500 43.69400
C  20.29500 -7.68000 44.29500
C  21.67700 -7.74400 44.71000
C  18.86100 -5.70200 43.09400
C  19.16000 -8.81000 44.39400
O  18.04500 -8.69200 43.84900
C  19.41600 -10.10100 45.20400
N  24.62400 -7.92300 45.62200
C  23.62200 -8.86600 45.81200
C  24.20600 -10.14200 46.38100
C  25.55600 -9.65100 47.02700
C  25.79900 -8.32200 46.24200
C  23.32800 -10.88900 47.44800
C  26.75600 -10.65200 46.97900
C  27.35600 -10.91000 48.35600
N  26.39800 -5.69100 45.10700
C  27.36900 -6.35100 45.74900
C  28.59800 -5.72200 45.63400
C  28.29700 -4.59900 44.78100
C  26.92500 -4.59900 44.51900
C  29.98700 -6.22300 46.05400
C  28.90100 -3.56300 44.02700
O  30.05300 -3.17200 44.02700
C  27.79800 -2.86200 43.28000
C  27.67600 -1.43700 43.73200
O  27.49600 -1.06200 44.86400
O  27.78300 -0.61100 42.65200
C  27.77900 0.80200 43.00100
H  20.85600 -4.01800 42.81800
H  21.76800 -9.76700 45.60100
H  27.80000 -8.06000 47.00000
H  25.14800 -1.48600 42.51200
H  22.63000 -2.63100 41.38300
H  23.07900 -0.63400 43.21100
H  22.20800 -1.85200 44.16300
H  21.48100 -1.14200 42.74100
H  24.48500 -3.20800 40.17600
H  26.17800 -3.23900 40.67900
H  26.52200 -1.30100 39.59700
H  25.22200 -0.43300 40.28200
H  19.06000 -5.20700 42.14300
H  18.53400 -4.99900 43.86000
H  18.03400 -6.37300 42.86500
H  18.54800 -10.74800 45.33100
H  19.76400 -9.67400 46.14400
H  20.23600 -10.71000 44.82400
H  24.52300 -10.81800 45.58600
H  25.50300 -9.22900 48.03100
H  22.55000 -10.23200 47.83500
H  23.90600 -11.25700 48.29600
H  22.85600 -11.72500 46.93300
H  27.55100 -10.35400 46.29500
H  26.34100 -11.61300 46.67400
H  27.53400 -11.98400 48.40900
H  26.60700 -10.68900 49.11700
H  28.25700 -10.33100 48.55500
H  30.44300 -6.62500 45.14900
H  29.89300 -7.00200 46.81000
H  30.68400 -5.46700 46.41700
H  28.05500 -2.81400 42.22200
H  28.80900 1.08900 43.21500
H  27.09700 1.08500 43.80200
H  27.49100 1.32200 42.08700
Mg 10.57500 47.40900 26.41800
C  8.62000 47.28800 29.20300
C  13.10100 48.79900 28.42000
C  12.55000 47.45000 23.75600
C  7.76500 46.91800 24.39900
N  10.87500 47.70600 28.65200
C  9.93100 47.61700 29.54400
C  10.54400 48.02600 30.92800
C  11.78900 48.85700 30.58200
C  11.94500 48.41800 29.12100
C  11.63500 50.43900 30.58600
C  10.87800 46.88900 31.90400
C  10.12500 46.80800 33.28600
H  10.45800 45.68300 34.30800
N  12.52200 48.09600 26.14700
C  13.39500 48.53400 27.05400
C  14.70700 48.68400 26.50900
C  14.60500 48.25200 25.13900
C  13.17500 47.91100 24.96200
C  15.90900 49.18400 27.33100
C  15.75300 48.06000 24.17400
O  15.57200 47.50500 23.10600
C  17.12000 48.39900 24.47500
N  10.28000 47.21400 24.38800
C  11.24000 47.14800 23.48600
C  10.60400 46.77000 22.06500
C  9.11600 46.45700 22.27700
C  9.06000 46.87100 23.80500
C  10.87800 47.64700 20.78500
C  8.69800 44.99400 21.79700
C  9.31100 43.82800 22.51400
N  8.61500 46.99800 26.73700
C  7.56600 46.92600 25.79900
C  6.33900 46.78100 26.53000
C  6.67300 46.88900 27.90600
C  8.10000 47.03300 27.95500
C  4.94900 46.59100 26.08700
C  6.15200 47.00300 29.27800
O  5.05600 47.09800 29.72300
C  7.44000 47.09400 30.14900
C  7.51400 45.93800 31.07700
O  8.27600 44.99200 31.02000
O  6.56100 46.01300 32.02300
C  6.19600 44.83100 32.79700
H  13.83800 49.34000 29.01700
H  13.16900 47.51300 22.85900
H  6.92800 46.72600 23.72400
H  9.79300 48.60700 31.46400
H  12.64800 48.51500 31.15900
H  10.89200 50.65800 31.35300
H  11.54400 50.83100 29.57300
H  12.58900 50.74300 31.01500
H  11.88400 47.03500 32.29700
H  10.89300 45.95600 31.34000
H  9.11300 46.56500 32.96400
H  10.07700 47.78700 33.76400
H  15.73300 49.22500 28.40600
H  16.45700 50.04600 26.95100
H  16.64500 48.39400 27.18500
H  17.06800 49.33900 25.02500
H  17.72000 48.57200 23.58200
H  17.57400 47.62300 25.09100
H  11.04800 45.79700 21.85900
H  8.47400 47.15300 21.73800
H  11.24400 48.63800 21.05400
H  10.01700 47.78700 20.13100
H  11.71900 47.11700 20.33700
H  8.90300 45.00200 20.72600
H  7.63800 44.81000 21.97600
H  9.78300 44.08400 23.46200
H  10.09700 43.49800 21.83400
H  8.56100 43.03900 22.57100
H  4.79700 46.66200 25.00900
H  4.36100 47.34600 26.60800
H  4.55100 45.66900 26.51100
H  7.38400 48.02300 30.71600
H  6.69300 44.74100 33.76200
H  6.47100 43.88500 32.33100
H  5.11900 44.76900 32.95300

