158

Mg 45.45200 3.61400 48.12600
C  43.59600 6.47900 47.35400
C  42.57800 1.69500 47.31900
C  47.41800 0.79200 47.89800
C  48.28600 5.50200 48.15500
N  43.22100 4.11800 47.64200
C  42.73200 5.33600 47.31000
C  41.15900 5.24900 46.98100
C  40.88500 3.72200 47.29400
C  42.31100 3.12400 47.41300
C  40.10300 3.47000 48.58100
C  40.75400 5.65500 45.50600
C  39.59200 6.62800 45.27700
H  38.70000 6.35800 43.99800
N  45.03400 1.54600 47.68800
C  43.84300 0.97200 47.36800
C  43.94200 -0.49800 47.25000
C  45.33600 -0.82200 47.52100
C  46.02800 0.54100 47.74400
C  42.75300 -1.36700 46.93400
C  45.93400 -2.22400 47.49500
O  45.21700 -3.19200 47.26100
C  47.42300 -2.48600 47.68200
N  47.55200 3.15400 48.23000
C  48.11100 1.96000 48.04300
C  49.62300 2.06200 48.24900
C  49.90100 3.61500 48.10300
C  48.49300 4.10800 48.27400
C  49.99000 1.41900 49.57300
C  50.57300 4.05100 46.75200
C  51.93400 4.70700 46.76800
N  45.90800 5.61400 47.89300
C  47.05200 6.29300 47.98100
C  46.89100 7.67200 47.56600
C  45.52000 7.77400 47.32200
C  44.98700 6.55700 47.61000
C  48.00300 8.71400 47.56700
C  44.40900 8.66000 46.98200
O  44.36700 9.91500 46.81300
C  43.11000 7.83000 46.91800
C  42.13600 8.44500 47.88200
O  41.86800 8.03400 49.01900
O  41.51200 9.47100 47.18900
C  40.53600 10.36100 47.91000
H  41.75300 1.05000 47.00900
H  48.12600 -0.03700 47.83600
H  49.07500 6.23700 47.97600
H  40.62700 5.92400 47.65100
H  40.36200 3.23400 46.47100
H  39.64800 4.39800 48.92700
H  40.74100 3.01200 49.33700
H  39.19400 2.88700 48.44100
H  40.40400 4.76400 44.98400
H  41.68800 5.94000 45.02300
H  39.93900 7.65400 45.15900
H  38.96200 6.44600 46.14800
H  42.82400 -1.64400 45.88200
H  41.79000 -0.89300 47.12300
H  42.96000 -2.20800 47.59600
H  48.04400 -2.36700 46.79400
H  47.33600 -3.54900 47.90400
H  47.66800 -1.94900 48.59800
H  50.12900 1.43300 47.51600
H  50.45200 4.06600 48.92800
H  50.72100 2.04400 50.08500
H  50.45900 0.46100 49.34900
H  49.09700 1.23500 50.17100
H  49.92700 4.71700 46.18100
H  50.67600 3.19500 46.08400
H  52.63800 4.07900 46.22300
H  52.34100 4.81300 47.77300
H  51.86900 5.65800 46.23800
H  47.92200 9.57800 46.90800
H  49.04500 8.40300 47.63900
H  47.90900 9.10700 48.58000
H  42.63600 7.87100 45.93800
H  39.97300 9.83300 48.68000
H  39.83600 10.71200 47.15100
H  41.02200 11.27000 48.26300
Mg 6.54100 54.65100 39.84600
C  6.24600 51.13400 39.77000
C  9.86300 54.24100 39.02100
C  6.75600 57.94800 39.31500
C  3.08400 54.80400 40.31800
N  7.83700 52.88200 39.25400
C  7.54600 51.59400 39.43900
C  8.75900 50.77700 39.22900
C  9.89400 51.75800 39.51200
C  9.18700 53.03300 39.25200
C  10.58400 51.65600 40.86900
C  8.76500 50.03900 37.81500
C  8.52700 50.99000 36.64600
H  7.19500 50.94200 35.96200
N  8.11300 55.90600 39.18200
C  9.42000 55.58300 38.96200
C  10.25100 56.74800 38.78600
C  9.35700 57.85000 38.87700
C  7.97600 57.28300 39.10400
C  11.72900 56.79400 38.43700
C  9.75100 59.31900 38.53500
O  10.87200 59.66300 38.38500
C  8.63900 60.44600 38.58100
N  5.08300 56.21200 39.67200
C  5.42700 57.51800 39.57200
C  4.20300 58.43600 39.55700
C  3.08600 57.44700 40.10100
C  3.75800 56.06000 40.03900
C  4.45100 59.67900 40.46400
C  1.83600 57.53700 39.27500
C  0.49800 57.71300 39.94900
N  4.94900 53.29400 39.97700
C  3.61000 53.46900 40.22600
C  2.93800 52.17200 40.56200
C  3.95200 51.24800 40.37500
C  5.11800 51.97000 40.02500
C  1.48300 52.00700 40.98700
C  4.28200 49.80600 40.41700
O  3.60600 48.85200 40.77100
C  5.80000 49.63300 39.98600
C  5.62900 48.94600 38.63100
O  4.95000 49.29800 37.66700
O  6.32600 47.77000 38.68200
C  6.17200 46.77700 37.59900
H  10.94800 54.12700 39.07700
H  6.72200 59.03700 39.24300
H  2.01400 54.87600 40.52700
H  8.77300 50.05300 40.04400
H  10.65900 51.58600 38.75600
H  10.60300 52.64300 41.33100
H  11.60700 51.29800 40.74900
H  10.11500 50.91300 41.51400
H  7.91500 49.37300 37.66400
H  9.68100 49.47100 37.65200
H  9.17900 50.60700 35.86100
H  8.81200 52.00200 36.93300
H  11.62900 57.07800 37.39000
H  12.13200 55.78400 38.36100
H  12.41000 57.49300 38.92300
H  9.11100 61.40500 38.36600
H  8.19600 60.44600 39.57700
H  7.96200 60.19400 37.76400
H  3.98400 58.74200 38.53500
H  2.88200 57.68500 41.14500
H  4.10700 60.52000 39.86400
H  5.47200 59.83100 40.81500
H  3.89500 59.61000 41.39900
H  1.80300 56.68500 38.59600
H  1.95400 58.44500 38.68400
H  0.58400 57.44500 41.00200
H  -0.20100 57.05700 39.43100
H  0.14500 58.73100 39.78400
H  0.91500 52.54200 40.22500
H  1.30500 52.38300 41.99400
H  1.29900 50.93300 40.97800
H  6.33300 48.96500 40.66200
H  7.10500 46.21900 37.51300
H  5.84400 47.26200 36.68000
H  5.42800 46.08300 37.98900

