158

Mg 54.41400 24.74200 44.32900
C  52.20800 27.38700 43.55700
C  52.15300 22.51700 43.37900
C  56.95000 22.57700 44.34700
C  56.98300 27.26700 44.48800
N  52.51600 25.01600 43.28900
C  51.80900 26.12100 43.10000
C  50.38700 25.74900 42.60200
C  50.28800 24.20200 42.81500
C  51.70700 23.87500 43.04900
C  49.30000 23.86300 43.97800
C  50.22100 26.29800 41.10700
C  50.27500 25.30200 39.96900
H  50.30000 25.89100 38.50900
N  54.52300 22.80900 43.96000
C  53.44300 22.03400 43.71300
C  53.85700 20.71000 43.59700
C  55.25900 20.59700 43.81500
C  55.67600 22.05000 43.97300
C  52.91100 19.62100 43.12400
C  56.08400 19.30500 43.86400
O  55.56300 18.21900 43.58900
C  57.56300 19.20100 44.09300
N  56.79200 24.92500 44.27900
C  57.43300 23.85500 44.56200
C  58.90800 24.06100 44.65600
C  58.98800 25.67100 44.62200
C  57.56200 26.02400 44.43500
C  59.68000 23.40400 45.88300
C  59.90700 26.27600 43.49900
C  61.33900 26.77500 43.92400
N  54.60200 26.87800 44.29500
C  55.66200 27.70300 44.44900
C  55.17000 29.00200 44.69000
C  53.80200 28.96600 44.31600
C  53.52400 27.61800 44.00800
C  55.97800 30.21000 45.07700
C  52.62600 29.79300 44.03500
O  52.61000 31.03300 44.05200
C  51.51900 28.74900 43.66700
C  50.90900 29.26700 42.33300
O  51.46900 29.35600 41.25600
O  49.54000 29.32800 42.56600
C  48.74200 29.76300 41.39200
H  51.34000 21.78900 43.39800
H  57.67100 21.78400 44.55800
H  57.70100 28.00400 44.85600
H  49.56800 26.24600 43.12100
H  50.02100 23.64200 41.91800
H  49.59700 22.89900 44.39200
H  48.32400 23.70800 43.51900
H  49.20400 24.58600 44.78800
H  51.01900 26.92900 40.71600
H  49.29100 26.85800 41.00700
H  49.47700 24.56100 39.91700
H  51.24400 24.80900 40.04500
H  53.05100 19.35500 42.07600
H  51.92800 19.88000 43.51700
H  53.18500 18.71200 43.65800
H  57.87900 18.15900 44.14900
H  57.66300 19.53600 45.12600
H  58.08200 19.88600 43.42300
H  59.40500 23.69700 43.75700
H  59.20400 26.08200 45.60800
H  58.89000 23.04100 46.54100
H  60.31200 24.10600 46.42800
H  60.18200 22.52800 45.47300
H  59.36300 27.08800 43.01500
H  60.07800 25.55700 42.69800
H  61.41700 27.86200 43.91100
H  61.99700 26.50200 43.09900
H  61.47600 26.35200 44.91900
H  56.70200 30.39000 44.28300
H  56.53100 29.93900 45.97700
H  55.44700 31.14800 45.24000
H  50.69300 28.87700 44.36600
H  49.09800 30.74200 41.07100
H  47.65900 29.79400 41.51300
H  49.00400 28.95500 40.70900
Mg 1.38600 43.12700 25.87400
C  2.92300 43.32900 29.06600
C  -1.41800 41.83400 27.59600
C  0.21100 42.48300 22.90800
C  4.54300 43.95500 24.52100
N  0.79100 42.84300 28.06200
C  1.54600 43.08300 29.18200
C  0.75800 42.78300 30.50700
C  -0.65600 42.28500 29.92900
C  -0.43200 42.35600 28.43200
C  -1.09900 40.88800 30.55100
C  0.71800 43.97600 31.45000
C  0.91300 43.72900 32.94100
H  0.69800 42.34400 33.53300
N  -0.41600 42.42200 25.33900
C  -1.45200 41.86800 26.16800
C  -2.46900 41.41800 25.25600
C  -2.05500 41.61300 23.87500
C  -0.67800 42.14100 24.00300
C  -3.79800 40.71600 25.67700
C  -2.70500 41.42200 22.55500
O  -2.28900 41.74100 21.46300
C  -4.01600 40.73600 22.61000
N  2.26300 43.23600 23.89600
C  1.49900 43.01100 22.84200
C  2.29500 43.35600 21.54800
C  3.47000 44.18900 22.11500
C  3.48800 43.77000 23.57500
C  2.75800 42.07900 20.67100
C  3.36400 45.70900 21.87300
C  4.17500 46.19200 20.64500
N  3.28200 43.49900 26.56400
C  4.48800 43.75000 25.86000
C  5.59200 43.89700 26.76800
C  5.07100 43.71600 28.02800
C  3.65200 43.54200 27.86100
C  6.94600 44.31000 26.43700
C  5.26700 43.60800 29.42600
O  6.32200 43.59700 30.11900
C  3.93400 43.50100 30.13900
C  4.04700 42.25100 31.04400
O  3.78400 41.02400 30.75000
O  4.38600 42.62400 32.36200
C  4.54400 41.58200 33.39100
H  -2.27400 41.46400 28.16400
H  -0.17500 42.26600 21.91000
H  5.53500 44.29400 24.21600
H  1.28300 41.93900 30.95400
H  -1.57100 42.86000 30.07200
H  -0.45500 40.46700 31.32400
H  -0.98800 40.28300 29.65200
H  -2.14800 40.88300 30.84800
H  -0.24400 44.44000 31.23600
H  1.44000 44.78600 31.34100
H  0.24900 44.42500 33.45500
H  1.88700 44.10200 33.25600
H  -3.74300 40.53800 26.75000
H  -3.93200 39.74700 25.19700
H  -4.64800 41.34100 25.40400
H  -4.84800 41.28400 23.05100
H  -3.95100 39.70700 22.96500
H  -4.33400 40.60900 21.57600
H  1.59700 43.91500 20.92500
H  4.39600 43.84000 21.65800
H  2.30100 41.20400 21.13500
H  3.82300 41.84500 20.68000
H  2.47300 42.19100 19.62600
H  3.57900 46.27000 22.78300
H  2.32700 45.93200 21.62200
H  4.84400 46.95900 21.03500
H  3.51600 46.63800 19.90000
H  4.70000 45.34200 20.20900
H  6.97800 45.32700 26.04600
H  7.49900 43.71800 25.70700
H  7.38800 44.51200 27.41200
H  3.79500 44.37600 30.77400
H  5.62900 41.58200 33.49700
H  4.10300 40.58600 33.34800
H  4.07400 41.94500 34.30500

