158

Mg 9.57800 3.47300 28.06600
C  11.12500 1.98200 30.94200
C  7.99800 5.59400 30.07100
C  7.86500 4.43500 25.29500
C  11.01100 0.82000 26.29800
N  9.62800 3.77800 30.22400
C  10.34500 3.07800 31.16700
C  10.05300 3.68000 32.55300
C  8.79200 4.58100 32.35400
C  8.83600 4.78500 30.80000
C  7.43500 3.99400 32.80800
C  11.27000 4.55600 33.14000
C  11.72900 4.17200 34.54900
H  10.80500 3.65600 35.57300
N  8.21600 4.83600 27.66200
C  7.75900 5.68600 28.67400
C  6.95200 6.70800 28.06200
C  6.89800 6.44600 26.64600
C  7.73200 5.16900 26.47200
C  6.31100 7.83200 28.90000
C  6.20300 7.22200 25.49100
O  6.09400 6.80400 24.35000
C  5.61300 8.56200 25.76700
N  9.45600 2.70400 26.09200
C  8.65200 3.31800 25.13400
C  8.66400 2.51000 23.85500
C  9.62100 1.29800 24.18100
C  10.00700 1.57800 25.63700
C  7.31100 2.14600 23.22800
C  10.79600 1.30000 23.18200
C  10.56400 1.01500 21.65000
N  10.85100 1.81800 28.50300
C  11.38500 0.87600 27.63300
C  12.28400 -0.02700 28.33100
C  12.19400 0.37300 29.68400
C  11.30000 1.48900 29.70600
C  13.01100 -1.09800 27.80000
C  12.70200 0.08600 31.02400
O  13.53600 -0.77100 31.37400
C  11.98300 1.19600 31.97300
C  11.22200 0.45200 32.99100
O  10.07200 0.01900 32.85000
O  12.01100 0.18300 34.06400
C  11.33000 -0.43700 35.19900
H  7.40800 6.19100 30.76900
H  7.25600 4.73300 24.44000
H  11.45600 -0.04900 25.80900
H  9.81400 2.81100 33.16600
H  8.73600 5.60900 32.71100
H  6.83300 3.81600 31.91700
H  6.94000 4.76200 33.40200
H  7.55700 3.05200 33.34300
H  11.04000 5.62100 33.09800
H  12.04700 4.17200 32.48000
H  12.16300 5.03700 35.05100
H  12.41900 3.33100 34.47900
H  7.07800 8.60400 28.96700
H  6.05400 7.41800 29.87500
H  5.37800 8.28200 28.56000
H  6.32400 9.25700 26.21400
H  4.73700 8.40300 26.39500
H  5.36800 8.90500 24.76100
H  9.21900 3.13300 23.15400
H  9.11500 0.33800 24.07400
H  7.02900 2.99000 22.59800
H  6.62700 2.06100 24.07200
H  7.46100 1.23200 22.65400
H  11.51300 0.53200 23.47200
H  11.24900 2.28500 23.29600
H  10.93400 0.03500 21.34900
H  11.03400 1.82700 21.09500
H  9.51100 1.20500 21.44200
H  13.87600 -1.25300 28.44500
H  13.33500 -1.09000 26.75900
H  12.42800 -2.01300 27.70200
H  12.73900 1.68400 32.58800
H  11.92700 -0.12600 36.05600
H  11.41500 -1.50600 35.00500
H  10.27400 -0.17300 35.26300
Mg 53.38300 23.82800 44.80200
C  50.65700 26.02700 44.37900
C  51.31100 21.19100 44.18200
C  56.13600 21.91700 44.23000
C  55.47400 26.63900 45.12700
N  51.16700 23.63300 44.11300
C  50.25300 24.67500 44.21500
C  48.80400 24.12700 44.25200
C  49.07800 22.64600 44.56400
C  50.54700 22.43600 44.21800
C  48.79300 22.17100 46.01000
C  47.88900 24.35300 43.01300
C  48.44700 24.26400 41.61200
H  47.91700 23.04000 40.77300
N  53.75200 21.84600 44.26900
C  52.70300 20.90100 44.08900
C  53.29500 19.60300 43.98500
C  54.75400 19.74400 43.96500
C  54.91900 21.24100 44.15200
C  52.34800 18.39100 43.75600
C  55.76300 18.56600 43.84400
O  55.46300 17.36600 43.82500
C  57.20800 18.88000 43.89600
N  55.56800 24.22800 44.59500
C  56.51500 23.26000 44.38600
C  57.94200 23.86800 44.21700
C  57.65000 25.38400 44.66400
C  56.12600 25.44500 44.86000
C  58.90900 23.01300 45.13000
C  58.20700 26.53100 43.66700
C  57.24000 26.92300 42.49500
N  53.17500 25.89500 44.85900
C  54.10400 26.90500 45.07900
C  53.39400 28.20000 45.16300
C  52.06600 27.87300 44.85300
C  51.99900 26.49400 44.62700
C  54.14400 29.43900 45.50200
C  50.76000 28.43600 44.74300
O  50.43000 29.59900 44.94600
C  49.77500 27.23400 44.44700
C  49.23700 27.48400 43.08000
O  49.90000 27.58000 42.03700
O  47.88200 27.71400 43.17300
C  47.12400 27.93000 41.95500
H  50.65000 20.34000 44.35500
H  57.04100 21.34700 44.01200
H  56.07800 27.53400 45.28900
H  48.33000 24.56400 45.13100
H  48.48300 21.99300 43.92500
H  49.73400 22.10600 46.55600
H  48.41600 21.15600 45.88200
H  48.09900 22.77700 46.59200
H  47.43600 25.33700 43.12800
H  47.08200 23.62600 43.10700
H  49.52100 24.44200 41.55800
H  48.11900 25.23400 41.24000
H  51.86800 18.50900 42.78500
H  51.61900 18.22900 44.55000
H  52.91500 17.46800 43.63500
H  57.78300 17.95900 43.79400
H  57.32300 19.40300 44.84600
H  57.41500 19.60000 43.10500
H  58.31500 23.69200 43.20800
H  58.03700 25.62000 45.65600
H  59.74300 22.64300 44.53300
H  58.48900 22.17500 45.68600
H  59.35900 23.78700 45.75100
H  59.16400 26.26600 43.21700
H  58.51500 27.43300 44.19500
H  56.62600 27.76200 42.82400
H  56.58800 26.08600 42.24300
H  57.95500 27.20200 41.72100
H  54.55900 29.24600 46.49200
H  53.47900 30.30300 45.50900
H  54.92300 29.54800 44.74800
H  48.98900 26.99400 45.16300
H  46.62800 28.89100 42.09400
H  46.32700 27.18800 41.90600
H  47.74200 27.93000 41.05700

