158

Mg 25.97700 0.16900 29.79300
C  27.82300 -0.09200 32.73600
C  23.13100 0.65600 31.54300
C  24.29100 -0.06300 26.92100
C  28.97300 -0.73100 27.93300
N  25.55900 0.08300 31.92600
C  26.47200 0.14900 33.01600
C  25.78300 0.38600 34.35000
C  24.23700 0.50600 33.98800
C  24.30000 0.45000 32.36100
C  23.44300 -0.67300 34.57600
C  26.42200 1.62300 35.13500
C  26.85200 1.29100 36.55500
H  26.76400 2.34700 37.56900
N  23.99700 0.20600 29.31300
C  22.95600 0.44500 30.14700
C  21.69500 0.39700 29.42600
C  22.06300 0.26400 28.02600
C  23.52200 0.11200 28.06100
C  20.34900 0.79300 30.00600
C  21.13300 0.26200 26.81500
O  21.52900 0.30200 25.62800
C  19.61800 0.36100 27.00100
N  26.48000 -0.41700 27.72900
C  25.66000 -0.20400 26.74600
C  26.20500 -0.32300 25.35100
C  27.73100 -0.42400 25.66900
C  27.75000 -0.53000 27.16800
C  25.67800 -1.60700 24.61200
C  28.49400 0.80900 25.10900
C  29.84200 0.59700 24.43900
N  28.05000 -0.20100 30.15600
C  29.08400 -0.55700 29.33100
C  30.22900 -0.74700 30.19800
C  29.82300 -0.49500 31.47700
C  28.47400 -0.22500 31.45300
C  31.64100 -1.25900 29.89200
C  30.34100 -0.38200 32.87100
O  31.45800 -0.57100 33.33700
C  29.01100 -0.13900 33.75200
C  28.78300 -1.27000 34.71700
O  27.87900 -2.12200 34.62000
O  29.60100 -1.12600 35.82600
C  29.19100 -2.02200 37.02400
H  22.21300 0.84900 32.10200
H  23.72600 -0.04200 25.98700
H  29.95000 -0.90100 27.47700
H  25.77700 -0.53900 34.92700
H  23.84300 1.46400 34.33000
H  23.45700 -1.47700 33.84000
H  22.41300 -0.33300 34.68500
H  23.83900 -1.11800 35.48800
H  25.67100 2.41200 35.15000
H  27.24400 2.00100 34.52700
H  27.91300 1.04300 36.51700
H  26.45900 0.35700 36.95700
H  20.08700 1.69200 29.45000
H  20.27700 0.98700 31.07600
H  19.64800 -0.00700 29.76500
H  19.05700 0.29900 26.06900
H  19.35900 1.25600 27.56700
H  19.26800 -0.47500 27.60800
H  25.91100 0.62700 24.90600
H  28.11700 -1.37000 25.28900
H  25.03000 -2.18100 25.27500
H  26.46300 -2.29500 24.29900
H  25.22000 -1.40000 23.64500
H  28.53400 1.59400 25.86300
H  27.83000 1.23100 24.35400
H  30.54000 1.38000 24.73300
H  29.63800 0.58300 23.36900
H  30.21100 -0.39500 24.69900
H  32.35500 -0.50800 29.55400
H  31.51700 -1.97300 29.07800
H  31.99300 -1.78300 30.78100
H  29.17600 0.70400 34.42300
H  28.61700 -2.92500 36.81300
H  28.65500 -1.46100 37.79000
H  30.11200 -2.25700 37.55800
Mg 30.38700 57.62500 40.45100
C  27.60800 55.64000 39.59300
C  32.39800 55.16600 38.98000
C  33.01100 59.78600 40.67800
C  28.25500 60.32900 40.90400
N  29.99600 55.72000 39.09500
C  28.81900 54.99600 39.11500
C  28.91800 53.56100 38.79300
C  30.51200 53.42300 38.77000
C  30.98800 54.84800 38.97100
C  31.05200 52.52600 39.88600
C  28.16300 53.00100 37.53700
C  28.72600 53.05400 36.13200
H  27.80400 53.71100 35.03900
N  32.39600 57.48000 39.94000
C  32.99200 56.38700 39.30900
C  34.41700 56.64700 39.16500
C  34.65000 58.01300 39.64900
C  33.32500 58.53600 40.13200
C  35.51700 55.65300 38.67900
C  35.95600 58.63600 39.66800
O  36.96000 58.03200 39.31900
C  36.16000 60.08500 40.03000
N  30.56200 59.63900 40.77100
C  31.75000 60.26200 40.98800
C  31.64400 61.68400 41.57700
C  30.08600 61.87300 41.57400
C  29.62400 60.55200 40.94100
C  32.43500 61.84100 42.93000
C  29.48600 63.17300 40.97600
C  29.66100 64.48900 41.76200
N  28.33100 57.87400 40.41400
C  27.62200 59.07800 40.72800
C  26.28300 58.78000 40.55400
C  26.15300 57.46200 40.15200
C  27.50200 56.92800 40.07800
C  25.14700 59.66100 40.87200
C  25.26900 56.48200 39.74200
O  24.06200 56.43200 39.55000
C  26.18300 55.19200 39.43500
C  25.74500 54.03800 40.24500
O  26.34200 53.62500 41.22200
O  24.54900 53.46000 39.77200
C  23.73000 52.78900 40.85200
H  33.03800 54.29900 38.80600
H  33.84000 60.48700 40.79500
H  27.57000 61.17800 40.93200
H  28.68800 53.03700 39.72100
H  30.88400 53.13100 37.78800
H  31.59200 53.06700 40.66300
H  31.80600 51.91000 39.39500
H  30.29100 51.86800 40.30600
H  27.16800 53.44100 37.46900
H  28.00200 51.93300 37.68800
H  28.89200 52.05700 35.72300
H  29.69600 53.54500 36.05700
H  35.92800 56.00900 37.73400
H  35.15700 54.63700 38.51700
H  36.29400 55.39500 39.39900
H  35.81600 60.41300 41.01100
H  35.64400 60.60800 39.22500
H  37.20800 60.38200 40.01600
H  31.99600 62.31200 40.75900
H  29.66200 61.79100 42.57500
H  32.87100 60.94100 43.36600
H  31.70500 62.17600 43.66700
H  33.17200 62.64200 42.87300
H  28.43400 62.99000 40.75900
H  29.84800 63.27000 39.95300
H  28.72500 64.74700 42.25700
H  29.87100 65.23600 40.99700
H  30.53900 64.46100 42.40700
H  24.89200 60.12800 39.92000
H  25.38800 60.51500 41.50500
H  24.32900 59.09300 41.31500
H  25.95900 54.87600 38.41700
H  23.38400 53.61100 41.47900
H  24.36400 52.03300 41.31500
H  22.91900 52.24300 40.36900

