158

Mg 40.22500 10.23500 29.19300
C  42.03500 11.20600 31.85000
C  37.80600 8.86100 31.30900
C  38.53200 8.66200 26.50000
C  42.83100 10.76700 27.06300
N  39.98300 10.09900 31.28300
C  40.77400 10.74300 32.19800
C  40.18900 10.68100 33.60900
C  39.02300 9.59700 33.48200
C  38.94200 9.49000 31.91600
C  39.18700 8.30800 34.37900
C  39.99200 12.02000 34.33600
C  39.15900 12.07100 35.57900
H  39.57100 12.85000 36.82500
N  38.25500 9.24500 28.98900
C  37.44200 8.74400 30.01200
C  36.30200 8.15800 29.43400
C  36.50700 8.11000 28.00900
C  37.79900 8.70400 27.78700
C  35.27500 7.42900 30.21800
C  35.52000 7.71800 26.85800
O  35.86900 7.84000 25.70800
C  34.07800 7.49200 27.20700
N  40.58300 9.79900 27.02600
C  39.77100 9.16700 26.13800
C  40.37800 9.18900 24.72900
C  41.64000 10.12000 24.95800
C  41.73200 10.15400 26.46300
C  40.60700 7.74800 24.21900
C  41.64700 11.49500 24.21800
C  40.73600 12.58500 24.69700
N  42.01600 10.99300 29.32300
C  42.99500 11.17700 28.37000
C  44.17600 11.86700 28.97300
C  43.82000 11.83500 30.32500
C  42.55000 11.29700 30.48400
C  45.45800 12.44600 28.26400
C  44.29700 12.23000 31.66000
O  45.31600 12.80500 31.96700
C  43.19600 11.74300 32.64800
C  43.73000 10.76000 33.58200
O  43.92000 9.59300 33.31900
O  44.19100 11.38300 34.68300
C  44.81700 10.61900 35.74900
H  37.03800 8.47400 31.98300
H  38.13300 8.08300 25.66500
H  43.63800 10.99800 26.36400
H  40.93500 10.22800 34.26100
H  38.05900 10.04000 33.73400
H  39.98500 8.50000 35.09800
H  39.48100 7.46600 33.75300
H  38.24100 8.16300 34.90000
H  39.59900 12.82500 33.71400
H  40.99900 12.26500 34.67400
H  38.94900 11.01300 35.73200
H  38.32800 12.66900 35.20400
H  34.36800 8.00300 30.02800
H  35.43300 7.28400 31.28700
H  35.24300 6.45900 29.72300
H  33.56300 8.25400 27.79200
H  33.96400 6.49500 27.63100
H  33.52800 7.55800 26.26800
H  39.67800 9.74300 24.10300
H  42.50400 9.57800 24.57500
H  39.65900 7.42600 23.78900
H  40.90900 7.03500 24.98700
H  41.29500 7.68600 23.37600
H  41.44100 11.38200 23.15300
H  42.63500 11.95400 24.19500
H  41.33200 13.36500 25.17200
H  40.05100 12.13800 25.41700
H  40.06500 13.02800 23.96100
H  45.54000 13.53000 28.18800
H  45.59300 11.84700 27.36200
H  46.32000 12.14400 28.85800
H  42.84400 12.61800 33.19400
H  45.52400 9.84100 35.46300
H  44.06700 10.25200 36.44900
H  45.45600 11.35100 36.24200
Mg 36.57500 49.54500 25.19000
C  36.54000 47.49400 27.99600
C  35.03100 51.94600 26.98100
C  36.11300 50.99400 22.27700
C  37.61300 46.50800 23.31900
N  35.73600 49.60300 27.20400
C  36.01300 48.76900 28.25000
C  35.77800 49.47300 29.52700
C  35.04100 50.85300 29.21200
C  35.28800 50.82400 27.70600
C  33.52800 50.81900 29.60500
C  37.05600 49.50300 30.45200
C  36.87100 49.09500 31.87900
H  35.48500 49.27300 32.50200
N  35.86100 51.29600 24.67800
C  35.31400 52.18200 25.56800
C  34.98800 53.38700 24.85400
C  35.28300 53.13100 23.43800
C  35.80900 51.74500 23.40800
C  34.34200 54.60500 25.52200
C  34.95500 54.02700 22.22700
O  35.27200 53.80900 21.03200
C  34.03600 55.25600 22.48900
N  37.10400 48.89600 23.12300
C  36.75400 49.74100 22.14000
C  36.90400 49.10400 20.73200
C  37.69500 47.80900 21.13200
C  37.46600 47.73400 22.63500
C  35.67200 48.81200 19.96200
C  39.17600 47.84300 20.66800
C  40.27800 48.31800 21.74000
N  36.91700 47.39500 25.48800
C  37.44800 46.36000 24.72900
C  37.69100 45.17000 25.52400
C  37.33500 45.59400 26.85200
C  36.88400 46.93800 26.73500
C  38.21700 43.92700 25.00400
C  37.42500 45.23700 28.17300
O  37.84200 44.18700 28.59900
C  36.94100 46.45600 29.05500
C  35.78100 45.99200 29.85800
O  34.61300 45.89300 29.40300
O  36.14500 45.53800 31.06200
C  35.02100 45.00300 31.77800
H  34.69700 52.86300 27.47200
H  35.88400 51.45300 21.31300
H  37.88500 45.65300 22.69800
H  35.07400 48.77000 29.97300
H  35.54300 51.64400 29.77000
H  33.43400 50.17100 30.47600
H  32.89400 50.42500 28.81000
H  33.23300 51.84100 29.84200
H  37.50900 50.49500 30.46700
H  37.85300 48.89000 30.03000
H  37.71000 49.49100 32.45200
H  37.04600 48.02600 32.00200
H  34.70300 55.51700 25.04600
H  34.49800 54.62800 26.60100
H  33.25800 54.71500 25.48900
H  33.06900 55.13000 22.97500
H  33.81600 55.55600 21.46500
H  34.52300 56.10200 22.97400
H  37.55700 49.80000 20.20400
H  37.26300 46.93500 20.64500
H  35.70800 49.51900 19.13400
H  34.77700 49.04500 20.53900
H  35.56900 47.78400 19.61300
H  39.23800 48.41900 19.74400
H  39.47500 46.86600 20.28800
H  40.67100 47.56300 22.42000
H  39.98600 49.24000 22.24300
H  41.14000 48.59400 21.13300
H  37.94600 43.83800 23.95200
H  37.79000 43.08800 25.55300
H  39.29800 44.06100 25.04300
H  37.67300 46.78900 29.79000
H  35.41900 44.72900 32.75500
H  34.65400 44.11600 31.26200
H  34.21700 45.69400 32.03300

