158

Mg 46.39900 34.53100 27.93300
C  44.26700 32.66600 30.19100
C  46.37500 36.98900 30.40600
C  47.91500 36.52500 25.75000
C  45.94600 32.09200 25.53100
N  45.59100 34.74600 30.07700
C  44.75600 33.82900 30.72300
C  44.63300 34.33600 32.17800
C  45.01600 35.85500 32.22700
C  45.72400 35.89700 30.84400
C  43.80800 36.77000 32.31200
C  45.42400 33.37200 33.12600
C  46.30100 33.87000 34.29200
H  45.70600 34.81300 35.36200
N  47.17400 36.47400 28.15300
C  47.11500 37.30400 29.21600
C  47.88100 38.49300 28.88200
C  48.32700 38.38900 27.50000
C  47.79200 37.08600 27.06600
C  47.85600 39.68600 29.81800
C  49.15500 39.30800 26.62800
O  49.50100 39.10700 25.43200
C  49.68300 40.65000 27.24200
N  46.62900 34.40400 25.88200
C  47.41500 35.37800 25.20100
C  47.74100 34.86000 23.78200
C  47.22500 33.37900 23.80500
C  46.48600 33.28700 25.06700
C  46.94600 35.69600 22.73700
C  48.41800 32.41900 23.75600
C  48.36900 31.24700 22.77100
N  45.33400 32.75700 27.89300
C  45.26300 31.88900 26.78600
C  44.56200 30.69400 27.27100
C  44.05500 31.03100 28.55500
C  44.52500 32.26900 28.89100
C  44.45000 29.31900 26.58200
C  43.25000 30.52200 29.59800
O  42.61600 29.45400 29.64900
C  43.17000 31.62500 30.67700
C  43.32100 31.11100 32.04500
O  44.11200 30.27600 32.45700
O  42.31700 31.67800 32.87000
C  42.17600 31.14500 34.23700
H  46.37100 37.85500 31.07100
H  48.50900 37.03600 24.98900
H  45.82700 31.25700 24.83700
H  43.59100 34.20200 32.46600
H  45.72300 36.16800 32.99600
H  43.84200 37.17300 33.32400
H  42.87500 36.22300 32.17400
H  43.78400 37.64200 31.65900
H  46.12200 32.80400 32.51100
H  44.67400 32.72300 33.57800
H  47.08400 34.43700 33.78900
H  46.77000 32.96000 34.66800
H  47.55200 40.62600 29.35900
H  48.85400 39.94900 30.16900
H  47.19900 39.68900 30.68700
H  50.38300 41.13000 26.55800
H  50.15900 40.35200 28.17600
H  48.87900 41.36100 27.43400
H  48.80500 35.02700 23.61600
H  46.53000 33.15600 22.99600
H  47.50000 36.62200 22.58100
H  46.06800 36.00900 23.30200
H  46.77600 35.06500 21.86500
H  48.49600 31.93300 24.72800
H  49.34900 32.98600 23.76900
H  47.47500 31.29300 22.14900
H  48.48200 30.26400 23.22900
H  49.24900 31.45000 22.16100
H  43.81300 28.60400 27.10300
H  45.40000 28.80900 26.41700
H  43.95000 29.49500 25.62900
H  42.17300 32.03300 30.51200
H  42.71800 30.21800 34.42000
H  41.19800 31.04800 34.70900
H  42.66100 31.94200 34.80000
Mg 25.67300 50.99600 26.06500
C  23.55300 51.96400 28.71600
C  28.00500 50.13100 28.49300
C  27.93700 50.49000 23.55000
C  23.28000 52.20000 23.73600
N  25.81800 51.11200 28.39100
C  24.73300 51.37300 29.24000
C  25.16100 51.08200 30.75700
C  26.69500 50.70300 30.57200
C  26.88100 50.64800 29.08300
C  27.75700 51.57300 31.27100
C  24.15400 50.10500 31.42100
C  23.52100 50.54500 32.72500
H  24.47700 51.28500 33.70900
N  27.69700 50.38000 26.01700
C  28.45500 49.97200 27.13900
C  29.68000 49.41600 26.71500
C  29.74400 49.52800 25.25900
C  28.44200 50.18200 24.85500
C  30.69300 48.72500 27.70600
C  30.78700 49.22400 24.38400
O  30.74200 49.34400 23.13400
C  32.00800 48.59500 24.83900
N  25.69600 51.40100 23.97500
C  26.75300 51.03800 23.11500
C  26.36300 51.25700 21.62300
C  24.86800 51.88200 21.64200
C  24.54700 51.75300 23.21600
C  27.41400 52.09000 20.82100
C  23.79700 51.25100 20.58900
C  23.77300 52.00200 19.20200
N  23.86500 52.02400 26.17500
C  22.98800 52.40300 25.15100
C  21.86800 53.15100 25.79600
C  22.02200 53.02300 27.20600
C  23.24000 52.27200 27.35600
C  20.82900 53.90400 25.08100
C  21.46900 53.36500 28.52100
O  20.50200 54.05900 28.84600
C  22.44900 52.67400 29.54100
C  22.98100 53.76500 30.41500
O  23.78100 54.64800 29.99900
O  22.39700 53.71900 31.71200
C  22.72300 54.82100 32.56700
H  28.60000 49.60900 29.24500
H  28.61300 50.28300 22.71700
H  22.40900 52.46000 23.13100
H  25.09900 52.07400 31.20400
H  26.78900 49.65100 30.84200
H  28.38200 52.06100 30.52200
H  28.27800 51.06700 32.08400
H  27.18400 52.33600 31.79800
H  24.60300 49.15600 31.71300
H  23.29200 49.93700 30.77400
H  23.26000 49.58200 33.16400
H  22.57900 51.05600 32.52400
H  30.33200 48.69400 28.73400
H  31.60000 49.32800 27.66700
H  30.98600 47.75600 27.30300
H  31.83100 47.57500 25.17800
H  32.41500 49.27100 25.59100
H  32.74200 48.60400 24.03300
H  26.35500 50.23300 21.24800
H  24.77600 52.95500 21.47600
H  28.24400 52.40700 21.45400
H  26.94200 52.95600 20.35700
H  27.83800 51.47000 20.03100
H  22.79800 51.35900 21.00900
H  23.98900 50.18900 20.43100
H  24.52100 51.54300 18.55500
H  24.10500 53.04000 19.18900
H  22.71500 51.98800 18.94100
H  19.92400 53.30100 25.00800
H  21.20400 54.16800 24.09200
H  20.69300 54.77700 25.72000
H  21.92700 51.91200 30.12000
H  22.87500 55.76700 32.04600
H  23.61000 54.51800 33.12300
H  21.89600 54.91300 33.27100

