158

Mg 46.49100 34.85200 27.53700
C  44.65700 33.01300 30.03500
C  46.74700 37.30300 29.91000
C  47.51000 36.69200 25.18000
C  45.46100 32.26300 25.29500
N  45.71400 35.19600 29.67500
C  45.15100 34.23300 30.51300
C  45.25900 34.63600 32.04000
C  45.47300 36.13900 31.84900
C  46.15800 36.21100 30.45000
C  44.20400 37.02700 31.92100
C  46.50000 33.89300 32.64000
C  46.72600 34.02900 34.19300
H  45.79900 34.99700 34.92100
N  47.13400 36.68400 27.57300
C  47.23200 37.56700 28.61200
C  47.70300 38.86600 28.15900
C  48.00400 38.74400 26.75600
C  47.45300 37.37300 26.40900
C  47.98700 40.10200 29.04900
C  48.62600 39.71400 25.80800
O  48.83200 39.41100 24.58900
C  49.00600 41.12500 26.28600
N  46.52900 34.44600 25.54500
C  47.04900 35.44900 24.75300
C  46.97000 35.04800 23.26300
C  46.21100 33.67300 23.24800
C  45.96900 33.45100 24.76000
C  46.30800 36.14800 22.33000
C  46.76300 32.50000 22.41300
C  45.88000 32.11000 21.21000
N  45.42000 32.98500 27.64800
C  45.23900 32.04200 26.66300
C  44.64200 30.93900 27.21900
C  44.39000 31.23100 28.54200
C  44.85000 32.51200 28.70900
C  44.30300 29.67800 26.45200
C  43.80500 30.65500 29.74300
O  43.30400 29.52500 29.93300
C  43.78700 31.83600 30.69300
C  44.00000 31.42000 32.12100
O  45.04600 30.87100 32.45900
O  43.01300 31.86300 32.94000
C  43.24100 31.71200 34.34300
H  46.93200 38.13700 30.59000
H  47.84700 37.23900 24.29700
H  45.25700 31.47000 24.57300
H  44.35200 34.37700 32.58600
H  46.18300 36.40300 32.63300
H  43.31200 36.46800 31.63900
H  44.33000 37.86800 31.23900
H  44.06600 37.60900 32.83200
H  47.42600 34.23700 32.17900
H  46.42400 32.82000 32.46300
H  47.74100 34.34100 34.43800
H  46.70800 33.00800 34.57600
H  47.53800 40.00300 30.03700
H  47.63600 41.03200 28.60200
H  49.01500 40.18600 29.39900
H  49.70800 41.02800 27.11400
H  48.09300 41.61600 26.62300
H  49.45800 41.67700 25.46200
H  47.96300 34.93900 22.82700
H  45.23300 33.86300 22.80600
H  46.08100 36.93600 23.04800
H  45.40000 35.86600 21.79700
H  47.07200 36.54500 21.66200
H  46.94100 31.61900 23.02900
H  47.73100 32.78000 21.99700
H  46.41800 32.61400 20.40800
H  44.85500 32.43100 21.39700
H  45.85800 31.03100 21.05100
H  45.26900 29.17300 26.44100
H  43.90800 29.84900 25.45000
H  43.60000 29.03000 26.97600
H  42.73900 32.10000 30.83300
H  43.97300 30.97400 34.66900
H  42.30300 31.39700 34.80000
H  43.42500 32.69400 34.77900
Mg 8.78100 47.85800 25.22000
C  6.99400 48.02100 28.14500
C  11.27300 49.65400 26.84900
C  10.44600 48.01900 22.20700
C  5.90100 46.80300 23.42800
N  9.01100 48.80300 27.17700
C  8.26400 48.63400 28.28500
C  8.83800 49.27000 29.59800
C  9.90200 50.18600 28.95800
C  10.07000 49.55200 27.54200
C  9.44300 51.67200 28.88700
C  9.35700 48.35500 30.64400
C  9.11100 48.87900 32.06900
H  8.65600 47.77700 33.16700
N  10.71400 48.54100 24.74000
C  11.55200 49.20400 25.56800
C  12.76700 49.37000 24.82100
C  12.50100 49.08100 23.47100
C  11.15300 48.49900 23.42600
C  14.13500 49.89300 25.32500
C  13.43300 49.13600 22.25800
O  13.09900 48.79600 21.12800
C  14.88000 49.56600 22.46600
N  8.28800 47.36400 23.13600
C  9.09400 47.52300 22.12400
C  8.43000 47.00200 20.82100
C  7.08000 46.43100 21.23600
C  7.07800 46.81300 22.72700
C  8.44200 48.02700 19.60000
C  6.73500 44.92900 21.03400
C  5.36200 44.63900 20.54200
N  6.87200 47.36600 25.63400
C  5.81100 47.03800 24.81800
C  4.60800 47.13300 25.59900
C  5.05900 47.29900 26.91200
C  6.42400 47.48700 26.91100
C  3.21900 46.96700 25.19400
C  4.65800 47.45500 28.27500
O  3.46700 47.38800 28.65500
C  5.91300 47.74400 29.11500
C  6.15900 46.57500 29.95500
O  7.20300 45.99000 30.01800
O  4.98700 46.34600 30.66200
C  5.01800 45.11900 31.51600
H  11.94300 50.43600 27.21200
H  11.02800 48.04900 21.28300
H  4.94500 46.42800 23.05600
H  8.08800 49.84200 30.14300
H  10.87700 50.15000 29.44400
H  8.36300 51.81100 28.94100
H  9.72300 52.20600 27.97900
H  9.88100 52.24600 29.70300
H  10.43000 48.19000 30.55000
H  8.85500 47.38800 30.61800
H  8.50100 49.78000 32.13700
H  10.11400 49.20300 32.34700
H  15.00900 49.27400 25.12300
H  14.13200 50.04900 26.40400
H  14.32900 50.86700 24.87400
H  15.03500 50.51000 22.98700
H  15.31200 49.69800 21.47400
H  15.41800 48.80900 23.03600
H  8.80100 46.07500 20.38400
H  6.34000 47.10100 20.79800
H  9.14300 48.84500 19.77000
H  7.43100 48.43200 19.56100
H  8.78500 47.48500 18.71800
H  6.91200 44.24500 21.86400
H  7.36500 44.58300 20.21500
H  4.82000 44.02800 21.26400
H  5.36100 44.10500 19.59100
H  4.79800 45.56400 20.42200
H  2.74800 47.80400 24.67900
H  2.77900 46.83100 26.18200
H  3.00800 46.04800 24.64700
H  5.67200 48.59100 29.75800
H  5.77000 44.33800 31.39800
H  4.03400 44.67700 31.35900
H  5.10200 45.49400 32.53600

