158

Mg 46.42400 16.89200 28.10700
C  44.26700 16.67100 31.08600
C  48.56400 18.76400 29.97800
C  48.37300 16.96900 25.38200
C  43.95200 15.30000 26.29600
N  46.25700 17.83100 30.26400
C  45.44700 17.46800 31.31000
C  46.02200 17.94400 32.69100
C  47.33000 18.71400 32.17300
C  47.38300 18.46300 30.68100
C  47.28600 20.27600 32.50900
C  46.38400 16.69500 33.52700
C  47.49000 16.88800 34.65500
H  47.59800 18.33500 35.24900
N  48.15900 17.79400 27.74900
C  48.98300 18.49100 28.64400
C  50.22600 18.78600 28.05800
C  50.07200 18.50700 26.65800
C  48.81500 17.70400 26.54900
C  51.41900 19.34200 28.77600
C  51.03800 18.82200 25.43600
O  50.75500 18.66000 24.24700
C  52.41000 19.43200 25.75500
N  46.11600 16.32800 26.04500
C  47.14600 16.31100 25.19700
C  46.78000 15.71000 23.81100
C  45.35100 15.07100 24.11600
C  45.13000 15.60300 25.58900
C  46.69900 16.78800 22.63500
C  45.27700 13.53600 24.06100
C  44.26800 12.90000 22.96000
N  44.51400 16.16900 28.50300
C  43.65100 15.52300 27.67600
C  42.47600 15.03100 28.40800
C  42.75400 15.48800 29.79400
C  43.93200 16.21900 29.77600
C  41.38300 14.16900 27.87100
C  42.16900 15.55000 31.09400
O  41.06900 15.14800 31.46700
C  43.17400 16.21200 31.98900
C  42.48500 17.22400 32.75700
O  42.05200 18.29400 32.36200
O  42.48900 16.77200 34.03100
C  42.10100 17.64600 35.11600
H  49.29700 19.22400 30.64400
H  48.93900 17.22900 24.48500
H  43.21000 14.70200 25.76400
H  45.31800 18.60600 33.19500
H  48.31800 18.44600 32.54800
H  48.10500 20.58200 33.16000
H  46.41300 20.63900 33.05200
H  47.35900 20.85700 31.59000
H  46.63800 15.91000 32.81500
H  45.49000 16.32200 34.02800
H  48.46400 16.52600 34.32800
H  47.16700 16.33500 35.53700
H  52.20400 18.72000 28.34600
H  51.47900 19.17700 29.85200
H  51.46700 20.41800 28.61000
H  52.82600 19.75000 24.79900
H  52.94900 18.62600 26.25300
H  52.29400 20.30100 26.40200
H  47.45000 14.92700 23.45700
H  44.55900 15.49900 23.50200
H  47.66400 16.83700 22.13200
H  46.48700 17.77600 23.04400
H  45.91300 16.66500 21.89000
H  45.06000 13.09800 25.03500
H  46.27000 13.15100 23.82900
H  43.70100 13.75600 22.59600
H  43.67300 12.16500 23.50200
H  44.85800 12.44300 22.16600
H  41.50800 13.92500 26.81600
H  40.47900 14.77700 27.91400
H  41.25800 13.42000 28.65200
H  43.39400 15.34600 32.61400
H  41.15100 18.07100 34.79200
H  42.81900 18.45700 35.24100
H  42.10400 17.13900 36.08100
Mg 47.19400 25.92000 27.62200
C  48.50500 27.84200 30.09300
C  46.50400 23.50000 29.87000
C  46.12100 23.97700 25.09500
C  48.31000 28.24700 25.17600
N  47.46400 25.70800 29.71800
C  47.96500 26.64100 30.56400
C  47.75200 26.24600 32.05000
C  47.11300 24.90900 31.98100
C  46.98800 24.65700 30.42500
C  47.85200 23.80200 32.66600
C  46.91300 27.30500 32.85600
C  47.32800 27.41200 34.41400
H  46.16000 27.62700 35.39200
N  46.26900 24.05100 27.53700
C  46.18700 23.17700 28.53900
C  45.59700 21.92700 28.09400
C  45.34900 22.11600 26.70700
C  45.93900 23.44600 26.35900
C  45.33200 20.72600 28.98400
C  44.63100 21.19000 25.71000
O  44.70700 21.25800 24.49800
C  43.91600 20.01800 26.17300
N  47.33400 26.07500 25.41800
C  46.70300 25.11100 24.56500
C  46.70400 25.54700 23.16200
C  47.24800 27.04900 23.25500
C  47.66000 27.17200 24.67100
C  47.52800 24.59800 22.30700
C  46.31600 28.20500 22.81700
C  46.90200 29.11800 21.69400
N  48.32100 27.59600 27.59100
C  48.60000 28.43700 26.50600
C  49.34700 29.54000 27.06700
C  49.27200 29.43500 28.47700
C  48.66600 28.22100 28.72500
C  49.91700 30.58700 26.22200
C  49.69300 30.02200 29.76800
O  50.19700 31.11700 30.04600
C  49.16400 28.91400 30.86300
C  50.23800 28.52300 31.78700
O  51.07800 27.64500 31.59000
O  49.99400 29.10300 33.05900
C  50.82700 28.54700 34.16400
H  46.26800 22.77100 30.64900
H  45.55700 23.35700 24.39500
H  48.59700 29.02700 24.46700
H  48.72600 26.25400 32.54000
H  46.12100 24.87100 32.43100
H  48.64000 24.31700 33.21400
H  48.18600 23.04000 31.96100
H  47.20600 23.23500 33.33700
H  45.83200 27.17400 32.81800
H  46.92100 28.32500 32.47200
H  47.74600 28.41400 34.32000
H  48.04800 26.70200 34.82100
H  44.28300 20.43000 28.98800
H  45.67900 20.84100 30.01000
H  45.89700 19.87900 28.59200
H  44.64700 19.23600 26.37800
H  43.27000 19.50400 25.46100
H  43.21700 20.32900 26.94900
H  45.66200 25.46900 22.85100
H  48.16500 27.02300 22.66600
H  47.79600 23.69300 22.85100
H  48.40000 25.00100 21.79100
H  46.81500 24.26900 21.55100
H  46.13700 28.80000 23.71300
H  45.34800 27.87200 22.44400
H  46.07700 29.18800 20.98500
H  47.67000 28.57100 21.14700
H  47.04800 30.17400 21.92100
H  49.28300 30.79800 25.36000
H  50.86600 30.17300 25.88200
H  50.17400 31.33700 26.97000
H  48.39400 29.36200 31.49100
H  50.24300 28.16000 34.99900
H  51.33300 29.42300 34.57000
H  51.58800 27.81300 33.89900

