158

Mg 1.57100 7.95000 25.13700
C  2.76100 9.86600 27.89400
C  1.70100 5.16300 27.13500
C  1.13000 6.05100 22.35700
C  1.97600 10.79400 23.11100
N  2.52600 7.58600 27.24800
C  2.54200 8.55500 28.26500
C  2.31400 7.87000 29.70100
C  2.14100 6.34300 29.31300
C  2.13900 6.36800 27.76100
C  3.33100 5.42100 29.88600
C  1.21600 8.48500 30.55200
C  1.60700 8.94600 32.00400
H  2.65300 8.23900 32.80300
N  1.43300 5.95300 24.76000
C  1.51100 4.95000 25.73300
C  1.20300 3.69200 25.16800
C  0.98200 3.94100 23.78000
C  1.23000 5.38000 23.52800
C  1.05100 2.38400 25.95800
C  0.74200 2.89800 22.67800
O  0.90200 3.26200 21.52000
C  0.56300 1.41900 22.93500
N  1.80800 8.31700 22.98900
C  1.36000 7.40600 22.11100
C  1.26000 7.97500 20.72000
C  1.37300 9.48000 20.94100
C  1.73900 9.58000 22.43000
C  2.27800 7.26900 19.76200
C  0.15700 10.34400 20.58900
C  -1.04000 10.10900 21.51400
N  2.18600 9.95500 25.40000
C  2.20600 11.01000 24.47200
C  2.72900 12.21000 25.12300
C  2.84300 11.90100 26.51100
C  2.53000 10.47500 26.59200
C  2.92200 13.52300 24.46900
C  3.10800 12.31000 27.95400
O  3.33400 13.42900 28.38700
C  2.89900 11.05200 28.89400
C  4.04000 10.96200 29.89100
O  5.14100 10.54200 29.70300
O  3.56500 11.53400 31.13000
C  4.53200 11.66400 32.18200
H  1.39600 4.41000 27.86500
H  0.73800 5.55400 21.46700
H  2.06900 11.60900 22.39000
H  3.27500 7.97500 30.20300
H  1.17600 6.02500 29.70700
H  2.82900 4.57200 30.35100
H  3.99800 5.84800 30.63500
H  4.00800 5.06200 29.11100
H  0.34200 7.86900 30.76400
H  0.92100 9.35600 29.96700
H  0.70200 8.90500 32.61000
H  1.87100 10.00200 32.05600
H  0.09700 1.89600 25.75700
H  0.95500 2.69600 26.99800
H  1.87000 1.66900 25.89600
H  1.42700 0.86200 23.29700
H  0.08700 0.97800 22.05900
H  -0.25800 1.41000 23.65100
H  0.29300 7.78400 20.25500
H  2.17700 9.94300 20.36900
H  3.08500 7.97900 19.58000
H  1.84000 7.06500 18.78500
H  2.56900 6.29100 20.14500
H  0.03000 10.09200 19.53600
H  0.47300 11.38700 20.60300
H  -1.82600 9.57400 20.98100
H  -1.42900 11.08500 21.80200
H  -0.65600 9.56200 22.37500
H  3.60200 13.44200 23.62100
H  3.33800 14.25000 25.16600
H  2.02300 13.92400 24.00000
H  1.92900 11.30500 29.32000
H  4.25600 11.00700 33.00600
H  4.45000 12.66400 32.60900
H  5.50300 11.37300 31.78200
Mg 26.80400 -0.96900 29.53700
C  28.73300 -1.06900 32.56900
C  24.07800 -0.41700 31.38300
C  25.06400 -0.87800 26.70600
C  29.73700 -1.65400 27.85200
N  26.49900 -0.82800 31.74000
C  27.41100 -0.74600 32.79700
C  26.71100 -0.33400 34.15900
C  25.20100 -0.22500 33.70800
C  25.24900 -0.53100 32.20300
C  24.29100 -1.24400 34.38500
C  27.32300 0.94400 34.86100
C  27.88300 0.59200 36.23200
H  27.48200 1.57800 37.48000
N  24.80200 -0.67500 29.10900
C  23.86000 -0.48100 30.00800
C  22.53200 -0.31000 29.37300
C  22.79200 -0.55800 27.96800
C  24.24000 -0.81000 27.87700
C  21.22300 0.01000 30.13500
C  21.81700 -0.53800 26.79700
O  22.24600 -0.75500 25.69200
C  20.37000 -0.30200 27.07200
N  27.29400 -1.35900 27.60000
C  26.44800 -0.97200 26.55600
C  27.21600 -1.07000 25.16900
C  28.64800 -1.29400 25.56500
C  28.60900 -1.41100 27.13800
C  26.57000 -2.09500 24.13400
C  29.61200 -0.19900 25.02500
C  29.53600 1.13700 25.68200
N  28.80600 -1.58500 30.01500
C  29.84800 -1.81300 29.25000
C  31.08200 -2.01700 30.03300
C  30.68100 -1.69600 31.30000
C  29.28100 -1.45200 31.30800
C  32.45600 -2.34700 29.57300
C  31.13100 -1.57700 32.71600
O  32.25300 -1.73400 33.21000
C  29.85500 -1.06500 33.57900
C  29.51600 -1.90500 34.73500
O  28.89900 -2.95000 34.64000
O  30.06100 -1.46500 35.91800
C  29.80500 -2.22300 37.16800
H  23.19700 -0.20700 31.99400
H  24.55800 -0.83100 25.74000
H  30.56600 -1.93700 27.19900
H  26.99400 -1.25200 34.67500
H  24.70300 0.73600 33.84000
H  24.22900 -2.10100 33.71400
H  23.28900 -0.81600 34.40900
H  24.54200 -1.57800 35.39200
H  26.62500 1.77700 34.94500
H  28.12000 1.30600 34.21100
H  28.96200 0.72300 36.15000
H  27.63800 -0.37000 36.68400
H  21.45600 0.56200 31.04600
H  20.61700 -0.84000 30.45100
H  20.48400 0.56900 29.56100
H  19.80400 -0.49400 26.16100
H  20.22000 0.76600 27.23100
H  19.96000 -0.88800 27.89500
H  27.05100 -0.08500 24.73300
H  28.87600 -2.26300 25.12100
H  25.99900 -1.49900 23.42300
H  25.98000 -2.89400 24.58300
H  27.36800 -2.62200 23.61200
H  29.35900 -0.02200 23.97900
H  30.64200 -0.55500 25.04600
H  29.17400 1.11000 26.71000
H  28.83200 1.74500 25.11500
H  30.53800 1.56500 25.70200
H  32.57500 -2.57300 28.51300
H  32.75200 -3.21000 30.16900
H  33.15300 -1.52600 29.73900
H  30.12300 -0.07000 33.93400
H  30.64100 -2.01900 37.83700
H  29.81900 -3.30400 37.02700
H  28.84600 -1.99400 37.63200

