158

Mg 48.92800 34.93300 27.41400
C  46.93800 33.14700 29.92400
C  49.36300 37.35600 29.70300
C  50.25300 36.65900 24.96900
C  48.21200 32.25900 25.18200
N  48.18800 35.18900 29.54800
C  47.56700 34.32800 30.39800
C  47.67100 34.89500 31.80700
C  47.88900 36.41100 31.59700
C  48.50100 36.33400 30.22900
C  46.52000 37.28500 31.63200
C  48.68500 34.10600 32.60700
C  48.74500 33.90900 34.09300
H  47.73200 34.80300 34.83200
N  49.70500 36.68200 27.39200
C  49.96100 37.52800 28.51300
C  50.69700 38.67800 28.07500
C  50.79300 38.60500 26.67100
C  50.24600 37.26600 26.30900
C  51.26100 39.81900 29.01100
C  51.40900 39.49000 25.65500
O  51.29900 39.22400 24.48500
C  52.19700 40.61800 26.07000
N  49.14900 34.52300 25.34400
C  49.78100 35.41300 24.58500
C  50.26000 34.79900 23.27300
C  49.77600 33.30200 23.40900
C  48.97900 33.34000 24.65100
C  49.86700 35.46800 21.95300
C  50.86600 32.19200 23.47000
C  50.49200 30.81100 22.82000
N  47.84000 33.12200 27.48500
C  47.67500 32.19500 26.49400
C  46.84900 31.08700 27.03800
C  46.54100 31.41600 28.37800
C  47.12500 32.64500 28.59100
C  46.34800 29.89500 26.34400
C  45.90000 30.94900 29.50700
O  45.41900 29.83800 29.73700
C  46.05500 32.10500 30.56000
C  46.52900 31.53000 31.81800
O  47.55800 30.93100 31.96700
O  45.62400 31.76800 32.76100
C  45.81700 31.28300 34.10200
H  49.68400 38.06600 30.46800
H  50.83000 37.13100 24.17100
H  48.04000 31.44500 24.47400
H  46.73000 34.66500 32.30700
H  48.48600 36.75800 32.44000
H  46.25800 37.49900 30.59500
H  46.73100 38.18100 32.21500
H  45.68800 36.68100 31.99200
H  49.59200 34.68700 32.44400
H  48.85700 33.14900 32.11500
H  49.78600 34.09300 34.35800
H  48.55500 32.84000 34.19800
H  50.56400 40.05400 29.81500
H  51.23800 40.79900 28.53400
H  52.28700 39.65200 29.33900
H  52.77900 40.27700 26.92600
H  51.47600 41.42800 26.17800
H  52.88300 40.93100 25.28200
H  51.34800 34.75000 23.22200
H  49.14300 33.05100 22.55800
H  50.64300 35.34100 21.19900
H  49.81700 36.55000 22.08000
H  48.88100 35.23300 21.55300
H  50.92500 31.95700 24.53200
H  51.86900 32.51000 23.18500
H  49.84100 31.01900 21.97200
H  50.04000 30.18900 23.59300
H  51.37800 30.37800 22.35600
H  45.69300 30.46500 25.68600
H  45.81900 29.18300 26.97700
H  47.10300 29.39300 25.73800
H  45.09100 32.57900 30.74200
H  45.91500 30.19700 34.12000
H  45.00500 31.59200 34.76100
H  46.74400 31.67200 34.52300
Mg 10.01200 48.65000 26.26200
C  7.95000 48.69100 29.10100
C  12.56700 49.63000 28.23000
C  11.95000 48.82300 23.45300
C  7.13700 48.30200 24.23100
N  10.20700 49.19300 28.37600
C  9.26300 49.11200 29.35100
C  9.84800 49.67600 30.66400
C  11.20100 50.27000 30.22200
C  11.36600 49.58600 28.89200
C  11.27200 51.82100 30.15300
C  9.97000 48.70300 31.88500
C  9.01000 49.01700 33.06800
H  9.63200 49.57900 34.29600
N  12.06400 49.08300 25.85900
C  12.95700 49.31400 26.82500
C  14.28800 49.46900 26.23200
C  14.10400 49.21400 24.83500
C  12.62900 49.09200 24.63300
C  15.52400 49.92400 27.02800
C  15.15800 49.10700 23.73600
O  14.88300 49.05600 22.57800
C  16.60800 49.23800 24.05600
N  9.56400 48.69700 24.09800
C  10.63300 48.61900 23.18300
C  10.03400 48.56900 21.73700
C  8.47000 48.17900 22.02800
C  8.34900 48.46800 23.51900
C  10.25900 49.81500 20.89100
C  8.10200 46.73500 21.67900
C  8.66300 45.61000 22.56300
N  7.94300 48.48200 26.56200
C  6.92500 48.31900 25.65400
C  5.65000 48.28100 26.37100
C  6.00500 48.32900 27.73600
C  7.41600 48.54000 27.75000
C  4.31000 48.01500 25.78700
C  5.52400 48.36900 29.12800
O  4.43800 48.29500 29.62100
C  6.76300 48.60900 30.06900
C  6.87000 47.32100 30.77700
O  7.60900 46.39400 30.45000
O  6.00600 47.26500 31.86100
C  6.28100 46.11500 32.78400
H  13.42800 50.00100 28.79000
H  12.66300 48.70000 22.63500
H  6.23900 48.34700 23.61200
H  9.21400 50.49200 31.01000
H  12.11400 49.93700 30.71400
H  10.28800 52.27400 30.03200
H  11.97900 52.11500 29.37700
H  11.67000 52.19700 31.09500
H  10.99100 48.79900 32.25400
H  9.82700 47.65300 31.62900
H  8.48100 48.09700 33.31700
H  8.18100 49.70900 32.92300
H  15.25400 50.10100 28.06900
H  15.93300 50.86800 26.66700
H  16.29500 49.16500 26.90100
H  16.91700 48.61200 24.89400
H  16.88000 50.25000 24.35400
H  17.16500 48.93500 23.16900
H  10.60000 47.73400 21.32600
H  7.84000 48.88600 21.49000
H  10.62200 50.52500 21.63400
H  9.35400 50.17000 20.39700
H  10.95400 49.63900 20.07000
H  8.46100 46.61800 20.65600
H  7.02100 46.60100 21.71100
H  7.95800 44.79000 22.69800
H  8.90100 46.00900 23.54900
H  9.51100 45.12700 22.07900
H  3.48600 47.80700 26.47000
H  4.51200 47.11400 25.20800
H  4.14200 48.77400 25.02300
H  6.69700 49.42700 30.78700
H  5.32900 45.58900 32.85600
H  6.56200 46.53500 33.75000
H  7.09400 45.45200 32.49100

