158

Mg 52.44100 22.70100 43.52100
C  49.66000 24.68100 42.68500
C  50.69000 19.89300 43.09200
C  55.39000 21.01500 43.15600
C  54.34400 25.82400 43.17800
N  50.53800 22.35400 42.66000
C  49.53600 23.27700 42.47000
C  48.20600 22.53400 42.11900
C  48.52800 21.14900 42.69100
C  49.97500 21.11900 42.89100
C  47.80400 20.76100 44.05900
C  47.85900 22.63500 40.58200
C  46.32800 22.28000 40.34600
H  46.03500 21.00900 39.47100
N  52.95300 20.67700 43.39500
C  52.05000 19.67200 43.18400
C  52.78300 18.43600 43.13000
C  54.16300 18.72300 43.20000
C  54.26000 20.19200 43.27100
C  52.06300 17.12300 42.89400
C  55.22800 17.62000 43.18700
O  54.92800 16.42600 43.21700
C  56.68700 17.90000 43.19900
N  54.44500 23.29500 43.07600
C  55.48800 22.38800 43.06200
C  56.83800 23.09000 42.87600
C  56.51200 24.65200 42.84900
C  55.01000 24.63000 42.97400
C  57.92800 22.73400 43.86400
C  57.00900 25.34100 41.53100
C  56.40700 24.76700 40.19100
N  52.07000 24.83200 43.19100
C  52.95300 25.98000 43.24800
C  52.05700 27.17600 43.37200
C  50.77700 26.65400 43.04500
C  50.85000 25.27800 42.95400
C  52.49800 28.63600 43.47100
C  49.38100 27.16200 42.88700
O  48.86800 28.28300 42.84700
C  48.63700 25.87200 42.45100
C  48.27800 26.06500 40.98000
O  49.07000 26.28400 40.09000
O  46.91400 26.12500 40.82600
C  46.33700 26.29000 39.47300
H  50.07300 18.99700 43.18100
H  56.34000 20.50900 42.97300
H  54.92000 26.75100 43.19800
H  47.41200 23.13000 42.56900
H  48.23500 20.33600 42.02700
H  47.15200 21.58800 44.34300
H  48.48300 20.64800 44.90400
H  47.22800 19.83600 44.05400
H  48.47500 21.88400 40.08800
H  47.99500 23.61900 40.13300
H  45.87300 23.07600 39.75600
H  45.71000 22.11100 41.22800
H  52.34900 16.65100 41.95400
H  50.98100 17.20100 42.78900
H  52.27700 16.52300 43.77800
H  57.34100 17.03000 43.25400
H  56.99100 18.60900 43.96900
H  56.85900 18.38300 42.23700
H  57.19200 22.84500 41.87500
H  56.97000 25.22200 43.65700
H  58.56000 23.59700 44.07400
H  58.61800 21.98200 43.48000
H  57.54200 22.37900 44.81900
H  58.08400 25.17300 41.47000
H  56.74500 26.38900 41.67400
H  55.85300 25.61900 39.79700
H  55.73600 23.92500 40.36400
H  57.19000 24.48200 39.48900
H  51.95600 29.33200 44.11100
H  52.56300 29.01700 42.45200
H  53.51800 28.72200 43.84300
H  47.68900 25.72700 42.96900
H  45.57400 25.51200 39.45100
H  46.98400 26.53500 38.63100
H  45.77800 27.22400 39.41200
Mg -9.47200 18.40300 42.65700
C  -6.02000 17.40400 42.43000
C  -8.56500 21.47300 41.89200
C  -12.76000 18.96500 42.25600
C  -10.19400 14.92300 42.82900
N  -7.45500 19.27500 42.17700
C  -6.20900 18.74200 42.12300
C  -5.13000 19.82800 41.84900
C  -6.01200 21.12300 41.88400
C  -7.46400 20.59900 42.00200
C  -5.60700 22.19800 42.89400
C  -4.32200 19.47000 40.54800
C  -5.15400 19.20500 39.28200
H  -4.79100 19.86900 38.02300
N  -10.51800 20.06900 42.16500
C  -9.97200 21.25000 41.78500
C  -10.97800 22.24300 41.47300
C  -12.18200 21.53000 41.60100
C  -11.89500 20.12500 42.05200
C  -10.70000 23.71100 41.22600
C  -13.52200 22.14500 41.27200
O  -13.64000 23.32700 40.98300
C  -14.80100 21.32100 41.22400
N  -11.16500 17.05800 42.26200
C  -12.36700 17.60100 42.45700
C  -13.51100 16.49500 42.69500
C  -12.72400 15.16800 42.59100
C  -11.26300 15.73500 42.51500
C  -14.27600 16.74900 44.04600
C  -13.15400 14.22000 41.39900
C  -13.55700 12.72900 41.80500
N  -8.35400 16.49600 42.62300
C  -8.81000 15.16400 42.74400
C  -7.71200 14.22400 42.83800
C  -6.51400 15.01900 42.76000
C  -7.00700 16.40800 42.61300
C  -7.77300 12.75700 43.13700
C  -5.09500 15.02600 42.79400
O  -4.25900 14.11800 42.90800
C  -4.71000 16.55300 42.55200
C  -3.83400 16.91700 43.64500
O  -2.62800 16.78300 43.60300
O  -4.52600 17.44100 44.70900
C  -3.70900 17.94800 45.79100
H  -8.33200 22.53900 41.83100
H  -13.81400 19.25200 42.23800
H  -10.35800 13.86200 43.03000
H  -4.47400 19.88100 42.71800
H  -5.82800 21.60500 40.92400
H  -5.29900 23.10900 42.37900
H  -4.78800 21.89200 43.54400
H  -6.43400 22.39500 43.57600
H  -3.63900 18.62800 40.65600
H  -3.71100 20.32300 40.25300
H  -6.21300 19.43500 39.39800
H  -5.08900 18.13500 39.08200
H  -11.22400 24.43400 41.85200
H  -10.96300 23.86500 40.18000
H  -9.67500 24.02400 41.42500
H  -15.06400 21.08400 42.25400
H  -14.62400 20.43300 40.61800
H  -15.59900 21.89300 40.74900
H  -14.25000 16.52600 41.89400
H  -12.89300 14.64100 43.53000
H  -13.90700 17.65800 44.52100
H  -14.06500 15.98600 44.79500
H  -15.32100 17.01800 43.89400
H  -12.27000 14.13100 40.76800
H  -13.96400 14.67700 40.83000
H  -13.44400 12.46100 42.85500
H  -12.92800 12.07000 41.20500
H  -14.57600 12.49800 41.49500
H  -8.82000 12.47900 43.01800
H  -7.24200 12.40500 44.02200
H  -7.34100 12.18800 42.31500
H  -4.10700 16.67400 41.65200
H  -2.98900 18.73000 45.55100
H  -3.36400 17.07400 46.34300
H  -4.38300 18.58600 46.36300

