158

Mg 16.77100 51.83100 24.64200
C  18.55100 50.90100 27.41000
C  13.99000 52.31200 26.62900
C  14.78200 52.13100 21.80700
C  19.45100 51.09100 22.53100
N  16.41500 51.87200 26.86500
C  17.27600 51.40300 27.82800
C  16.68000 51.55500 29.23200
C  15.16000 51.90100 28.91000
C  15.17500 51.98300 27.36300
C  14.09100 51.03800 29.55400
C  17.39500 52.73200 30.00900
C  17.91200 52.47900 31.46800
H  17.11500 51.64500 32.53900
N  14.73000 52.28700 24.31100
C  13.80400 52.50900 25.23100
C  12.54100 52.93600 24.62500
C  12.76300 52.88900 23.14900
C  14.14000 52.38500 23.05900
C  11.33400 53.31400 25.40800
C  11.85500 53.27100 22.00900
O  12.05900 53.18000 20.77300
C  10.60100 53.96000 22.33700
N  17.11000 51.55000 22.36500
C  16.09800 51.79200 21.45300
C  16.67200 51.90800 20.07000
C  18.29100 51.68100 20.35100
C  18.35200 51.50700 21.80900
C  16.05300 50.91200 19.00900
C  19.21900 52.81200 19.80800
C  19.06400 53.13600 18.24400
N  18.57800 51.11700 24.83100
C  19.59900 50.81400 23.92500
C  20.68000 50.15900 24.60600
C  20.28400 50.23800 25.98500
C  19.06100 50.87100 26.11400
C  21.95500 49.58300 23.99000
C  20.73100 49.83200 27.31400
O  21.68600 49.24600 27.72000
C  19.69800 50.34700 28.23000
C  19.32000 49.23200 29.19500
O  18.65000 48.29200 28.90700
O  19.79200 49.63400 30.41400
C  19.56400 48.74800 31.53400
H  13.23600 52.57600 27.37400
H  14.12600 52.06200 20.93600
H  20.30900 50.92500 21.87600
H  16.82100 50.68200 29.86900
H  14.86300 52.90500 29.21400
H  14.56900 50.31400 30.21400
H  13.51100 50.57700 28.75500
H  13.39200 51.64100 30.13500
H  16.65600 53.52800 30.10100
H  18.22700 53.13200 29.42900
H  17.88900 53.48300 31.89300
H  18.98000 52.25800 31.48100
H  11.42600 53.04400 26.46000
H  10.50400 52.68500 25.08700
H  11.17400 54.38300 25.26300
H  9.95500 54.12300 21.47500
H  10.83100 54.91400 22.81300
H  10.03500 53.29000 22.98400
H  16.51700 52.93400 19.73900
H  18.71700 50.77500 19.92100
H  15.60300 51.40500 18.14700
H  15.26700 50.35300 19.51800
H  16.80700 50.20900 18.65600
H  20.25500 52.47800 19.85600
H  19.16300 53.78200 20.30300
H  18.74600 54.16300 18.06500
H  18.50500 52.36100 17.72000
H  20.00600 53.29100 17.71700
H  22.51400 50.36700 23.47900
H  21.55600 48.86800 23.27000
H  22.71900 49.15400 24.63900
H  20.24400 51.09400 28.80500
H  19.77200 49.23900 32.48500
H  20.22600 47.88200 31.52600
H  18.50700 48.49000 31.46100
Mg -10.25800 16.92000 42.28300
C  -6.77200 16.45600 42.02500
C  -9.95700 19.99300 40.80800
C  -13.61700 17.02100 42.09900
C  -10.50500 13.45700 43.09300
N  -8.49600 18.06600 41.54900
C  -7.19100 17.76400 41.69900
C  -6.30800 18.87400 41.23000
C  -7.35600 19.94800 40.79500
C  -8.70300 19.29000 40.94200
C  -7.26200 21.31800 41.51200
C  -5.28900 18.63900 40.11000
C  -5.56900 17.63200 38.87800
H  -5.21100 18.11000 37.48400
N  -11.61600 18.35200 41.67800
C  -11.27700 19.58700 41.08200
C  -12.52500 20.29000 40.86400
C  -13.64200 19.47400 41.30200
C  -12.96400 18.20200 41.70700
C  -12.59200 21.70000 40.24600
C  -15.10600 19.87200 41.23100
O  -15.36900 20.93600 40.65400
C  -16.17200 18.98300 41.79500
N  -11.88100 15.42800 42.59300
C  -13.13800 15.78900 42.50200
C  -14.13100 14.58500 42.72800
C  -13.08200 13.48000 43.21400
C  -11.75800 14.13600 42.92500
C  -15.29800 14.89300 43.76900
C  -13.22200 12.01000 42.67700
C  -12.70400 10.92000 43.66600
N  -8.97800 15.23500 42.48900
C  -9.24100 13.93500 42.84000
C  -7.98200 13.24700 43.14100
C  -6.95000 14.26800 42.85900
C  -7.63900 15.40400 42.43400
C  -7.68000 11.77200 43.53200
C  -5.52900 14.49500 42.89600
O  -4.71200 13.68000 43.26800
C  -5.34300 15.94000 42.23200
C  -4.41000 16.71400 43.10900
O  -3.43200 17.27800 42.78400
O  -4.93700 16.69400 44.34300
C  -4.20000 17.57100 45.35900
H  -9.91400 20.94500 40.27500
H  -14.70900 17.01800 42.05900
H  -10.45900 12.44200 43.49400
H  -5.76300 19.20400 42.11500
H  -7.15300 20.27100 39.77400
H  -6.91200 22.05700 40.79100
H  -6.53900 21.10800 42.30100
H  -8.21400 21.62400 41.94400
H  -4.39400 18.33700 40.65400
H  -5.03400 19.66200 39.83300
H  -6.62900 17.37700 38.87700
H  -5.00700 16.71700 39.06600
H  -13.20600 21.70600 39.34600
H  -11.64900 22.04900 39.82600
H  -12.85200 22.50500 40.93400
H  -16.27400 18.14200 41.10900
H  -17.07100 19.59700 41.73300
H  -15.79700 18.70200 42.77900
H  -14.53900 14.22700 41.78200
H  -13.28400 13.54900 44.28300
H  -15.93400 14.02400 43.93600
H  -15.94800 15.71500 43.47000
H  -14.86100 15.08000 44.74900
H  -12.65800 11.85800 41.75700
H  -14.20100 11.63400 42.38100
H  -12.17700 11.38100 44.50100
H  -12.04400 10.17400 43.22300
H  -13.39000 10.25200 44.18700
H  -6.87000 11.83200 44.25900
H  -7.45000 11.16800 42.65500
H  -8.61300 11.39100 43.94800
H  -4.74000 15.69400 41.35800
H  -4.01600 17.03700 46.29100
H  -4.78900 18.43800 45.65800
H  -3.22600 17.98100 45.09000

