158

Mg 25.45000 0.73500 30.56300
C  27.66800 1.08700 33.37500
C  22.78200 1.12800 32.92500
C  23.35700 0.01700 28.06800
C  28.19300 0.03900 28.62800
N  25.30200 1.17800 32.92800
C  26.35200 1.26800 33.84100
C  25.79400 1.56400 35.23800
C  24.25500 1.48000 35.10900
C  24.08100 1.17900 33.58000
C  23.42200 0.43500 36.00800
C  26.28800 2.99100 35.72700
C  26.51100 2.98500 37.27500
H  25.65000 3.86200 38.20200
N  23.45300 0.62000 30.47900
C  22.53800 0.88100 31.48900
C  21.21600 0.83700 30.86900
C  21.37200 0.36300 29.51900
C  22.76800 0.30200 29.33500
C  19.98700 0.95200 31.67600
C  20.26100 -0.06200 28.44500
O  20.48300 -0.35000 27.27700
C  18.80700 -0.03000 28.81700
N  25.74000 -0.06600 28.62900
C  24.72100 -0.11900 27.68700
C  25.20300 -0.11100 26.24700
C  26.69300 0.08400 26.53000
C  26.93400 0.04200 28.01100
C  24.76000 -1.19500 25.29500
C  27.32800 1.46800 25.89500
C  26.95700 2.80500 26.62800
N  27.46800 0.39600 30.86700
C  28.47900 0.19900 29.98400
C  29.72100 0.13700 30.61100
C  29.47300 0.50900 31.90800
C  28.08600 0.77300 31.99400
C  31.01200 -0.35300 30.07500
C  30.06900 0.60600 33.24400
O  31.25300 0.29200 33.57100
C  28.99400 1.16100 34.20400
C  29.00100 0.16000 35.37300
O  28.75900 -1.04800 35.21900
O  29.23600 0.81700 36.60200
C  29.17900 -0.00600 37.84200
H  21.99100 1.33900 33.64800
H  22.72400 -0.02300 27.17900
H  28.88200 -0.10300 27.79300
H  26.16900 0.76900 35.88200
H  23.92400 2.50100 35.29900
H  23.35000 -0.54800 35.54400
H  22.39000 0.71200 36.22500
H  24.04300 0.26200 36.88700
H  25.61100 3.77500 35.38900
H  27.26000 3.17200 35.26700
H  27.52700 3.30600 37.50600
H  26.30400 1.96500 37.60100
H  19.30400 0.15000 31.39700
H  19.46100 1.87300 31.42700
H  20.19200 1.05400 32.74100
H  18.14200 -0.28000 27.99100
H  18.51100 0.94500 29.20400
H  18.53400 -0.74000 29.59700
H  24.86200 0.79600 25.74800
H  27.23100 -0.73500 26.05400
H  25.62200 -1.85500 25.20700
H  24.48200 -0.62500 24.40900
H  23.96600 -1.86300 25.63100
H  26.94100 1.65100 24.89200
H  28.41300 1.36300 25.90700
H  27.09400 2.63000 27.69500
H  25.94000 3.08900 26.35900
H  27.64400 3.55700 26.24000
H  31.13900 -1.25200 30.67800
H  31.76900 0.41000 30.25400
H  30.99300 -0.52700 28.99900
H  29.37900 2.09600 34.61200
H  30.07800 -0.61800 37.91500
H  28.30700 -0.65200 37.74000
H  28.97400 0.60300 38.72200
Mg 49.18200 46.57000 43.21900
C  46.00300 47.35000 42.19600
C  48.91900 43.58800 41.53400
C  52.49800 46.24700 43.54200
C  49.57500 49.97000 44.21900
N  47.57600 45.58900 42.07700
C  46.34700 46.09100 41.73700
C  45.51200 45.04700 40.97200
C  46.53400 43.88100 40.85200
C  47.73500 44.40600 41.49900
C  45.90800 42.46900 41.36600
C  45.01600 45.54300 39.58900
C  43.93400 44.69300 38.96100
H  44.32100 43.78400 37.75000
N  50.50400 44.95800 42.76400
C  50.17500 43.81000 42.17700
C  51.35500 42.97700 42.04500
C  52.42200 43.69700 42.70600
C  51.91600 45.05900 42.96900
C  51.29900 41.59100 41.50900
C  53.89800 43.18100 42.97600
O  54.20600 42.05200 42.56700
C  54.96200 43.94500 43.61200
N  50.87800 47.96300 43.64100
C  52.10300 47.51600 43.89800
C  53.02300 48.70900 44.39100
C  52.11600 49.91100 44.23400
C  50.73600 49.26900 43.99300
C  53.46300 48.38400 45.78600
C  52.61700 50.95800 43.19200
C  52.30700 52.41900 43.57800
N  48.04700 48.29800 43.37400
C  48.31500 49.60000 43.82700
C  47.07500 50.35500 43.80800
C  46.16000 49.46900 43.23000
C  46.79500 48.29300 42.89900
C  46.91600 51.76600 44.30000
C  44.78700 49.40900 42.79600
O  43.81900 50.16000 42.92600
C  44.66300 48.02700 42.06900
C  43.70900 47.09000 42.70100
O  43.73900 46.84400 43.91400
O  42.80800 46.60500 41.71700
C  41.78600 45.71800 42.25500
H  48.86800 42.63100 41.01100
H  53.58400 46.13900 43.57500
H  49.67000 50.96300 44.66300
H  44.66500 44.69200 41.55900
H  46.87000 43.78700 39.82000
H  44.88600 42.43400 40.99000
H  45.87100 42.38800 42.45200
H  46.25300 41.53600 40.92000
H  45.91000 45.66900 38.97700
H  44.54400 46.51500 39.73100
H  43.12400 45.38200 38.72200
H  43.49900 44.09200 39.75900
H  50.78000 40.86800 42.13900
H  52.26900 41.15000 41.28200
H  50.72700 41.74100 40.59400
H  54.55900 44.39200 44.52100
H  55.35800 44.67700 42.90900
H  55.76400 43.27500 43.92000
H  53.83300 48.71700 43.66100
H  52.19800 50.33300 45.23600
H  53.71100 47.32300 45.77900
H  52.67600 48.49400 46.53200
H  54.42300 48.85500 46.00200
H  52.09500 50.80900 42.24700
H  53.69500 51.04600 43.05800
H  51.33900 52.52100 43.08800
H  53.11400 53.03200 43.17500
H  52.34300 52.67100 44.63800
H  45.83200 51.87200 44.28300
H  47.47200 52.41300 43.62100
H  47.27500 51.99100 45.30500
H  44.45800 48.25500 41.02300
H  41.28300 46.19800 43.09400
H  42.35000 44.85000 42.59600
H  41.08900 45.48000 41.45200

