158

Mg 29.61300 57.18600 40.20200
C  26.77900 55.24000 39.73900
C  31.59500 54.44100 39.62600
C  32.23500 59.26000 39.34400
C  27.56800 60.02200 40.43700
N  29.16900 55.06000 39.71400
C  27.95400 54.50600 39.52300
C  28.19100 52.94000 39.35500
C  29.69900 52.70800 39.71500
C  30.24900 54.14100 39.70300
C  30.10400 51.92000 40.97900
C  27.64900 52.35800 37.98900
C  28.20400 53.08700 36.77500
H  27.14900 53.70000 35.72600
N  31.60000 56.85800 39.42300
C  32.20800 55.64400 39.46900
C  33.56700 55.74100 38.99700
C  33.83400 57.21000 38.88000
C  32.50600 57.87500 39.18700
C  34.55600 54.61900 38.98200
C  35.15700 57.91400 38.45200
O  36.17500 57.26600 38.28400
C  35.20900 59.43300 38.21000
N  29.79800 59.32500 39.69700
C  30.97700 59.87600 39.65000
C  30.92900 61.40600 39.84400
C  29.41100 61.61500 40.12600
C  28.92400 60.24000 40.10700
C  31.82700 61.94000 41.03800
C  28.73600 62.56400 39.04400
C  28.47500 64.03600 39.34300
N  27.53500 57.58300 40.25500
C  26.82900 58.76700 40.48400
C  25.44200 58.45000 40.52700
C  25.35200 57.09900 40.15900
C  26.64100 56.59700 39.99300
C  24.25000 59.46000 40.80300
C  24.40500 56.04900 39.95800
O  23.13400 56.04900 40.00300
C  25.32000 54.77500 39.58900
C  24.90200 53.67000 40.40800
O  25.30900 53.48300 41.56100
O  24.08600 52.93600 39.61600
C  23.19800 51.97800 40.31200
H  32.18400 53.52200 39.59900
H  33.03400 59.99300 39.47400
H  27.07100 60.95900 40.69800
H  27.69000 52.37100 40.13800
H  30.23700 52.32300 38.84800
H  29.26100 51.40500 41.44100
H  30.41300 52.57800 41.79200
H  30.91600 51.27200 40.65100
H  26.55900 52.33600 38.01700
H  27.96100 51.32200 37.85200
H  28.86700 52.38300 36.27300
H  28.87200 53.90200 37.05500
H  35.55500 55.05300 38.94100
H  34.37000 54.00100 38.10400
H  34.40600 53.98800 39.85800
H  35.44300 60.05200 39.07700
H  34.27200 59.59800 37.67800
H  35.90600 59.38800 37.37300
H  31.30200 61.77700 38.89000
H  29.14700 61.92000 41.13900
H  32.59600 62.56000 40.57700
H  32.46500 61.25200 41.59200
H  31.19300 62.51400 41.71500
H  27.76900 62.09600 38.86100
H  29.32900 62.56100 38.12800
H  29.32800 64.53300 38.88200
H  28.39000 64.27700 40.40300
H  27.60800 64.25700 38.72200
H  23.63100 59.05700 41.60500
H  23.73600 59.59700 39.85200
H  24.62600 60.44700 41.07300
H  25.19000 54.62800 38.51700
H  23.43900 51.95400 41.37400
H  23.11200 50.98300 39.87300
H  22.17900 52.35600 40.22300
Mg -5.27500 25.32600 25.39700
C  -3.67000 26.83300 28.32100
C  -6.96300 23.37000 27.63500
C  -6.72500 23.81400 22.82800
C  -3.24700 27.20800 23.38500
N  -5.14100 25.02200 27.61500
C  -4.51600 25.81900 28.64300
C  -5.06100 25.44700 30.07800
C  -5.91300 24.17100 29.75800
C  -6.04700 24.25700 28.23400
C  -5.34500 22.72600 30.27900
C  -5.85500 26.68900 30.72000
C  -5.68600 27.01600 32.23600
H  -5.36600 25.77000 33.12500
N  -6.65900 23.74700 25.21300
C  -7.27800 23.15900 26.29800
C  -8.14300 22.16700 25.71300
C  -8.00800 22.19600 24.30300
C  -7.11900 23.33100 24.03500
C  -8.93600 21.23700 26.63200
C  -8.71600 21.24100 23.21100
O  -8.59100 21.44300 22.04300
C  -9.59400 20.24500 23.66900
N  -4.93000 25.38900 23.45000
C  -5.81300 24.77200 22.54000
C  -5.46100 25.26000 21.11300
C  -4.52000 26.41500 21.33400
C  -4.09500 26.28100 22.78600
C  -4.81700 24.14100 20.21000
C  -4.86000 27.76200 20.72700
C  -4.45400 27.86600 19.20700
N  -3.69200 26.75200 25.72900
C  -3.02900 27.45900 24.80800
C  -2.21700 28.42800 25.55400
C  -2.41600 28.20300 26.90800
C  -3.36000 27.19400 26.97800
C  -1.30800 29.50600 24.96800
C  -1.98300 28.62800 28.25100
O  -1.05900 29.35600 28.71100
C  -2.83100 27.81600 29.10900
C  -1.96800 27.11700 30.10300
O  -1.02900 26.39300 29.82400
O  -2.25300 27.53100 31.34700
C  -1.51800 26.87600 32.43800
H  -7.48700 22.85200 28.44200
H  -7.22200 23.47500 21.91600
H  -2.70700 27.95300 22.79800
H  -4.18800 25.26100 30.70300
H  -6.92200 24.24700 30.16400
H  -5.48700 21.93600 29.54200
H  -5.95200 22.40200 31.12400
H  -4.31500 22.86600 30.60700
H  -6.90900 26.65500 30.44300
H  -5.38900 27.59000 30.32300
H  -6.62300 27.47000 32.55500
H  -4.85800 27.70900 32.38300
H  -8.60200 21.30100 27.66800
H  -9.08700 20.20300 26.32100
H  -9.90100 21.73600 26.72100
H  -8.96300 19.54400 24.21600
H  -10.13000 19.81500 22.82300
H  -10.28400 20.78000 24.32100
H  -6.38000 25.51800 20.58600
H  -3.58900 26.18400 20.81500
H  -5.19700 23.15100 20.46400
H  -3.75100 24.17800 20.43000
H  -4.97000 24.36400 19.15400
H  -4.52500 28.57600 21.37100
H  -5.94700 27.79100 20.79800
H  -4.42800 26.84700 18.82000
H  -3.48300 28.35700 19.26900
H  -5.11000 28.52800 18.64200
H  -1.89800 30.08900 24.26000
H  -0.45000 29.07700 24.45100
H  -1.00200 30.16600 25.78000
H  -3.51200 28.39100 29.73700
H  -2.01800 27.05500 33.39000
H  -0.54200 27.35400 32.52800
H  -1.47100 25.80300 32.25400

