158

Mg 10.20300 47.11700 26.04400
C  8.09000 47.33700 28.65300
C  12.74400 48.59300 27.85300
C  12.34200 47.10900 23.23700
C  7.57400 46.72400 23.87800
N  10.42300 47.77600 28.04000
C  9.46800 47.67400 29.00000
C  10.00200 48.19600 30.36500
C  11.27900 48.97200 29.86600
C  11.51000 48.44000 28.49300
C  10.90700 50.47800 29.67000
C  10.25000 47.13400 31.44300
C  9.81800 47.35600 32.91100
H  9.76400 46.01100 33.64500
N  12.26800 47.59900 25.66100
C  13.13500 48.04200 26.61700
C  14.47600 48.09400 26.06400
C  14.42500 47.63700 24.71900
C  12.97400 47.40800 24.48500
C  15.69100 48.41900 26.80000
C  15.55700 47.39900 23.68400
O  15.33700 47.10900 22.50900
C  16.97900 47.68700 24.08200
N  10.00200 46.86000 23.90200
C  10.98700 46.80200 23.01500
C  10.48900 46.42700 21.64000
C  8.94900 46.33600 21.78800
C  8.83200 46.61800 23.28100
C  10.91600 47.24500 20.41200
C  8.29200 44.97800 21.23300
C  6.82000 45.07000 20.82100
N  8.14800 46.96300 26.21800
C  7.17700 46.77500 25.23000
C  5.87000 46.70000 25.90100
C  6.14200 46.97100 27.22200
C  7.54700 47.09200 27.37300
C  4.56600 46.32200 25.31700
C  5.61500 46.99800 28.56900
O  4.48900 46.84600 28.92900
C  6.80400 47.25300 29.54000
C  6.92300 46.03800 30.39700
O  7.44000 44.97700 30.05200
O  6.43000 46.32600 31.66700
C  6.54800 45.26600 32.68400
H  13.48600 49.15900 28.42000
H  12.83400 47.17100 22.26500
H  6.61700 46.68400 23.35400
H  9.27700 48.90800 30.75900
H  12.16300 48.71700 30.45100
H  11.32400 51.06200 30.49000
H  9.83400 50.66800 29.64400
H  11.28900 50.83100 28.71100
H  11.32100 46.99600 31.59000
H  9.86000 46.20500 31.02700
H  8.82500 47.80600 32.92600
H  10.55000 47.97500 33.43000
H  15.51100 48.39400 27.87400
H  16.21000 49.33600 26.52000
H  16.42600 47.61700 26.72200
H  17.16900 47.00300 24.91000
H  17.05300 48.70800 24.45600
H  17.59100 47.51300 23.19700
H  10.84100 45.45600 21.29200
H  8.47800 47.17000 21.26800
H  11.07800 48.20000 20.91100
H  10.07800 47.21600 19.71500
H  11.82200 46.95600 19.87800
H  8.42900 44.27500 22.05400
H  8.86200 44.66600 20.35800
H  6.34300 44.36100 21.49800
H  6.51300 44.67700 19.85200
H  6.36400 46.05400 20.93500
H  4.75600 46.06400 24.27500
H  3.94400 47.19300 25.52000
H  4.25700 45.40900 25.82700
H  6.60000 48.19000 30.05900
H  6.89200 45.93300 33.47500
H  7.23800 44.43900 32.51400
H  5.60700 44.77500 32.93200
Mg 1.56800 41.98500 25.33500
C  3.70400 42.17900 28.19400
C  -0.98200 41.01000 27.34600
C  -0.24400 41.27500 22.56200
C  4.42900 42.21500 23.37800
N  1.42300 41.61600 27.46800
C  2.27900 41.97300 28.41500
C  1.59000 41.87700 29.83000
C  0.12900 41.46900 29.52400
C  0.17100 41.32800 28.03800
C  -0.37200 40.17700 30.19600
C  1.74500 43.25700 30.52900
C  1.75500 43.23500 32.01600
H  1.64800 41.98100 32.91900
N  -0.42800 41.34100 25.04200
C  -1.30300 40.86000 25.95600
C  -2.58400 40.41500 25.34700
C  -2.41700 40.63000 23.90200
C  -0.95800 41.05700 23.75300
C  -3.68600 39.78900 26.16800
C  -3.26600 40.39400 22.70500
O  -2.92800 40.50300 21.55000
C  -4.65700 39.99100 22.90300
N  1.93500 41.87200 23.27200
C  1.07500 41.61500 22.30400
C  1.73200 41.51300 20.94600
C  3.12600 42.19200 21.19300
C  3.20900 42.12500 22.74900
C  1.77700 40.12700 20.30300
C  3.29300 43.62400 20.47500
C  2.96400 44.84600 21.38500
N  3.63900 42.35700 25.67200
C  4.65400 42.39900 24.74400
C  5.91700 42.66200 25.45000
C  5.57300 42.54300 26.87000
C  4.21800 42.33000 26.91200
C  7.20400 42.92100 24.83600
C  6.15100 42.45900 28.15900
O  7.32800 42.45200 28.43900
C  4.93300 42.30500 29.09700
C  5.17500 41.14900 29.99100
O  4.86500 39.97500 29.77600
O  5.64200 41.56400 31.20800
C  5.74500 40.61000 32.25400
H  -1.81800 40.69100 27.97100
H  -0.79000 41.08400 21.63500
H  5.27000 42.31600 22.68900
H  2.04300 41.01900 30.32700
H  -0.56600 42.25600 29.81500
H  -1.31200 40.49200 30.65100
H  0.26900 39.61500 30.87600
H  -0.63100 39.51000 29.37400
H  0.86900 43.69400 30.04900
H  2.49500 43.92000 30.09700
H  0.97100 43.92200 32.33300
H  2.69100 43.75200 32.22800
H  -4.66200 40.05700 25.76400
H  -3.59800 40.10800 27.20700
H  -3.56200 38.70600 26.14600
H  -4.57400 39.17700 23.62300
H  -5.10700 39.71500 21.95000
H  -5.24600 40.78000 23.37100
H  1.10900 42.03700 20.22200
H  3.82500 41.44300 20.82100
H  1.49100 39.47500 21.12800
H  2.73500 39.96400 19.80900
H  1.02500 40.09700 19.51400
H  2.80900 43.63300 19.49800
H  4.36700 43.59000 20.29700
H  2.52200 44.59400 22.34900
H  2.34200 45.55500 20.83800
H  3.81800 45.51000 21.52300
H  7.58800 43.93900 24.90300
H  7.12900 42.53900 23.81800
H  7.83400 42.13400 25.25100
H  4.90900 43.14900 29.78600
H  4.77600 40.13900 32.42000
H  5.93200 41.05300 33.23200
H  6.43200 39.79100 32.03800

