158

Mg 46.44600 23.94700 28.19700
C  47.05400 26.12100 30.78100
C  45.86300 21.40300 30.42900
C  46.25300 21.88800 25.56400
C  47.19800 26.61900 26.03800
N  46.47000 23.78800 30.26700
C  46.69500 24.84000 31.21300
C  46.46700 24.33700 32.64300
C  46.32800 22.76000 32.44900
C  46.13800 22.65600 30.96700
C  47.64600 22.00000 32.86000
C  45.22900 25.03100 33.26700
C  45.61700 25.68700 34.68400
H  44.49700 25.89400 35.76700
N  46.08300 21.93600 28.02200
C  45.82100 21.04300 29.04000
C  45.44300 19.78900 28.47500
C  45.51500 19.90500 27.02500
C  45.95600 21.28300 26.82600
C  45.21300 18.58700 29.38400
C  45.27400 18.86700 25.98600
O  45.35800 19.20100 24.78200
C  45.02000 17.43300 26.32900
N  46.62200 24.19500 26.13900
C  46.48400 23.27000 25.27500
C  46.62000 23.72700 23.80300
C  46.47900 25.27400 23.97000
C  46.76400 25.38200 25.44800
C  47.93700 23.27000 23.11700
C  45.18100 25.91000 23.48700
C  43.99800 25.74800 24.34800
N  47.01500 25.97600 28.30900
C  47.38200 26.93000 27.39200
C  47.90800 28.11700 27.94200
C  47.80300 27.83200 29.31400
C  47.24500 26.54200 29.46900
C  48.40700 29.39300 27.25800
C  48.14500 28.40300 30.60400
O  48.65900 29.49500 30.89500
C  47.56300 27.30500 31.62100
C  48.65300 26.98100 32.63900
O  49.50500 26.09500 32.46700
O  48.47000 27.75100 33.77200
C  49.60100 27.52800 34.76000
H  45.79400 20.64100 31.20800
H  46.31400 21.23800 24.68900
H  47.44600 27.46100 25.38900
H  47.38000 24.57700 33.18700
H  45.45300 22.38300 32.97800
H  48.55200 22.59800 32.76500
H  47.76200 21.06200 32.31700
H  47.66600 21.67000 33.89800
H  44.41800 24.35200 33.52700
H  44.98000 25.75400 32.49000
H  46.09300 26.60800 34.34800
H  46.51600 25.23600 35.10400
H  44.23400 18.12500 29.25500
H  45.22800 18.73900 30.46300
H  45.97800 17.84200 29.16300
H  45.94100 16.95000 26.65500
H  44.87300 17.04000 25.32300
H  44.14600 17.27600 26.96000
H  45.79100 23.33800 23.21200
H  47.34900 25.71200 23.48200
H  48.77100 23.93200 23.34800
H  47.83200 23.01800 22.06200
H  48.35800 22.41900 23.65300
H  45.18800 25.53100 22.46500
H  45.55600 26.93200 23.43400
H  44.01800 26.59400 25.03500
H  44.06700 24.81200 24.90200
H  43.17000 25.82500 23.64400
H  48.35400 30.32600 27.81700
H  47.94400 29.58100 26.28900
H  49.41000 29.15300 26.90400
H  46.68500 27.69300 32.13700
H  49.72600 26.48100 35.03600
H  49.28100 27.98300 35.69700
H  50.53900 27.94100 34.38800
Mg 41.44800 41.66000 26.63900
C  40.70000 43.93700 29.27500
C  42.88400 39.54800 29.05600
C  42.30800 39.69200 24.22300
C  40.44400 44.19400 24.33400
N  41.57200 41.72600 28.85300
C  41.12500 42.64100 29.76100
C  41.21900 42.14700 31.18300
C  41.92700 40.75200 31.04300
C  42.21500 40.67500 29.49400
C  43.21300 40.57100 31.97700
C  39.90300 42.17200 32.01300
C  39.89100 43.36700 33.10800
H  39.47300 43.03400 34.54500
N  42.41600 39.86200 26.63900
C  42.96500 39.11700 27.69100
C  43.43000 37.82200 27.19400
C  43.13400 37.79300 25.81100
C  42.62700 39.12700 25.48000
C  44.00300 36.82900 28.15900
C  43.30900 36.73600 24.75600
O  43.05400 36.88600 23.59200
C  43.85800 35.47600 25.25800
N  41.49900 42.00400 24.51600
C  41.79600 40.95500 23.81900
C  41.53300 41.18200 22.32200
C  40.60800 42.39600 22.38000
C  40.90300 42.98300 23.79800
C  42.82300 41.40800 21.49800
C  39.05900 42.13000 22.13600
C  38.45800 40.85100 22.72700
N  40.72800 43.69500 26.70100
C  40.46100 44.52700 25.69400
C  40.04900 45.81800 26.28900
C  40.18200 45.68700 27.65800
C  40.54400 44.28000 27.89400
C  39.43500 46.91200 25.53900
C  39.95400 46.28200 28.95700
O  39.57800 47.39100 29.15000
C  40.30300 45.23200 30.03900
C  41.46100 45.78600 30.71600
O  42.59700 45.60800 30.40200
O  41.10100 46.34200 31.91000
C  42.12700 46.59700 32.92900
H  43.19700 38.71500 29.69000
H  42.49500 39.18000 23.27700
H  40.04900 44.91300 23.61400
H  41.93900 42.85800 31.58700
H  41.33900 39.87700 31.32100
H  43.39800 41.41100 32.64600
H  44.03800 40.57500 31.26500
H  43.16200 39.65400 32.56400
H  39.81500 41.18200 32.46000
H  39.07500 42.43000 31.35300
H  39.11600 44.07300 32.81200
H  40.83500 43.91200 33.10800
H  44.55600 36.03500 27.65700
H  43.24700 36.43800 28.83800
H  44.74500 37.33600 28.77600
H  43.90400 34.79800 24.40600
H  43.20700 35.05200 26.02300
H  44.85800 35.67200 25.64300
H  41.12700 40.27200 21.88000
H  40.86400 43.23100 21.72800
H  42.88000 40.76100 20.62200
H  43.76600 41.28900 22.03200
H  42.91600 42.44200 21.16600
H  38.83900 42.01900 21.07500
H  38.59500 42.98600 22.62600
H  38.66300 40.02300 22.04800
H  37.40300 41.12300 22.75900
H  38.85400 40.72900 23.73500
H  38.70600 47.39700 26.18800
H  38.96000 46.57900 24.61600
H  40.23700 47.59600 25.26100
H  39.58100 44.89700 30.78300
H  42.24800 47.67900 32.98300
H  43.11700 46.17900 32.74500
H  41.71100 46.28000 33.88600

