158

Mg 54.60300 24.25400 44.73400
C  51.98100 26.31700 43.53500
C  52.97000 21.65400 43.42800
C  57.49800 22.51400 44.86800
C  56.25600 27.11400 45.88600
N  52.86400 24.13500 43.29200
C  51.86300 25.04100 43.00600
C  50.77900 24.40400 42.12300
C  50.87700 22.90000 42.52900
C  52.35300 22.88000 43.08200
C  49.94900 22.41600 43.62000
C  51.14600 24.67800 40.60500
C  49.93400 24.58000 39.79400
H  50.19500 25.07700 38.32300
N  55.14700 22.38300 44.18800
C  54.33400 21.38500 43.67200
C  55.01100 20.14800 43.63100
C  56.33500 20.37600 43.95200
C  56.39600 21.83700 44.35000
C  54.21500 18.85400 43.29900
C  57.35200 19.28100 44.05500
O  57.11800 18.09500 43.91300
C  58.71700 19.51600 44.50700
N  56.64600 24.73900 45.06400
C  57.64700 23.88400 45.20100
C  58.96600 24.41400 45.69500
C  58.52600 26.00500 45.79200
C  57.03000 25.94900 45.57500
C  59.51400 23.73100 46.94900
C  59.26700 27.05900 44.86400
C  58.55300 27.38200 43.50400
N  54.17800 26.25500 44.93900
C  54.89800 27.27800 45.51200
C  54.02000 28.42800 45.62600
C  52.84200 28.03700 44.86300
C  53.06600 26.74300 44.48700
C  54.33000 29.73600 46.29800
C  51.54100 28.51300 44.37900
O  50.92700 29.59800 44.49400
C  50.95700 27.39300 43.54500
C  50.42200 27.93500 42.25800
O  51.10300 28.44100 41.39900
O  49.10300 27.71800 42.19700
C  48.49000 27.98700 40.88700
H  52.28800 20.92300 42.98900
H  58.26200 21.78800 45.15200
H  56.69400 28.07100 46.17800
H  49.75800 24.73400 42.31000
H  50.81800 22.14100 41.74800
H  49.33400 23.18500 44.08700
H  50.39200 21.88400 44.46200
H  49.29800 21.75300 43.05000
H  51.76200 23.84500 40.26800
H  51.76300 25.54600 40.37100
H  49.10000 25.17000 40.17500
H  49.59300 23.55300 39.66200
H  54.23300 18.01700 43.99700
H  54.82500 18.53200 42.45500
H  53.24200 19.05700 42.85100
H  58.83000 19.86300 45.53400
H  59.10700 20.24500 43.79600
H  59.31200 18.61700 44.34600
H  59.75200 24.28700 44.95100
H  58.59200 26.43000 46.79400
H  59.81100 24.45400 47.71000
H  60.31900 23.02600 46.74500
H  58.73900 23.19100 47.49300
H  60.26900 26.70500 44.62300
H  59.50400 27.96000 45.43000
H  58.05700 28.34800 43.41300
H  57.73300 26.69900 43.28300
H  59.44700 27.30700 42.88500
H  54.46100 29.63800 47.37500
H  53.51700 30.44700 46.14800
H  55.24400 30.14600 45.86800
H  50.06400 26.96300 43.99800
H  49.12700 27.73700 40.03800
H  47.92700 28.90400 40.71500
H  47.59600 27.38800 40.71800
Mg 9.20600 48.76800 26.27200
C  7.10300 48.92600 28.99500
C  11.73800 49.99300 28.14300
C  11.15900 48.76300 23.51500
C  6.39400 48.12900 24.18800
N  9.30500 49.54600 28.30300
C  8.36300 49.40600 29.25800
C  8.82100 49.88400 30.66500
C  10.30000 50.44300 30.29700
C  10.45800 50.00400 28.80800
C  10.43200 51.96700 30.48700
C  8.78900 48.80900 31.81700
C  9.80400 48.66400 32.91300
H  9.54300 47.62200 34.04700
N  11.24300 49.21100 25.89400
C  12.09800 49.74100 26.82000
C  13.40300 49.84000 26.13800
C  13.27500 49.40400 24.81300
C  11.82200 49.08800 24.68500
C  14.67000 50.09600 26.90300
C  14.29500 49.15200 23.66600
O  14.01900 48.64600 22.52700
C  15.78400 49.41600 23.93500
N  8.79700 48.67200 24.11300
C  9.82600 48.51800 23.24800
C  9.26600 47.99200 21.85800
C  7.79400 47.71400 22.19800
C  7.60100 48.28400 23.53800
C  9.44400 49.05100 20.64700
C  7.43400 46.18000 22.02100
C  6.13300 45.97900 21.35000
N  7.17100 48.37800 26.46300
C  6.15800 48.17600 25.56100
C  4.87700 48.02500 26.29500
C  5.23300 48.26800 27.67000
C  6.61300 48.48100 27.70200
C  3.59200 47.94400 25.68100
C  4.64600 48.27800 29.04100
O  3.55000 48.00200 29.41900
C  5.84200 48.67100 29.93400
C  5.92500 47.60200 30.84000
O  6.59200 46.61000 30.67500
O  5.10300 47.77300 31.92000
C  4.96500 46.64700 32.90100
H  12.51400 50.33100 28.83300
H  11.78600 48.50400 22.65900
H  5.49100 47.83400 23.65000
H  8.28800 50.70200 31.14900
H  11.02600 49.87900 30.88300
H  9.41800 52.36600 30.51700
H  11.09500 52.56400 29.86100
H  10.85200 52.03500 31.49000
H  8.75100 47.76600 31.50100
H  7.88400 48.84500 32.42300
H  9.91500 49.62000 33.42500
H  10.71400 48.31800 32.42300
H  14.46300 49.90500 27.95600
H  15.10700 51.06900 26.67600
H  15.44700 49.37300 26.65600
H  16.41300 49.23700 23.06300
H  16.18700 48.73800 24.68700
H  15.82500 50.41100 24.37800
H  9.77100 47.09400 21.50300
H  7.09400 48.22800 21.53900
H  10.03500 49.91600 20.94600
H  8.60300 49.69500 20.39000
H  9.97200 48.66300 19.77500
H  7.30700 45.80300 23.03600
H  8.33100 45.72200 21.60200
H  5.61400 45.06600 21.64200
H  6.23600 45.91800 20.26700
H  5.44400 46.78900 21.58500
H  3.27400 46.91900 25.87500
H  3.81100 48.12400 24.62900
H  3.00000 48.75600 26.10300
H  5.53300 49.61300 30.38700
H  4.00600 46.27400 32.54000
H  4.83000 47.03400 33.91100
H  5.71300 45.85900 32.98200

