158

Mg 48.21000 35.09900 27.15200
C  46.25000 33.43800 29.75500
C  48.19600 37.77800 29.06300
C  49.60100 36.61300 24.63900
C  47.41100 32.27000 25.12700
N  47.35700 35.51700 29.19600
C  46.81100 34.68200 30.11300
C  46.79000 35.22500 31.54300
C  47.01600 36.77900 31.21900
C  47.51700 36.74000 29.76800
C  45.93000 37.65500 31.71600
C  47.96300 34.61600 32.45500
C  47.53900 34.15800 33.87500
H  46.37200 35.00200 34.44100
N  48.99200 36.92100 26.92900
C  48.84500 37.94800 27.81400
C  49.38200 39.19500 27.22300
C  49.81500 38.83400 25.94800
C  49.49400 37.42500 25.78500
C  49.43300 40.53800 27.94600
C  50.52200 39.67600 24.92400
O  50.94900 39.26200 23.85600
C  50.73200 41.18200 25.14100
N  48.22100 34.58000 25.10000
C  49.12000 35.31000 24.34000
C  49.53200 34.56600 23.10900
C  48.92200 33.14900 23.36300
C  48.15000 33.30300 24.62700
C  48.95700 35.16200 21.80300
C  50.00800 31.95800 23.48200
C  50.23300 31.08200 22.20400
N  47.05200 33.21500 27.30300
C  46.87000 32.19600 26.42900
C  46.05000 31.21100 27.03500
C  45.80000 31.65200 28.33900
C  46.47000 32.87900 28.50700
C  45.55400 30.00600 26.37500
C  45.02600 31.34100 29.50600
O  44.24900 30.43100 29.81700
C  45.36100 32.55400 30.45400
C  46.04900 31.93600 31.70000
O  47.16200 31.47800 31.78400
O  45.09700 31.83800 32.68500
C  45.34700 30.94400 33.76700
H  48.17400 38.74200 29.57600
H  50.15400 37.09400 23.82900
H  47.41800 31.37900 24.49600
H  45.81400 35.11000 32.01600
H  47.81400 37.11500 31.88000
H  45.78400 38.43400 30.96800
H  46.01400 38.12600 32.69500
H  45.00100 37.09400 31.82400
H  48.67100 35.40100 32.71900
H  48.48900 33.87900 31.84700
H  48.38100 34.38000 34.53000
H  47.40400 33.07600 33.85800
H  50.45600 40.90400 28.03500
H  49.14700 40.51800 28.99800
H  48.88500 41.36200 27.49000
H  51.21400 41.59200 24.25300
H  51.50700 41.06900 25.89900
H  49.77300 41.62800 25.40500
H  50.61100 34.66200 22.98300
H  48.15900 32.98900 22.60100
H  49.54500 36.00200 21.43300
H  47.92800 35.51100 21.88200
H  49.00600 34.44600 20.98200
H  49.82000 31.26600 24.30200
H  50.97100 32.44000 23.64600
H  50.35300 30.04700 22.52500
H  51.09900 31.31000 21.58300
H  49.33200 31.06000 21.59100
H  44.78300 29.53100 26.98100
H  46.49500 29.45700 26.40400
H  45.20800 30.22400 25.36400
H  44.43900 33.07800 30.70700
H  44.60200 31.04900 34.55600
H  46.33600 31.08500 34.20300
H  45.41500 29.92200 33.39300
Mg 0.96000 42.94200 25.90200
C  3.17600 42.84100 28.72800
C  -1.59600 42.59200 28.18000
C  -1.06900 43.00500 23.32800
C  3.68100 43.50100 23.89700
N  0.83800 42.54000 28.19800
C  1.83600 42.66300 29.13000
C  1.22700 42.62500 30.49700
C  -0.21200 42.12700 30.28300
C  -0.35300 42.43400 28.76700
C  -0.57600 40.66700 30.70000
C  1.40900 44.10100 31.13500
C  1.21900 44.29800 32.62300
H  0.85400 43.00500 33.35400
N  -1.00300 42.93000 25.86500
C  -1.93200 42.80600 26.82900
C  -3.24600 42.80900 26.31100
C  -3.14000 43.06800 24.91400
C  -1.65300 43.02400 24.62500
C  -4.50200 42.49000 27.20100
C  -4.25400 43.26600 23.90200
O  -4.01800 43.47500 22.79000
C  -5.71200 43.14500 24.32500
N  1.20700 42.93400 23.81900
C  0.23600 43.00300 22.93000
C  0.79800 43.10600 21.56000
C  2.27100 43.73300 21.76200
C  2.43100 43.32500 23.29000
C  0.92300 41.74300 20.79600
C  2.24200 45.27500 21.68900
C  3.45500 45.96200 20.96500
N  3.00300 42.97400 26.15600
C  4.00200 43.32800 25.27800
C  5.24500 43.51200 25.92600
C  5.02500 43.29500 27.28200
C  3.62300 43.14200 27.42500
C  6.55200 44.00700 25.26000
C  5.59400 43.30400 28.62100
O  6.68100 43.66800 29.02200
C  4.43200 43.04800 29.57700
C  4.61100 41.84500 30.41700
O  4.74300 40.72000 30.07000
O  4.72700 42.28900 31.66700
C  5.04200 41.39100 32.77000
H  -2.46200 42.31100 28.78400
H  -1.68900 43.18200 22.44700
H  4.40500 43.83900 23.15200
H  1.78500 41.91200 31.10300
H  -0.87200 42.81800 30.80700
H  0.21000 40.25100 31.33000
H  -0.64900 40.14400 29.74600
H  -1.51800 40.66800 31.24900
H  0.71400 44.75200 30.60500
H  2.40300 44.40000 30.80100
H  0.42400 45.04000 32.68900
H  2.16900 44.72800 32.94000
H  -5.28200 42.06900 26.56700
H  -4.90000 43.30400 27.80700
H  -4.35200 41.71100 27.94900
H  -5.87400 43.85900 25.13300
H  -6.00300 42.10400 24.46500
H  -6.30900 43.49200 23.48200
H  0.25900 43.84500 20.96800
H  3.05500 43.28200 21.15400
H  1.99000 41.53200 20.73200
H  0.37900 41.70600 19.85200
H  0.47800 41.04300 21.50300
H  2.14500 45.82900 22.62300
H  1.40500 45.61900 21.08200
H  3.13800 46.60900 20.14700
H  4.13300 45.21400 20.55400
H  4.02800 46.56700 21.66800
H  6.51800 44.26400 24.20100
H  7.19000 43.12700 25.17200
H  7.08900 44.77500 25.81700
H  4.37100 43.93100 30.21200
H  4.87500 41.90200 33.71800
H  6.11200 41.20400 32.67100
H  4.46400 40.49300 32.55000

