158

Mg -12.60200 38.40700 41.34600
C  -10.60500 35.78500 40.47800
C  -10.38600 40.59700 40.00200
C  -15.18000 40.69600 41.11800
C  -15.06800 36.07300 42.52500
N  -10.79600 38.12200 40.08800
C  -10.10900 36.97200 39.89800
C  -8.66800 37.19600 39.40100
C  -8.62800 38.75100 39.41100
C  -9.99800 39.21400 39.89600
C  -7.41600 39.49200 40.09100
C  -8.44900 36.59700 37.92200
C  -7.24200 35.74400 37.71500
H  -6.56500 35.98100 36.40900
N  -12.72600 40.36400 40.69800
C  -11.63400 41.12200 40.27700
C  -12.05300 42.48800 40.13700
C  -13.44900 42.55000 40.37100
C  -13.84500 41.16900 40.77500
C  -11.25100 43.68600 39.79400
C  -14.27500 43.82400 40.39600
O  -13.79400 44.93200 40.13100
C  -15.72800 43.86200 40.82200
N  -14.83000 38.48100 41.93100
C  -15.67700 39.46600 41.55900
C  -17.13300 39.14800 41.78800
C  -17.08500 37.72500 42.30100
C  -15.57700 37.39800 42.28200
C  -17.94700 40.06500 42.74200
C  -17.99000 36.74400 41.51900
C  -18.82000 35.69400 42.44400
N  -12.78500 36.40600 41.60900
C  -13.79200 35.56200 42.17200
C  -13.34500 34.18600 42.14200
C  -12.11100 34.26900 41.51900
C  -11.81800 35.57600 41.17400
C  -14.12400 32.97900 42.59600
C  -11.05600 33.47900 40.95700
O  -11.03200 32.22500 40.93800
C  -10.01400 34.38300 40.34800
C  -8.77700 33.96900 41.08900
O  -7.88500 33.30500 40.58800
O  -8.70100 34.62600 42.26700
C  -7.53500 34.27000 43.05900
H  -9.52900 41.21700 39.73100
H  -15.95600 41.45300 40.98800
H  -15.86000 35.40800 42.87600
H  -7.89100 36.90200 40.10700
H  -8.51200 39.10000 38.38400
H  -6.65300 38.78200 40.41100
H  -7.78800 39.99600 40.98300
H  -6.91900 40.30100 39.55500
H  -8.57400 37.37000 37.16400
H  -9.38500 36.08100 37.70600
H  -7.41800 34.68500 37.90300
H  -6.51400 35.98800 38.48900
H  -10.19000 43.44900 39.71600
H  -11.43400 44.37700 40.61700
H  -11.57300 44.10100 38.84000
H  -16.19600 44.84400 40.75000
H  -15.86700 43.37300 41.78600
H  -16.19000 43.26100 40.04000
H  -17.61800 39.15900 40.81200
H  -17.29300 37.75400 43.37100
H  -17.38300 40.97000 42.96700
H  -18.13300 39.68100 43.74500
H  -18.87500 40.40200 42.28000
H  -17.42300 36.10000 40.84600
H  -18.64700 37.30500 40.85400
H  -19.78400 36.06200 42.79700
H  -18.16700 35.32500 43.23400
H  -19.12200 34.83800 41.84100
H  -13.86900 32.91200 43.65400
H  -13.81300 32.14200 41.97100
H  -15.17000 33.22400 42.41100
H  -9.93500 34.03200 39.31900
H  -7.87600 33.44800 43.68900
H  -7.19800 35.07600 43.71100
H  -6.68000 33.94800 42.46500
Mg -12.60700 16.65600 41.13600
C  -9.57700 14.72900 40.34300
C  -11.03700 19.29800 39.72300
C  -15.54300 18.34800 41.41700
C  -14.13800 13.68800 41.93400
N  -10.54000 16.88500 39.96800
C  -9.45400 16.04200 39.97300
C  -8.23300 16.75700 39.49100
C  -8.70800 18.27200 39.48300
C  -10.18100 18.18300 39.70700
C  -8.04100 19.03400 40.65300
C  -7.63600 16.23300 38.13400
C  -6.10000 16.26600 38.04300
H  -5.41800 16.86700 36.80200
N  -13.17900 18.58100 40.68500
C  -12.39700 19.52700 40.04300
C  -13.16000 20.74500 39.90700
C  -14.50300 20.48800 40.36500
C  -14.47400 19.11500 40.90200
C  -12.56000 22.02800 39.41100
C  -15.59500 21.45600 40.61800
O  -15.63000 22.62000 40.12600
C  -16.81800 21.14100 41.44500
N  -14.51500 16.12300 41.65700
C  -15.63300 16.96800 41.78800
C  -16.89200 16.23500 42.09800
C  -16.35600 14.82200 42.33300
C  -14.92500 14.86700 41.82300
C  -17.83600 16.80000 43.25000
C  -17.25500 13.72500 41.66900
C  -17.52700 12.43300 42.54100
N  -12.04500 14.56100 41.12500
C  -12.75900 13.48100 41.60000
C  -11.95300 12.36200 41.64300
C  -10.67700 12.71200 41.17200
C  -10.80000 14.14500 40.83700
C  -12.35900 11.02700 42.14700
C  -9.35000 12.30200 40.85300
O  -8.79700 11.22900 41.03100
C  -8.52700 13.57200 40.35500
C  -7.38400 13.81400 41.30800
O  -7.57700 14.30300 42.38400
O  -6.09700 13.58300 40.74500
C  -5.04200 14.02400 41.73800
H  -10.44200 20.19300 39.53200
H  -16.54100 18.78400 41.32800
H  -14.65200 12.85800 42.42400
H  -7.49100 16.55300 40.26200
H  -8.37700 18.87900 38.64000
H  -8.40600 18.72700 41.63300
H  -8.28100 20.09500 40.58400
H  -6.95900 18.90500 40.61500
H  -8.06100 16.76500 37.28200
H  -8.04100 15.25000 37.89400
H  -5.62400 15.29900 38.20500
H  -5.66000 16.78700 38.89300
H  -11.67100 21.88100 38.79600
H  -12.21500 22.58100 40.28500
H  -13.15400 22.73300 38.83000
H  -16.60000 20.66400 42.40100
H  -17.52600 20.50400 40.91600
H  -17.22800 22.11100 41.72500
H  -17.52300 16.18600 41.21000
H  -16.31100 14.62300 43.40400
H  -17.14000 17.48400 43.73600
H  -18.03600 16.00900 43.97300
H  -18.69300 17.30000 42.79900
H  -16.73500 13.48200 40.74200
H  -18.20300 14.21200 41.43800
H  -17.45500 11.41000 42.17400
H  -18.54900 12.59700 42.88400
H  -16.88600 12.47700 43.42200
H  -12.65700 10.49900 41.24100
H  -13.19000 11.16400 42.83900
H  -11.45200 10.67300 42.63700
H  -8.09300 13.41700 39.36700
H  -4.02700 13.79500 41.41300
H  -5.19200 13.53400 42.70000
H  -5.07000 15.09000 41.96600

