158

Mg 53.88000 24.18800 43.91400
C  51.37100 26.65100 43.16800
C  51.49300 21.89700 43.06900
C  56.27600 21.91500 43.95100
C  56.12800 26.68500 44.67700
N  51.71600 24.39800 43.06800
C  50.92500 25.42900 42.79300
C  49.50500 24.94100 42.49900
C  49.48800 23.51500 43.17600
C  51.00000 23.20900 43.12000
C  48.82100 23.29500 44.58100
C  49.10600 24.88800 41.02300
C  50.06300 24.32300 40.01400
H  50.48100 25.38200 38.96100
N  53.90200 22.20900 43.48800
C  52.80600 21.39600 43.13200
C  53.22500 20.05600 42.89000
C  54.61200 20.04200 43.17600
C  55.00900 21.42800 43.58100
C  52.20400 19.03800 42.32300
C  55.50700 18.84400 42.97800
O  54.95700 17.79600 42.56000
C  57.02600 18.76200 43.19100
N  56.05800 24.38400 43.91200
C  56.78800 23.25900 44.19000
C  58.23100 23.64600 44.59100
C  58.10900 25.17900 44.95700
C  56.70700 25.46300 44.43900
C  58.94900 22.77000 45.72100
C  59.11500 26.05200 44.21400
C  60.25300 26.75200 45.06300
N  53.81400 26.22200 43.94100
C  54.76000 27.04700 44.49900
C  54.10300 28.41900 44.74700
C  52.86300 28.24600 44.13200
C  52.66800 26.90800 43.66300
C  54.84000 29.63500 45.22100
C  51.63500 28.95300 43.80200
O  51.29300 30.09200 44.03300
C  50.64300 27.97000 43.10900
C  50.29000 28.38900 41.77800
O  51.13800 28.57000 40.92400
O  48.93200 28.45500 41.60800
C  48.49800 29.18000 40.32400
H  50.74400 21.10900 43.17100
H  57.06200 21.15900 44.02100
H  56.72500 27.42500 45.21600
H  48.85300 25.63200 43.03400
H  48.87800 22.83800 42.57900
H  49.60100 23.13700 45.32500
H  48.15500 22.44000 44.46900
H  48.18100 24.14900 44.80300
H  48.83700 25.91300 40.76600
H  48.15700 24.35200 40.98800
H  49.53500 23.61400 39.37700
H  50.90300 23.75600 40.41600
H  51.39400 19.57600 41.83100
H  51.67700 18.58700 43.16400
H  52.63600 18.29500 41.65300
H  57.24500 19.29400 44.11700
H  57.59900 19.10300 42.32900
H  57.30400 17.72100 43.35400
H  58.77300 23.33000 43.70000
H  58.05400 25.32600 46.03500
H  58.39000 21.84200 45.84500
H  58.89500 23.38500 46.62000
H  60.00900 22.56100 45.58400
H  58.65900 26.73700 43.50000
H  59.67500 25.37100 43.57400
H  60.59900 27.57300 44.43500
H  61.06500 26.06200 45.29200
H  59.75400 27.08600 45.97300
H  54.78200 29.64900 46.30900
H  54.25400 30.47200 44.84000
H  55.82700 29.71000 44.76500
H  49.79900 27.73700 43.75900
H  47.95300 30.11400 40.46600
H  47.93800 28.59000 39.59900
H  49.37900 29.43300 39.73400
Mg 49.41300 45.42300 42.54800
C  46.18600 46.62100 41.75700
C  48.47500 42.35900 41.54000
C  52.65500 44.60400 42.40400
C  50.32500 48.75300 43.21500
N  47.50900 44.64400 41.67200
C  46.32400 45.27100 41.45800
C  45.28000 44.20600 40.97200
C  45.91000 42.86100 41.35600
C  47.39100 43.29400 41.59800
C  45.22600 42.12500 42.52600
C  45.08400 44.42000 39.40200
C  43.68000 44.59300 38.88100
H  43.35400 44.18700 37.45900
N  50.44500 43.73000 42.03300
C  49.86400 42.55900 41.70300
C  50.89100 41.58700 41.56400
C  52.09700 42.14500 41.90200
C  51.80100 43.53900 42.12300
C  50.55700 40.10900 41.19200
C  53.48600 41.51700 41.86900
O  53.53000 40.35500 41.39200
C  54.66800 42.07100 42.57800
N  51.17000 46.48000 42.99300
C  52.37600 45.90700 42.79900
C  53.54800 46.93900 43.12000
C  52.77200 48.22800 43.44900
C  51.29100 47.76700 43.19700
C  54.59800 46.46700 44.17100
C  53.40700 49.47300 42.67000
C  53.56400 50.70600 43.62100
N  48.43300 47.26200 42.66600
C  48.97100 48.51100 42.98000
C  47.92800 49.42300 42.96700
C  46.76800 48.75600 42.50100
C  47.18900 47.45800 42.29000
C  48.06300 50.90500 43.11800
C  45.35300 48.90300 42.20500
O  44.53800 49.78900 42.38100
C  44.94600 47.47300 41.55300
C  43.70900 46.93400 42.26300
O  42.67700 46.68600 41.64600
O  43.71100 46.94200 43.68900
C  42.27500 46.98800 44.19400
H  48.07100 41.35600 41.38900
H  53.70900 44.35700 42.26500
H  50.65200 49.75100 43.51500
H  44.30300 44.39500 41.41600
H  45.95700 42.08200 40.59600
H  45.86500 42.12200 43.40900
H  45.12700 41.07700 42.24400
H  44.23300 42.55800 42.64900
H  45.59500 43.58800 38.91900
H  45.53900 45.33100 39.01100
H  43.42900 45.65300 38.89800
H  42.99800 43.96300 39.45400
H  50.90900 39.82900 40.19900
H  49.50300 39.86400 41.32600
H  50.94300 39.48800 42.00000
H  55.07500 42.74400 41.82300
H  55.30500 41.22700 42.84400
H  54.48400 42.68500 43.45900
H  54.04100 47.02400 42.15200
H  52.83000 48.45300 44.51400
H  55.27000 45.67800 43.83400
H  53.94000 46.01500 44.91400
H  55.12300 47.32600 44.58900
H  52.82700 49.64600 41.76400
H  54.39300 49.07300 42.43400
H  54.59900 51.03900 43.70900
H  53.33600 50.51000 44.66900
H  52.99300 51.51900 43.17200
H  48.06900 51.02300 42.03400
H  48.90600 51.32000 43.66900
H  47.07300 51.24800 43.41900
H  44.86200 47.57100 40.47000
H  42.40400 47.01100 45.27600
H  41.68400 46.11200 43.92500
H  41.79100 47.90500 43.85800

