158

Mg -0.76500 7.43000 26.25300
C  -0.09200 9.50900 28.89300
C  -0.17900 4.75900 28.40900
C  -1.16200 5.51900 23.67600
C  -1.10700 10.34000 24.13500
N  -0.23700 7.16400 28.41500
C  -0.04600 8.18400 29.28000
C  0.24200 7.64900 30.72100
C  0.24300 6.09700 30.48900
C  0.03500 5.96400 28.97200
C  1.58500 5.39300 30.95900
C  -0.86900 8.12700 31.69600
C  -0.54800 8.07800 33.19800
H  0.54900 7.22000 33.88700
N  -0.70100 5.42500 26.06300
C  -0.40200 4.46500 26.98600
C  -0.29900 3.14900 26.35500
C  -0.58000 3.35900 24.94800
C  -0.85300 4.78900 24.84600
C  -0.01000 1.85100 27.20000
C  -0.53500 2.34600 23.76700
O  -0.95700 2.57800 22.64100
C  -0.16200 0.85000 23.97200
N  -1.11000 7.92000 24.23000
C  -1.22000 6.88900 23.36300
C  -1.44800 7.34500 21.97100
C  -1.87000 8.79500 22.20500
C  -1.28200 9.08900 23.55700
C  -0.13300 7.21500 21.10700
C  -3.46000 8.88600 22.14000
C  -3.92500 10.13600 21.33800
N  -0.62000 9.52700 26.40400
C  -0.70400 10.53400 25.48800
C  -0.42200 11.78500 26.10200
C  -0.16900 11.41400 27.48000
C  -0.31700 10.02600 27.55700
C  -0.46200 13.22100 25.61600
C  0.16900 12.03400 28.74700
O  0.47100 13.19700 29.02900
C  0.11500 10.79100 29.69700
C  1.26800 10.86000 30.58400
O  2.38200 10.88700 30.15200
O  0.90700 11.00900 31.87900
C  2.03900 11.04200 32.84200
H  0.02900 3.83500 28.95300
H  -1.42800 4.89000 22.82400
H  -1.14600 11.21800 23.48700
H  1.26900 7.95100 30.93000
H  -0.61700 5.63200 30.97200
H  2.23000 6.04800 31.54400
H  2.14700 5.06000 30.08700
H  1.26600 4.55600 31.58000
H  -1.58700 7.32000 31.55100
H  -1.32300 9.05600 31.34900
H  -1.48400 7.63100 33.53500
H  -0.57800 9.12000 33.51700
H  0.79700 1.96100 27.92500
H  0.28400 1.03600 26.53900
H  -0.93400 1.53900 27.68700
H  0.89000 0.85000 24.25900
H  -0.30400 0.43600 22.97300
H  -0.87500 0.40200 24.66300
H  -2.27500 6.81200 21.50100
H  -1.32100 9.47000 21.54900
H  -0.39100 6.37600 20.46000
H  0.79100 6.92800 21.60800
H  -0.03200 8.14500 20.54800
H  -3.85500 9.04800 23.14200
H  -4.02800 8.05000 21.73100
H  -3.24400 10.64400 20.65600
H  -4.23600 10.95900 21.98100
H  -4.84300 9.78200 20.86900
H  -0.75300 13.96600 26.35800
H  -1.16500 13.23400 24.78400
H  0.46400 13.58700 25.17200
H  -0.69200 10.86600 30.42500
H  2.64900 11.93500 32.70300
H  2.75300 10.23000 32.70000
H  1.75800 11.04400 33.89500
Mg 29.26100 57.73300 41.31800
C  26.70300 55.70700 40.26100
C  31.46400 55.53900 40.16900
C  31.72700 60.15800 41.67700
C  26.89300 60.28300 42.13900
N  29.06500 55.78600 40.42800
C  27.93900 55.14600 40.04600
C  28.23600 53.83400 39.30000
C  29.79000 53.66100 39.71600
C  30.19600 55.07500 40.10200
C  29.98600 52.70500 40.99100
C  28.01600 53.79100 37.83100
C  28.49000 55.00600 37.01600
H  27.75300 55.25000 35.59000
N  31.27600 57.77300 40.92800
C  32.02400 56.73000 40.46800
C  33.44500 57.09500 40.45100
C  33.55600 58.41900 40.91500
C  32.13900 58.85100 41.18400
C  34.49500 56.08200 40.06000
C  34.90900 59.18100 41.11100
O  35.99500 58.70400 40.79600
C  34.98700 60.52800 41.68600
N  29.33100 59.95500 41.81900
C  30.45400 60.66000 42.01700
C  30.09700 62.11700 42.33200
C  28.57500 62.12200 42.56000
C  28.25400 60.62700 42.31400
C  30.93000 62.67000 43.54000
C  27.76200 63.13000 41.68900
C  26.58100 63.74900 42.44100
N  27.22600 57.99000 41.27400
C  26.41300 59.03500 41.65300
C  25.05800 58.55400 41.57300
C  25.14100 57.32800 41.02000
C  26.45700 57.00000 40.80200
C  23.82700 59.29700 41.94000
C  24.30900 56.22100 40.51200
O  23.11200 56.11200 40.40900
C  25.28400 55.12900 40.00300
C  24.98000 53.89500 40.88400
O  25.23600 53.88100 42.09400
O  24.64300 52.76400 40.17600
C  24.62000 51.50900 40.97000
H  32.22000 54.76400 40.03000
H  32.53400 60.86700 41.87400
H  26.05200 60.97100 42.24300
H  27.65900 53.03200 39.76000
H  30.35400 53.17900 38.91800
H  29.15300 52.07000 41.29100
H  30.40700 53.29300 41.80700
H  30.81200 52.05500 40.70100
H  26.95600 53.64800 37.62100
H  28.64400 53.02400 37.37800
H  29.56400 54.89900 36.86300
H  28.23500 55.85400 37.65200
H  34.13400 55.52200 39.19700
H  34.64400 55.35400 40.85800
H  35.44400 56.51200 39.74100
H  34.55300 61.27200 41.01800
H  35.98600 60.83800 41.99300
H  34.37200 60.62400 42.58000
H  30.28100 62.66200 41.40600
H  28.34900 62.32600 43.60700
H  31.52300 61.92300 44.06900
H  30.46600 63.24600 44.34100
H  31.60000 63.38500 43.06400
H  27.44300 62.65200 40.76300
H  28.45600 63.93600 41.45200
H  25.64500 63.25500 42.18200
H  26.45200 64.82500 42.32300
H  26.69100 63.63000 43.51900
H  23.83600 60.16000 41.27500
H  24.01500 59.70900 42.93100
H  22.93900 58.66600 41.89900
H  25.12000 54.88900 38.95200
H  24.14100 51.63300 41.94100
H  25.62400 51.11000 41.11400
H  24.04800 50.75300 40.43100

