158

Mg 0.89300 -0.63100 43.97900
C  4.19400 0.43500 43.61900
C  -0.06000 2.47800 42.64300
C  -2.07700 -1.97200 43.63100
C  2.14100 -3.87700 44.62100
N  1.96200 1.28300 43.23300
C  3.32700 1.45000 43.21400
C  3.63700 2.71800 42.48400
C  2.30000 3.50200 42.60500
C  1.27400 2.36900 42.87100
C  2.31200 4.69500 43.66900
C  4.22800 2.47700 41.05500
C  5.68000 3.08300 40.93800
H  6.60400 2.19600 40.07500
N  -0.90200 0.18600 43.21400
C  -1.05200 1.49700 42.80800
C  -2.46000 1.55300 42.45900
C  -3.09600 0.28500 42.77700
C  -2.05000 -0.56400 43.21900
C  -3.03400 2.79800 41.82900
C  -4.64000 0.02500 42.57200
O  -5.34800 0.86800 41.99900
C  -5.22200 -1.34500 42.86300
N  0.17600 -2.64100 44.08400
C  -1.12800 -2.86100 43.94200
C  -1.50300 -4.26300 44.45900
C  -0.11800 -4.94700 44.42200
C  0.76700 -3.75100 44.48700
C  -2.35300 -4.25300 45.80100
C  0.14500 -5.80300 43.13700
C  -0.16000 -7.30200 43.29200
N  2.74300 -1.50300 44.30800
C  3.05500 -2.84900 44.51400
C  4.53300 -2.94600 44.57100
C  5.05800 -1.67000 44.30200
C  3.86100 -0.91300 44.03500
C  5.43900 -4.11200 44.94100
C  6.17900 -0.79200 44.16800
O  7.34000 -1.09600 44.32900
C  5.74200 0.61600 43.75400
C  6.15000 1.65400 44.78900
O  5.56600 1.85100 45.80600
O  7.20500 2.40200 44.41700
C  7.86100 3.32400 45.37600
H  -0.42400 3.44000 42.27400
H  -3.06200 -2.44400 43.64300
H  2.32400 -4.92800 44.85700
H  4.34000 3.23500 43.13800
H  2.07200 3.99400 41.65900
H  3.35500 4.77700 43.97600
H  1.77900 4.56600 44.61100
H  2.04700 5.64600 43.20700
H  3.57900 2.90300 40.28900
H  4.24800 1.43400 40.73700
H  6.15700 3.23000 41.90700
H  5.73700 4.05600 40.44900
H  -3.93400 2.59900 41.24800
H  -2.29500 3.30900 41.21200
H  -3.20500 3.44900 42.68700
H  -4.64700 -2.13500 42.37900
H  -6.23700 -1.27900 42.47200
H  -5.27400 -1.51800 43.93800
H  -2.22300 -4.61700 43.72100
H  0.00000 -5.46300 45.37500
H  -1.90400 -4.84200 46.60100
H  -3.34100 -4.63200 45.54000
H  -2.42400 -3.20100 46.07500
H  1.20600 -5.82400 42.88800
H  -0.34800 -5.37600 42.26400
H  0.61100 -8.01100 42.99000
H  -0.96900 -7.43200 42.57300
H  -0.43900 -7.53400 44.31900
H  4.99900 -5.05200 44.60800
H  5.64500 -4.21200 46.00700
H  6.40200 -4.11400 44.43000
H  6.15000 0.87100 42.77500
H  8.30200 2.75800 46.19600
H  7.07300 3.94100 45.80700
H  8.60000 3.94700 44.87200
Mg 25.31700 1.55500 29.15800
C  27.31000 1.32800 32.13500
C  22.61300 1.84000 31.13900
C  23.71000 1.41800 26.42300
C  28.41000 0.62100 27.37900
N  25.06700 1.73900 31.38900
C  25.98700 1.72500 32.36300
C  25.31000 2.07900 33.69700
C  23.76700 2.13900 33.37500
C  23.78600 1.88100 31.88500
C  22.93900 1.09700 34.21300
C  25.92100 3.41300 34.28000
C  25.17400 4.03700 35.58600
H  26.09300 4.21500 36.86100
N  23.34200 1.67100 28.87000
C  22.34100 1.75700 29.78100
C  21.06500 1.57000 29.05400
C  21.39300 1.50800 27.61500
C  22.83700 1.49800 27.60000
C  19.76200 1.37000 29.79600
C  20.44900 1.35300 26.43900
O  20.87400 1.36300 25.28100
C  18.99400 1.14900 26.68000
N  25.92300 1.06400 27.17200
C  25.05500 1.23400 26.19500
C  25.64300 0.97900 24.80800
C  27.20600 0.88100 25.06700
C  27.23200 0.86300 26.66300
C  25.09000 -0.31400 24.13600
C  28.06500 2.03900 24.48400
C  27.56200 3.47100 24.84200
N  27.41700 1.19000 29.59800
C  28.52700 0.82800 28.78800
C  29.66100 0.65300 29.59900
C  29.24800 0.75400 30.91100
C  27.90700 1.13100 30.86800
C  31.01000 0.12300 29.12700
C  29.62400 0.69100 32.30200
O  30.69400 0.50600 32.83500
C  28.39200 1.18500 33.08000
C  28.14900 0.29700 34.26700
O  27.54600 -0.76800 34.22500
O  28.77300 0.91600 35.37200
C  28.41200 0.25800 36.64900
H  21.78200 2.16300 31.76900
H  23.18100 1.36600 25.47000
H  29.33100 0.59200 26.79400
H  25.49900 1.21200 34.33000
H  23.44700 3.16500 33.55800
H  23.06500 0.09900 33.79300
H  21.89500 1.38900 34.33000
H  23.36400 1.16900 35.21400
H  25.94200 4.14100 33.46900
H  26.93100 3.11800 34.56500
H  24.34800 3.36100 35.80600
H  24.71200 4.97600 35.27900
H  19.41200 0.41300 29.40900
H  19.04000 2.15500 29.57200
H  19.97400 1.35300 30.86500
H  18.67100 1.81300 27.48200
H  18.87200 0.13400 27.05600
H  18.34300 1.27800 25.81400
H  25.37100 1.84700 24.20700
H  27.59400 -0.11000 24.83400
H  24.00100 -0.27000 24.11900
H  25.48000 -1.27300 24.47800
H  25.48900 -0.30900 23.12200
H  28.24200 2.05100 23.40900
H  29.05800 1.88900 24.90800
H  26.59800 3.35800 25.33800
H  27.38400 3.96700 23.88700
H  28.27100 4.11900 25.35700
H  31.26300 -0.92100 29.31200
H  31.76800 0.75400 29.59100
H  31.18000 0.23600 28.05600
H  28.67900 2.19900 33.36100
H  28.42300 -0.82700 36.54700
H  27.43500 0.63100 36.95700
H  29.27600 0.57200 37.23400

