158

Mg 17.51400 -2.57400 27.44000
C  16.67600 -0.41300 30.15000
C  19.29700 -4.58800 29.75100
C  18.73600 -4.27400 24.84200
C  16.06100 -0.24700 25.30500
N  17.92400 -2.53800 29.74800
C  17.52800 -1.48200 30.56800
C  17.92400 -1.83700 32.03700
C  18.86000 -3.11700 31.87600
C  18.71600 -3.43800 30.37000
C  20.33400 -2.98400 32.42600
C  16.73600 -1.99900 33.01000
C  16.68500 -1.22500 34.29400
H  18.03000 -0.89500 35.00600
N  18.70900 -4.25900 27.30000
C  19.28000 -4.99800 28.39200
C  19.84600 -6.23400 27.83200
C  19.89000 -6.00700 26.40600
C  19.15800 -4.78400 26.13600
C  20.42600 -7.23000 28.70900
C  20.63600 -6.80500 25.35800
O  20.50000 -6.54300 24.16600
C  21.45200 -7.94800 25.77100
N  17.66500 -2.17200 25.39900
C  18.16500 -3.08800 24.51500
C  17.84700 -2.68500 23.08800
C  16.87900 -1.51800 23.26800
C  16.87100 -1.23300 24.78300
C  18.98600 -2.59400 22.16300
C  15.48900 -1.70100 22.62500
C  14.37300 -2.12600 23.58800
N  16.44300 -0.80300 27.63800
C  15.88600 0.02400 26.68000
C  15.08400 1.06100 27.32300
C  15.40000 0.90300 28.67400
C  16.25000 -0.21600 28.77900
C  14.29300 2.13800 26.75700
C  15.25600 1.53200 29.98700
O  14.61700 2.53400 30.25900
C  16.08500 0.66800 31.04100
C  16.97500 1.51700 31.78900
O  18.16300 1.70800 31.61200
O  16.27500 2.00500 32.88300
C  17.02800 3.10800 33.55500
H  19.85300 -5.20800 30.45800
H  18.85900 -4.96700 24.00700
H  15.45500 0.43500 24.70600
H  18.59400 -1.05400 32.39300
H  18.41100 -3.92800 32.45000
H  20.38600 -3.78800 33.16000
H  20.40100 -2.01200 32.91500
H  21.10300 -3.15600 31.67300
H  16.53200 -3.05600 33.18100
H  15.92000 -1.67400 32.36500
H  16.23900 -1.98100 34.94000
H  15.92200 -0.45700 34.17600
H  20.07000 -8.18900 28.33100
H  20.02800 -7.20800 29.72300
H  21.50900 -7.11100 28.73800
H  20.74600 -8.67700 26.17100
H  22.04500 -7.60200 26.61800
H  21.92200 -8.39300 24.89400
H  17.35800 -3.54600 22.63200
H  17.46400 -0.70800 22.83400
H  19.10700 -1.62800 21.67300
H  18.89800 -3.36800 21.40000
H  19.85100 -2.72800 22.81200
H  15.59800 -2.55100 21.95300
H  15.16600 -0.78700 22.12700
H  14.69500 -2.84300 24.34400
H  13.63600 -2.76400 23.10000
H  13.82100 -1.22200 23.84300
H  14.05800 1.82100 25.74100
H  15.00900 2.95200 26.64400
H  13.38700 2.31700 27.33500
H  15.31000 0.30400 31.71500
H  17.32800 3.97100 32.96200
H  17.91300 2.78200 34.10300
H  16.34900 3.37600 34.36400
Mg 45.81100 24.68900 28.59000
C  46.30400 26.80800 31.32700
C  45.87500 22.04800 30.80400
C  46.10300 22.73000 25.90000
C  46.46100 27.53900 26.50300
N  46.10500 24.53800 30.79600
C  46.17500 25.50300 31.70800
C  46.06600 24.99200 33.16600
C  46.04600 23.40300 32.98700
C  45.87300 23.27300 31.42200
C  47.32500 22.75800 33.55600
C  44.87000 25.60500 33.97900
C  45.18800 26.00800 35.43200
H  44.26300 25.65800 36.59100
N  45.87700 22.60200 28.37600
C  45.83100 21.70900 29.37800
C  45.74100 20.37800 28.85400
C  45.81600 20.51800 27.39100
C  45.96300 22.00600 27.16300
C  45.68900 19.25100 29.73900
C  45.72000 19.51800 26.31100
O  45.92000 19.80400 25.09600
C  45.31200 18.14800 26.68200
N  46.11500 25.07600 26.54400
C  46.08500 24.09900 25.59100
C  45.95600 24.66700 24.07700
C  46.00700 26.22900 24.41500
C  46.27100 26.32600 25.90000
C  47.17800 24.28800 23.14400
C  44.76800 27.13500 23.93300
C  43.40000 26.70500 24.37400
N  46.07000 26.77500 28.79000
C  46.40900 27.75800 27.89700
C  46.69900 28.99000 28.57400
C  46.71400 28.63600 29.92800
C  46.23600 27.31300 30.01100
C  46.97400 30.32600 27.93800
C  46.94000 29.16000 31.24000
O  47.34200 30.30700 31.52400
C  46.61700 28.05100 32.24000
C  47.83800 27.84100 33.10300
O  48.94000 27.33900 32.81800
O  47.56300 28.39400 34.33900
C  48.55300 28.11200 35.40500
H  45.81300 21.27500 31.57200
H  46.12800 22.15200 24.97400
H  46.60000 28.40500 25.85300
H  46.94100 25.37700 33.69000
H  45.21200 22.94200 33.51600
H  48.00300 22.41100 32.77600
H  46.97800 21.88800 34.11300
H  47.89600 23.39900 34.22800
H  44.17800 24.77700 34.13300
H  44.35300 26.42000 33.47200
H  45.15200 27.08800 35.28700
H  46.19500 25.64500 35.63900
H  45.45500 18.29200 29.27700
H  44.90300 19.37200 30.48400
H  46.67300 19.23200 30.20800
H  45.37500 17.46800 25.83200
H  44.28000 18.17400 27.03200
H  46.01400 17.69500 27.38200
H  45.00900 24.32500 23.66000
H  46.92000 26.61800 23.96300
H  48.05300 24.86900 23.43600
H  46.86500 24.60300 22.14800
H  47.50400 23.26500 23.33000
H  44.72600 27.06400 22.84600
H  44.97900 28.16800 24.20800
H  43.68000 25.93700 25.09400
H  42.71100 26.19400 23.70200
H  42.91900 27.55300 24.86300
H  48.06000 30.38900 27.87300
H  46.66000 31.07900 28.66000
H  46.49000 30.45700 26.97100
H  45.67500 28.32100 32.71800
H  49.48000 28.61300 35.12700
H  48.69500 27.03200 35.36500
H  48.39800 28.44200 36.43200

