158

Mg 40.88000 40.84100 27.01900
C  40.21300 43.22700 29.53700
C  42.10300 38.77600 29.43100
C  41.90100 38.85800 24.56300
C  40.12600 43.45800 24.64100
N  40.93000 40.98300 29.23600
C  40.57500 42.03200 30.05400
C  40.70900 41.73400 31.59600
C  41.43900 40.34100 31.49000
C  41.46000 39.94200 29.92900
C  42.81300 40.22100 32.21900
C  39.37700 41.70600 32.39500
C  39.37100 42.68700 33.61400
H  38.73900 42.10900 34.86400
N  41.81000 39.06300 27.03000
C  42.25900 38.31600 28.05800
C  42.91300 37.06800 27.63500
C  42.66700 36.97200 26.23700
C  42.08600 38.31900 25.88700
C  43.57000 36.02900 28.66500
C  43.02500 35.89500 25.19700
O  42.87100 36.03100 23.96600
C  43.53200 34.55300 25.63200
N  40.99000 41.08200 24.92800
C  41.35000 40.06300 24.08600
C  41.36900 40.48000 22.63200
C  40.60100 41.84500 22.68300
C  40.53800 42.20200 24.17500
C  42.75100 40.53800 21.87500
C  39.28600 41.77400 21.91900
C  38.12900 40.99800 22.59400
N  40.23500 42.87000 27.02000
C  39.95000 43.77400 25.96500
C  39.55200 45.06200 26.50700
C  39.63000 44.88500 27.95800
C  40.02700 43.54100 28.13200
C  39.08300 46.21500 25.61400
C  39.33500 45.55600 29.15800
O  38.97900 46.71500 29.33700
C  39.84200 44.53900 30.31400
C  40.91300 45.15900 31.05700
O  42.01600 45.43500 30.62900
O  40.53000 45.26600 32.35800
C  41.41500 45.91000 33.34000
H  42.61600 38.22100 30.22000
H  42.19800 38.15100 23.78600
H  39.91500 44.20300 23.87100
H  41.42200 42.46200 31.98400
H  40.83500 39.62000 32.04000
H  43.71900 40.39500 31.63800
H  42.86100 39.20500 32.61100
H  42.75200 40.95500 33.02300
H  39.28200 40.78600 32.97200
H  38.44500 41.84400 31.84500
H  38.69800 43.50800 33.36600
H  40.37000 42.97600 33.94200
H  44.26100 35.33900 28.18000
H  42.67200 35.49300 28.97000
H  44.04800 36.63900 29.43100
H  44.59100 34.76100 25.78200
H  43.48100 33.83900 24.81000
H  42.91100 34.17600 26.44400
H  40.83800 39.65100 22.16500
H  41.23200 42.57200 22.17100
H  43.60800 40.23400 22.47400
H  43.06900 41.45400 21.37700
H  42.79400 39.76800 21.10500
H  39.47000 41.21500 21.00200
H  38.87300 42.72900 21.59300
H  38.14100 40.79800 23.66500
H  38.13800 40.00900 22.13700
H  37.14200 41.39800 22.36000
H  38.01400 46.24800 25.40400
H  39.55300 46.25400 24.63200
H  39.36500 47.13100 26.13400
H  39.08100 44.20900 31.02100
H  41.71600 45.26300 34.16400
H  40.71900 46.56600 33.86200
H  42.30200 46.37400 32.91000
Mg 9.43400 48.79800 24.65300
C  7.31300 49.46300 27.36500
C  12.04700 50.05900 26.49500
C  11.38500 48.38800 21.96900
C  6.60100 48.09300 22.65300
N  9.58700 49.59000 26.67600
C  8.65300 49.61500 27.70200
C  9.32800 50.07000 29.00500
C  10.57800 50.78800 28.48200
C  10.76100 50.11100 27.15000
C  10.45300 52.31400 28.27400
C  9.56200 48.87600 29.97000
C  8.75500 48.91400 31.26100
H  8.22200 47.54200 31.81300
N  11.52300 48.96300 24.25600
C  12.42500 49.47900 25.20700
C  13.79300 49.41200 24.53400
C  13.60200 48.81200 23.24800
C  12.12300 48.64800 23.14400
C  15.06400 49.66200 25.38700
C  14.57200 48.33800 22.14300
O  14.16000 47.73100 21.21400
C  16.05100 48.54600 22.23400
N  9.11600 48.46900 22.64200
C  10.08600 48.25600 21.68000
C  9.53900 47.92200 20.30600
C  8.03100 47.60200 20.65100
C  7.87400 48.14000 22.03200
C  9.81500 48.87100 19.17900
C  7.55500 46.05900 20.46700
C  8.25300 45.04300 21.34300
N  7.40800 48.95200 24.82400
C  6.38100 48.59700 23.95100
C  5.09900 48.71500 24.65600
C  5.39500 49.05400 25.92200
C  6.83900 49.15800 26.02000
C  3.74100 48.44500 24.12200
C  4.81700 49.25800 27.23600
O  3.66300 49.24300 27.64600
C  6.05700 49.59000 28.19300
C  5.91400 48.55600 29.25100
O  5.89800 47.33100 29.08400
O  5.58700 49.21400 30.43300
C  5.00700 48.39900 31.52200
H  12.86700 50.58100 26.99200
H  12.08500 48.27400 21.13900
H  5.78800 47.66300 22.06600
H  8.70400 50.78500 29.54100
H  11.33500 50.44200 29.18500
H  9.43700 52.54700 27.95600
H  11.12500 52.75200 27.53600
H  10.57100 52.92800 29.16700
H  10.58700 48.77000 30.32600
H  9.28400 47.97800 29.41800
H  7.86000 49.52500 31.14800
H  9.25300 49.49700 32.03600
H  14.85800 49.85500 26.44000
H  15.55000 50.59500 25.10000
H  15.79300 48.85400 25.33900
H  16.30500 48.69700 23.28400
H  16.41500 49.43800 21.72500
H  16.48800 47.60900 21.89000
H  9.96000 46.98400 19.94300
H  7.37900 48.15700 19.97500
H  10.43000 49.68400 19.56300
H  8.88700 49.35500 18.87600
H  10.28800 48.47100 18.28200
H  7.73300 45.81600 19.41900
H  6.48400 45.91700 20.61200
H  8.57900 45.45500 22.29800
H  9.15200 44.61400 20.90100
H  7.61700 44.17300 21.50300
H  3.67700 48.13400 23.07900
H  3.10400 49.32300 24.22800
H  3.17200 47.65200 24.60700
H  5.90800 50.58300 28.61700
H  5.58400 47.47500 31.56900
H  3.95900 48.23500 31.27200
H  5.12400 48.94500 32.45900

