158

Mg -12.03300 16.94900 41.60000
C  -9.15200 14.96300 41.11900
C  -10.45300 19.48200 40.12000
C  -15.00300 18.50700 41.23800
C  -13.70700 13.96000 42.64900
N  -10.04100 17.13400 40.55300
C  -9.01600 16.23300 40.54100
C  -7.71500 16.81500 40.04100
C  -8.12000 18.34700 40.02900
C  -9.66600 18.30300 40.29500
C  -7.47400 19.30400 41.03800
C  -7.24000 16.15600 38.74400
C  -5.76900 15.84700 38.57400
H  -5.09100 16.39400 37.28600
N  -12.61700 18.78500 40.66800
C  -11.81600 19.74500 40.25200
C  -12.56400 20.94400 39.97100
C  -13.92100 20.69100 40.24400
C  -13.94500 19.28700 40.78100
C  -11.99100 22.23300 39.44900
C  -15.11000 21.64800 40.18100
O  -14.98900 22.87000 40.03600
C  -16.53500 21.16800 40.38900
N  -14.05700 16.31300 41.92500
C  -15.14100 17.21200 41.66100
C  -16.44700 16.37600 41.67800
C  -16.05000 14.98200 42.29500
C  -14.52200 15.05500 42.22900
C  -17.64900 17.15300 42.35800
C  -16.73400 13.81500 41.43000
C  -17.10300 12.47800 42.07500
N  -11.57900 14.92500 41.99800
C  -12.30700 13.88900 42.45800
C  -11.47700 12.73000 42.66200
C  -10.24600 13.12700 42.15600
C  -10.36000 14.48500 41.69000
C  -11.87600 11.37800 43.17700
C  -8.87800 12.69600 41.84900
O  -8.36400 11.59900 42.03400
C  -8.12300 13.84500 41.05600
C  -6.88900 14.15900 41.83300
O  -6.83500 14.83900 42.84100
O  -5.69700 13.66900 41.26500
C  -4.48700 14.34400 41.81100
H  -9.88900 20.38700 39.88600
H  -16.00800 18.93500 41.24400
H  -14.30300 13.05600 42.79100
H  -6.87400 16.64100 40.71300
H  -8.01900 18.76500 39.02700
H  -6.75000 18.68900 41.57100
H  -8.27700 19.69400 41.66300
H  -6.94300 20.24400 40.88400
H  -7.54100 16.84500 37.95500
H  -7.74300 15.21300 38.52700
H  -5.69400 14.76100 38.63300
H  -5.28500 16.26200 39.45800
H  -11.47400 21.94800 38.53200
H  -11.22000 22.50800 40.16800
H  -12.64300 23.03600 39.10600
H  -17.24200 21.96600 40.16200
H  -16.62000 20.90700 41.44400
H  -16.76300 20.28100 39.79800
H  -16.64000 16.33400 40.60600
H  -16.32200 14.98600 43.35000
H  -18.43800 17.31200 41.62300
H  -17.42000 18.06700 42.90600
H  -17.91300 16.56300 43.23500
H  -15.96200 13.50800 40.72500
H  -17.55300 14.22800 40.84200
H  -16.53100 11.68900 41.58800
H  -18.15000 12.22100 41.91600
H  -16.86000 12.42400 43.13700
H  -12.09900 11.62100 44.21600
H  -11.19600 10.54400 43.00300
H  -12.78700 11.21800 42.60100
H  -7.89100 13.57300 40.02600
H  -4.55900 15.42300 41.94300
H  -3.69600 13.99800 41.14400
H  -4.27400 13.98600 42.81800
Mg -5.62800 24.96800 25.92500
C  -3.69300 26.34100 28.55500
C  -7.17300 23.03100 28.30000
C  -7.16200 23.05600 23.44000
C  -3.48500 26.37300 23.61500
N  -5.33900 24.55000 28.13100
C  -4.60700 25.38900 28.99000
C  -5.11400 25.23500 30.44700
C  -6.06500 23.99900 30.34700
C  -6.19900 23.82900 28.82200
C  -5.55000 22.65700 30.93800
C  -5.88600 26.47200 30.89700
C  -5.96300 26.68900 32.40600
H  -5.45000 25.60000 33.44900
N  -7.03000 23.34700 25.87000
C  -7.54500 22.75900 26.93400
C  -8.66200 21.85900 26.57600
C  -8.73600 21.90000 25.20400
C  -7.68700 22.77100 24.71100
C  -9.41600 20.96600 27.57300
C  -9.67700 21.20200 24.29600
O  -9.62900 21.28800 23.05300
C  -10.85300 20.37000 24.88000
N  -5.33300 24.71200 23.93300
C  -6.10400 23.90800 23.09700
C  -5.74900 24.18000 21.61500
C  -4.53500 25.19800 21.63100
C  -4.42000 25.48000 23.17300
C  -5.39300 22.85000 20.84800
C  -4.72100 26.49400 20.71900
C  -3.52700 26.77300 19.87700
N  -3.92400 26.18100 25.96300
C  -3.13700 26.69500 24.99000
C  -2.16700 27.66300 25.47900
C  -2.27900 27.53300 26.85100
C  -3.41000 26.68300 27.14500
C  -1.20200 28.44400 24.55800
C  -1.87900 27.92700 28.17800
O  -1.05700 28.80200 28.58400
C  -2.81000 27.31100 29.27100
C  -1.92900 26.72600 30.29800
O  -1.15800 25.78100 30.08200
O  -2.20900 27.16100 31.57700
C  -1.49200 26.60700 32.76100
H  -7.66300 22.32400 28.97300
H  -7.69700 22.71100 22.55200
H  -2.96100 26.81000 22.76300
H  -4.27300 25.13900 31.13300
H  -7.08100 24.20900 30.68100
H  -4.67800 22.81800 31.57300
H  -5.28700 21.98800 30.11900
H  -6.37000 22.15600 31.45200
H  -6.91200 26.37800 30.54200
H  -5.52300 27.40300 30.46300
H  -6.96100 27.02000 32.69300
H  -5.49600 27.65600 32.59400
H  -10.46100 21.27400 27.59600
H  -9.14900 21.09500 28.62200
H  -9.25800 19.92600 27.28800
H  -10.46400 19.45400 25.32600
H  -11.53900 20.18000 24.05500
H  -11.38600 21.01600 25.57800
H  -6.70600 24.50500 21.20600
H  -3.60700 24.68900 21.36900
H  -5.14700 22.18600 21.67600
H  -4.50500 23.00900 20.23500
H  -6.26000 22.47600 20.30400
H  -4.72500 27.30600 21.44700
H  -5.73900 26.40700 20.33900
H  -3.11500 27.67100 20.33800
H  -3.78900 26.90800 18.82800
H  -2.74100 26.02000 19.94100
H  -1.31400 27.97600 23.58000
H  -0.17600 28.30600 24.90000
H  -1.49600 29.48500 24.42500
H  -3.44400 28.08900 29.69700
H  -0.54400 27.13900 32.84600
H  -1.17500 25.56400 32.72100
H  -2.12100 26.68400 33.64800

