158

Mg 42.23600 41.63000 27.14000
C  41.66700 44.13000 29.42400
C  43.28000 39.49300 29.53500
C  43.33800 39.61200 24.66100
C  41.56800 44.09800 24.53400
N  42.52700 41.85500 29.27300
C  42.08800 42.91700 30.01600
C  42.02600 42.59400 31.50500
C  42.80300 41.18200 31.47700
C  42.88900 40.79000 30.01400
C  44.15600 41.16900 32.21400
C  40.59500 42.60600 32.06100
C  40.35300 42.99000 33.54400
H  39.93200 41.89300 34.49900
N  43.09600 39.76100 27.10400
C  43.44300 39.03500 28.24500
C  43.99300 37.79800 27.87200
C  43.97000 37.70100 26.39600
C  43.53100 39.07300 25.99100
C  44.37300 36.80100 28.87600
C  44.35300 36.59800 25.43400
O  44.28200 36.76200 24.23500
C  44.75200 35.22000 26.02500
N  42.52900 41.87700 24.89000
C  42.82200 40.82600 24.15600
C  42.67200 41.11400 22.63000
C  41.73900 42.38800 22.65400
C  41.98400 42.80500 24.14500
C  43.90600 41.24500 21.70400
C  40.28400 42.10700 22.25000
C  39.34100 41.58700 23.22900
N  41.69300 43.71600 26.98200
C  41.48800 44.55200 25.87800
C  41.07900 45.83800 26.35200
C  41.05500 45.69500 27.72800
C  41.50600 44.38300 28.04700
C  40.59900 47.04000 25.55700
C  40.76700 46.34800 29.03500
O  40.37400 47.47800 29.24800
C  41.19000 45.35200 30.14300
C  42.17000 46.04700 31.07700
O  43.36200 46.25400 30.87500
O  41.61000 46.33900 32.31400
C  42.61300 46.68500 33.30700
H  43.47100 38.88500 30.42200
H  43.53100 38.89300 23.86200
H  41.21300 44.76900 23.74900
H  42.58200 43.38900 32.00200
H  42.16200 40.42200 31.92400
H  44.18400 40.30400 32.87800
H  44.29900 42.13000 32.70800
H  45.05900 41.06600 31.61100
H  40.22400 41.58400 31.97900
H  39.85700 43.04700 31.39100
H  39.57400 43.74500 33.43900
H  41.22800 43.47200 33.97900
H  45.29800 36.31900 28.56200
H  43.66400 35.97600 28.80700
H  44.47600 37.16300 29.89900
H  44.02400 34.76400 26.69700
H  45.73200 35.30600 26.49400
H  44.90900 34.63100 25.12200
H  42.17300 40.22200 22.25100
H  42.21400 43.18000 22.07500
H  43.90400 40.55300 20.86100
H  44.81100 41.14500 22.30300
H  43.94900 42.25200 21.29000
H  40.19000 41.55500 21.31400
H  39.94300 43.03000 21.78200
H  38.27900 41.64100 22.98800
H  39.29900 42.11900 24.17900
H  39.44200 40.51900 23.42600
H  40.35600 47.92000 26.15200
H  39.67700 46.75400 25.05100
H  41.24400 47.43100 24.77100
H  40.34100 45.15200 30.79700
H  43.35200 45.89100 33.41200
H  42.12100 46.70900 34.27900
H  43.12700 47.62500 33.10600
Mg 36.03000 49.60100 26.07400
C  36.39600 47.64800 28.94000
C  34.95300 52.29800 27.94400
C  35.39200 51.31300 23.21200
C  36.42200 46.75200 24.20800
N  35.68100 49.92300 28.13200
C  35.84300 48.96500 29.12700
C  35.45700 49.54300 30.48100
C  34.90300 50.97800 30.21100
C  35.10300 51.08400 28.68100
C  33.33300 51.12900 30.43700
C  36.73000 49.62000 31.47600
C  36.41400 49.34400 32.98400
H  34.96100 49.42200 33.54700
N  35.38400 51.60400 25.63300
C  35.12000 52.59500 26.56300
C  34.94100 53.85700 25.81000
C  35.02700 53.51900 24.44200
C  35.24000 52.12300 24.37500
C  34.67800 55.23000 26.54200
C  34.86100 54.37200 23.17200
O  34.83100 54.00500 22.03600
C  34.55600 55.87900 23.36700
N  35.97500 49.06000 24.00900
C  35.83500 49.96200 22.99700
C  35.69400 49.24300 21.59300
C  36.44200 47.91500 21.99700
C  36.18100 47.87400 23.51700
C  34.22800 49.16700 20.96700
C  37.88600 47.69500 21.54300
C  38.28700 46.34500 20.86200
N  36.41900 47.57200 26.46900
C  36.60000 46.53700 25.62500
C  37.05700 45.35800 26.38900
C  36.93200 45.73300 27.71200
C  36.60500 47.10400 27.69900
C  37.59400 44.07500 25.93500
C  37.05300 45.26300 29.09400
O  37.37000 44.20100 29.56000
C  36.55800 46.55000 29.99000
C  35.32000 46.20200 30.73500
O  34.18400 46.32200 30.28200
O  35.64300 45.66100 31.99900
C  34.41800 45.21900 32.67200
H  34.70200 53.15800 28.56900
H  35.20900 51.82700 22.26600
H  36.70000 45.93300 23.54100
H  34.73200 48.82800 30.87100
H  35.29300 51.77300 30.84600
H  32.92500 51.22900 29.43200
H  33.22000 52.05900 30.99500
H  32.86800 50.32400 31.00600
H  37.11400 50.63800 31.41800
H  37.46700 48.86000 31.21600
H  37.11700 49.89400 33.60900
H  36.73400 48.32500 33.20100
H  35.45300 55.92700 26.22000
H  34.68500 55.21200 27.63200
H  33.69200 55.62600 26.30000
H  35.46000 56.25200 23.85000
H  33.67100 56.12500 23.95400
H  34.64800 56.43900 22.43600
H  36.41000 49.75200 20.94800
H  35.97200 47.10200 21.44500
H  34.11800 48.11200 20.71900
H  34.15800 49.72800 20.03400
H  33.43100 49.56900 21.59200
H  38.45500 47.79200 22.46800
H  38.36500 48.51000 21.00100
H  38.40500 46.66100 19.82500
H  37.48400 45.61000 20.80200
H  39.19400 45.99700 21.35500
H  38.65600 43.97200 26.15800
H  37.39300 43.94000 24.87200
H  37.14400 43.24900 26.48600
H  37.43200 46.78000 30.60000
H  33.78400 46.06600 32.93500
H  34.71700 44.79500 33.63000
H  33.76700 44.56100 32.09700

