158

Mg 24.83200 -5.20200 45.28900
C  26.22000 -2.22600 44.02800
C  21.93700 -4.35500 43.74100
C  23.86500 -8.37100 45.78500
C  28.07700 -6.02100 46.48700
N  24.18700 -3.51900 43.93300
C  24.89600 -2.38500 43.57600
C  24.10300 -1.47900 42.62600
C  22.61800 -1.98400 43.01600
C  22.89900 -3.40000 43.53400
C  21.86900 -1.12600 44.07100
C  24.59100 -1.67400 41.11600
C  25.06800 -0.39800 40.43600
H  26.15100 -0.51200 39.43500
N  23.12900 -6.17100 44.99600
C  22.03700 -5.61700 44.40000
C  20.97400 -6.61600 44.46200
C  21.44800 -7.76200 45.18100
C  22.85400 -7.50200 45.35800
C  19.51800 -6.46300 43.86800
C  20.58800 -8.99100 45.50500
O  19.35800 -9.07100 45.35500
C  21.24000 -10.24500 46.09200
N  25.79900 -6.96300 46.10000
C  25.16600 -8.15300 46.22000
C  26.13400 -9.21100 46.88700
C  27.35000 -8.32300 47.38300
C  27.08800 -7.02600 46.60400
C  25.58600 -10.15300 47.98900
C  28.76200 -8.94900 47.05300
C  29.65400 -9.12000 48.25900
N  26.84500 -4.35900 45.29900
C  27.99700 -4.73000 45.90500
C  29.01500 -3.65600 45.73700
C  28.30600 -2.69600 45.01100
C  27.03800 -3.15500 44.73200
C  30.42200 -3.54000 46.31500
C  28.54700 -1.40900 44.42000
O  29.53200 -0.70900 44.42400
C  27.17100 -1.08900 43.71600
C  26.68600 0.21900 44.26700
O  26.34500 0.52200 45.41100
O  26.67200 1.17900 43.25200
C  26.34700 2.57600 43.60800
H  20.95600 -4.02400 43.39300
H  23.56800 -9.41900 45.86700
H  28.95400 -6.44800 46.97900
H  24.33400 -0.49000 43.02100
H  22.06800 -2.17100 42.09300
H  22.12000 -0.07500 43.92400
H  22.06900 -1.47900 45.08200
H  20.79800 -1.30500 43.97700
H  23.64300 -1.95000 40.65400
H  25.36900 -2.43700 41.08100
H  25.45300 0.16500 41.28600
H  24.29300 0.08600 39.84200
H  18.82000 -6.27400 44.68300
H  19.06400 -7.39100 43.51800
H  19.42800 -5.65500 43.14200
H  20.51900 -11.06100 46.12900
H  21.65200 -9.96900 47.06300
H  21.98400 -10.61200 45.38500
H  26.59300 -9.86900 46.14900
H  27.15500 -8.07300 48.42600
H  25.72100 -11.19100 47.68500
H  24.52300 -9.92000 48.04900
H  25.99100 -10.08700 48.99900
H  29.32100 -8.32700 46.35300
H  28.71700 -9.97200 46.68100
H  29.83900 -10.19400 48.29600
H  29.04500 -8.82300 49.11200
H  30.56400 -8.55500 48.05500
H  30.76700 -4.52600 46.62700
H  30.27100 -3.06200 47.28300
H  31.16600 -3.03900 45.69500
H  27.24700 -1.18000 42.63200
H  27.25400 2.84800 44.14800
H  25.50500 2.73000 44.28400
H  26.18100 3.08100 42.65700
Mg -2.77400 33.98700 26.07400
C  -4.52100 32.50100 28.76900
C  -1.00800 35.97100 28.35600
C  -1.54700 35.80000 23.45700
C  -4.85400 32.37000 23.89600
N  -2.86200 34.31700 28.21600
C  -3.62400 33.50300 29.10600
C  -3.44000 34.02400 30.56300
C  -2.43800 35.19700 30.43100
C  -2.09500 35.17500 28.95500
C  -2.97800 36.57600 30.99000
C  -2.91500 32.82200 31.40700
C  -2.28800 33.21700 32.83100
H  -2.70100 32.40900 34.08000
N  -1.38800 35.57000 25.93600
C  -0.70000 36.19100 27.00300
C  0.25500 37.20200 26.34300
C  0.13300 37.05000 24.97600
C  -0.99200 36.10100 24.70400
C  1.16100 38.02000 27.21400
C  0.91100 37.81200 23.92800
O  0.68000 37.69900 22.76000
C  1.98300 38.68700 24.38500
N  -3.29300 34.23200 24.01200
C  -2.67100 35.04800 23.15600
C  -3.11600 34.86200 21.67900
C  -4.01200 33.53800 21.79000
C  -4.03000 33.34000 23.33900
C  -3.91700 36.07100 21.11600
C  -3.63900 32.27100 21.01100
C  -2.79700 31.22900 21.79800
N  -4.30500 32.62300 26.21200
C  -5.08700 32.05200 25.25200
C  -5.92800 31.05600 25.85100
C  -5.74200 31.24900 27.21400
C  -4.81200 32.22600 27.41200
C  -6.71600 30.04000 25.08800
C  -6.18500 30.75900 28.54300
O  -6.88500 29.82300 28.82900
C  -5.42200 31.58200 29.59400
C  -6.41700 32.24300 30.47200
O  -7.27800 33.01100 30.12200
O  -6.24800 31.79300 31.81400
C  -7.31500 32.14100 32.77000
H  -0.39100 36.55100 29.04500
H  -1.14100 36.27800 22.56300
H  -5.45000 31.75000 23.22400
H  -4.40300 34.37900 30.93100
H  -1.49400 35.10100 30.96700
H  -2.71500 37.43000 30.36600
H  -2.42900 36.86700 31.88600
H  -4.02100 36.57800 31.30900
H  -2.11700 32.36300 30.82200
H  -3.59500 32.01500 31.67800
H  -2.74300 34.17900 33.06800
H  -1.21600 33.38400 32.72200
H  1.03900 37.77400 28.26900
H  0.92900 39.07400 27.06400
H  2.23500 38.02400 27.02900
H  1.65500 39.68900 24.66100
H  2.68700 38.80100 23.56100
H  2.65900 38.15800 25.05700
H  -2.22800 34.52400 21.14500
H  -5.03500 33.79800 21.51800
H  -3.92000 36.91800 21.80200
H  -4.96400 35.94000 20.84200
H  -3.40200 36.36500 20.20100
H  -3.07300 32.63500 20.15400
H  -4.57900 31.82600 20.68500
H  -2.26100 31.66300 22.64200
H  -2.07100 30.68700 21.19100
H  -3.42200 30.42000 22.17500
H  -6.14300 29.16300 24.78700
H  -7.26000 30.49500 24.26100
H  -7.53800 29.75000 25.74200
H  -4.79600 30.87400 30.13700
H  -6.72600 32.26300 33.67900
H  -7.95500 31.28500 32.98800
H  -7.87600 33.01300 32.43500

