158

Mg 42.76400 41.37500 26.36300
C  41.83000 43.55600 29.10700
C  44.07000 39.22800 28.94000
C  43.71700 39.29400 24.07500
C  42.01600 43.78600 24.09800
N  42.90900 41.33400 28.80800
C  42.43800 42.38000 29.61900
C  42.50000 41.81800 31.12600
C  43.54000 40.62500 30.97700
C  43.54900 40.44000 29.52900
C  44.98900 40.86200 31.47000
C  41.03700 41.57800 31.76300
C  40.71800 41.41900 33.33500
H  41.82900 41.32000 34.31700
N  43.65200 39.46600 26.45900
C  44.15500 38.79300 27.56700
C  44.64000 37.53400 27.07700
C  44.44400 37.46000 25.63700
C  43.99100 38.76900 25.31300
C  45.18400 36.45800 28.01200
C  44.52800 36.33400 24.65000
O  44.37700 36.48600 23.43900
C  44.88200 34.91500 25.16300
N  42.81700 41.52300 24.37700
C  43.30900 40.57400 23.60900
C  43.31200 40.97400 22.10800
C  42.57200 42.30900 22.08500
C  42.40400 42.56200 23.64000
C  44.66900 41.12800 21.35900
C  41.27300 42.29900 21.40000
C  40.26600 41.17500 21.62500
N  41.99000 43.24000 26.47000
C  41.72900 44.18700 25.45700
C  41.30300 45.37900 26.04600
C  41.32000 45.19500 27.44500
C  41.70200 43.81900 27.65700
C  40.98900 46.64100 25.25800
C  41.11700 45.88900 28.71100
O  40.77500 47.05100 28.95700
C  41.23600 44.76400 29.87400
C  42.02400 45.34300 30.90300
O  43.05800 45.91700 30.68400
O  41.54000 44.92200 32.12700
C  42.58900 45.05500 33.13600
H  44.54700 38.62100 29.71100
H  43.97800 38.71600 23.18600
H  41.79300 44.58500 23.38700
H  42.93800 42.60100 31.74500
H  43.18600 39.63900 31.27700
H  45.26600 41.89500 31.68100
H  45.69500 40.47700 30.73500
H  45.08000 40.22900 32.35300
H  40.75500 40.64500 31.27500
H  40.44200 42.35300 31.27900
H  40.32300 40.42200 33.53000
H  39.93400 42.14500 33.55200
H  45.36600 36.81900 29.02500
H  46.15600 36.10900 27.66500
H  44.56800 35.56100 27.94000
H  44.01200 34.51600 25.68500
H  45.74300 34.89200 25.83100
H  45.14800 34.22700 24.36100
H  42.73100 40.22900 21.56400
H  43.14300 43.04800 21.52200
H  44.82600 42.08900 20.86900
H  44.59700 40.40000 20.55100
H  45.55000 40.96700 21.98000
H  41.52500 42.36700 20.34200
H  40.77000 43.24500 21.60000
H  40.67300 40.37500 22.24200
H  39.98400 40.63300 20.72300
H  39.41100 41.63100 22.12500
H  40.50400 46.43300 24.30400
H  41.95200 47.15100 25.29700
H  40.30700 47.22400 25.87700
H  40.23900 44.49300 30.22000
H  42.89800 46.10000 33.15600
H  43.43700 44.39600 32.94800
H  42.18000 44.88200 34.13100
Mg 1.04400 42.17700 25.44000
C  3.06800 42.16500 28.34200
C  -1.59800 41.21100 27.39000
C  -0.70200 41.53100 22.54500
C  3.84600 42.95300 23.63800
N  0.80000 41.60400 27.64700
C  1.66900 41.97600 28.63100
C  1.06000 42.00200 30.05600
C  -0.35800 41.45500 29.67200
C  -0.42600 41.43200 28.17400
C  -0.66500 40.01100 30.21100
C  0.91800 43.38900 30.74000
C  1.29700 43.44000 32.27400
H  0.72600 42.24100 33.04200
N  -0.87500 41.53300 25.01600
C  -1.81400 41.24300 25.95900
C  -3.03800 40.96100 25.31500
C  -2.82300 40.99800 23.86800
C  -1.39800 41.37300 23.74200
C  -4.34600 40.60600 26.03900
C  -3.67600 40.62600 22.70300
O  -3.37900 40.69700 21.54400
C  -5.08700 40.31300 22.92700
N  1.49000 42.21900 23.37300
C  0.63300 41.88700 22.35600
C  1.33200 41.99100 21.00600
C  2.74300 42.69200 21.43400
C  2.71900 42.64600 22.92000
C  1.50700 40.65500 20.21600
C  2.91100 44.16500 20.98700
C  4.07000 44.55200 20.11200
N  3.07700 42.49800 25.83400
C  4.10200 42.86700 24.98000
C  5.31900 42.96400 25.68600
C  5.04900 42.61600 27.08000
C  3.65500 42.35000 27.09100
C  6.71500 43.20600 25.11600
C  5.52000 42.41700 28.42500
O  6.64400 42.49800 28.89600
C  4.23500 42.29800 29.34400
C  4.37700 41.19500 30.30000
O  4.03200 40.05900 30.01700
O  4.67000 41.64600 31.53000
C  4.50800 40.68200 32.63400
H  -2.44800 41.25000 28.07400
H  -1.15400 41.23900 21.59500
H  4.64300 43.30700 22.98100
H  1.43300 41.25800 30.76100
H  -1.15500 42.11400 30.01700
H  -1.64500 39.96000 30.68600
H  0.07500 39.70300 30.95100
H  -0.74400 39.37300 29.33200
H  -0.09800 43.78400 30.75100
H  1.62500 44.13900 30.38500
H  0.83200 44.32700 32.70400
H  2.38000 43.56500 32.29900
H  -5.07500 41.41100 25.94600
H  -4.29000 40.53600 27.12600
H  -4.77000 39.67800 25.65600
H  -5.31400 39.38600 23.45300
H  -5.64900 40.38000 21.99600
H  -5.56600 41.14700 23.44000
H  0.66600 42.61400 20.40900
H  3.59000 42.03900 21.22200
H  0.81700 39.95900 20.69200
H  2.45900 40.12400 20.21300
H  1.25900 40.81600 19.16700
H  2.99700 44.85800 21.82300
H  2.04500 44.47600 20.40200
H  4.47400 45.45800 20.56300
H  3.84700 44.70800 19.05600
H  4.81600 43.75900 20.15300
H  6.62500 43.94300 24.31900
H  7.19800 42.31900 24.70400
H  7.40800 43.40300 25.93500
H  4.21700 43.28500 29.80500
H  5.49600 40.31800 32.91400
H  3.79700 39.86900 32.48500
H  4.14200 41.12900 33.55800

