158

Mg 45.09900 4.77200 46.31400
C  43.11300 7.58800 46.07500
C  42.26700 2.74000 46.13900
C  47.18800 2.09200 45.54300
C  47.91500 6.79200 45.72800
N  42.89600 5.13600 45.96700
C  42.34800 6.38100 45.97000
C  40.84300 6.31300 45.79100
C  40.56400 4.77000 46.13600
C  41.96000 4.11000 46.16100
C  39.83400 4.60500 47.58400
C  40.09100 6.90400 44.58000
C  41.02800 7.38500 43.39300
H  40.38300 7.48800 41.98400
N  44.78400 2.73500 45.78900
C  43.53000 2.12800 45.83800
C  43.78700 0.71600 45.83500
C  45.14400 0.47300 45.54800
C  45.79200 1.80100 45.57600
C  42.69200 -0.24600 46.14800
C  45.81500 -0.82100 45.17000
O  45.06300 -1.76400 45.27100
C  47.22000 -1.11400 44.67500
N  47.30000 4.46900 45.76400
C  47.88200 3.25600 45.61400
C  49.47400 3.44700 45.61000
C  49.58000 4.93500 45.03400
C  48.18200 5.43100 45.50700
C  50.12800 3.12100 46.99300
C  49.77100 5.00100 43.47000
C  51.22500 5.33700 42.91400
N  45.50500 6.76700 46.13800
C  46.72200 7.46400 46.05100
C  46.42800 8.88300 46.14300
C  45.07400 8.97000 46.25700
C  44.52200 7.67900 46.10600
C  47.23200 10.05600 46.00300
C  43.99700 9.89200 46.47900
O  43.92600 11.07900 46.64400
C  42.70800 9.03900 46.49200
C  41.97500 9.14400 47.77500
O  41.78500 8.31400 48.69300
O  41.34300 10.30400 47.76600
C  40.71400 10.71700 49.01500
H  41.37700 2.12300 46.28100
H  47.86400 1.23700 45.61800
H  48.77500 7.46500 45.70500
H  40.52400 6.94800 46.61800
H  39.98000 4.23000 45.39100
H  39.49000 5.50000 48.10300
H  40.58200 4.11400 48.20600
H  38.94200 3.98100 47.65000
H  39.49600 7.69500 45.03600
H  39.51000 6.06200 44.20500
H  41.89900 6.73100 43.34600
H  41.36900 8.35000 43.76800
H  42.68100 -0.84300 45.23600
H  41.69400 0.16600 46.30000
H  42.94400 -0.90200 46.98100
H  47.31100 -2.10900 44.23900
H  47.80300 -1.08700 45.59600
H  47.38800 -0.29600 43.97400
H  49.96300 2.77600 44.90400
H  50.24600 5.44900 45.72600
H  49.19800 2.91700 47.52400
H  50.60500 3.97400 47.47500
H  50.83800 2.31400 46.81000
H  49.06000 5.70600 43.04000
H  49.51000 4.01600 43.08500
H  51.61900 4.49900 42.34000
H  51.96600 5.56800 43.67900
H  51.27700 6.29700 42.40000
H  47.34200 10.11600 44.92000
H  48.24400 10.03100 46.40600
H  46.67100 10.89600 46.41300
H  42.01900 9.45300 45.75500
H  41.40200 11.04200 49.79600
H  40.15200 9.90300 49.47400
H  39.99900 11.52500 48.86200
Mg -2.00100 33.97300 26.70300
C  -3.64000 32.87400 29.49900
C  -0.17600 36.11000 28.70400
C  -0.53200 35.20200 23.94000
C  -3.86700 31.84200 24.70400
N  -1.80200 34.30900 28.93400
C  -2.66900 33.70800 29.83600
C  -2.29500 34.14500 31.23900
C  -1.19600 35.22100 30.99000
C  -0.96800 35.22000 29.41600
C  -1.37200 36.61100 31.58200
C  -1.87300 32.88600 32.05200
C  -2.68200 32.43100 33.28000
H  -2.02500 32.26000 34.63800
N  -0.53700 35.48300 26.33400
C  0.05500 36.27400 27.31200
C  0.92300 37.27900 26.64400
C  0.90000 36.87100 25.29500
C  -0.08400 35.84700 25.11300
C  1.88000 38.25800 27.42000
C  1.55600 37.70000 24.18100
O  1.59100 37.34700 23.03400
C  2.03100 39.03500 24.49100
N  -2.32000 33.72100 24.57000
C  -1.49700 34.26300 23.69300
C  -1.77100 33.79500 22.27700
C  -2.47300 32.48900 22.59500
C  -2.99200 32.68500 24.05300
C  -2.55600 34.77500 21.33100
C  -1.60400 31.21700 22.48800
C  -2.13500 29.97900 21.67500
N  -3.39200 32.63200 26.95700
C  -4.15500 31.79800 26.08500
C  -5.19000 31.14700 26.87500
C  -5.00500 31.53100 28.17300
C  -3.92800 32.38200 28.20200
C  -6.14800 30.11300 26.30500
C  -5.45400 31.26600 29.51100
O  -6.28200 30.51600 29.97300
C  -4.60900 32.18500 30.40000
C  -5.63400 33.03300 31.07700
O  -5.96000 34.14200 30.65100
O  -6.12700 32.40000 32.23600
C  -6.74400 33.26200 33.21500
H  0.47800 36.77300 29.27400
H  -0.18300 35.73800 23.05500
H  -4.27700 31.06600 24.05500
H  -3.22700 34.55800 31.62500
H  -0.29900 34.81400 31.45600
H  -2.30300 36.67200 32.14700
H  -1.44500 37.33800 30.77300
H  -0.51500 36.80200 32.22800
H  -0.85300 32.93500 32.43500
H  -1.75600 32.13400 31.27200
H  -2.95900 31.39600 33.07600
H  -3.63800 32.95400 33.31500
H  1.58200 38.32100 28.46700
H  1.96300 39.28700 27.06900
H  2.89000 37.87500 27.27500
H  1.29200 39.66300 24.99000
H  2.41400 39.52100 23.59400
H  2.95200 38.98600 25.07200
H  -0.76800 33.77700 21.84900
H  -3.35700 32.39300 21.96500
H  -2.88000 35.65700 21.88400
H  -3.53400 34.49500 20.93900
H  -1.93200 35.21500 20.55300
H  -1.42900 30.87700 23.50900
H  -0.64300 31.44800 22.02800
H  -1.41800 29.75900 20.88400
H  -3.05100 30.26200 21.15600
H  -2.30200 29.09400 22.28800
H  -6.91700 30.57800 25.68800
H  -6.73500 29.62200 27.08100
H  -5.48800 29.45900 25.73500
H  -4.08500 31.61700 31.16900
H  -7.36600 34.05800 32.80600
H  -5.94400 33.73000 33.78900
H  -7.50200 32.61500 33.65700

