158

Mg 16.88700 -1.64600 28.54900
C  15.75100 0.66200 31.09900
C  18.95200 -3.08900 30.90000
C  18.42100 -3.22400 26.04900
C  15.10200 0.36700 26.24300
N  17.45900 -1.08800 30.73400
C  16.66200 -0.32300 31.56900
C  17.20000 -0.45200 33.06600
C  18.34300 -1.58300 32.95700
C  18.24400 -1.98000 31.43700
C  19.80500 -1.14600 33.34400
C  16.00700 -0.82700 33.94300
C  15.86900 -0.02200 35.35100
H  17.10800 0.52300 36.06200
N  18.44200 -3.00800 28.47200
C  19.13800 -3.54300 29.55200
C  19.90500 -4.73700 29.06800
C  19.63800 -4.83700 27.67300
C  18.78000 -3.72000 27.31200
C  20.67600 -5.53800 30.03000
C  20.29200 -5.74300 26.70600
O  20.20700 -5.72400 25.49500
C  21.12500 -6.91300 27.17400
N  16.79600 -1.39400 26.45100
C  17.58400 -2.10800 25.62700
C  17.22400 -1.90300 24.17400
C  15.95200 -0.88200 24.21500
C  15.86100 -0.65200 25.75100
C  18.42600 -1.22200 23.36300
C  14.68600 -1.55700 23.60600
C  13.68300 -0.68400 22.87200
N  15.62200 0.03200 28.64300
C  14.92500 0.69500 27.62400
C  14.18200 1.83300 28.19500
C  14.39100 1.75600 29.55500
C  15.33100 0.72300 29.73600
C  13.21900 2.74600 27.37600
C  14.01100 2.34900 30.82900
O  13.18600 3.25000 31.07500
C  14.93700 1.69600 31.85600
C  15.80200 2.76400 32.35600
O  16.41000 3.42900 31.58300
O  15.89500 2.84900 33.68800
C  16.76100 3.94600 34.16600
H  19.47500 -3.70200 31.63800
H  18.88600 -3.79700 25.24400
H  14.40500 0.85600 25.55800
H  17.63800 0.51900 33.30000
H  18.22300 -2.51000 33.51700
H  19.76400 -0.17900 33.84600
H  20.18000 -0.91400 32.34700
H  20.32600 -1.87400 33.96700
H  16.07000 -1.88900 34.17800
H  15.06700 -0.54100 33.47100
H  15.49900 -0.81500 36.00000
H  15.13800 0.78300 35.27000
H  20.50000 -5.25500 31.06800
H  21.76000 -5.47000 29.93900
H  20.37400 -6.58200 29.94300
H  21.87200 -6.52500 27.86600
H  21.65000 -7.40600 26.35500
H  20.44500 -7.56400 27.72400
H  17.02400 -2.88900 23.75700
H  16.20500 0.08300 23.77500
H  18.19000 -0.18500 23.12300
H  18.60800 -1.78200 22.44600
H  19.33900 -1.09700 23.94500
H  14.20200 -2.10400 24.41500
H  15.01300 -2.33800 22.91900
H  14.13600 0.30300 22.78300
H  12.80800 -0.58700 23.51500
H  13.25000 -0.87200 21.89000
H  13.11500 3.73000 27.83400
H  12.18000 2.41900 27.33900
H  13.60500 2.78400 26.35700
H  14.36500 1.32900 32.70800
H  16.63600 4.11100 35.23600
H  16.55700 4.90800 33.69500
H  17.81700 3.82100 33.92600
Mg 48.98800 46.87700 43.01800
C  45.61500 47.21500 42.37400
C  49.16500 44.18200 41.04000
C  52.38300 46.96600 43.37900
C  48.83200 50.18300 44.42400
N  47.58200 46.02400 41.60800
C  46.22900 46.19400 41.65800
C  45.58000 45.34000 40.61500
C  46.65900 44.22400 40.31700
C  47.89300 44.77900 41.06400
C  46.22400 42.85800 40.83300
C  45.12800 46.20300 39.42200
C  43.56600 46.12700 39.15400
H  43.02100 45.45700 37.77000
N  50.50600 45.62300 42.42100
C  50.39500 44.53500 41.59600
C  51.68700 43.81100 41.45300
C  52.60600 44.54600 42.32200
C  51.85900 45.77400 42.75000
C  51.96800 42.54800 40.62900
C  54.03300 44.08300 42.77500
O  54.61900 43.14100 42.17300
C  54.74700 44.71500 44.06500
N  50.44400 48.36200 43.68600
C  51.74400 48.04800 43.93400
C  52.47200 49.29600 44.55400
C  51.30400 50.22700 44.88300
C  50.10800 49.58600 44.25000
C  53.36000 48.99400 45.72200
C  51.48900 51.65500 44.56900
C  50.99400 52.06800 43.18600
N  47.52500 48.40500 43.43200
C  47.60100 49.66100 43.97700
C  46.29900 50.29200 43.90200
C  45.37400 49.28900 43.42000
C  46.24700 48.22100 43.08300
C  46.03200 51.67000 44.31600
C  43.97400 48.92600 43.01200
O  42.88400 49.51900 43.10200
C  44.15800 47.45900 42.41000
C  43.39400 46.46600 43.15900
O  43.73800 45.90300 44.21300
O  42.12600 46.38100 42.60700
C  41.28100 45.31100 43.20400
H  49.11500 43.39300 40.28600
H  53.47300 47.02200 43.42000
H  48.76600 51.21200 44.78400
H  44.71900 44.80700 41.01800
H  46.75300 44.18100 39.23100
H  46.50800 42.06800 40.13700
H  45.18200 42.59300 41.01200
H  46.77300 42.74000 41.76700
H  45.63500 45.88700 38.51100
H  45.37300 47.25100 39.59900
H  43.39100 47.20100 39.09100
H  42.85200 45.75300 39.88800
H  52.88300 42.49200 40.03900
H  51.13200 42.46000 39.93400
H  51.86200 41.68600 41.28700
H  55.34900 45.58500 43.80400
H  55.37700 43.89700 44.41500
H  53.99800 45.02500 44.79400
H  53.04500 49.69100 43.71500
H  51.11300 50.08900 45.94700
H  53.28300 47.94000 45.98900
H  53.29200 49.73200 46.52000
H  54.36300 49.06100 45.30000
H  52.54100 51.93600 44.61500
H  50.90000 52.14900 45.34200
H  51.60800 52.90700 42.86000
H  49.97700 52.45700 43.14700
H  51.19000 51.25300 42.48800
H  45.03400 51.89500 43.93800
H  46.72200 52.38100 43.86200
H  46.07400 51.75300 45.40200
H  43.62600 47.54600 41.46200
H  41.87300 44.42000 43.41300
H  40.43300 45.00100 42.59200
H  40.77500 45.57200 44.13300

