158

Mg 47.55800 16.39800 28.62100
C  45.68500 16.26100 31.52100
C  49.87800 18.40600 30.28500
C  49.06600 17.14600 25.62500
C  44.76700 15.23900 26.82800
N  47.67100 17.48100 30.60800
C  46.83700 17.10900 31.67300
C  47.45700 17.55900 33.02000
C  48.72500 18.45700 32.57700
C  48.77500 18.17500 31.05400
C  48.60900 19.99600 32.92500
C  47.82900 16.32600 33.97500
C  47.12800 16.28500 35.33400
H  47.20300 17.62800 36.11000
N  49.31000 17.49200 28.03400
C  50.18700 18.12400 28.88200
C  51.33300 18.70600 28.14000
C  51.14700 18.26300 26.79000
C  49.81500 17.61600 26.76500
C  52.49800 19.37700 28.76600
C  52.06700 18.32000 25.61600
O  51.84300 17.98700 24.45300
C  53.44100 18.65100 25.80000
N  47.12600 16.00600 26.48100
C  47.79100 16.56400 25.48300
C  47.07400 16.40200 24.21200
C  45.88200 15.47100 24.51700
C  45.88700 15.58300 26.04300
C  46.57200 17.64400 23.37600
C  46.02000 13.97900 24.00500
C  44.96700 13.60600 22.90200
N  45.74600 15.68200 29.08100
C  44.65300 15.22600 28.21200
C  43.53600 14.85200 29.00700
C  43.95200 15.10200 30.34800
C  45.22500 15.76400 30.30400
C  42.30600 14.16100 28.58300
C  43.51500 15.09200 31.68200
O  42.41200 14.77300 32.12800
C  44.67700 15.73900 32.53100
C  43.93800 16.89000 33.20800
O  43.95500 18.05000 32.72000
O  43.30200 16.43200 34.40200
C  42.22700 17.34600 34.76600
H  50.65300 18.98800 30.78800
H  49.53800 17.28100 24.64900
H  43.84900 14.99900 26.28800
H  46.65000 18.15800 33.44300
H  49.64600 18.10300 33.04100
H  48.44800 20.46000 31.95200
H  49.48200 20.39200 33.44400
H  47.71100 20.27500 33.47600
H  48.91200 16.36300 34.09200
H  47.60500 15.39600 33.45300
H  47.62500 15.53700 35.95200
H  46.09300 15.95300 35.25200
H  53.19500 18.54300 28.85700
H  52.22000 19.80200 29.73100
H  52.91400 20.19400 28.17800
H  54.08900 18.45200 24.94600
H  53.73100 18.01000 26.63200
H  53.49700 19.72900 25.95200
H  47.79500 15.96900 23.51900
H  44.88700 15.78700 24.20300
H  45.48300 17.68600 23.36000
H  46.92600 17.56600 22.34800
H  46.93700 18.57800 23.80200
H  45.83500 13.30700 24.84300
H  47.03700 13.83200 23.64000
H  45.13200 12.62700 22.45400
H  44.95000 14.36800 22.12200
H  43.99900 13.54300 23.39900
H  41.47800 14.41400 29.24600
H  42.36600 13.08000 28.46200
H  42.07500 14.47100 27.56400
H  45.10700 14.99000 33.19600
H  41.38900 17.11200 34.10800
H  42.41600 18.41400 34.87300
H  41.76300 17.12900 35.72800
Mg 31.44300 58.69800 39.82900
C  28.80800 56.83000 38.53600
C  33.53500 56.07000 39.56300
C  33.98300 60.93900 39.97700
C  29.15900 61.43100 40.31400
N  31.23300 56.77200 38.92500
C  30.03600 56.16000 38.49400
C  30.38400 54.73200 37.99700
C  31.70500 54.49400 38.76100
C  32.18500 55.84000 39.21800
C  31.62600 53.46900 39.98600
C  30.51500 54.48600 36.39100
C  29.38300 53.79400 35.60500
H  28.53900 54.62700 34.61000
N  33.49700 58.54100 39.67600
C  34.16600 57.38400 39.65000
C  35.56800 57.66400 39.49500
C  35.78300 59.01800 39.72900
C  34.40100 59.59000 39.80500
C  36.55100 56.55300 39.21800
C  37.13400 59.73500 39.92600
O  38.17800 59.08200 39.86100
C  37.28100 61.15800 40.21800
N  31.58400 60.93300 40.05800
C  32.76400 61.58300 40.17100
C  32.54700 63.10600 40.45100
C  31.03900 63.21300 40.79900
C  30.47600 61.75600 40.39500
C  33.68600 63.66000 41.34400
C  30.24800 64.33600 39.97300
C  29.43700 65.29600 40.85300
N  29.33800 59.07000 39.57400
C  28.53300 60.22500 39.82200
C  27.16500 59.92100 39.42900
C  27.20900 58.57900 39.01400
C  28.54300 58.17900 39.02200
C  26.02200 60.89400 39.37600
C  26.40700 57.48900 38.49600
O  25.20700 57.41900 38.24000
C  27.41800 56.30800 38.06900
C  26.93900 55.17300 38.93500
O  27.47500 54.89900 40.00100
O  25.87400 54.61600 38.37600
C  25.49300 53.34900 38.99200
H  34.14400 55.17500 39.71000
H  34.81100 61.61700 40.19400
H  28.46700 62.21300 40.63300
H  29.55800 54.06500 38.24200
H  32.46800 54.02000 38.14500
H  31.92400 52.44400 39.76400
H  30.58800 53.32300 40.28500
H  32.14700 53.82400 40.87600
H  31.43900 54.03000 36.03500
H  30.57900 55.51700 36.04100
H  28.65100 53.44700 36.33400
H  29.73400 52.92000 35.05700
H  36.96900 56.62500 38.21400
H  36.08500 55.58100 39.37700
H  37.30400 56.49200 40.00300
H  36.87200 61.75300 39.40100
H  38.28800 61.57700 40.23500
H  36.86400 61.34400 41.20800
H  32.66800 63.59100 39.48200
H  30.91600 63.38400 41.86800
H  34.16700 62.85900 41.90400
H  33.20900 64.26000 42.11800
H  34.43200 64.34300 40.93800
H  29.55700 63.83200 39.29700
H  30.98900 64.85600 39.36700
H  29.60400 66.33800 40.57900
H  29.75900 65.29700 41.89400
H  28.37900 65.04600 40.77700
H  25.14600 60.26600 39.21300
H  26.20800 61.50000 38.48900
H  25.87600 61.41700 40.32100
H  27.41400 55.96700 37.03400
H  25.17100 53.59200 40.00400
H  26.29700 52.61400 38.95200
H  24.62200 53.05600 38.40600

