158

Mg 48.15000 15.95100 28.49100
C  46.06300 15.72800 31.32100
C  50.40800 17.61700 30.38300
C  49.71800 16.65100 25.67800
C  45.30500 15.02500 26.58400
N  48.19500 16.70600 30.55100
C  47.29200 16.39900 31.58700
C  47.85700 16.93500 32.91700
C  49.05400 17.84500 32.49300
C  49.23100 17.44600 31.06400
C  48.94100 19.37300 32.84300
C  48.25000 15.79600 33.80300
C  47.83100 15.96400 35.31600
H  47.46300 17.41200 35.80300
N  49.93400 16.87600 28.06200
C  50.79600 17.43700 29.02600
C  52.00500 17.88700 28.28100
C  51.87300 17.44900 26.92100
C  50.44900 16.97700 26.86200
C  53.13000 18.72200 28.92100
C  52.76900 17.39600 25.76200
O  52.48100 16.95100 24.69500
C  54.26200 17.68600 26.01400
N  47.61500 15.70300 26.44700
C  48.48300 16.01600 25.49100
C  47.91000 15.80000 24.08700
C  46.57200 15.10000 24.34500
C  46.48400 15.32200 25.87000
C  47.77300 17.01700 23.03700
C  46.57900 13.56700 24.00600
C  47.43400 12.61000 24.89200
N  46.12300 15.30100 28.81100
C  45.12700 14.98100 28.01100
C  43.98100 14.42900 28.76400
C  44.31700 14.68800 30.07000
C  45.59400 15.29300 30.02300
C  42.86700 13.64700 28.19500
C  43.88700 14.60800 31.43400
O  42.86600 14.11300 31.93100
C  44.94200 15.40900 32.25400
C  44.21300 16.53400 32.94700
O  43.80100 17.55400 32.45700
O  44.08000 16.26400 34.30100
C  43.18700 17.16900 35.01200
H  51.14700 18.10300 31.02400
H  50.09800 16.91300 24.68800
H  44.54800 14.68200 25.87500
H  47.00500 17.49400 33.30400
H  49.99900 17.69900 33.01600
H  49.10700 20.00600 31.97100
H  49.57200 19.59400 33.70400
H  47.90900 19.53600 33.15300
H  49.33900 15.78300 33.77600
H  47.98000 14.86600 33.30300
H  48.69600 15.61800 35.88200
H  47.04700 15.23200 35.51200
H  53.33900 19.53200 28.22200
H  53.95400 18.07000 29.21200
H  52.65000 19.04500 29.84500
H  54.68800 17.44600 26.98800
H  54.33500 18.76200 25.85400
H  54.90900 17.30500 25.22400
H  48.57300 15.10600 23.57000
H  45.74200 15.54300 23.79500
H  48.20100 17.95900 23.38100
H  46.73600 17.19600 22.75200
H  48.26700 16.66400 22.13200
H  47.01500 13.57000 23.00700
H  45.55800 13.20300 23.89100
H  47.86400 11.97700 24.11600
H  46.89200 11.92100 25.54000
H  48.32400 12.94800 25.42300
H  43.35500 12.69700 27.97800
H  42.63600 14.07300 27.21800
H  41.97900 13.44000 28.79300
H  45.48600 14.83500 33.00400
H  42.43700 17.52600 34.30700
H  43.86500 17.90400 35.44600
H  42.66500 16.64200 35.81100
Mg 36.12600 49.25000 25.48300
C  35.96700 47.41500 28.53900
C  35.38300 52.08100 27.33500
C  35.98600 50.93200 22.59300
C  36.33000 46.22600 23.73000
N  35.77400 49.70700 27.71900
C  35.73600 48.78600 28.75300
C  35.64300 49.56600 30.15300
C  35.20400 50.99400 29.60600
C  35.46900 50.95900 28.14500
C  33.72000 51.35500 29.83900
C  36.89900 49.42500 31.05200
C  36.64300 48.95500 32.50900
H  35.24300 49.29200 33.14400
N  35.83500 51.25600 25.06600
C  35.56600 52.26200 25.93700
C  35.54200 53.54000 25.16600
C  35.79700 53.23100 23.80000
C  35.92300 51.78400 23.76700
C  35.41700 54.85700 25.83400
C  36.00400 54.17200 22.61700
O  36.33700 53.83300 21.49300
C  35.64500 55.55400 22.72700
N  35.85600 48.65100 23.48900
C  35.84800 49.58900 22.53600
C  35.92500 48.86400 21.16100
C  36.38000 47.38200 21.53100
C  36.09900 47.40700 23.00900
C  34.59900 48.98900 20.43000
C  37.97800 47.16400 21.33700
C  38.26300 46.29800 20.11900
N  36.08100 47.28900 25.97200
C  36.22500 46.16300 25.14300
C  36.27600 44.97700 25.94500
C  36.12000 45.42100 27.28800
C  36.13300 46.82400 27.27300
C  36.31000 43.54200 25.43600
C  36.08000 45.04200 28.68600
O  36.15100 43.91400 29.21800
C  35.99900 46.30700 29.56000
C  34.69100 46.14200 30.33200
O  33.56500 46.25400 29.84200
O  34.89600 45.80500 31.63300
C  33.56600 45.54100 32.30200
H  35.15200 52.96200 27.93700
H  36.00100 51.38900 21.60200
H  36.45200 45.31400 23.14200
H  34.79900 49.12300 30.68200
H  35.82800 51.74400 30.09200
H  33.28200 50.68300 30.57800
H  33.00900 51.30900 29.01500
H  33.67900 52.38100 30.20500
H  37.45700 50.36100 31.08700
H  37.51400 48.68700 30.53800
H  37.39700 49.50200 33.07500
H  36.79800 47.89600 32.71600
H  36.31500 55.45400 25.67200
H  35.54300 54.77800 26.91300
H  34.50500 55.35000 25.49900
H  34.56300 55.61300 22.84000
H  35.86900 56.08900 21.80300
H  36.13500 56.04200 23.56900
H  36.68000 49.31500 20.51800
H  35.71000 46.76000 20.93700
H  34.24900 48.00900 20.10500
H  34.63400 49.74200 19.64300
H  33.82600 49.21700 21.16500
H  38.50800 46.73400 22.18700
H  38.47000 48.11600 21.13900
H  38.81200 45.38100 20.33400
H  38.82700 46.89800 19.40400
H  37.35000 45.98500 19.61300
H  37.17400 43.51800 24.77100
H  35.44100 43.33400 24.81200
H  36.37300 42.82600 26.25500
H  36.88800 46.35200 30.18900
H  32.80300 46.29000 32.09300
H  33.80200 45.47800 33.36500
H  33.27700 44.51800 32.06000

