158

Mg -0.76200 7.39800 26.36100
C  0.11100 9.44100 29.10900
C  -0.73700 4.80800 28.61500
C  -1.19700 5.39000 23.76700
C  -0.35900 10.10100 24.32800
N  -0.46800 7.17300 28.66100
C  -0.18200 8.21000 29.58400
C  -0.34400 7.73200 31.05800
C  -0.40500 6.12700 30.85300
C  -0.58300 6.00000 29.28800
C  0.90000 5.41300 31.39900
C  -1.70300 8.35500 31.67200
C  -1.75100 8.44600 33.17300
H  -0.51600 7.97200 33.92800
N  -0.95700 5.39400 26.21300
C  -0.87500 4.50100 27.19700
C  -0.79400 3.16100 26.53900
C  -1.03000 3.27600 25.13500
C  -1.09900 4.70500 24.99300
C  -0.69600 2.00500 27.35900
C  -1.14300 2.19500 24.06900
O  -1.34200 2.45400 22.88200
C  -1.35700 0.72000 24.50800
N  -0.93600 7.70100 24.37500
C  -1.04600 6.73400 23.46200
C  -1.31100 7.25800 22.03300
C  -1.34900 8.76700 22.35400
C  -0.83300 8.93900 23.77000
C  -0.20700 6.73900 21.10400
C  -2.86100 9.41200 22.31700
C  -2.97100 10.99200 22.05400
N  -0.33200 9.38900 26.55900
C  -0.12800 10.36500 25.62500
C  0.21000 11.64400 26.24300
C  0.37100 11.32100 27.60200
C  0.04300 9.96000 27.78700
C  0.44000 12.94900 25.56800
C  0.80700 11.82200 28.84300
O  1.44300 12.81600 29.12600
C  0.52800 10.71300 29.93700
C  1.70700 10.57800 30.78200
O  2.52000 9.67000 30.84900
O  1.59300 11.54900 31.70000
C  2.44100 11.43700 32.85200
H  -0.74800 3.93500 29.27200
H  -1.42100 4.78300 22.88800
H  -0.39700 11.00200 23.71200
H  0.56300 8.06300 31.56400
H  -1.22500 5.67600 31.41100
H  0.53600 4.41400 31.64000
H  1.28600 5.89300 32.29800
H  1.68500 5.39700 30.64300
H  -2.50900 7.74200 31.26800
H  -1.84700 9.33400 31.21500
H  -2.61100 7.88500 33.54000
H  -1.98900 9.45600 33.50600
H  0.18200 1.40800 27.11700
H  -1.63200 1.44700 27.33000
H  -0.51500 2.19000 28.41800
H  -0.45400 0.30600 24.95900
H  -1.70100 0.09400 23.68500
H  -2.12000 0.78100 25.28400
H  -2.34300 7.08000 21.72900
H  -0.67500 9.36700 21.74200
H  0.40500 7.61000 20.87400
H  -0.68300 6.48300 20.15700
H  0.44200 5.95900 21.50300
H  -3.22300 9.36700 23.34400
H  -3.51900 8.84800 21.65600
H  -3.57300 11.38700 22.87300
H  -3.35300 11.19700 21.05400
H  -2.03100 11.53500 22.14700
H  1.17200 12.84700 24.76700
H  0.91400 13.70500 26.19400
H  -0.53100 13.31600 25.23600
H  -0.33200 10.95100 30.56300
H  2.62500 12.32700 33.45300
H  3.42100 11.04400 32.58200
H  2.00600 10.68000 33.50500
Mg 7.39100 2.89800 27.37600
C  8.83400 1.56900 30.21200
C  5.40900 4.83600 29.51000
C  5.73500 3.94700 24.78800
C  9.10200 0.49700 25.50900
N  7.15400 3.21900 29.70100
C  7.99200 2.66100 30.56500
C  7.77100 3.26800 31.95000
C  6.46600 4.24100 31.78800
C  6.30900 4.10500 30.22100
C  5.26300 3.86000 32.63900
C  8.98300 3.94500 32.56900
C  8.72900 4.29400 34.10800
H  9.99700 3.97700 34.92600
N  5.95000 4.35900 27.19000
C  5.14800 4.94800 28.11700
C  4.23300 5.88100 27.47900
C  4.31500 5.65100 26.06200
C  5.39500 4.66800 26.00700
C  3.24200 6.76100 28.26700
C  3.41400 6.27700 24.90200
O  3.68000 5.98200 23.73300
C  2.29900 7.30000 25.23200
N  7.60000 2.41000 25.45900
C  6.70800 2.98900 24.60200
C  6.90700 2.35300 23.19900
C  7.89800 1.22700 23.34200
C  8.17200 1.36300 24.84600
C  5.58600 1.86000 22.49000
C  9.24100 1.34400 22.47700
C  9.65000 0.01100 21.74400
N  8.65600 1.25200 27.72000
C  9.35700 0.44100 26.85600
C  10.28500 -0.40300 27.52600
C  10.11900 -0.03500 28.89500
C  9.04800 0.94200 28.93000
C  11.36200 -1.25400 27.00600
C  10.60300 -0.21100 30.19300
O  11.41500 -0.99600 30.66800
C  9.72700 0.80400 31.09700
C  9.25000 0.06100 32.24600
O  8.25900 -0.65700 32.24100
O  10.01500 0.28800 33.36900
C  9.43900 0.08000 34.68900
H  4.90500 5.65400 30.02900
H  5.21700 4.30500 23.89600
H  9.73000 -0.21300 24.96700
H  7.44700 2.44900 32.59200
H  6.68900 5.28100 32.02600
H  4.94300 4.69900 33.25700
H  5.57400 3.04200 33.28900
H  4.44300 3.58700 31.97400
H  9.05600 4.95900 32.17700
H  9.94900 3.49900 32.33200
H  7.82500 3.82600 34.49900
H  8.55000 5.36500 34.19700
H  2.27800 6.62400 27.77800
H  3.59500 7.76600 28.03500
H  3.14300 6.64000 29.34600
H  2.65700 8.15000 25.81400
H  1.46300 6.81200 25.73300
H  1.88700 7.65800 24.28900
H  7.24600 3.18500 22.58200
H  7.52600 0.20800 23.22800
H  4.72900 1.86900 23.16300
H  5.63500 0.90500 21.96700
H  5.47600 2.68800 21.79100
H  10.04100 1.66400 23.14500
H  9.12100 2.13000 21.73200
H  8.79000 -0.54500 21.37000
H  10.25700 -0.48900 22.49900
H  10.34000 0.23000 20.92900
H  11.60000 -0.70600 26.09400
H  11.07600 -2.26500 26.71800
H  12.25100 -1.37100 27.62500
H  10.45700 1.49200 31.52100
H  8.93300 0.99300 35.00300
H  10.20400 -0.34800 35.33700
H  8.61500 -0.62800 34.76200

