158

Mg 17.39000 -0.96200 27.81000
C  16.77400 1.13300 30.64100
C  19.40900 -2.96200 29.83700
C  18.39000 -2.62300 25.09500
C  15.73800 1.46800 25.76900
N  17.89600 -0.96500 29.93600
C  17.54500 -0.06500 30.94100
C  18.06800 -0.35400 32.33000
C  19.12000 -1.53300 31.96600
C  18.81600 -1.84500 30.44900
C  20.66400 -1.16900 32.11900
C  16.94500 -0.63400 33.31500
C  17.10700 -0.12400 34.76700
H  18.49500 0.20200 35.24200
N  18.63700 -2.67200 27.55100
C  19.34300 -3.38600 28.44000
C  19.94400 -4.61500 27.89400
C  19.61600 -4.48600 26.50000
C  18.85800 -3.22700 26.29800
C  20.60100 -5.65400 28.69400
C  19.96100 -5.49300 25.43400
O  19.74400 -5.28400 24.26100
C  20.67500 -6.75900 25.64900
N  17.23800 -0.50900 25.66300
C  17.64700 -1.49900 24.77000
C  17.34000 -1.03700 23.31300
C  16.37300 0.20200 23.63700
C  16.43200 0.39600 25.10400
C  18.53700 -0.62600 22.43500
C  14.97800 0.07400 23.02800
C  13.88900 -0.93600 23.44100
N  16.33900 0.87200 28.12100
C  15.73000 1.72800 27.17900
C  15.05800 2.75500 28.01700
C  15.53000 2.60000 29.31200
C  16.26400 1.40400 29.31400
C  14.21700 3.95400 27.45700
C  15.42600 3.19300 30.66100
O  14.84200 4.17100 31.09200
C  16.11200 2.18100 31.60200
C  17.02300 2.88400 32.55400
O  18.10400 3.39600 32.40400
O  16.24600 3.09500 33.70400
C  16.79300 4.32500 34.39800
H  19.93600 -3.59600 30.55400
H  18.73300 -3.09100 24.17000
H  15.01300 1.94600 25.10700
H  18.69700 0.46700 32.67400
H  18.86500 -2.40900 32.56200
H  21.20300 -2.03600 32.50000
H  20.70000 -0.38300 32.87400
H  21.06100 -0.93100 31.13200
H  16.85100 -1.72000 33.33400
H  15.95400 -0.32400 32.98200
H  16.74600 -0.92400 35.41300
H  16.46800 0.75800 34.80900
H  21.61000 -5.34700 28.96800
H  20.55300 -6.70000 28.39100
H  20.03400 -5.66700 29.62400
H  21.65700 -6.66300 26.11100
H  20.76600 -7.27000 24.69000
H  20.14600 -7.41600 26.33900
H  16.77200 -1.74200 22.70600
H  16.92100 1.04800 23.22100
H  18.51400 -1.16000 21.48500
H  19.42700 -0.94800 22.97400
H  18.63100 0.45800 22.37000
H  15.22300 -0.14200 21.98800
H  14.44300 1.02100 23.09600
H  12.92200 -0.43600 23.39500
H  14.10300 -1.35600 24.42400
H  13.91500 -1.69300 22.65700
H  14.39200 4.17400 26.40400
H  14.52500 4.81600 28.04900
H  13.15700 3.75300 27.61300
H  15.31400 1.71700 32.18200
H  17.67900 3.90200 34.87200
H  16.09400 4.58600 35.19300
H  17.07600 5.16200 33.76100
Mg 47.17500 25.33500 27.96000
C  47.94000 27.52300 30.48100
C  46.80600 22.85200 30.14000
C  46.34000 23.19400 25.33400
C  47.90600 27.77900 25.59500
N  47.46700 25.16800 30.12000
C  47.64600 26.23800 30.96300
C  47.55900 25.77900 32.42100
C  47.17900 24.27300 32.28500
C  47.15600 24.02900 30.75700
C  48.04300 23.23600 32.95100
C  46.42800 26.59700 33.19700
C  46.86200 26.86200 34.63100
H  45.78100 27.40600 35.63400
N  46.50300 23.30500 27.82300
C  46.44300 22.47800 28.83400
C  46.01000 21.18800 28.36900
C  45.85600 21.27800 26.97400
C  46.26300 22.64400 26.63400
C  45.66900 20.02300 29.24000
C  45.29100 20.22600 26.03100
O  45.00900 20.53200 24.84700
C  44.94800 18.80000 26.43800
N  47.09000 25.45500 25.73200
C  46.73700 24.44400 24.87800
C  46.68900 25.04100 23.39200
C  46.86000 26.55600 23.57900
C  47.30700 26.66100 25.07900
C  47.58900 24.30200 22.30800
C  45.55600 27.40600 23.15900
C  45.40400 27.79600 21.69200
N  47.95900 27.09100 27.97800
C  48.22800 27.98700 26.93700
C  48.59200 29.33600 27.43600
C  48.55300 29.12300 28.82300
C  48.11600 27.77000 29.10300
C  48.83800 30.54200 26.63500
C  48.69700 29.81000 30.14100
O  49.05300 30.94700 30.23600
C  48.30700 28.83200 31.26200
C  49.32000 28.78600 32.40200
O  50.26100 28.00700 32.49400
O  48.91300 29.70200 33.39200
C  49.85800 29.73200 34.53300
H  46.74000 22.00700 30.82800
H  46.09300 22.46800 24.55700
H  48.02900 28.60000 24.88600
H  48.55000 25.90600 32.85500
H  46.15000 24.08500 32.59400
H  48.59300 23.75600 33.73500
H  48.77000 22.76800 32.28700
H  47.45400 22.43900 33.40500
H  45.46700 26.08300 33.22200
H  46.27400 27.59800 32.79400
H  47.59100 27.67100 34.57800
H  47.16000 25.86500 34.95400
H  44.60500 19.79100 29.19900
H  45.87500 20.28500 30.27800
H  46.17900 19.11100 28.93100
H  44.67300 18.36700 25.47700
H  44.07000 18.76100 27.08300
H  45.83400 18.30500 26.83600
H  45.66100 24.78700 23.13200
H  47.64100 26.83700 22.87200
H  47.06900 24.24600 21.35100
H  47.77500 23.27600 22.62400
H  48.56400 24.76100 22.14000
H  45.43900 28.30300 23.76700
H  44.71400 26.75200 23.38400
H  44.54200 27.32800 21.21600
H  46.32700 27.51300 21.18700
H  45.32600 28.87800 21.58500
H  49.02700 31.33400 27.36000
H  47.99800 30.69200 25.95800
H  49.69800 30.34700 25.99400
H  47.42100 29.31500 31.67300
H  49.65100 28.91600 35.22600
H  49.86600 30.66100 35.10300
H  50.89700 29.53000 34.27500

