158

Mg -9.35100 37.45300 41.13700
C  -7.28800 34.87900 40.11700
C  -7.10900 39.70900 39.75900
C  -11.53500 39.93600 41.75100
C  -11.83900 35.09300 41.89900
N  -7.44500 37.29100 39.99500
C  -6.80000 36.12400 39.82600
C  -5.51200 36.37000 39.06600
C  -5.33600 37.90800 39.15400
C  -6.70900 38.37700 39.65200
C  -4.07500 38.48700 39.86700
C  -5.37200 35.70600 37.73700
C  -6.53900 35.97800 36.74100
H  -6.20400 35.93900 35.22300
N  -9.21100 39.56700 40.91800
C  -8.26200 40.26300 40.31700
C  -8.67200 41.60900 40.20100
C  -9.77600 41.82000 41.05200
C  -10.24000 40.40600 41.25100
C  -7.87400 42.63800 39.45300
C  -10.47500 43.09900 41.39300
O  -10.03600 44.12400 40.86200
C  -11.73700 43.19500 42.20900
N  -11.33700 37.50900 41.88800
C  -12.02500 38.69500 42.02000
C  -13.52100 38.40300 42.47200
C  -13.58200 36.84200 42.40600
C  -12.14100 36.41900 42.09300
C  -13.91700 39.08000 43.77400
C  -14.71100 36.13300 41.51200
C  -15.32200 34.80300 42.05100
N  -9.53200 35.39700 41.16500
C  -10.54900 34.51000 41.55300
C  -10.07600 33.19000 41.58200
C  -8.85000 33.29900 40.86400
C  -8.50900 34.65000 40.76400
C  -10.80700 32.02800 42.00800
C  -7.72600 32.50500 40.33200
O  -7.51800 31.31300 40.40100
C  -6.63000 33.56200 39.84700
C  -5.38700 33.31000 40.51600
O  -4.85000 34.02200 41.35100
O  -4.91200 32.19800 39.97300
C  -3.61400 31.83900 40.57700
H  -6.33200 40.41900 39.47000
H  -12.29300 40.66300 42.04700
H  -12.57400 34.30800 42.09000
H  -4.73300 35.94100 39.69700
H  -5.22800 38.45100 38.21500
H  -3.65700 39.27000 39.23500
H  -3.34000 37.73900 40.16500
H  -4.37700 38.92200 40.82000
H  -5.05500 34.67700 37.90800
H  -4.50600 36.24200 37.34700
H  -6.98600 36.93700 37.00400
H  -7.30200 35.23000 36.95800
H  -7.12100 43.03100 40.13600
H  -8.50000 43.39900 38.98600
H  -7.41500 42.14100 38.59900
H  -11.51900 42.64500 43.12500
H  -12.46700 42.72000 41.55400
H  -12.07700 44.21400 42.39300
H  -14.25400 38.81300 41.77600
H  -13.70800 36.54200 43.44600
H  -14.22300 38.41400 44.58100
H  -14.72800 39.79400 43.63000
H  -13.01100 39.53200 44.17800
H  -14.32000 35.97400 40.50700
H  -15.44200 36.87600 41.19500
H  -16.40500 34.75900 42.16700
H  -14.94500 34.76400 43.07300
H  -14.91500 33.91600 41.56500
H  -10.33600 31.11000 41.65400
H  -11.80800 32.16900 41.60100
H  -10.86200 31.99600 43.09600
H  -6.54300 33.35100 38.78100
H  -3.64500 31.71900 41.66000
H  -2.92300 32.68200 40.59100
H  -3.35700 30.97000 39.97100
Mg -2.27500 34.78900 27.03700
C  -3.87700 33.33400 29.78300
C  -0.80900 37.16500 29.26700
C  -0.79500 36.21600 24.39700
C  -3.86500 32.48400 24.87300
N  -2.50200 35.28000 29.24400
C  -3.15300 34.48600 30.18600
C  -2.71600 34.94200 31.63700
C  -1.83500 36.28300 31.33700
C  -1.70800 36.32500 29.83300
C  -2.34900 37.64100 31.97700
C  -1.91300 33.87400 32.44700
C  -1.41400 34.30100 33.93900
H  -1.67500 33.37900 35.06400
N  -0.92400 36.45600 26.86000
C  -0.43700 37.22500 27.87300
C  0.50800 38.13700 27.27400
C  0.47200 37.96800 25.85900
C  -0.47800 36.81900 25.64200
C  1.19900 39.20900 28.02000
C  1.28000 38.76500 24.72100
O  0.92800 38.69900 23.51400
C  2.31800 39.82500 25.03700
N  -2.15800 34.28300 24.89500
C  -1.60300 35.11200 24.01100
C  -1.93200 34.67300 22.60000
C  -2.51800 33.19200 22.88100
C  -2.97600 33.35700 24.26500
C  -2.84600 35.59700 21.83400
C  -1.50900 32.03800 22.60400
C  -0.53500 31.63800 23.70200
N  -3.74400 33.29500 27.20500
C  -4.15300 32.36000 26.26300
C  -4.94200 31.33400 27.03700
C  -4.81700 31.69900 28.39400
C  -4.07400 32.86000 28.43600
C  -5.58800 30.09000 26.43600
C  -5.17600 31.30900 29.65600
O  -5.91900 30.37400 30.05100
C  -4.49700 32.20200 30.63100
C  -5.43800 32.62400 31.70100
O  -6.26000 33.48500 31.53100
O  -5.27900 31.97000 32.94600
C  -6.51200 32.11000 33.77800
H  -0.39100 37.94200 29.91100
H  -0.36300 36.67600 23.50600
H  -4.27700 31.84200 24.09100
H  -3.61400 35.13600 32.22300
H  -0.86200 36.19800 31.82000
H  -2.26000 38.61600 31.49800
H  -1.77500 37.72200 32.90000
H  -3.35600 37.47100 32.35500
H  -1.04500 33.68500 31.81400
H  -2.56000 32.99800 32.49900
H  -1.86200 35.25700 34.21100
H  -0.32700 34.31500 33.86800
H  0.67900 40.15300 27.85300
H  2.24300 39.28800 27.71800
H  1.17400 39.05400 29.09800
H  2.08800 40.44700 25.90200
H  2.51300 40.38000 24.11900
H  3.27100 39.33400 25.23500
H  -1.06200 34.63100 21.94400
H  -3.27100 32.95000 22.13100
H  -3.74100 35.13200 21.42000
H  -2.25600 36.02500 21.02300
H  -3.20400 36.38700 22.49300
H  -0.88600 32.20600 21.72500
H  -1.98200 31.13000 22.23000
H  -0.69300 32.13200 24.66100
H  0.45100 31.77400 23.25700
H  -0.67700 30.56500 23.83200
H  -5.44500 29.24500 27.10900
H  -5.05900 29.85000 25.51300
H  -6.63300 30.39900 26.45700
H  -3.70000 31.61000 31.08000
H  -6.25900 32.05200 34.83700
H  -7.19400 31.27900 33.59600
H  -7.10200 33.02500 33.71900

