158

Mg 1.44200 7.65400 25.72000
C  2.01600 9.71000 28.58700
C  2.00400 4.91800 27.98000
C  0.81100 5.68300 23.27100
C  1.39200 10.44200 23.74900
N  1.85600 7.38100 27.94800
C  1.86600 8.35700 28.93300
C  2.04600 7.76600 30.36800
C  2.55000 6.30700 30.01300
C  2.17500 6.14500 28.52600
C  4.02900 5.95900 30.22400
C  0.81100 7.88300 31.25800
C  0.55700 6.95400 32.44400
H  1.71400 6.48000 33.37100
N  1.42600 5.57500 25.68900
C  1.75600 4.60500 26.61200
C  1.59400 3.28300 25.99100
C  1.13700 3.45600 24.69900
C  1.06600 4.93200 24.53400
C  1.96600 2.03500 26.80000
C  0.80300 2.45600 23.65000
O  0.67800 2.77700 22.44800
C  0.73400 1.00700 24.01600
N  1.18900 7.97400 23.78900
C  0.79600 7.01500 22.94200
C  0.44000 7.66200 21.56100
C  0.67500 9.16400 21.67800
C  1.05700 9.20500 23.17700
C  1.24100 7.12000 20.37000
C  -0.58400 10.03700 21.30200
C  -0.33100 11.01500 20.13500
N  1.78000 9.58900 26.00400
C  1.71800 10.65500 25.12200
C  1.91200 11.88500 25.79200
C  2.03300 11.54500 27.14100
C  2.00100 10.20000 27.25300
C  1.89700 13.25000 25.13500
C  2.25200 12.21600 28.40900
O  2.39400 13.40100 28.74100
C  2.12100 11.07000 29.42300
C  3.20000 11.15600 30.36400
O  4.42200 11.23900 30.08200
O  2.70100 11.21500 31.62400
C  3.55400 11.60300 32.74800
H  2.19100 4.12000 28.70200
H  0.36100 5.09900 22.46600
H  1.35500 11.35300 23.14900
H  2.83600 8.30700 30.88800
H  1.93800 5.62200 30.59900
H  4.65500 6.78000 30.57400
H  4.47700 5.64700 29.28000
H  4.05400 5.16000 30.96500
H  -0.11500 7.86800 30.68300
H  0.86400 8.93100 31.55200
H  0.16200 6.08600 31.91600
H  -0.27200 7.36700 33.01900
H  1.06000 1.43600 26.70000
H  2.14000 2.20100 27.86200
H  2.77900 1.52400 26.28400
H  0.52800 0.43000 23.11400
H  -0.04900 0.73400 24.72300
H  1.70700 0.75200 24.43700
H  -0.57200 7.33400 21.32100
H  1.55600 9.60000 21.20800
H  1.21300 7.82400 19.53800
H  0.71200 6.24100 20.00200
H  2.23300 6.84500 20.73000
H  -0.82000 10.66200 22.16300
H  -1.40000 9.40400 20.95400
H  -1.11300 10.97300 19.37700
H  0.56700 10.60500 19.67100
H  -0.24900 12.02900 20.52600
H  1.86300 14.04300 25.88200
H  0.99300 13.34100 24.53400
H  2.82200 13.35500 24.56800
H  1.19700 11.20400 29.98600
H  4.44600 10.97800 32.79400
H  3.01500 11.42300 33.67900
H  3.93200 12.62200 32.66600
Mg 26.21200 51.77300 26.65100
C  23.80400 51.91100 29.29900
C  28.48800 50.47700 28.83000
C  28.33900 51.83600 24.05900
C  23.59400 52.36000 24.34200
N  26.13000 51.26500 28.83700
C  25.07100 51.47200 29.71300
C  25.52000 51.06800 31.07700
C  27.05700 50.77300 30.94100
C  27.29100 50.88200 29.42200
C  28.03100 51.42200 31.80700
C  24.71300 49.86400 31.66800
C  24.00100 50.05800 33.02600
H  24.74000 50.92000 34.13800
N  28.17700 51.28000 26.47600
C  28.89500 50.70100 27.50400
C  30.26800 50.53300 26.97500
C  30.32200 51.10200 25.66500
C  28.89000 51.45600 25.31700
C  31.39100 49.85900 27.74200
C  31.50200 51.28600 24.74700
O  31.33600 51.90000 23.67600
C  32.85800 50.81500 25.06100
N  25.97700 52.21800 24.48700
C  27.02200 52.06000 23.65400
C  26.60100 52.10900 22.11700
C  25.01800 51.92100 22.27600
C  24.86200 52.23500 23.78500
C  27.12300 53.32000 21.32800
C  24.43400 50.52700 21.94300
C  23.65900 50.42000 20.67500
N  24.17500 52.10300 26.75100
C  23.25100 52.34600 25.72700
C  22.03000 52.62700 26.34800
C  22.18600 52.45700 27.67300
C  23.50800 52.16900 27.92400
C  20.79600 52.93900 25.55900
C  21.48400 52.53600 28.95600
O  20.33200 53.01000 29.09000
C  22.46100 52.19800 30.06600
C  22.58200 53.39500 30.96200
O  23.19200 54.41300 30.72600
O  21.82300 53.20900 32.08500
C  21.76000 54.31700 33.12900
H  29.25800 49.97900 29.42200
H  29.02200 51.79200 23.20700
H  22.76500 52.34400 23.63100
H  25.40900 51.91300 31.75700
H  27.19900 49.71800 31.17700
H  28.90400 51.75000 31.24300
H  28.23900 50.76600 32.65200
H  27.44400 52.14000 32.37900
H  25.27200 48.93900 31.81000
H  23.91200 49.62800 30.96700
H  23.90800 49.09100 33.51900
H  22.98400 50.43100 32.90100
H  31.18300 49.42200 28.71800
H  32.17000 50.61800 27.81600
H  31.84400 49.07800 27.13200
H  32.85800 49.76500 25.35400
H  33.32100 51.41800 25.84100
H  33.51000 50.85300 24.18800
H  26.99500 51.20000 21.66400
H  24.50900 52.58800 21.58000
H  27.81100 52.83300 20.63700
H  27.75400 53.90000 22.00100
H  26.36600 53.97300 20.89400
H  23.79600 50.13700 22.73600
H  25.21400 49.77800 21.80700
H  24.07000 49.80300 19.87500
H  23.37700 51.35400 20.18900
H  22.68600 49.99500 20.92000
H  20.48100 51.95500 25.21100
H  21.07000 53.48000 24.65300
H  19.99700 53.38300 26.15200
H  22.06700 51.40300 30.70000
H  21.65900 55.28900 32.64500
H  22.73300 54.55500 33.55800
H  20.98100 54.22700 33.88700

