158

Mg 47.88500 15.87200 28.76400
C  45.95300 15.31300 31.73400
C  50.15400 17.52000 30.47000
C  49.62500 15.98700 25.95000
C  45.28800 14.10700 27.00300
N  48.00100 16.37400 30.83000
C  47.13900 16.12900 31.89300
C  47.67500 16.70300 33.22700
C  48.90300 17.57700 32.75500
C  49.02300 17.17400 31.22700
C  48.74100 19.06400 32.92500
C  47.90300 15.76500 34.41000
C  47.49300 16.18100 35.81300
H  47.55000 17.68100 36.15100
N  49.63200 16.53700 28.30100
C  50.50100 17.12300 29.14800
C  51.78000 17.40500 28.53400
C  51.67000 16.92600 27.20600
C  50.27800 16.43600 27.09500
C  53.02400 17.91700 29.32200
C  52.80100 16.83400 26.07600
O  52.47800 16.33100 25.02300
C  54.25600 17.34000 26.37700
N  47.47900 15.23900 26.73400
C  48.35800 15.51100 25.76000
C  47.89400 14.88200 24.41700
C  46.46100 14.38300 24.75000
C  46.38400 14.53900 26.26900
C  47.96200 15.87800 23.20300
C  46.19200 12.90000 24.25900
C  46.68400 11.71100 25.15500
N  46.01800 14.93200 29.18100
C  45.06400 14.39200 28.38500
C  43.90300 13.97500 29.21700
C  44.26800 14.32700 30.53300
C  45.54700 14.88600 30.47400
C  42.69600 13.32200 28.80100
C  43.77100 14.25000 31.91300
O  42.82900 13.84700 32.49100
C  44.88500 15.00200 32.74300
C  44.13600 16.06100 33.37300
O  43.65500 17.09600 32.82300
O  43.86000 15.67800 34.68100
C  42.93500 16.49800 35.50000
H  50.79600 18.27800 30.92300
H  50.26700 16.08700 25.07200
H  44.53000 13.59600 26.40500
H  46.83800 17.35100 33.48600
H  49.76200 17.33500 33.38000
H  49.33100 19.37700 33.78700
H  47.71000 19.28900 33.19700
H  49.04000 19.68500 32.08100
H  48.95600 15.48500 34.38000
H  47.41600 14.81800 34.17800
H  48.20400 15.73800 36.51000
H  46.47900 15.81800 35.97800
H  53.78700 17.15000 29.19200
H  52.79600 17.93200 30.38800
H  53.31000 18.92500 29.02200
H  54.24000 18.38000 26.70300
H  54.75700 17.25800 25.41200
H  54.67600 16.66400 27.12200
H  48.48500 13.98800 24.22000
H  45.68400 14.97100 24.26100
H  46.99800 16.07700 22.73300
H  48.57900 15.39500 22.44500
H  48.48300 16.78200 23.51700
H  46.73200 12.76200 23.32300
H  45.12100 12.70400 24.20900
H  47.06700 10.84400 24.61500
H  45.76400 11.39800 25.64900
H  47.36600 12.10400 25.90900
H  41.92200 13.54900 29.53300
H  42.77500 12.23700 28.73400
H  42.44800 13.64100 27.78900
H  45.24900 14.27400 33.46700
H  42.35800 15.89300 36.20100
H  42.10700 16.91400 34.92600
H  43.38100 17.35300 36.00900
Mg 30.50600 57.97300 40.22200
C  27.86600 56.01000 38.77300
C  32.66700 55.68100 38.99400
C  32.91900 60.25400 40.62700
C  28.01000 60.44900 40.93800
N  30.28000 56.08000 38.93100
C  29.15200 55.45300 38.55600
C  29.52800 54.16000 37.75700
C  31.11000 54.01800 38.02200
C  31.37500 55.26600 38.79100
C  31.64000 52.72500 38.71900
C  29.26200 54.33200 36.22800
C  27.98700 53.66300 35.69400
H  27.11400 54.54300 34.85300
N  32.53100 57.97100 40.00100
C  33.18300 56.88000 39.51400
C  34.61900 57.25600 39.35800
C  34.69800 58.62800 39.77800
C  33.33100 59.03300 40.19000
C  35.78400 56.35800 38.81600
C  36.02800 59.52200 39.67900
O  37.08000 58.96900 39.41100
C  36.06200 60.96000 39.89600
N  30.47500 60.08400 40.62600
C  31.62600 60.72300 40.89200
C  31.35500 62.12700 41.37200
C  29.80100 62.16600 41.66700
C  29.35400 60.86100 41.06400
C  32.29100 62.66700 42.43800
C  29.10900 63.54200 41.13200
C  28.27400 64.40300 42.10400
N  28.34500 58.24600 39.98900
C  27.50400 59.21700 40.46500
C  26.10900 58.90200 40.18400
C  26.21800 57.59500 39.57400
C  27.58400 57.30000 39.42700
C  24.88700 59.75200 40.34400
C  25.47800 56.54800 38.93200
O  24.26200 56.52500 38.67200
C  26.48600 55.36300 38.48400
C  26.22500 54.11900 39.34900
O  27.00900 53.56100 40.13400
O  24.97000 53.66800 39.05600
C  24.48100 52.40800 39.67300
H  33.42100 54.99500 38.60300
H  33.68900 61.01300 40.78100
H  27.25800 61.17500 41.25300
H  28.96300 53.36800 38.24800
H  31.54700 54.14400 37.03200
H  30.84300 51.98500 38.79100
H  32.09100 52.87200 39.70100
H  32.51400 52.26000 38.26200
H  30.09900 53.88100 35.69500
H  29.22400 55.40200 36.02500
H  27.46500 53.44500 36.62700
H  28.14100 52.80600 35.03800
H  36.25500 56.70900 37.89800
H  35.44100 55.33600 38.65400
H  36.68700 56.34300 39.42600
H  35.20700 61.35800 39.35000
H  36.92500 61.47500 39.47600
H  36.02300 61.16300 40.96700
H  31.51500 62.62700 40.41700
H  29.67100 62.11100 42.74800
H  31.72000 63.30200 43.11500
H  33.05500 63.28300 41.96400
H  32.77400 61.88500 43.02400
H  28.47900 63.25400 40.29000
H  29.86500 64.17900 40.67100
H  27.24000 64.34700 41.76400
H  28.56100 65.45300 42.16000
H  28.36700 64.11600 43.15200
H  24.03600 59.55600 39.69200
H  25.02600 60.83300 40.31500
H  24.60700 59.51900 41.37100
H  26.12200 55.24900 37.46300
H  24.89400 51.60900 39.05700
H  23.40200 52.43800 39.82800
H  24.87900 52.26300 40.67800

