158

Mg 47.19400 24.79100 28.38300
C  48.03900 27.31200 30.68800
C  46.86400 22.52700 30.91100
C  46.75700 22.58500 25.94900
C  48.08500 27.17400 25.82900
N  47.45000 24.87300 30.58400
C  47.67500 26.06400 31.29000
C  47.52200 25.77000 32.83100
C  47.41100 24.15700 32.81300
C  47.15600 23.81900 31.33700
C  48.67700 23.32200 33.39200
C  46.30700 26.57800 33.27200
C  45.92500 26.36900 34.78500
H  46.04800 27.59000 35.77200
N  46.74000 22.84800 28.48800
C  46.68700 22.05000 29.60600
C  46.22400 20.73100 29.23200
C  46.20200 20.72000 27.78900
C  46.54200 22.11800 27.34300
C  45.86300 19.69400 30.22400
C  46.07200 19.52400 26.84200
O  46.08900 19.65100 25.65500
C  45.95800 18.16400 27.36800
N  47.46300 24.84500 26.15400
C  47.15600 23.80300 25.39300
C  47.21100 23.97800 23.88600
C  47.51300 25.44100 23.88500
C  47.67600 25.90200 25.37300
C  48.39600 23.09600 23.31200
C  46.44600 26.37300 23.21500
C  46.40600 26.26200 21.69600
N  48.00600 26.81100 28.21900
C  48.32200 27.58400 27.15300
C  48.83500 28.90400 27.56900
C  48.70500 28.81500 28.98100
C  48.17300 27.54000 29.29700
C  49.41600 30.03200 26.74900
C  48.95100 29.50600 30.19700
O  49.53200 30.54300 30.42000
C  48.35000 28.64300 31.33900
C  49.37200 28.61300 32.51300
O  50.44400 28.03800 32.42400
O  48.87100 29.22200 33.64000
C  49.75900 29.24700 34.88900
H  46.69900 21.87000 31.76700
H  46.38700 21.90400 25.18000
H  48.28400 27.88600 25.02500
H  48.45600 26.18600 33.21100
H  46.60800 23.83300 33.47500
H  49.05400 22.66900 32.60500
H  48.34500 22.64900 34.18300
H  49.43800 24.01000 33.76000
H  45.49900 26.26700 32.61000
H  46.55000 27.63500 33.16500
H  46.56100 25.56800 35.16000
H  44.88600 26.04400 34.84800
H  45.04800 19.07000 29.85700
H  45.46700 20.21000 31.09900
H  46.70600 19.03100 30.42100
H  46.80600 17.91100 28.00400
H  45.95900 17.49300 26.50900
H  44.99000 18.13100 27.86900
H  46.28200 23.93100 23.31700
H  48.46000 25.58500 23.36600
H  48.72200 22.36100 24.04900
H  49.23500 23.66900 22.91900
H  47.97100 22.63500 22.42000
H  46.59900 27.42500 23.45600
H  45.51200 25.98500 23.62200
H  47.16500 25.61900 21.25200
H  46.58500 27.23600 21.24000
H  45.39000 25.98000 21.42000
H  48.86600 30.96200 26.89300
H  49.58600 29.81500 25.69400
H  50.41100 30.21600 27.15300
H  47.49300 29.21400 31.69700
H  50.78200 29.01200 34.59400
H  49.44500 28.57200 35.68500
H  49.72700 30.23100 35.35700
Mg -1.62200 34.95100 26.90600
C  -3.65000 33.06700 29.04400
C  -0.71500 36.99300 29.50200
C  -0.16300 37.05100 24.63000
C  -3.05100 33.29200 24.16200
N  -2.20300 35.10700 28.97700
C  -2.97800 34.12800 29.67600
C  -2.85300 34.42200 31.19800
C  -2.13700 35.86100 31.20000
C  -1.74600 36.06400 29.78500
C  -2.90700 37.06300 31.86000
C  -2.22400 33.30100 32.07600
C  -3.03300 32.48800 33.10000
H  -2.45400 32.42600 34.56000
N  -0.45500 36.75100 27.08900
C  -0.15800 37.32300 28.27300
C  0.71700 38.42600 27.99800
C  0.87000 38.49800 26.56100
C  0.07300 37.41600 25.99100
C  1.35500 39.27000 29.03900
C  1.73500 39.46800 25.74100
O  1.82500 39.45800 24.53400
C  2.39900 40.58800 26.48200
N  -1.49800 35.05500 24.66000
C  -0.89300 36.10800 23.96400
C  -1.20900 36.09800 22.49400
C  -2.01500 34.78100 22.35100
C  -2.18000 34.32300 23.82600
C  -1.94900 37.39400 22.08200
C  -1.41900 33.69000 21.42100
C  -0.48800 32.64200 21.97000
N  -2.91200 33.45400 26.60000
C  -3.50000 32.90800 25.43200
C  -4.43600 31.82400 25.77100
C  -4.53000 31.87000 27.21900
C  -3.58900 32.86800 27.66100
C  -5.09900 30.86100 24.82900
C  -5.20700 31.31800 28.36200
O  -6.16100 30.51600 28.36800
C  -4.51100 31.89800 29.55800
C  -5.67700 32.32200 30.44700
O  -6.20800 33.44500 30.50500
O  -5.97100 31.18700 31.19100
C  -6.97700 31.36200 32.21500
H  -0.31200 37.52800 30.36500
H  0.24300 37.77800 23.92400
H  -3.59800 32.66800 23.45200
H  -3.84500 34.59600 31.61300
H  -1.14600 35.74200 31.63800
H  -2.22300 37.66700 32.45700
H  -3.76700 36.74300 32.44900
H  -3.29600 37.70900 31.07200
H  -1.29300 33.60900 32.55100
H  -1.85200 32.58900 31.33900
H  -3.19400 31.45000 32.80900
H  -3.98200 33.02400 33.07800
H  1.36500 38.68300 29.95700
H  1.00200 40.30000 29.09200
H  2.41400 39.37000 28.80300
H  1.78900 41.16100 27.18100
H  2.74400 41.27000 25.70500
H  3.31700 40.19100 26.91500
H  -0.32000 36.19800 21.87100
H  -3.03100 34.84900 21.96000
H  -1.69400 38.21600 22.75100
H  -3.02700 37.41700 22.24000
H  -1.77500 37.71600 21.05500
H  -1.10100 34.13200 20.47700
H  -2.28200 33.14500 21.03900
H  -1.00800 31.70000 22.14300
H  -0.15200 32.96500 22.95600
H  0.40500 32.42300 21.38500
H  -5.40800 29.97500 25.38500
H  -4.37500 30.61400 24.05300
H  -5.95700 31.32100 24.33900
H  -4.03600 31.06900 30.08300
H  -6.66800 31.89000 33.11600
H  -7.42400 30.45500 32.62400
H  -7.77800 32.01700 31.87300

