158

Mg 52.49900 24.54300 45.57100
C  50.18500 26.89600 44.20800
C  50.80200 22.14600 43.86400
C  55.09000 22.42600 45.93800
C  54.45500 27.24800 46.55500
N  50.82700 24.60500 43.97100
C  49.94500 25.63400 43.70900
C  48.77300 25.14600 42.78200
C  48.65800 23.67500 43.31100
C  50.19400 23.42000 43.69500
C  47.73100 23.38400 44.52800
C  49.14500 25.29500 41.29200
C  47.90600 25.43400 40.34900
H  48.00900 24.52900 39.10800
N  52.81500 22.54300 45.13600
C  52.02600 21.74100 44.42500
C  52.41800 20.35000 44.56300
C  53.63400 20.41700 45.34100
C  53.87200 21.83600 45.56000
C  51.63400 19.14400 43.92200
C  54.52900 19.23800 45.75000
O  54.24300 18.12100 45.34500
C  55.59600 19.42000 46.76800
N  54.43200 24.82200 46.08400
C  55.34800 23.77200 46.25900
C  56.69600 24.28300 46.78700
C  56.44200 25.80700 47.03300
C  55.03000 25.98500 46.52500
C  57.20000 23.47700 48.02100
C  57.39700 26.77200 46.28400
C  58.93700 26.42200 45.99300
N  52.25100 26.58500 45.74600
C  53.12800 27.51100 46.18100
C  52.44800 28.75500 46.26500
C  51.28100 28.62700 45.46300
C  51.26400 27.29900 45.11100
C  53.01400 30.04100 46.93600
C  50.12800 29.28000 44.94500
O  49.82000 30.47400 44.93500
C  49.35900 28.18200 44.12200
C  49.16700 28.78600 42.73900
O  49.98700 29.07400 41.87000
O  47.81400 28.84800 42.49500
C  47.43500 29.64700 41.29400
H  50.14900 21.27700 43.76300
H  56.01100 21.84500 46.02500
H  54.92300 28.12900 47.00000
H  47.88800 25.70600 43.08400
H  48.39700 22.94900 42.54000
H  48.38200 23.15900 45.37300
H  47.06500 22.53300 44.38700
H  47.16800 24.27500 44.80400
H  49.72600 24.43900 40.94900
H  49.69400 26.23400 41.21200
H  47.85100 26.49600 40.10800
H  46.95800 25.30100 40.87000
H  50.87300 18.82300 44.63300
H  52.27900 18.30100 43.67800
H  51.07200 19.38000 43.01800
H  56.58200 19.56800 46.32900
H  55.47900 18.48800 47.32100
H  55.32000 20.24300 47.42700
H  57.45000 24.17200 46.00800
H  56.38400 26.05400 48.09300
H  58.02900 22.77800 47.91500
H  56.34000 22.84500 48.24100
H  57.37200 24.15400 48.85800
H  57.47900 27.63300 46.94600
H  56.86000 27.00700 45.36500
H  59.17800 26.54300 44.93700
H  59.09400 25.38200 46.27900
H  59.54400 27.08900 46.60600
H  52.72600 29.96500 47.98500
H  52.56000 30.88000 46.40900
H  54.09000 30.15200 46.80200
H  48.42000 28.12300 44.67200
H  46.84600 29.00200 40.64200
H  48.30900 29.90700 40.69700
H  46.80900 30.49600 41.57200
Mg 9.82200 48.87300 25.65000
C  7.90200 49.29600 28.64500
C  12.44800 50.22400 27.45400
C  11.65200 48.53500 23.00600
C  6.91300 47.85000 24.10100
N  10.05600 49.69300 27.75300
C  9.17600 49.73100 28.80000
C  9.81000 50.21100 30.09900
C  11.15600 50.77800 29.60800
C  11.25100 50.18900 28.15100
C  11.27100 52.31300 29.50000
C  10.07100 49.05100 31.14500
C  9.47600 49.21200 32.48300
H  10.42200 49.88000 33.46800
N  11.81100 49.32700 25.26900
C  12.77700 49.76200 26.11300
C  14.07900 49.76900 25.48600
C  13.81600 49.36600 24.12600
C  12.34900 49.06400 24.11600
C  15.32300 50.31000 26.14200
C  14.82800 49.25900 22.97900
O  14.56800 48.94100 21.85800
C  16.25200 49.39300 23.34600
N  9.31100 48.51600 23.76000
C  10.26300 48.38600 22.80900
C  9.71200 47.81000 21.51300
C  8.24500 47.59100 21.91700
C  8.14400 47.96400 23.37000
C  9.86300 48.85800 20.38000
C  7.77000 46.13600 21.72500
C  8.41500 45.13600 22.65700
N  7.76800 48.68800 26.16800
C  6.71100 48.32900 25.42700
C  5.45400 48.45200 26.19800
C  5.93100 48.75300 27.45700
C  7.32100 48.91500 27.41800
C  4.02100 48.22400 25.78600
C  5.50000 49.01100 28.79500
O  4.37000 49.12500 29.21300
C  6.76800 49.22000 29.68500
C  6.93500 48.07300 30.55900
O  7.34600 47.00500 30.19100
O  6.41000 48.41700 31.77600
C  6.28600 47.32400 32.69300
H  13.25700 50.58400 28.09400
H  12.35700 48.23000 22.22900
H  6.01000 47.38000 23.70600
H  9.08500 50.93000 30.48000
H  11.90500 50.37200 30.28700
H  12.16800 52.50100 28.91000
H  11.44700 52.67200 30.51400
H  10.39800 52.75800 29.02300
H  11.13800 48.84800 31.23100
H  9.79800 48.12600 30.63700
H  9.05600 48.23500 32.71800
H  8.58300 49.83700 32.49500
H  15.15500 50.59400 27.18100
H  15.73400 51.12400 25.54400
H  16.02900 49.48300 26.22900
H  16.44500 50.43400 23.60800
H  16.90900 49.34200 22.47800
H  16.57600 48.62800 24.05200
H  10.24000 46.91300 21.18800
H  7.56300 48.29400 21.43900
H  10.16800 49.82200 20.78800
H  8.95100 49.06000 19.81900
H  10.53100 48.39300 19.65600
H  7.99300 45.81600 20.70700
H  6.69500 46.05100 21.88000
H  9.21300 45.64300 23.20000
H  8.83500 44.34700 22.03300
H  7.72500 44.81200 23.43700
H  3.70200 48.91400 25.00500
H  3.55000 48.60100 26.69400
H  3.88500 47.16400 25.57200
H  6.63500 50.16300 30.21600
H  5.92100 47.78900 33.60900
H  7.22800 46.83200 32.93400
H  5.52900 46.69700 32.22100

