158

Mg 8.18000 3.03100 27.06200
C  9.36200 1.50300 30.13500
C  6.31700 5.04600 28.99700
C  6.52600 3.82700 24.36200
C  9.89700 0.53900 25.37300
N  7.72000 3.07600 29.37100
C  8.54600 2.59800 30.34200
C  8.13000 3.17100 31.70000
C  7.08900 4.28100 31.29000
C  6.95200 4.07200 29.77500
C  5.67200 4.32000 32.05600
C  9.39200 3.82200 32.45700
C  9.69800 3.36700 33.95100
H  10.11900 4.43300 35.01600
N  6.81000 4.47500 26.64600
C  6.17000 5.27100 27.57200
C  5.17400 6.07800 26.86000
C  5.18700 5.73300 25.53300
C  6.21100 4.72500 25.42200
C  4.34200 7.11600 27.53700
C  4.39200 6.23400 24.32000
O  4.51100 5.86100 23.17500
C  3.33600 7.27200 24.51600
N  8.34700 2.43300 25.10200
C  7.49100 2.86200 24.18100
C  7.70700 2.07600 22.82400
C  8.98600 1.21700 23.12500
C  9.08600 1.38000 24.64300
C  6.40400 1.24900 22.48900
C  10.28500 1.55500 22.25300
C  11.17100 0.35700 21.87600
N  9.28000 1.35100 27.54900
C  10.00200 0.46900 26.78900
C  10.88200 -0.39500 27.51900
C  10.59500 -0.05200 28.87900
C  9.64600 0.99700 28.85900
C  11.83300 -1.42500 26.98900
C  10.88300 -0.43000 30.22000
O  11.56300 -1.29700 30.71000
C  10.15100 0.66500 31.14600
C  9.30100 -0.09500 32.05200
O  8.20100 -0.57700 31.73700
O  9.75200 -0.05400 33.31600
C  8.81400 -0.53300 34.36300
H  5.72000 5.68800 29.64800
H  5.93400 4.13000 23.49600
H  10.41200 -0.24600 24.81600
H  7.56600 2.41900 32.25300
H  7.60900 5.23500 31.38000
H  4.88600 3.93700 31.40500
H  5.56000 5.36900 32.33200
H  5.68500 3.68200 32.93900
H  9.15700 4.87200 32.63500
H  10.29600 3.89300 31.85200
H  10.57700 2.72500 34.00000
H  8.91600 2.66000 34.22900
H  4.43000 7.13000 28.62300
H  3.34000 6.77300 27.27800
H  4.54600 8.08900 27.08900
H  2.79800 7.46600 23.58800
H  3.71500 8.24600 24.82600
H  2.52200 6.91600 25.14900
H  7.95900 2.79400 22.04400
H  8.76500 0.15100 23.16500
H  5.73500 1.32800 23.34500
H  6.81600 0.24100 22.43800
H  5.98700 1.56200 21.53200
H  10.90900 2.14000 22.92800
H  9.92300 2.15200 21.41500
H  11.14300 0.16400 20.80400
H  10.70000 -0.50600 22.34900
H  12.08500 0.39000 22.46800
H  12.68200 -0.80000 26.71100
H  11.41100 -1.97800 26.15000
H  12.10500 -2.11600 27.78600
H  10.90900 1.24400 31.67200
H  8.43900 -1.54800 34.23300
H  7.95000 0.13200 34.39900
H  9.38300 -0.53300 35.29300
Mg 49.82000 35.96300 28.55400
C  47.50600 34.67000 30.48000
C  50.10900 38.67100 30.57500
C  52.15500 37.33600 26.39500
C  49.15600 33.71000 25.98800
N  49.00000 36.51400 30.43000
C  48.12400 35.75400 31.15100
C  47.84800 36.40900 32.60500
C  48.35500 37.88200 32.28300
C  49.27900 37.65500 31.09500
C  47.24500 38.92100 31.96900
C  48.44000 35.67800 33.76300
C  49.97400 35.33900 33.72900
H  50.74700 35.48300 35.00900
N  51.05100 37.73800 28.53700
C  51.03000 38.70400 29.53400
C  52.11100 39.63500 29.27900
C  52.67300 39.31600 27.97600
C  52.02000 38.07700 27.54500
C  52.33900 40.72700 30.22800
C  53.93600 39.94400 27.28100
O  54.56300 39.51900 26.32800
C  54.45700 41.20000 28.02000
N  50.32200 35.77300 26.24900
C  51.43700 36.35600 25.77400
C  51.82600 35.80900 24.39100
C  50.75700 34.66900 24.21500
C  50.10300 34.65300 25.57400
C  51.73300 36.86800 23.20300
C  51.39200 33.34900 23.82900
C  52.31900 33.33100 22.57700
N  48.66000 34.45400 28.27100
C  48.43600 33.59700 27.19400
C  47.54200 32.57100 27.57100
C  47.06100 33.03100 28.80400
C  47.78600 34.13900 29.19100
C  47.08200 31.38600 26.86300
C  46.10200 32.75600 29.88900
O  45.26500 31.81500 29.97900
C  46.24900 33.93800 30.92300
C  46.28100 33.31200 32.24600
O  46.94900 32.33000 32.46100
O  45.35600 33.78000 33.06200
C  45.35300 33.27500 34.42900
H  50.12300 39.41500 31.37400
H  53.02000 37.58400 25.77700
H  48.85500 32.93800 25.27600
H  46.78300 36.23200 32.75800
H  48.94200 38.22300 33.13600
H  47.29400 39.64000 32.78800
H  46.26400 38.44800 31.94100
H  47.37200 39.59800 31.12500
H  47.96700 34.70000 33.66900
H  48.13400 36.05900 34.73700
H  50.43700 35.99700 32.99300
H  50.13000 34.32600 33.35800
H  53.32600 40.68000 30.69000
H  51.68500 40.61200 31.09300
H  52.18600 41.68900 29.74100
H  53.83000 42.08900 28.09300
H  55.30200 41.52700 27.41300
H  54.84800 40.87600 28.98400
H  52.84400 35.42500 24.45100
H  49.99700 34.98900 23.50200
H  51.08200 36.61400 22.36600
H  52.72000 36.90700 22.74200
H  51.54800 37.83100 23.67900
H  50.65700 32.55800 23.68000
H  51.89500 32.87600 24.67200
H  53.36600 33.31500 22.87800
H  52.20200 34.34100 22.18500
H  52.02700 32.54100 21.88500
H  46.49200 31.77500 26.03300
H  46.52300 30.72900 27.52900
H  47.88600 30.74500 26.50200
H  45.42800 34.65000 30.84400
H  45.31300 34.18100 35.03300
H  46.16300 32.62000 34.74800
H  44.46700 32.69500 34.68600

