158

Mg 47.21900 25.09500 29.00800
C  47.98500 27.43600 31.48900
C  46.05800 22.90900 31.47900
C  46.45900 22.87700 26.57800
C  48.64500 27.15800 26.68100
N  47.14900 25.16800 31.25200
C  47.26700 26.32900 31.99700
C  46.71200 26.18600 33.42700
C  46.25300 24.64100 33.42400
C  46.46900 24.20600 31.93100
C  47.04100 23.73100 34.46800
C  45.51500 27.23000 33.68100
C  45.47800 27.99600 35.01600
H  45.05700 27.07200 36.20800
N  46.26500 23.23600 29.01500
C  45.95500 22.45700 30.12700
C  45.43400 21.16400 29.69100
C  45.50100 21.17900 28.26400
C  46.02600 22.49800 27.85000
C  44.79000 20.16900 30.63100
C  45.02400 20.14200 27.26700
O  45.04400 20.37900 26.04100
C  44.59900 18.81300 27.72000
N  47.53600 25.02300 26.91600
C  47.08800 24.02000 26.12200
C  47.56300 24.17700 24.73000
C  47.92400 25.70200 24.68300
C  48.07900 25.99100 26.16800
C  48.58200 23.14900 24.16900
C  46.81000 26.57700 23.96900
C  47.31800 27.96200 23.68500
N  48.26700 26.77400 29.08200
C  48.80500 27.52900 28.00800
C  49.37400 28.70600 28.50600
C  49.03700 28.74500 29.88600
C  48.39700 27.53800 30.17000
C  49.93700 29.81500 27.76300
C  49.05400 29.55200 31.12400
O  49.46800 30.70300 31.26100
C  48.47200 28.63000 32.24100
C  49.52700 28.58000 33.29800
O  50.25100 27.65900 33.61400
O  49.50300 29.73700 34.04000
C  50.15800 29.53100 35.34900
H  45.66900 22.24900 32.25700
H  46.51900 22.07400 25.84100
H  49.17600 27.83500 26.00900
H  47.48800 26.27900 34.18600
H  45.18400 24.55000 33.61600
H  47.95800 23.34200 34.02700
H  46.48200 22.82600 34.70800
H  47.26400 24.27800 35.38400
H  44.61300 26.62200 33.60800
H  45.54500 27.97300 32.88400
H  44.73900 28.79200 34.92900
H  46.48700 28.37700 35.17400
H  43.71000 20.05100 30.53900
H  44.91800 20.46500 31.67200
H  45.36100 19.27900 30.36800
H  45.17400 18.32000 28.50300
H  44.64500 18.18600 26.83000
H  43.60400 19.03000 28.10800
H  46.65600 24.06400 24.13600
H  48.88500 25.84800 24.18900
H  49.00500 22.46700 24.90500
H  49.38700 23.70800 23.69000
H  48.17700 22.47600 23.41300
H  45.90100 26.66900 24.56300
H  46.49800 26.09100 23.04400
H  46.64600 28.27500 22.88500
H  48.33500 27.91800 23.29700
H  47.30000 28.65500 24.52600
H  50.77700 29.57100 27.11300
H  50.26600 30.61700 28.42400
H  49.10800 30.05600 27.09700
H  47.70800 29.25000 32.70900
H  50.12800 30.42700 35.96800
H  51.23600 29.48200 35.19500
H  49.82700 28.75700 36.04100
Mg 48.14300 35.13600 27.83500
C  46.29600 33.61900 30.52700
C  48.41100 37.85000 29.84000
C  48.97400 36.87600 25.15400
C  47.38600 32.26900 25.87800
N  47.42200 35.63900 29.98200
C  46.95000 34.78000 30.90600
C  47.18000 35.30400 32.26000
C  47.30500 36.86400 31.99700
C  47.80900 36.81100 30.53200
C  46.02200 37.76700 32.08600
C  48.43100 34.73700 33.10700
C  48.15200 34.50200 34.58700
H  47.20300 35.49600 35.31600
N  48.66800 37.08100 27.51600
C  48.83600 38.00600 28.47700
C  49.50800 39.18700 27.96300
C  49.66200 38.93600 26.56600
C  49.12600 37.59100 26.36400
C  49.65800 40.50100 28.72200
C  50.18700 39.84500 25.37300
O  50.17000 39.52900 24.22800
C  50.71400 41.23200 25.75700
N  48.24700 34.61700 25.78700
C  48.56000 35.54800 24.95400
C  48.62000 34.90900 23.49800
C  48.22400 33.41800 23.75100
C  47.97800 33.39700 25.26100
C  47.65500 35.65200 22.47400
C  49.47500 32.45100 23.49100
C  49.32900 31.63100 22.23800
N  47.15600 33.22200 28.15700
C  46.85700 32.21800 27.22000
C  46.02900 31.23700 27.83900
C  45.71600 31.76600 29.11300
C  46.45400 32.99400 29.26800
C  45.59700 29.91600 27.22500
C  44.88500 31.55300 30.28600
O  43.91700 30.83400 30.50100
C  45.21100 32.74600 31.25000
C  45.47800 32.35000 32.61900
O  46.45200 31.63900 32.95400
O  44.61400 32.87800 33.52400
C  44.66000 32.46200 34.95800
H  48.63600 38.69900 30.48900
H  49.32300 37.27900 24.20200
H  47.20800 31.49800 25.12500
H  46.26200 35.17600 32.83400
H  48.05200 37.36100 32.61600
H  45.37300 37.56000 32.93600
H  45.52800 37.54700 31.14000
H  46.23600 38.83400 32.02600
H  49.17600 35.52500 32.99700
H  48.93200 33.86500 32.68600
H  49.09000 34.33800 35.11800
H  47.69900 33.51400 34.50700
H  50.55600 41.05100 28.44300
H  49.83300 40.18800 29.75100
H  48.72300 41.04500 28.58500
H  50.88000 41.73400 24.80400
H  51.67600 41.10100 26.25400
H  50.03700 41.81900 26.37800
H  49.63900 35.06500 23.14200
H  47.32700 32.99300 23.30200
H  48.15900 35.98700 21.56700
H  47.13900 36.49500 22.93500
H  46.95400 34.90300 22.10500
H  49.65400 31.71600 24.27600
H  50.33300 33.10900 23.35200
H  48.47600 31.95600 21.64300
H  49.02600 30.63900 22.57300
H  50.17400 31.66700 21.55100
H  46.35500 29.13300 27.21600
H  45.18700 30.22500 26.26300
H  44.74100 29.58000 27.81200
H  44.21500 33.18600 31.21800
H  43.77100 32.00400 35.39100
H  44.73900 33.31900 35.62700
H  45.60300 31.96700 35.19100

