158

Mg 2.02200 -1.44000 44.03700
C  5.36900 -1.04100 43.28900
C  1.36800 1.52700 42.26700
C  -1.33700 -2.06600 44.08800
C  2.64200 -4.63100 45.10500
N  3.19300 -0.07200 42.72800
C  4.56300 -0.03800 42.64200
C  5.12000 1.18200 41.76700
C  3.80100 1.98700 41.54700
C  2.72600 1.09600 42.26500
C  3.97400 3.36900 42.21000
C  5.69400 0.54400 40.51200
C  6.79700 1.32800 39.86700
H  6.51000 2.08100 38.56800
N  0.18500 -0.39600 43.31600
C  0.20000 0.88100 42.74400
C  -1.20400 1.42800 42.67500
C  -2.05300 0.32600 43.11800
C  -1.09500 -0.78400 43.59100
C  -1.55400 2.85300 42.16800
C  -3.60700 0.30000 43.00200
O  -4.23600 1.15900 42.39800
C  -4.34400 -0.75800 43.57100
N  0.84100 -3.10800 44.50000
C  -0.55100 -3.18500 44.43600
C  -1.13900 -4.57200 44.80500
C  0.22000 -5.34800 44.99200
C  1.35400 -4.28600 44.86700
C  -2.18000 -4.48300 45.99000
C  0.44800 -6.64300 44.08900
C  0.39400 -8.02000 44.79100
N  3.69600 -2.58000 44.37500
C  3.79300 -3.90300 44.76100
C  5.22000 -4.22500 44.84600
C  5.87400 -3.09900 44.32100
C  4.88800 -2.16500 43.96000
C  5.71000 -5.51100 45.33900
C  7.12500 -2.46900 44.01500
O  8.27700 -2.88800 44.18200
C  6.91600 -1.12600 43.34400
C  7.66700 0.01400 43.91800
O  8.62900 0.45400 43.33000
O  7.00400 0.70300 44.97800
C  7.41400 2.12100 45.27900
H  1.09900 2.54600 41.98100
H  -2.39400 -2.27200 43.90700
H  2.91500 -5.59800 45.53200
H  5.94400 1.62900 42.32300
H  3.43900 2.04800 40.52100
H  4.72100 3.33900 43.00400
H  3.08300 3.74400 42.71300
H  4.28100 4.11900 41.48000
H  4.87500 0.46100 39.79800
H  5.92500 -0.52000 40.56400
H  7.55500 0.63100 39.51000
H  7.24900 2.05800 40.53800
H  -1.66400 2.82000 41.08400
H  -0.82900 3.54700 42.59300
H  -2.53100 3.08200 42.59200
H  -5.39700 -0.52100 43.72200
H  -3.94600 -0.97200 44.56300
H  -4.17200 -1.61300 42.91600
H  -1.74800 -4.79100 43.92800
H  0.18900 -5.73300 46.01100
H  -1.76400 -5.00400 46.85200
H  -3.10800 -4.98100 45.70700
H  -2.31200 -3.42300 46.20200
H  1.41800 -6.50800 43.61100
H  -0.42900 -6.59500 43.44400
H  0.28500 -8.05200 45.87500
H  1.27900 -8.60400 44.54000
H  -0.54700 -8.47800 44.48400
H  5.29200 -6.26200 44.66900
H  5.43200 -5.70900 46.37500
H  6.79600 -5.54800 45.25700
H  7.25300 -1.26200 42.31600
H  7.83000 2.26100 46.27600
H  6.51300 2.71900 45.14100
H  8.19100 2.56000 44.65300
Mg 48.95600 34.89000 26.98500
C  47.14100 33.43500 29.63000
C  49.06900 37.84800 28.99700
C  50.72800 36.30000 24.67100
C  48.01100 32.20100 24.87700
N  48.20800 35.52200 29.13900
C  47.66400 34.68000 30.03700
C  47.55000 35.34200 31.41200
C  47.74700 36.89800 31.10300
C  48.37900 36.78700 29.67600
C  46.40300 37.77200 31.14900
C  48.49300 34.67900 32.41600
C  47.97500 34.26400 33.86500
H  47.01700 35.24500 34.57000
N  49.89800 36.74100 26.94100
C  49.80300 37.86000 27.78400
C  50.52000 38.99900 27.21800
C  51.04800 38.45900 25.98600
C  50.64200 37.05200 25.78900
C  50.50500 40.35600 27.75600
C  51.94200 39.18200 24.86900
O  52.53400 38.62800 23.97300
C  52.32100 40.68800 25.01000
N  49.23000 34.40500 25.10700
C  50.09700 35.09200 24.30900
C  50.54700 34.36700 23.03200
C  49.73000 33.06600 23.11900
C  48.90700 33.21300 24.42600
C  50.29900 35.19000 21.69800
C  50.56800 31.73800 23.20100
C  49.97600 30.57600 22.38900
N  47.72800 33.17300 27.15200
C  47.36300 32.21200 26.20200
C  46.51600 31.21400 26.86100
C  46.47200 31.65000 28.23000
C  47.09300 32.92400 28.32400
C  45.88900 30.03700 26.25300
C  45.88200 31.31000 29.49000
O  45.25400 30.38500 29.91800
C  46.20300 32.48700 30.46400
C  46.72200 31.82600 31.71400
O  47.86800 31.44500 31.87400
O  45.64400 31.62100 32.57800
C  45.99800 30.82500 33.71300
H  49.00100 38.71800 29.65400
H  51.30300 36.72500 23.84600
H  47.64000 31.36800 24.27500
H  46.54800 35.31700 31.84000
H  48.46500 37.35200 31.78500
H  45.95700 37.81400 30.15500
H  46.69800 38.74300 31.54600
H  45.72600 37.30800 31.86600
H  49.24200 35.46000 32.54900
H  48.92300 33.82700 31.88900
H  48.86700 34.25400 34.49200
H  47.58100 33.24800 33.88600
H  49.86700 41.05500 27.21400
H  51.48600 40.81900 27.65100
H  50.27400 40.38300 28.82100
H  52.71600 41.05100 24.06200
H  53.06500 40.68000 25.80700
H  51.49000 41.25500 25.42900
H  51.58100 34.05100 23.17000
H  48.97700 33.00500 22.33500
H  49.95600 34.58700 20.85700
H  51.22700 35.62900 21.33100
H  49.65600 36.03200 21.95400
H  50.59700 31.41400 24.24100
H  51.58900 31.98100 22.90500
H  48.98900 30.74800 21.96100
H  49.88500 29.70700 23.04000
H  50.57900 30.36100 21.50600
H  46.38600 29.73600 25.33000
H  44.86700 30.26900 25.95300
H  45.85300 29.19200 26.94000
H  45.25100 32.99500 30.62100
H  45.87100 29.77700 33.44500
H  45.29000 31.12600 34.48500
H  47.01800 30.87300 34.09300

