158

Mg 35.56600 1.54500 28.86700
C  33.44400 2.60100 31.30400
C  38.10400 1.30900 31.12800
C  37.80600 1.22000 26.19100
C  33.02400 1.81600 26.49600
N  35.71400 1.74300 31.01000
C  34.68900 2.20700 31.84200
C  35.11600 2.28100 33.30500
C  36.69000 2.01100 33.16100
C  36.80900 1.61500 31.67400
C  37.43700 3.22900 33.43200
C  34.37900 1.30000 34.31600
C  33.81800 1.93500 35.70500
H  34.51400 3.21400 36.26600
N  37.67500 1.27600 28.67200
C  38.52700 1.08900 29.77300
C  39.75800 0.48300 29.28600
C  39.74900 0.60200 27.85300
C  38.31800 1.04400 27.48700
C  40.89800 0.00200 30.17300
C  40.86100 0.40200 26.86500
O  40.67600 0.64900 25.67700
C  42.19900 -0.18400 27.37300
N  35.40600 1.68100 26.65200
C  36.50100 1.49600 25.79300
C  36.01000 1.71300 24.36700
C  34.45100 1.50600 24.39200
C  34.24400 1.68600 25.92800
C  36.36400 3.12200 23.77000
C  34.00500 0.06000 24.02700
C  33.03300 0.01900 22.78400
N  33.61000 1.97800 28.89100
C  32.69500 2.10400 27.78600
C  31.45900 2.69500 28.24200
C  31.70500 2.93000 29.61400
C  33.02000 2.49200 29.92300
C  30.14500 2.96400 27.52900
C  31.11400 3.42000 30.88000
O  30.00100 3.74100 31.21000
C  32.24300 3.28400 32.04100
C  32.58300 4.70000 32.46200
O  33.54500 5.35500 32.10600
O  31.64900 5.13200 33.37300
C  31.98000 6.36100 34.02200
H  38.88200 1.13300 31.87300
H  38.50200 1.33200 25.35700
H  32.23200 1.88700 25.74800
H  34.96800 3.29000 33.68900
H  37.06800 1.13400 33.68700
H  36.84700 4.02500 33.88600
H  37.93800 3.68900 32.58000
H  38.18100 2.94500 34.17600
H  35.04700 0.51700 34.67400
H  33.52100 0.95400 33.74100
H  33.79700 1.10700 36.41400
H  32.78500 2.21900 35.50200
H  41.80400 0.60000 30.06900
H  41.21600 -1.02500 29.99500
H  40.70800 0.03000 31.24600
H  42.91700 0.58000 27.67200
H  42.52000 -0.71800 26.47800
H  42.23700 -1.01400 28.07900
H  36.52600 0.96300 23.76800
H  33.91800 2.28500 23.84600
H  37.38600 3.02500 23.40200
H  36.30900 3.84000 24.58800
H  35.77500 3.48000 22.92500
H  33.53900 -0.32500 24.93400
H  34.91800 -0.48600 23.79100
H  33.23800 -0.85500 22.16600
H  33.24500 0.89600 22.17300
H  31.97300 -0.02600 23.03400
H  30.01500 2.31100 26.66500
H  30.19900 4.01000 27.22900
H  29.40300 2.75200 28.29900
H  31.85800 2.69700 32.87400
H  33.00800 6.39600 34.38300
H  31.29000 6.67000 34.80700
H  31.85400 7.16600 33.29800
Mg 47.33600 24.78000 28.82600
C  47.84900 27.43500 31.17900
C  46.34400 22.76100 31.39700
C  46.95500 22.42800 26.46500
C  48.64700 27.00400 26.41200
N  47.14600 25.06600 31.02300
C  47.31200 26.24500 31.75100
C  46.94300 25.95800 33.15800
C  46.68200 24.37000 33.28000
C  46.74200 24.03700 31.80200
C  47.68500 23.51500 34.28900
C  45.77100 26.84400 33.61700
C  45.70700 27.43700 35.05300
H  46.17200 26.61800 36.26400
N  46.80400 22.89600 28.89300
C  46.38300 22.20000 30.06000
C  45.89800 20.89600 29.69600
C  46.19000 20.74600 28.34400
C  46.70300 22.03000 27.83500
C  45.22600 19.93300 30.66700
C  45.95100 19.56100 27.44800
O  46.48300 19.52300 26.31800
C  45.39800 18.37200 27.97000
N  48.03400 24.63900 26.67100
C  47.58400 23.62100 25.95800
C  47.79200 23.88500 24.43200
C  48.36200 25.37700 24.44000
C  48.34500 25.71000 25.93500
C  48.70300 22.70000 23.83000
C  47.46000 26.26200 23.45800
C  46.27000 27.06200 24.14900
N  48.14500 26.75200 28.74200
C  48.67300 27.49200 27.70900
C  49.04800 28.84700 28.18800
C  48.75400 28.79500 29.51200
C  48.16200 27.53300 29.82800
C  49.67900 30.00900 27.38200
C  48.74000 29.66400 30.68100
O  49.08200 30.85400 30.78200
C  48.04600 28.79900 31.79600
C  49.01500 28.69300 32.90600
O  50.17100 28.32500 32.85200
O  48.47000 29.03700 34.07500
C  49.37900 29.03100 35.23700
H  45.98500 22.17600 32.24700
H  46.73600 21.76700 25.62300
H  48.97300 27.61900 25.57100
H  47.81600 26.23700 33.74900
H  45.63900 24.26900 33.58100
H  48.56800 24.11600 34.50800
H  48.03900 22.58300 33.85000
H  47.15700 23.30500 35.22000
H  44.79900 26.37800 33.45300
H  45.72900 27.73000 32.98400
H  44.65900 27.65000 35.26000
H  46.09500 28.45500 35.09100
H  44.21600 19.66700 30.35700
H  45.11400 20.35100 31.66800
H  45.83300 19.02800 30.63800
H  44.40100 18.58900 28.35200
H  45.96200 18.01900 28.83300
H  45.30200 17.67800 27.13500
H  46.81300 23.83700 23.95500
H  49.37800 25.33400 24.04700
H  49.50100 23.09700 23.20300
H  48.07600 22.10700 23.16500
H  49.09200 21.99300 24.56300
H  47.13100 25.53700 22.71400
H  48.15800 26.96500 23.00500
H  46.34600 26.92100 25.22700
H  45.28200 26.89700 23.71800
H  46.39100 28.13700 24.01200
H  49.67400 29.58600 26.37700
H  50.70500 30.18100 27.70900
H  49.18200 30.97000 27.51000
H  47.17100 29.37900 32.09000
H  50.22300 29.68300 35.01300
H  49.88400 28.09300 35.46700
H  48.93400 29.43800 36.14500

