158

Mg 26.51800 50.71000 25.91700
C  24.68700 51.92900 28.64200
C  28.59300 49.06400 28.14000
C  28.65700 50.10900 23.36500
C  24.44700 52.54800 23.79600
N  26.53800 50.36700 28.13600
C  25.71800 51.06700 29.04800
C  26.16700 50.75600 30.44700
C  27.52900 50.02000 30.24600
C  27.56400 49.76100 28.78100
C  28.89900 50.65200 30.86100
C  24.98100 49.86300 31.10900
C  24.40000 50.38300 32.44100
H  24.62700 49.46000 33.70500
N  28.31600 49.64600 25.70200
C  28.91700 49.01200 26.74300
C  30.15200 48.45600 26.25800
C  30.25500 48.83700 24.86500
C  29.08500 49.63000 24.54500
C  31.18100 47.68900 27.00000
C  31.34200 48.41400 23.77000
O  31.29800 48.75200 22.58900
C  32.34000 47.42200 24.13200
N  26.52800 51.19200 23.91200
C  27.53400 50.84700 23.04900
C  27.34100 51.36700 21.67400
C  25.91400 52.03500 21.65300
C  25.51800 51.89200 23.21200
C  28.41300 52.32000 21.21100
C  24.84700 51.39900 20.73900
C  23.75600 52.30300 20.08200
N  24.89400 51.91900 26.15700
C  24.09500 52.64600 25.20300
C  22.98000 53.39900 25.83800
C  23.21200 53.08400 27.18000
C  24.29600 52.18000 27.31400
C  21.98600 54.14100 25.07700
C  22.75100 53.38400 28.51300
O  21.81100 54.05500 28.92100
C  23.70800 52.76400 29.54600
C  24.36700 53.77400 30.37100
O  25.46000 54.26000 30.12800
O  23.61500 54.05100 31.45500
C  24.21500 54.99200 32.37400
H  29.23900 48.57000 28.86900
H  29.28900 49.97300 22.48400
H  23.75600 53.01900 23.09400
H  26.34400 51.64800 31.04700
H  27.42800 49.09900 30.81900
H  29.41900 49.93000 31.49100
H  28.57900 51.47400 31.50200
H  29.44900 51.04700 30.00700
H  25.30800 48.85600 31.36600
H  24.18500 49.71100 30.38000
H  23.31900 50.49300 32.35000
H  24.78600 51.34700 32.77200
H  30.82000 47.37300 27.97900
H  32.03800 48.34500 27.15400
H  31.41500 46.86400 26.32700
H  32.99700 47.35000 23.26600
H  31.92100 46.42900 24.29900
H  32.83000 47.79600 25.03100
H  27.33400 50.50400 21.00900
H  25.98000 53.09000 21.38800
H  28.20700 53.35500 20.93900
H  28.84400 51.90800 20.29800
H  29.24900 52.42400 21.90200
H  24.35700 50.54000 21.19700
H  25.44300 50.90200 19.97300
H  23.85800 53.31300 20.47900
H  22.77000 51.91600 20.33900
H  23.92400 52.26300 19.00600
H  21.64700 53.47900 24.28000
H  22.65700 54.88000 24.64000
H  21.18700 54.65800 25.61000
H  23.19300 52.00800 30.13800
H  25.17000 54.55000 32.65900
H  23.45600 54.99500 33.15500
H  24.31800 55.99200 31.95400
Mg -10.83500 38.03800 42.55800
C  -8.70200 35.42700 41.83300
C  -8.67400 40.16500 40.98800
C  -13.27400 40.43300 42.65700
C  -13.24100 35.55700 43.53000
N  -9.09100 37.66800 41.31000
C  -8.33900 36.53600 41.05300
C  -7.24300 36.83100 40.02800
C  -7.05900 38.34500 39.99000
C  -8.36900 38.79500 40.84400
C  -5.60400 38.90800 40.37000
C  -7.74800 36.20700 38.63600
C  -6.84700 35.10100 38.15100
H  -5.77500 35.58200 37.19000
N  -10.89200 40.08100 41.97800
C  -9.86000 40.77900 41.44100
C  -10.25400 42.19000 41.42600
C  -11.65400 42.28000 41.91500
C  -12.02000 40.92400 42.26500
C  -9.23800 43.17100 40.86400
C  -12.52300 43.58600 42.03500
O  -12.04200 44.73000 41.87700
C  -13.93500 43.55400 42.48400
N  -12.90600 38.00600 42.90700
C  -13.66200 39.13500 42.87700
C  -15.21000 38.80400 43.12000
C  -15.14500 37.23400 43.28000
C  -13.60900 36.93300 43.32000
C  -15.69100 39.53500 44.38800
C  -15.88600 36.44800 42.11100
C  -16.76700 35.27500 42.45000
N  -11.01200 35.98500 42.72100
C  -11.97900 35.16200 43.32400
C  -11.48100 33.86300 43.54000
C  -10.21200 33.85600 42.95200
C  -9.98300 35.20800 42.51300
C  -12.18100 32.76800 44.28700
C  -8.99200 33.14200 42.72600
O  -8.62300 32.00000 42.95800
C  -8.09100 34.07800 41.77900
C  -6.64200 34.12600 42.18000
O  -5.86900 33.21100 41.98300
O  -6.31800 35.20500 42.97700
C  -4.87200 35.33500 43.28300
H  -8.00700 40.96300 40.65600
H  -14.14600 41.06500 42.83600
H  -14.03800 34.89400 43.87400
H  -6.30100 36.37200 40.32800
H  -7.32900 38.58200 38.96100
H  -5.13400 39.16600 39.42000
H  -4.99000 38.15800 40.86800
H  -5.67000 39.74700 41.06200
H  -7.69900 36.95300 37.84200
H  -8.75100 35.80900 38.78700
H  -7.56500 34.44800 37.65500
H  -6.22500 34.68900 38.94600
H  -8.31900 43.01300 41.43000
H  -9.53100 44.21400 40.98400
H  -8.92900 42.96800 39.83900
H  -13.85200 43.04700 43.44500
H  -14.69600 43.13700 41.82500
H  -14.30600 44.54800 42.73700
H  -15.66800 39.18900 42.20900
H  -15.47500 36.95800 44.28100
H  -15.93900 40.51800 43.98700
H  -14.76900 39.61900 44.96300
H  -16.46300 39.00400 44.94400
H  -15.08800 36.12100 41.44500
H  -16.61000 37.09700 41.61700
H  -17.77800 35.60600 42.69000
H  -16.45600 34.81200 43.38600
H  -16.76000 34.52800 41.65600
H  -12.78300 33.22900 45.07000
H  -11.41900 32.17000 44.78800
H  -12.65500 32.11200 43.55800
H  -8.15300 33.64100 40.78200
H  -4.37200 35.75200 42.40900
H  -4.54500 34.37400 43.68000
H  -4.81100 36.04500 44.10800

