158

Mg 2.61200 -1.52900 43.81600
C  6.12700 -0.72800 43.32100
C  1.85300 1.16600 41.87700
C  -0.55200 -2.56600 43.80600
C  3.78700 -4.57500 45.15000
N  3.87900 -0.04800 42.71600
C  5.25700 0.16200 42.67200
C  5.63800 1.47100 42.01200
C  4.26300 2.12700 41.74100
C  3.22700 1.01000 42.08100
C  4.15600 3.61500 42.46500
C  6.43300 1.22400 40.69900
C  7.76500 1.94300 40.51500
H  8.32200 2.23100 39.16100
N  0.87600 -0.72400 43.07300
C  0.79600 0.33600 42.30100
C  -0.63000 0.68000 42.07400
C  -1.38200 -0.39500 42.70300
C  -0.34200 -1.31000 43.20500
C  -1.08100 1.87500 41.27300
C  -2.92800 -0.47900 42.68500
O  -3.69700 0.43600 42.45200
C  -3.63900 -1.74500 43.02500
N  1.76200 -3.42300 44.15800
C  0.43000 -3.45000 44.27500
C  0.08800 -4.91200 44.95100
C  1.48000 -5.48600 45.43300
C  2.36400 -4.36600 44.93200
C  -1.10100 -5.13100 45.94200
C  1.77000 -6.85400 44.73800
C  2.41400 -7.96000 45.69600
N  4.56700 -2.49800 44.27900
C  4.82700 -3.71300 44.89100
C  6.25600 -3.88100 45.04100
C  6.81100 -2.72500 44.44800
C  5.72100 -1.94600 43.95700
C  6.99900 -5.02300 45.61400
C  8.07800 -2.00700 44.11000
O  9.22400 -2.37000 44.30600
C  7.67200 -0.65400 43.45000
C  7.99500 0.42200 44.33900
O  8.04500 0.36600 45.57000
O  8.36100 1.54700 43.58500
C  8.79700 2.78100 44.40900
H  1.59000 2.02000 41.24900
H  -1.53300 -3.00100 44.01100
H  3.92800 -5.52900 45.66300
H  6.23300 2.00000 42.75600
H  4.13200 2.26000 40.66700
H  4.15900 4.39800 41.70700
H  4.97500 3.90200 43.12500
H  3.23200 3.61100 43.04400
H  5.89400 1.32300 39.75700
H  6.68300 0.16500 40.64500
H  8.46700 1.23700 40.96000
H  7.72100 2.86600 41.09400
H  -0.74100 1.78100 40.24200
H  -0.59800 2.78200 41.63700
H  -2.15400 2.05300 41.34200
H  -4.70600 -1.72700 42.80500
H  -3.44000 -1.99600 44.06700
H  -3.29900 -2.54000 42.36100
H  -0.18900 -5.43900 44.03800
H  1.43500 -5.39500 46.51800
H  -0.64700 -5.74500 46.72000
H  -1.98500 -5.56100 45.47200
H  -1.38400 -4.19500 46.42600
H  2.47700 -6.66000 43.93200
H  0.86500 -7.30500 44.33200
H  2.76600 -7.35400 46.53100
H  3.36200 -8.32400 45.30000
H  1.71900 -8.77500 45.89800
H  7.97100 -4.91700 45.13200
H  6.50100 -5.95500 45.34600
H  7.00600 -4.78100 46.67700
H  8.17700 -0.58300 42.48700
H  7.93800 3.42200 44.60800
H  9.55100 3.31900 43.83500
H  9.30200 2.44600 45.31500
Mg 17.08700 51.84200 26.34500
C  18.62900 50.14600 29.04300
C  14.73200 53.14900 28.52300
C  15.63200 53.28500 23.84100
C  19.22900 49.98400 24.14400
N  16.75100 51.55700 28.49200
C  17.50700 50.94000 29.42600
C  16.95600 51.26400 30.93700
C  15.60700 51.97700 30.62700
C  15.69000 52.28300 29.08500
C  14.28500 51.23600 31.13700
C  17.95600 52.27100 31.70500
C  18.08500 51.93500 33.26700
H  17.10000 51.09000 34.13700
N  15.33800 53.08700 26.19900
C  14.57700 53.57100 27.20700
C  13.70200 54.61300 26.66700
C  13.98300 54.71600 25.23300
C  14.96300 53.64300 25.00500
C  12.74600 55.34700 27.50400
C  13.45000 55.63200 24.16900
O  13.89600 55.55600 22.99000
C  12.45100 56.68900 24.56500
N  17.32900 51.54400 24.27800
C  16.61500 52.33800 23.44100
C  17.04500 52.15200 21.94000
C  18.18200 51.13200 22.09800
C  18.23300 50.81700 23.56000
C  15.89900 51.63100 21.00500
C  19.52200 51.54000 21.52200
C  20.32200 52.61100 22.19600
N  18.67800 50.43400 26.46500
C  19.43000 49.75500 25.52000
C  20.44700 49.06500 26.23900
C  20.13200 49.15900 27.63700
C  19.01200 49.93600 27.67700
C  21.62300 48.33400 25.66000
C  20.60100 48.77200 28.98000
O  21.63500 48.26100 29.40800
C  19.57700 49.42700 29.99000
C  18.96700 48.41700 30.83600
O  18.10900 47.59800 30.56600
O  19.59600 48.33400 32.12000
C  19.11800 47.33200 33.07700
H  14.12500 53.62000 29.30000
H  15.29200 53.75700 22.91700
H  19.85100 49.43900 23.43100
H  16.74200 50.32000 31.43700
H  15.61100 52.92500 31.16500
H  13.64600 51.29400 30.25600
H  13.72100 51.95000 31.73700
H  14.28400 50.26600 31.63600
H  17.65300 53.31000 31.57700
H  18.91200 51.90000 31.33400
H  18.14900 52.92000 33.72700
H  19.04400 51.44400 33.43400
H  13.05600 56.33700 27.83700
H  12.57200 54.94600 28.50200
H  11.76700 55.48300 27.04400
H  11.50700 56.20600 24.81600
H  12.36700 57.40500 23.74800
H  12.84800 57.18700 25.45000
H  17.45600 53.12500 21.66700
H  17.99300 50.18700 21.58700
H  16.03400 52.34600 20.19300
H  14.94300 51.62100 21.52900
H  16.17500 50.63800 20.65000
H  19.15700 51.99100 20.59900
H  20.02700 50.62200 21.22200
H  21.32700 52.21700 22.34600
H  19.99300 53.00200 23.15900
H  20.24500 53.39900 21.44700
H  21.25900 47.70400 24.84900
H  22.21400 47.73100 26.35000
H  22.28200 49.09100 25.23400
H  20.14700 50.13300 30.59500
H  19.37600 47.67500 34.07900
H  19.59600 46.35300 33.02700
H  18.03800 47.20700 33.00300

