158

Mg -0.82200 7.34800 26.60700
C  0.25700 9.21000 29.40400
C  -1.11800 4.62600 28.75500
C  -1.17200 5.36700 23.94200
C  -0.40600 10.06800 24.60400
N  -0.53200 7.00100 28.83900
C  -0.17000 7.95500 29.75600
C  -0.18300 7.37500 31.20700
C  -0.65900 5.87100 30.92100
C  -0.72700 5.77600 29.39200
C  0.13000 4.73800 31.63100
C  -1.12800 8.10500 32.19300
C  -0.55800 8.50200 33.52600
H  -0.99000 7.65400 34.71100
N  -1.13700 5.30100 26.35000
C  -1.33200 4.36500 27.33700
C  -1.59800 3.06100 26.74300
C  -1.62100 3.24000 25.36500
C  -1.27100 4.68300 25.12500
C  -1.71900 1.85900 27.59100
C  -1.71500 2.19700 24.30400
O  -1.50400 2.44400 23.09600
C  -2.20900 0.76400 24.71900
N  -0.76500 7.65400 24.59000
C  -0.99100 6.70800 23.70500
C  -1.28800 7.26700 22.32100
C  -1.32700 8.75800 22.58500
C  -0.84800 8.91100 23.99700
C  -0.26800 6.81000 21.20700
C  -2.78700 9.24900 22.52300
C  -3.44800 9.82800 21.28700
N  -0.10400 9.21500 26.83900
C  0.04900 10.23100 25.92700
C  0.64900 11.39900 26.62900
C  0.82300 11.01800 27.93200
C  0.29400 9.69300 28.07100
C  1.03700 12.69200 25.99700
C  1.24100 11.47800 29.19700
O  1.80400 12.51300 29.46200
C  0.84300 10.40900 30.26400
C  1.94300 10.01000 31.22700
O  2.67700 9.05900 31.06300
O  1.99300 10.87400 32.26600
C  3.14100 10.83700 33.19600
H  -1.33600 3.76200 29.38600
H  -1.39000 4.76900 23.05500
H  -0.42800 10.86500 23.85800
H  0.82500 7.40300 31.62100
H  -1.64700 5.74400 31.36400
H  0.93800 5.22000 32.18100
H  0.59500 4.19700 30.80600
H  -0.59700 4.13400 32.17400
H  -2.01600 7.48900 32.33500
H  -1.40500 9.00900 31.65100
H  -0.63400 9.57900 33.67900
H  0.52400 8.42300 33.42600
H  -0.85600 1.19500 27.55000
H  -2.64800 1.33800 27.36000
H  -1.93400 2.05800 28.64100
H  -3.18500 0.80900 25.20200
H  -1.45200 0.22800 25.29100
H  -2.38800 0.23100 23.78600
H  -2.20600 6.76400 22.01800
H  -0.71900 9.21700 21.80500
H  -0.27700 7.48400 20.35100
H  -0.61300 5.84000 20.84800
H  0.74900 6.81300 21.60200
H  -2.93800 9.99800 23.30100
H  -3.42300 8.49100 22.98000
H  -2.64600 10.25600 20.68600
H  -4.26400 10.49200 21.57200
H  -3.95800 9.01300 20.77200
H  1.96900 13.05200 26.43300
H  0.26000 13.43800 26.16100
H  1.16000 12.57700 24.92000
H  0.03500 10.89000 30.81500
H  3.39600 11.78300 33.67200
H  3.97300 10.44600 32.61000
H  3.02400 10.16700 34.04800
Mg 53.63100 24.93100 45.03700
C  51.19800 27.28500 44.01200
C  51.60400 22.36600 43.97000
C  56.32900 22.78800 44.76400
C  55.82300 27.57900 45.57300
N  51.65100 24.87700 43.90500
C  50.79800 25.95500 43.76500
C  49.37900 25.44400 43.39300
C  49.42000 23.91200 43.77700
C  50.94500 23.63300 43.95800
C  48.63400 23.41000 45.02900
C  49.10100 25.70900 41.83800
C  47.62700 25.66900 41.38800
H  47.23800 25.39700 39.92600
N  53.95600 22.91000 44.38800
C  52.93400 22.03600 44.02900
C  53.45200 20.69100 43.84800
C  54.85300 20.74100 44.19500
C  55.11100 22.15600 44.42900
C  52.63600 19.55700 43.45200
C  55.77500 19.56700 44.03700
O  55.30400 18.42300 43.96400
C  57.20700 19.77300 43.87000
N  55.73000 25.20700 44.87500
C  56.62600 24.13100 45.03000
C  58.03000 24.53900 45.28000
C  57.91700 26.11100 45.29800
C  56.35200 26.34900 45.28000
C  58.69400 23.88200 46.61000
C  58.64400 26.90300 44.15100
C  60.11600 27.35900 44.56600
N  53.50500 27.00300 45.19100
C  54.44100 27.92600 45.46500
C  53.80200 29.23500 45.45900
C  52.54500 29.01300 44.82200
C  52.42600 27.65300 44.63000
C  54.49400 30.46400 45.78600
C  51.37000 29.71900 44.26200
O  51.02900 30.88900 44.12000
C  50.47600 28.61200 43.68300
C  50.24800 28.89700 42.23900
O  51.01900 28.78100 41.33800
O  48.91200 29.30600 42.05000
C  48.31700 29.57900 40.73300
H  50.99000 21.48500 43.77100
H  57.15100 22.08000 44.89100
H  56.54700 28.38900 45.68400
H  48.61300 25.95100 43.98000
H  49.06500 23.33800 42.92100
H  48.00100 24.17400 45.48100
H  49.34700 22.91700 45.69000
H  47.93200 22.62800 44.74000
H  49.59100 24.91700 41.27100
H  49.59500 26.56500 41.37900
H  47.15300 26.63200 41.57800
H  47.17300 24.97700 42.09800
H  53.19900 18.75000 42.98300
H  51.81700 19.76900 42.76500
H  52.16500 19.19200 44.36400
H  57.57600 18.81200 43.50900
H  57.73100 20.05100 44.78400
H  57.30400 20.47600 43.04200
H  58.69300 24.22900 44.47200
H  58.20200 26.57500 46.24200
H  59.78000 23.79800 46.59800
H  58.25700 22.90700 46.82700
H  58.50500 24.52100 47.47300
H  58.20100 27.78400 43.68500
H  58.68100 26.18800 43.33000
H  60.27100 27.15500 45.62500
H  60.24000 28.43200 44.41900
H  60.91700 26.81200 44.06800
H  54.62100 30.66700 46.84900
H  53.89300 31.25400 45.33500
H  55.50000 30.56500 45.37900
H  49.56300 28.68700 44.27300
H  48.95100 29.45700 39.85500
H  47.97000 30.60700 40.62500
H  47.50700 28.90000 40.46900

