158

Mg 25.10300 -7.27600 48.01400
C  27.34600 -5.09000 46.82400
C  22.97800 -6.51700 45.36500
C  23.08300 -9.93800 48.76700
C  27.44700 -8.47800 50.21100
N  25.14500 -5.97100 46.26900
C  26.19300 -5.14000 46.01900
C  25.90100 -4.19300 44.80600
C  24.34800 -4.46000 44.63100
C  24.12500 -5.73600 45.45100
C  23.35100 -3.27100 45.08600
C  26.75200 -4.49400 43.48500
C  27.45400 -3.25900 42.88800
H  27.07900 -2.80400 41.46600
N  23.19500 -8.06900 47.23200
C  22.56400 -7.56100 46.14600
C  21.33600 -8.32300 45.89800
C  21.33400 -9.42700 46.83100
C  22.53600 -9.15600 47.70200
C  20.29900 -7.90400 44.83400
C  20.30300 -10.59300 46.81500
O  19.45200 -10.66100 45.89500
C  20.21800 -11.67400 47.82600
N  25.25000 -8.99800 49.32700
C  24.29500 -9.89900 49.53900
C  24.83600 -11.13100 50.29000
C  26.15900 -10.59600 50.78000
C  26.30900 -9.25100 50.05400
C  23.96500 -11.54000 51.57600
C  27.40300 -11.56200 50.39300
C  28.29900 -11.96400 51.60800
N  26.94800 -6.80500 48.48200
C  27.80500 -7.33100 49.48800
C  28.97100 -6.48000 49.60400
C  28.86400 -5.62100 48.54200
C  27.61500 -5.84600 47.88900
C  30.10100 -6.60000 50.59100
C  29.50700 -4.52900 47.87500
O  30.59400 -4.04200 48.01800
C  28.49300 -4.14400 46.73000
C  28.25700 -2.72700 46.94500
O  28.05000 -2.16700 48.03200
O  28.08000 -2.08400 45.76000
C  27.68200 -0.63800 45.78800
H  22.44100 -6.34000 44.43000
H  22.68700 -10.93900 48.94600
H  28.22000 -8.92600 50.84000
H  25.92000 -3.14800 45.11600
H  24.01800 -4.60700 43.60300
H  23.82300 -2.34600 45.41700
H  22.95000 -3.69100 46.00900
H  22.59400 -3.06400 44.33000
H  25.95000 -4.74000 42.78800
H  27.48000 -5.29600 43.60500
H  28.51500 -3.49500 42.80000
H  27.37700 -2.33700 43.46500
H  20.57900 -7.96700 43.78200
H  20.13000 -6.83000 44.90100
H  19.33900 -8.37800 45.04200
H  20.09800 -11.25200 48.82400
H  21.07800 -12.34000 47.74800
H  19.26500 -12.18000 47.66900
H  24.82800 -12.04100 49.68900
H  26.10600 -10.20100 51.79500
H  23.50900 -10.58800 51.85000
H  24.48500 -11.94700 52.44300
H  23.27600 -12.25600 51.12900
H  27.89900 -11.16100 49.50900
H  26.97400 -12.54100 50.17900
H  29.34400 -11.89700 51.30500
H  28.17600 -13.02100 51.84500
H  28.08200 -11.30800 52.45100
H  29.89200 -6.33300 51.62700
H  30.98000 -6.05700 50.24300
H  30.47900 -7.62300 50.57800
H  29.05300 -4.16300 45.79500
H  28.16300 -0.18100 46.65300
H  26.61500 -0.49800 45.96100
H  27.97500 -0.25500 44.81000
Mg 29.59300 57.37800 41.02400
C  26.62000 55.90100 39.93100
C  31.30500 55.14000 39.43700
C  32.22700 59.37100 41.43400
C  27.49200 59.99300 42.46000
N  28.97900 55.71300 39.83800
C  27.75300 55.22400 39.49500
C  27.85500 53.92800 38.65500
C  29.33300 53.58600 38.99700
C  29.97900 54.89500 39.35800
C  29.53000 52.62200 40.23500
C  27.45300 54.18900 37.12700
C  26.62500 52.99000 36.47100
H  26.71900 52.93900 34.94000
N  31.54600 57.23400 40.62900
C  32.07300 56.24900 39.93100
C  33.48600 56.36200 39.74100
C  33.83600 57.59500 40.36500
C  32.51000 58.12800 40.85500
C  34.33400 55.41600 39.00700
C  35.17600 58.06500 40.51400
O  36.09900 57.58200 39.86400
C  35.53400 59.37200 41.24700
N  29.76400 59.44600 41.69800
C  31.06600 59.97100 41.88500
C  30.98300 61.41600 42.38800
C  29.52300 61.48800 42.97300
C  28.88300 60.24500 42.31700
C  32.13000 61.78900 43.39900
C  28.74200 62.71200 42.45100
C  28.10500 63.61900 43.52900
N  27.50800 57.91300 41.15100
C  26.80300 58.96300 41.76800
C  25.36500 58.73100 41.68900
C  25.23200 57.50800 41.02600
C  26.60100 57.10700 40.65900
C  24.25400 59.59200 42.23700
C  24.27300 56.51700 40.52600
O  23.05400 56.49400 40.56900
C  25.15100 55.55000 39.75200
C  24.84700 54.18700 40.36400
O  25.32500 53.82300 41.43100
O  24.04900 53.45900 39.55500
C  23.48000 52.19000 39.89700
H  31.91800 54.25300 39.26200
H  33.10100 60.02600 41.44400
H  26.90300 60.77500 42.94400
H  27.21600 53.20000 39.15400
H  29.70500 53.18100 38.05600
H  28.68800 52.96800 40.83500
H  30.44400 52.74000 40.81600
H  29.37500 51.57400 39.98000
H  28.25700 54.44700 36.43800
H  26.74600 55.01800 37.08900
H  25.61900 53.06700 36.88300
H  27.07500 52.07100 36.84600
H  35.07800 55.86300 38.34800
H  33.70600 54.79500 38.36800
H  34.75100 54.65300 39.66400
H  36.59400 59.50800 41.46500
H  34.95700 59.25700 42.16400
H  35.16300 60.14200 40.57100
H  31.18100 62.09900 41.56200
H  29.33600 61.35900 44.03900
H  32.73600 62.54700 42.90200
H  32.84600 60.97900 43.53700
H  31.70300 62.03900 44.37000
H  28.08500 62.42100 41.63200
H  29.45600 63.36900 41.95500
H  28.90900 64.32800 43.72600
H  28.11900 62.94500 44.38600
H  27.12300 63.99000 43.23400
H  24.61700 60.18600 43.07600
H  23.45300 58.94200 42.58900
H  23.88200 60.21500 41.42300
H  24.80500 55.55800 38.71900
H  24.29600 51.51300 39.64600
H  22.65000 52.02500 39.21000
H  23.20600 52.00500 40.93600

