158

Mg 37.46500 50.29900 25.11200
C  37.40100 48.36900 27.98800
C  36.01600 52.73600 26.79100
C  37.21100 51.88100 22.13900
C  38.45600 47.33300 23.20700
N  36.86700 50.55100 27.16800
C  37.02000 49.64800 28.20300
C  36.52000 50.31200 29.46600
C  36.22400 51.74900 29.10200
C  36.36700 51.67200 27.60100
C  34.81100 52.31000 29.46700
C  37.55400 50.08100 30.72900
C  37.01400 49.46400 32.03300
H  35.44800 49.52200 32.13500
N  36.65500 52.08300 24.54300
C  36.07500 52.95200 25.37300
C  35.65300 54.14400 24.65200
C  35.95200 53.86500 23.30300
C  36.73800 52.57000 23.30200
C  34.84000 55.26400 25.33900
C  35.62000 54.70200 22.06400
O  36.10300 54.53300 20.88700
C  34.83500 56.07400 22.16000
N  37.78300 49.62500 22.93900
C  37.63000 50.57100 21.93600
C  37.90100 49.92600 20.55400
C  38.55600 48.55200 20.90500
C  38.25700 48.47900 22.39200
C  36.63900 49.85300 19.64400
C  40.02900 48.46200 20.61300
C  41.08300 48.84200 21.62400
N  37.91100 48.26900 25.47800
C  38.25700 47.19600 24.63400
C  38.49300 46.03800 25.48900
C  38.18000 46.44100 26.84000
C  37.79600 47.79400 26.76500
C  39.04600 44.79300 24.98000
C  38.18400 45.97400 28.16300
O  38.41700 44.86500 28.63400
C  37.61600 47.21700 29.01200
C  36.38600 46.74900 29.74900
O  35.19600 46.79500 29.41400
O  36.83300 46.05300 30.87800
C  35.83600 45.55200 31.85700
H  35.64700 53.50400 27.47500
H  37.09000 52.43400 21.20500
H  38.81000 46.46000 22.65400
H  35.60200 49.73500 29.58500
H  37.00800 52.36200 29.54600
H  34.54900 51.82900 30.40900
H  34.03600 52.06400 28.74100
H  34.68000 53.38000 29.63400
H  38.10300 50.99500 30.95500
H  38.41700 49.48400 30.43500
H  37.43500 49.91900 32.92900
H  37.25500 48.40200 31.99900
H  33.75800 55.14400 25.39700
H  35.19000 56.23900 25.00100
H  35.10300 55.36500 26.39200
H  33.84100 55.95600 22.59200
H  34.88900 56.49000 21.15400
H  35.40600 56.80300 22.73400
H  38.65800 50.65600 20.26600
H  38.12400 47.63500 20.50300
H  36.53700 48.82000 19.31100
H  36.86200 50.48400 18.78400
H  35.75500 50.15000 20.20900
H  40.28300 49.09500 19.76200
H  40.23400 47.47200 20.20500
H  40.77000 48.70200 22.65900
H  41.47500 49.84900 21.48100
H  41.92700 48.16300 21.50300
H  38.17100 44.32100 24.53300
H  39.26000 44.21300 25.87800
H  39.88100 45.08600 24.34400
H  38.32000 47.35400 29.83300
H  34.82500 45.55500 31.44800
H  35.81300 46.34400 32.60600
H  36.17400 44.65300 32.37200
Mg 17.17200 51.28900 25.77600
C  18.83600 50.27300 28.58900
C  14.46500 52.08100 27.69700
C  15.59000 52.47600 22.99800
C  19.77400 50.04300 23.80900
N  16.69100 51.13600 27.91200
C  17.52700 50.74900 28.87100
C  16.91200 51.04800 30.27100
C  15.44800 51.40600 30.02600
C  15.54700 51.60700 28.47700
C  14.41700 50.27000 30.39700
C  17.70800 52.16400 31.09500
C  17.99800 51.84900 32.52500
H  17.13400 52.51600 33.59500
N  15.28700 52.25000 25.41100
C  14.33100 52.45200 26.33700
C  13.16200 53.06600 25.73400
C  13.48500 53.28100 24.35800
C  14.86100 52.66800 24.21500
C  11.87500 53.40600 26.52700
C  12.59300 53.93800 23.26900
O  12.94600 53.98800 22.06000
C  11.33000 54.54900 23.59200
N  17.68700 51.36000 23.76800
C  16.84300 51.89300 22.79200
C  17.39200 51.63300 21.36800
C  18.84900 51.21500 21.71100
C  18.82000 50.82300 23.16800
C  16.59200 50.66400 20.52100
C  19.94700 52.21400 21.32000
C  21.02100 51.57600 20.45500
N  18.93700 50.34600 26.07900
C  19.88200 49.80200 25.16900
C  21.05400 49.27800 25.90000
C  20.70800 49.47400 27.21300
C  19.40400 50.06700 27.29600
C  22.31400 48.67400 25.24900
C  21.16900 49.31500 28.56100
O  22.23200 48.86400 29.03900
C  19.96300 49.87000 29.52600
C  19.63100 48.79400 30.51400
O  19.09600 47.69900 30.22900
O  20.09100 49.16100 31.74500
C  19.95300 48.25300 32.89100
H  13.55900 52.15700 28.30100
H  14.93700 52.66900 22.14500
H  20.58500 49.73900 23.14400
H  17.06000 50.19200 30.92800
H  15.25900 52.38800 30.45800
H  13.38400 50.61500 30.34700
H  14.56300 49.88900 31.40700
H  14.57000 49.48400 29.65700
H  16.99100 52.98300 31.15500
H  18.67600 52.37300 30.64000
H  19.04800 52.12300 32.63100
H  18.03900 50.77400 32.70000
H  11.86400 54.49400 26.45800
H  11.87500 53.12700 27.58100
H  11.03600 52.98000 25.97700
H  10.87500 55.08300 22.75700
H  11.70100 55.39900 24.16400
H  10.58500 53.96000 24.12800
H  17.31200 52.53100 20.75600
H  19.03900 50.25000 21.24000
H  16.52200 51.10300 19.52600
H  15.56700 50.65400 20.89200
H  17.05300 49.67700 20.48500
H  20.44600 52.65400 22.18400
H  19.58600 52.96500 20.61800
H  20.65300 51.53000 19.43000
H  21.29400 50.62800 20.91700
H  21.96500 52.10800 20.33800
H  22.00900 48.08700 24.38300
H  22.90200 48.04700 25.92000
H  22.96600 49.51800 25.02900
H  20.39000 50.63500 30.17500
H  19.19400 47.48600 32.73900
H  19.79700 48.91100 33.74600
H  20.96500 47.84900 32.93000

