158

Mg 25.27300 -6.85500 48.44900
C  27.47300 -4.68600 46.94000
C  22.90200 -6.12800 46.14300
C  23.79700 -9.74100 49.31000
C  28.13100 -8.03000 50.36000
N  25.27700 -5.55100 46.65800
C  26.23300 -4.67400 46.27500
C  25.77500 -3.86100 45.07700
C  24.23600 -4.12300 45.04000
C  24.09200 -5.31800 46.06600
C  23.30400 -2.93400 45.34000
C  26.49600 -4.27200 43.79400
C  27.00500 -3.06300 42.96300
H  26.19200 -2.61400 41.76600
N  23.49300 -7.80700 47.83900
C  22.64600 -7.29100 46.91400
C  21.50200 -8.25700 46.86200
C  21.74700 -9.33500 47.77300
C  23.06100 -9.04500 48.34000
C  20.40300 -8.08600 45.89600
C  20.82600 -10.44200 48.00800
O  19.73000 -10.46100 47.47900
C  21.20900 -11.68000 48.83600
N  25.87600 -8.56800 49.75300
C  24.96700 -9.54400 50.04000
C  25.41200 -10.48500 51.22000
C  26.96900 -10.06700 51.28500
C  27.01400 -8.79500 50.42100
C  24.64800 -10.22400 52.57500
C  27.90400 -11.25300 50.89700
C  28.97400 -11.73200 51.88400
N  27.27400 -6.26400 48.88500
C  28.28200 -6.80800 49.71100
C  29.48800 -6.10400 49.53700
C  29.17400 -5.21500 48.48700
C  27.84900 -5.41500 48.07400
C  30.81900 -6.35600 50.21000
C  29.76300 -4.18800 47.66700
O  30.87800 -3.75300 47.63400
C  28.73000 -3.86700 46.58600
C  28.49400 -2.38400 46.66800
O  28.65000 -1.51900 45.81600
O  27.71400 -2.21900 47.84300
C  27.05100 -0.90600 47.95900
H  22.11800 -5.87700 45.42500
H  23.39200 -10.69400 49.65600
H  28.98200 -8.40500 50.93200
H  25.94500 -2.83100 45.39200
H  23.95400 -4.33000 44.00800
H  22.84900 -2.59400 44.41000
H  23.74200 -2.10000 45.88800
H  22.40900 -3.14700 45.92500
H  25.80800 -4.77300 43.11400
H  27.28700 -5.00900 43.93000
H  27.99600 -3.42600 42.69000
H  27.20900 -2.18200 43.57200
H  20.65500 -8.45400 44.90200
H  20.22400 -7.01400 45.80900
H  19.40700 -8.41100 46.19600
H  22.24700 -11.93000 48.61900
H  20.57800 -12.47400 48.43600
H  20.99700 -11.44200 49.87800
H  25.30900 -11.53100 50.93200
H  27.31500 -9.77100 52.27600
H  23.57300 -10.37000 52.47300
H  24.69500 -9.15900 52.79900
H  24.97000 -10.79200 53.44800
H  28.41000 -10.87700 50.00700
H  27.30300 -12.13000 50.65700
H  29.05000 -12.81800 51.93700
H  28.89600 -11.36100 52.90600
H  29.95700 -11.43200 51.52000
H  30.89200 -7.40000 50.51500
H  30.91600 -5.68900 51.06700
H  31.73200 -6.14200 49.65500
H  29.04000 -4.08600 45.56400
H  25.98400 -1.09100 48.07700
H  27.22600 -0.25200 47.10500
H  27.36800 -0.34500 48.83800
Mg 47.04900 15.79500 28.22300
C  44.92400 15.60100 31.03200
C  49.27000 17.37300 30.43400
C  49.16300 16.26300 25.63900
C  44.64900 14.48700 26.27900
N  47.05900 16.45400 30.50500
C  46.12800 16.15300 31.43000
C  46.59600 16.41500 32.87800
C  47.91100 17.19900 32.57600
C  48.12600 16.99600 31.09000
C  47.96200 18.72200 32.99100
C  46.66800 15.12100 33.77700
C  46.25700 15.39000 35.25900
H  46.10800 16.82000 35.78500
N  48.98000 16.58600 28.04800
C  49.75800 17.10900 29.07600
C  51.04400 17.29400 28.54100
C  51.03600 17.06300 27.09400
C  49.67400 16.58300 26.86500
C  52.18300 17.75000 29.33800
C  52.17500 17.18800 26.05100
O  52.19600 16.75900 24.89500
C  53.51600 17.80800 26.48800
N  46.97600 15.36300 26.27800
C  47.88600 15.74300 25.36100
C  47.51900 15.39400 23.92300
C  46.11900 14.76400 24.16200
C  45.88400 14.79500 25.68800
C  47.64100 16.52400 22.86000
C  46.01300 13.29200 23.72000
C  45.08400 13.15200 22.59000
N  45.12700 15.17000 28.53900
C  44.28200 14.58100 27.62300
C  43.10100 14.18600 28.31900
C  43.30400 14.54700 29.64900
C  44.55300 15.13700 29.73600
C  41.95500 13.51400 27.63300
C  42.69500 14.54800 31.03400
O  41.66000 14.08400 31.40000
C  43.82800 15.12000 31.99200
C  43.19400 16.26500 32.79800
O  43.21800 17.47600 32.52100
O  42.55800 15.66900 33.90200
C  41.90100 16.65500 34.77000
H  49.98500 17.96900 31.00600
H  49.73900 16.61400 24.77900
H  43.86200 14.08600 25.63700
H  45.84000 17.08000 33.29400
H  48.66900 16.67400 33.15700
H  46.95500 18.99700 33.30300
H  48.27700 19.35000 32.15800
H  48.73000 18.73900 33.76500
H  47.70300 14.80400 33.90800
H  46.21500 14.30200 33.21900
H  46.92600 14.84100 35.92100
H  45.29400 14.88300 35.32800
H  53.13400 17.36800 28.96700
H  52.02900 17.33800 30.33600
H  52.17600 18.84000 29.34000
H  53.50900 18.70300 27.11000
H  54.10000 18.02700 25.59500
H  54.09200 17.02500 26.98100
H  48.19400 14.59500 23.61600
H  45.40000 15.42300 23.67400
H  47.35200 17.50100 23.24700
H  47.07400 16.16200 22.00200
H  48.66300 16.61800 22.49500
H  45.74400 12.59700 24.51600
H  47.02500 13.02400 23.41500
H  45.47700 12.39700 21.90900
H  45.01200 14.11100 22.07700
H  44.10900 12.89800 23.00500
H  41.74200 14.08000 26.72700
H  41.02800 13.48600 28.20500
H  42.22700 12.50000 27.34000
H  44.08800 14.26700 32.61800
H  40.95300 17.03500 34.39100
H  42.48000 17.57400 34.86700
H  41.71700 16.25000 35.76500

