158

Mg 2.31500 -0.74400 43.42500
C  5.57300 0.28300 42.97700
C  1.37300 2.05700 41.51500
C  -0.91500 -1.85000 43.49300
C  3.38500 -3.76800 44.59300
N  3.32700 0.97000 42.27600
C  4.66300 1.13200 42.31100
C  5.08900 2.23900 41.41000
C  3.77900 2.97300 41.05300
C  2.75400 1.94900 41.64100
C  3.68400 4.40800 41.66300
C  5.91200 1.67600 40.15600
C  6.91000 2.72100 39.61900
H  6.62600 3.06100 38.15500
N  0.53700 0.05500 42.89000
C  0.35100 1.20100 42.01900
C  -1.09500 1.25800 41.76200
C  -1.76000 0.26300 42.47700
C  -0.71200 -0.56900 42.99800
C  -1.73200 2.31300 40.96100
C  -3.33200 0.13600 42.53200
O  -4.09800 0.94100 41.94400
C  -3.86200 -0.93200 43.26700
N  1.38500 -2.67500 43.80000
C  0.04700 -2.83700 43.93000
C  -0.31100 -4.29500 44.28000
C  1.06600 -4.83200 44.86800
C  2.02400 -3.67200 44.43600
C  -1.51600 -4.45200 45.30400
C  1.49900 -6.23600 44.36700
C  1.63200 -6.45300 42.86500
N  4.07300 -1.55200 43.86400
C  4.39200 -2.84300 44.38400
C  5.79400 -2.94700 44.54200
C  6.33600 -1.74900 44.00400
C  5.22100 -0.92300 43.66300
C  6.60800 -4.20100 44.85000
C  7.55400 -1.06800 43.66600
O  8.70700 -1.41900 43.67300
C  7.09200 0.26300 42.97800
C  7.56900 1.33900 43.81200
O  7.56500 1.38600 45.03800
O  8.13600 2.36000 43.05600
C  8.80900 3.48100 43.81000
H  0.99200 2.97900 41.07000
H  -1.90200 -2.29600 43.63300
H  3.68400 -4.75300 44.95700
H  5.83500 2.81900 41.95400
H  3.67900 2.97500 39.96700
H  4.62000 4.63400 42.17400
H  2.75500 4.48700 42.22700
H  3.53400 5.04500 40.79100
H  5.16300 1.52600 39.37800
H  6.37400 0.69800 40.29200
H  7.88300 2.33900 39.93100
H  6.66300 3.62300 40.17700
H  -2.10500 1.89700 40.02500
H  -0.98300 3.07200 40.73600
H  -2.50000 2.91000 41.45300
H  -4.94800 -0.87300 43.33700
H  -3.33200 -0.97000 44.21800
H  -3.71900 -1.83600 42.67400
H  -0.50100 -4.92300 43.40900
H  0.96100 -4.92200 45.94900
H  -2.28900 -5.03500 44.80300
H  -1.87400 -3.47400 45.62700
H  -1.11900 -5.00900 46.15300
H  0.80900 -6.97900 44.76800
H  2.41100 -6.45400 44.92300
H  2.70200 -6.55200 42.68100
H  1.20400 -5.64800 42.26700
H  1.09000 -7.34100 42.54100
H  5.97300 -4.87800 45.42100
H  7.45900 -3.96700 45.49100
H  6.93400 -4.71900 43.94800
H  7.50700 0.26100 41.97000
H  8.45100 4.45700 43.48500
H  9.87300 3.39300 43.58700
H  8.68600 3.38900 44.89000
Mg 16.23400 51.79400 26.66600
C  18.25900 50.50200 29.31800
C  13.96700 52.74100 29.09400
C  14.67700 53.52300 24.33800
C  18.39700 50.41300 24.36600
N  16.27700 51.86300 29.02300
C  17.14300 51.24400 29.83700
C  16.69900 51.25200 31.28500
C  15.17000 51.70900 31.15000
C  15.07000 52.11100 29.64800
C  14.11100 50.68300 31.67300
C  17.59300 52.21500 32.13000
C  17.79800 51.79900 33.58400
H  17.24800 52.60500 34.72600
N  14.51700 52.86300 26.68800
C  13.71500 53.15500 27.76600
C  12.60400 53.91000 27.27100
C  12.89000 54.31200 25.92800
C  14.08900 53.54600 25.55500
C  11.41700 54.26000 28.10400
C  12.19700 55.29100 25.04600
O  12.57900 55.63200 23.92300
C  10.97300 56.05600 25.56300
N  16.42900 51.90200 24.57100
C  15.67500 52.73000 23.80800
C  16.23300 52.82600 22.32900
C  17.33400 51.66900 22.36500
C  17.41200 51.28200 23.86600
C  15.05800 52.82000 21.26200
C  18.78100 52.05200 21.78000
C  19.66900 53.15700 22.45700
N  17.90400 50.55500 26.77700
C  18.66200 50.06900 25.72700
C  19.83800 49.37400 26.29100
C  19.65100 49.42400 27.65600
C  18.54400 50.26300 27.92400
C  20.95500 48.71100 25.48000
C  20.19500 49.01900 28.89600
O  21.16000 48.26500 29.04400
C  19.40100 49.68600 30.06000
C  18.78000 48.49200 30.81600
O  18.32500 47.46100 30.32500
O  18.97000 48.73600 32.21200
C  18.41600 47.67200 32.94800
H  13.27300 52.96900 29.90600
H  14.23500 54.17200 23.58000
H  19.03200 49.98700 23.58600
H  16.74100 50.20900 31.60000
H  14.98600 52.68800 31.59400
H  13.65200 51.07100 32.58300
H  14.60800 49.80200 32.08000
H  13.40900 50.47400 30.86500
H  17.15700 53.21100 32.05200
H  18.53900 52.34100 31.60500
H  18.87900 51.85000 33.71800
H  17.48600 50.77600 33.79500
H  11.70800 55.00300 28.84700
H  11.13900 53.36600 28.66300
H  10.52400 54.51500 27.53500
H  10.04300 55.50300 25.69800
H  10.75500 56.87400 24.87600
H  11.26900 56.60500 26.45600
H  16.75900 53.75600 22.11200
H  16.92000 50.81500 21.82900
H  15.34300 52.14500 20.45500
H  14.90700 53.81500 20.84300
H  14.10700 52.47000 21.66400
H  18.71000 52.28900 20.71800
H  19.39600 51.16100 21.65200
H  19.51000 54.13400 22.00200
H  20.68800 52.78400 22.34500
H  19.46000 53.19700 23.52600
H  21.57200 49.47700 25.01000
H  20.51300 48.02200 24.76100
H  21.59700 48.00200 26.00400
H  19.98100 50.31400 30.73700
H  18.61900 46.71700 32.46300
H  17.36400 47.82800 33.18700
H  19.04800 47.54800 33.82700

