158

Mg 31.01700 58.67200 38.97800
C  28.20000 56.76900 38.15700
C  33.10000 56.05400 38.44900
C  33.65300 60.72300 39.35100
C  28.90700 61.46500 39.03600
N  30.64700 56.65500 38.16400
C  29.39500 56.08500 38.07500
C  29.60500 54.54200 37.72000
C  31.19400 54.36600 37.82700
C  31.70800 55.76400 38.20500
C  31.66300 53.10100 38.70700
C  29.02900 54.04000 36.35400
C  29.45300 54.71800 35.04600
H  28.33300 55.33900 34.14900
N  33.06200 58.43300 39.00700
C  33.77100 57.29700 38.76900
C  35.21400 57.56200 38.92300
C  35.35700 58.93200 39.23000
C  33.97100 59.44600 39.15000
C  36.22500 56.48700 38.66100
C  36.68900 59.53500 39.59600
O  37.72400 58.82000 39.56000
C  36.91200 61.06200 39.90800
N  31.32000 60.84400 39.01400
C  32.45600 61.40400 39.25100
C  32.37400 62.94300 39.23100
C  30.89800 63.13600 39.60800
C  30.29200 61.73000 39.29900
C  33.32900 63.72000 40.14000
C  30.21200 64.33100 38.81700
C  29.11300 65.09500 39.45000
N  28.98300 59.12900 38.67300
C  28.26500 60.27600 38.78200
C  26.81900 60.05300 38.52500
C  26.74500 58.65200 38.30200
C  28.13500 58.15000 38.34700
C  25.69600 61.08500 38.62500
C  25.82000 57.56400 38.13700
O  24.59900 57.53600 38.09800
C  26.74500 56.24000 38.00000
C  26.35600 55.19800 39.08900
O  26.90800 55.09500 40.18600
O  25.34700 54.40200 38.60300
C  24.73800 53.33100 39.39900
H  33.75900 55.19800 38.28800
H  34.48000 61.38900 39.09400
H  28.30600 62.37100 39.13200
H  29.22900 54.02500 38.60300
H  31.55400 54.09300 36.83500
H  32.35900 52.43800 38.19300
H  30.89000 52.46300 39.13600
H  32.17200 53.44700 39.60700
H  27.98800 54.35800 36.40900
H  29.03600 52.95100 36.31500
H  29.93500 53.99800 34.38500
H  30.22200 55.45000 35.29200
H  37.11600 56.87200 38.16500
H  35.81100 55.71300 38.01500
H  36.53700 55.98800 39.57900
H  36.11100 61.36700 40.58000
H  36.90700 61.59700 38.95800
H  37.90800 61.03900 40.35100
H  32.65700 63.10100 38.19000
H  30.81000 63.24200 40.68900
H  34.37400 63.56800 39.86900
H  33.08600 63.50000 41.18000
H  33.13000 64.77900 39.97700
H  29.89900 64.00300 37.82600
H  31.00000 65.04400 38.57100
H  29.13000 65.15200 40.53900
H  28.19600 64.59700 39.13400
H  29.50300 66.07000 39.15900
H  25.05700 61.11000 37.74300
H  26.19800 62.03500 38.81000
H  25.03500 60.81800 39.44900
H  26.58600 55.73200 37.04900
H  24.90000 52.30200 39.07700
H  23.68400 53.49500 39.62100
H  25.19400 53.39200 40.38800
Mg -10.46400 38.93300 41.11600
C  -8.64300 36.04400 40.38800
C  -8.00500 40.76200 39.42000
C  -12.42700 41.57400 41.00700
C  -13.00000 36.98200 42.45400
N  -8.58200 38.56200 40.04400
C  -8.10800 37.25100 39.84800
C  -7.02100 37.21400 38.76800
C  -6.60000 38.69900 38.74200
C  -7.85300 39.42400 39.34900
C  -5.24200 39.09300 39.47900
C  -7.47300 36.61900 37.38500
C  -6.71300 35.52000 36.78500
H  -6.13100 35.70400 35.41600
N  -10.19400 40.91000 40.53300
C  -9.13600 41.43600 39.78800
C  -9.33500 42.85200 39.71700
C  -10.59900 43.13500 40.21300
C  -11.15000 41.86600 40.62200
C  -8.32800 43.69700 39.05900
C  -11.16300 44.56900 40.40500
O  -10.54900 45.50400 40.01600
C  -12.42500 44.78100 41.17300
N  -12.44300 39.22500 41.49100
C  -13.00300 40.38600 41.42000
C  -14.46000 40.35000 41.98700
C  -14.78900 38.80100 42.06900
C  -13.31700 38.26300 42.05700
C  -14.52700 41.18600 43.37900
C  -15.42400 38.12000 40.78100
C  -16.49100 37.08000 41.04000
N  -10.77400 36.90800 41.52600
C  -11.81600 36.25400 42.21400
C  -11.40900 34.88000 42.35200
C  -10.22700 34.72500 41.65300
C  -9.86700 36.01300 41.15200
C  -12.15300 33.79700 43.10800
C  -9.18100 33.81500 41.17200
O  -9.08900 32.60200 41.34500
C  -8.19200 34.59700 40.29300
C  -6.80400 34.42500 40.89300
O  -6.02800 33.55200 40.52100
O  -6.55200 35.33900 41.86600
C  -5.15800 35.44600 42.20000
H  -7.16100 41.28600 38.96700
H  -13.13400 42.40500 40.94900
H  -13.82900 36.39500 42.85500
H  -6.24600 36.59500 39.21900
H  -6.52200 39.03200 37.70700
H  -4.50200 38.29300 39.50500
H  -5.40300 39.33600 40.53000
H  -4.65000 39.88000 39.01200
H  -7.25900 37.41500 36.67200
H  -8.55500 36.49200 37.35900
H  -7.30300 34.60400 36.75100
H  -5.94200 35.23800 37.50200
H  -8.16700 44.62700 39.60400
H  -8.62100 43.94500 38.03900
H  -7.33400 43.25300 39.11900
H  -12.41200 45.82200 41.49800
H  -12.41700 44.16000 42.06800
H  -13.32100 44.63000 40.57100
H  -15.14900 40.78800 41.26500
H  -15.17600 38.63900 43.07500
H  -13.54200 41.61900 43.55100
H  -14.77200 40.58300 44.25300
H  -15.26400 41.98100 43.26300
H  -14.59200 37.67800 40.23400
H  -15.85900 38.94200 40.21300
H  -16.84800 37.27500 42.05100
H  -16.16700 36.04000 40.98200
H  -17.25700 37.23100 40.28000
H  -12.71500 33.13100 42.45300
H  -12.88000 34.31100 43.73800
H  -11.41200 33.32200 43.75000
H  -8.15700 34.20300 39.27700
H  -4.99000 36.51300 42.05200
H  -4.54200 34.84100 41.53400
H  -4.98200 35.24100 43.25600

