158

Mg 23.95800 -5.26100 44.98000
C  25.69300 -2.69700 43.17900
C  21.19400 -4.55400 43.15000
C  22.74000 -8.24700 45.88800
C  27.10900 -6.24000 46.35400
N  23.52700 -3.78900 43.45700
C  24.35300 -2.84400 42.85800
C  23.59400 -2.06200 41.77900
C  22.08000 -2.42700 42.07500
C  22.23200 -3.69300 42.98600
C  21.24400 -1.25800 42.71900
C  24.05800 -2.42500 40.30200
C  24.21900 -1.26300 39.37600
H  24.43800 -1.38100 37.82800
N  22.12100 -6.19900 44.73900
C  21.10600 -5.76500 43.96200
C  19.96200 -6.73300 44.07300
C  20.34300 -7.73600 44.98600
C  21.78700 -7.47000 45.24800
C  18.59300 -6.57200 43.38100
C  19.41400 -8.75000 45.55000
O  18.25600 -8.83400 45.14700
C  19.95600 -9.70600 46.52300
N  24.80200 -6.97100 46.08300
C  24.01700 -8.03500 46.30300
C  24.90100 -9.12500 46.93800
C  26.21400 -8.43100 47.31700
C  26.06100 -7.15500 46.50800
C  24.35500 -9.81900 48.22300
C  27.43900 -9.33200 47.17100
C  28.37900 -9.15900 48.32400
N  25.95700 -4.57000 44.97800
C  27.11500 -5.07200 45.58200
C  28.23900 -4.15900 45.26100
C  27.73100 -3.27100 44.33100
C  26.33700 -3.52900 44.18600
C  29.65600 -4.23000 45.80400
C  28.17100 -2.23400 43.37000
O  29.24500 -1.92700 42.94000
C  26.78800 -1.69200 42.66800
C  26.50800 -0.33000 43.17100
O  26.57600 0.01700 44.34600
O  26.21500 0.49300 42.11000
C  25.91000 1.86300 42.51600
H  20.30400 -4.36600 42.54500
H  22.26800 -9.21300 46.07900
H  28.07500 -6.38400 46.84200
H  23.78200 -0.99600 41.90600
H  21.56800 -2.82900 41.20200
H  20.29800 -1.19000 42.18000
H  21.74800 -0.29300 42.65700
H  20.90600 -1.39200 43.74600
H  23.37800 -3.18000 39.90900
H  25.02500 -2.92500 40.34800
H  25.01600 -0.65700 39.80600
H  23.29600 -0.69100 39.47400
H  18.54900 -5.63000 42.83300
H  17.76100 -6.48800 44.08000
H  18.36100 -7.38500 42.69300
H  19.05200 -10.05000 47.02600
H  20.55100 -9.11000 47.21600
H  20.48700 -10.48800 45.98000
H  24.94600 -9.83300 46.11000
H  26.12600 -8.16200 48.37000
H  25.06400 -9.87000 49.04900
H  24.05500 -10.83000 47.94500
H  23.55500 -9.22900 48.67000
H  27.93400 -9.04000 46.24500
H  27.09200 -10.36600 47.17700
H  29.15100 -9.92900 48.31200
H  27.93500 -9.26100 49.31400
H  28.94600 -8.23400 48.22400
H  30.06700 -5.22300 45.62400
H  29.61400 -3.95900 46.85900
H  30.17800 -3.44200 45.26200
H  26.75400 -1.70700 41.57900
H  24.94000 1.84200 43.01100
H  25.77000 2.46900 41.62100
H  26.60800 2.32800 43.21200
Mg 17.47100 51.45400 25.82000
C  19.21800 50.06100 28.59700
C  14.76100 52.16600 28.00800
C  15.60100 52.37600 23.24000
C  19.89500 50.12900 23.76700
N  16.98200 51.00500 28.04700
C  17.94700 50.65200 28.94400
C  17.52800 50.98500 30.40200
C  15.99200 51.47400 30.20300
C  15.81700 51.51000 28.64300
C  14.87700 50.57500 30.80000
C  18.41800 52.12800 30.98300
C  18.49300 52.12600 32.51300
H  17.47200 51.31700 33.24300
N  15.51700 52.28200 25.66900
C  14.59300 52.53600 26.67300
C  13.51500 53.33400 26.08700
C  13.72600 53.46000 24.66100
C  14.96600 52.66800 24.45700
C  12.35700 53.78800 26.99500
C  12.87500 54.09300 23.55500
O  13.19900 54.03300 22.35100
C  11.55600 54.74700 23.87900
N  17.64100 51.13500 23.80300
C  16.77700 51.64800 22.93200
C  17.16600 51.31700 21.55700
C  18.73900 50.97900 21.73600
C  18.78300 50.75300 23.21600
C  16.34400 50.15900 20.95600
C  19.70100 52.15500 21.23700
C  19.40400 53.51800 21.82900
N  19.21800 50.35200 26.04100
C  20.11300 49.95700 25.12700
C  21.21300 49.18600 25.75300
C  20.86800 49.28000 27.12400
C  19.70800 50.01600 27.20300
C  22.37000 48.46300 25.10600
C  21.33000 48.88400 28.41400
O  22.30900 48.33600 28.89100
C  20.22400 49.31700 29.40800
C  19.73800 48.14100 30.20700
O  19.13800 47.18000 29.85400
O  20.09800 48.28300 31.46700
C  19.64700 47.41000 32.54100
H  13.97100 52.36400 28.73500
H  15.10100 52.76900 22.35200
H  20.62800 49.86100 23.00400
H  17.62800 50.04400 30.94200
H  15.87600 52.49600 30.56400
H  14.27000 51.22400 31.43000
H  15.33600 49.73800 31.32700
H  14.26400 50.10900 30.02800
H  18.18200 53.11200 30.57900
H  19.45500 51.95400 30.69800
H  18.19500 53.14000 32.78000
H  19.51100 51.97300 32.87000
H  11.60100 54.38400 26.48400
H  12.84100 54.37700 27.77300
H  11.94100 52.89800 27.46700
H  10.79000 54.08700 24.28700
H  11.25200 55.29200 22.98600
H  11.68700 55.65000 24.47600
H  17.05100 52.22600 20.96700
H  18.98000 50.03500 21.24700
H  15.60500 50.62400 20.30300
H  15.80600 49.49000 21.62800
H  16.97200 49.57400 20.28400
H  19.75600 52.05800 20.15300
H  20.62700 51.75600 21.65000
H  20.32200 53.85100 22.31200
H  18.44400 53.55400 22.34400
H  19.40400 54.24800 21.01900
H  21.99400 48.05800 24.16700
H  22.60100 47.59400 25.72300
H  23.18300 49.18900 25.08200
H  20.68100 50.06500 30.05500
H  19.45100 48.06300 33.39200
H  20.37300 46.63300 32.78000
H  18.75300 46.81300 32.36100

