158

Mg 7.81300 3.38400 28.12900
C  8.93900 1.67600 31.00500
C  5.66600 5.18500 30.24400
C  6.53500 4.72400 25.30700
C  9.51900 1.00200 26.15700
N  7.21300 3.31800 30.38000
C  8.00500 2.62900 31.31900
C  7.54800 3.08800 32.80800
C  6.33500 4.06300 32.45100
C  6.36300 4.19200 30.95800
C  4.96400 3.76500 32.99400
C  8.71100 3.71900 33.68900
C  8.35800 4.48000 35.04500
H  8.99500 4.14300 36.32200
N  6.36800 4.74500 27.80800
C  5.65900 5.45600 28.82700
C  4.88400 6.47000 28.15600
C  5.07800 6.30900 26.72100
C  6.02200 5.25500 26.54400
C  3.99000 7.50600 28.91700
C  4.34200 7.08400 25.60400
O  4.31600 6.70000 24.43300
C  3.58800 8.27800 25.96000
N  7.98500 2.90900 26.02200
C  7.42800 3.71100 25.06300
C  7.64200 3.07300 23.69300
C  8.93300 2.19700 23.91200
C  8.77500 1.96000 25.44700
C  6.45400 2.20600 23.14200
C  10.18200 2.87500 23.49400
C  10.99400 3.70500 24.49200
N  9.00500 1.76700 28.49600
C  9.63900 0.88000 27.57200
C  10.48100 0.01400 28.30000
C  10.26600 0.29400 29.65000
C  9.31900 1.35600 29.70300
C  11.31800 -1.09500 27.71400
C  10.53600 -0.17300 30.97800
O  11.33400 -1.02000 31.34800
C  9.75400 0.76000 31.94700
C  9.08600 -0.06200 32.98100
O  8.14100 -0.84700 32.79400
O  9.58300 0.23500 34.26200
C  8.78800 -0.27000 35.36500
H  4.96500 5.78400 30.82900
H  6.12300 5.23300 24.43300
H  10.10000 0.25500 25.61300
H  7.16800 2.15400 33.22100
H  6.59500 5.07600 32.75900
H  4.21800 3.71600 32.20100
H  4.65400 4.53700 33.69800
H  5.08400 2.82000 33.52400
H  9.29700 4.40500 33.07700
H  9.34400 2.89400 34.01500
H  7.28800 4.59400 35.21300
H  8.58600 5.53300 34.87800
H  2.92200 7.35200 28.76800
H  4.47100 8.33800 28.40300
H  4.04800 7.52700 30.00600
H  2.71600 8.23700 26.61300
H  3.14900 8.75300 25.08200
H  4.37000 8.90900 26.38000
H  7.71000 3.90400 22.99200
H  8.84600 1.17300 23.55000
H  5.55300 2.31500 23.74600
H  6.76500 1.17300 22.98300
H  6.17900 2.60400 22.16500
H  9.96100 3.66400 22.77600
H  10.81000 2.25800 22.85100
H  12.03400 3.40600 24.36400
H  10.89200 3.49200 25.55600
H  10.82700 4.77400 24.36000
H  10.88300 -1.47300 26.78900
H  11.02500 -1.86200 28.43100
H  12.36500 -0.83200 27.56600
H  10.40900 1.41000 32.52700
H  8.69300 0.62600 35.97700
H  9.34100 -1.04600 35.89500
H  7.77500 -0.59700 35.13100
Mg 43.13400 42.21600 26.23100
C  42.11500 44.43300 28.64500
C  44.24300 40.05000 28.55600
C  44.19100 40.20700 23.72000
C  42.04200 44.44500 23.83000
N  43.26200 42.24800 28.30900
C  42.65500 43.22800 29.15000
C  42.64500 42.75800 30.61700
C  43.46400 41.43100 30.60300
C  43.65200 41.20700 29.02000
C  44.86300 41.42900 31.35900
C  41.13800 42.54300 31.09900
C  41.02200 41.78000 32.42300
H  40.22400 42.55200 33.45600
N  44.18900 40.46600 26.14600
C  44.52000 39.69100 27.24900
C  44.99400 38.35700 26.80400
C  44.87900 38.33600 25.36800
C  44.52100 39.70500 24.98700
C  45.62300 37.31800 27.67900
C  45.20000 37.23000 24.30600
O  45.29800 37.43600 23.10300
C  45.11800 35.84400 24.81300
N  43.16100 42.35900 24.09900
C  43.63600 41.38000 23.28700
C  43.53800 41.69900 21.72800
C  42.64800 42.93400 21.79100
C  42.59300 43.29600 23.34500
C  44.96500 41.96700 21.25200
C  41.24800 42.71500 21.21600
C  40.52100 41.55100 21.88300
N  42.25400 44.14200 26.18500
C  41.91700 44.98200 25.14400
C  41.47300 46.23700 25.66800
C  41.42500 46.04800 27.06100
C  41.90300 44.74100 27.34500
C  41.01300 47.48600 24.83700
C  41.04600 46.57000 28.28600
O  40.69000 47.72900 28.51100
C  41.48900 45.50800 29.43700
C  42.55100 46.09100 30.29300
O  43.63900 46.44800 29.90600
O  42.07200 46.20400 31.62400
C  42.78900 47.08900 32.55300
H  44.48500 39.28000 29.29100
H  44.44900 39.53600 22.89800
H  41.61700 45.07100 23.04300
H  43.10500 43.55700 31.19800
H  42.91800 40.59900 31.04700
H  45.02900 42.41400 31.79500
H  45.66700 41.27000 30.64000
H  44.87600 40.58500 32.04900
H  40.63800 41.97400 30.31400
H  40.58200 43.46700 31.25600
H  42.02300 41.55900 32.79500
H  40.59800 40.80100 32.20200
H  45.94200 37.79400 28.60600
H  46.49400 36.88000 27.19100
H  44.83800 36.58700 27.87200
H  44.45700 35.68800 25.66500
H  46.14500 35.57300 25.06000
H  44.73000 35.24100 23.99200
H  42.97900 40.94100 21.17800
H  43.07700 43.83600 21.35400
H  45.10300 41.65000 20.21900
H  45.69700 41.34300 21.76500
H  45.15400 43.03100 21.39100
H  41.31300 42.46100 20.15800
H  40.72900 43.66900 21.31600
H  40.24300 40.84300 21.10200
H  39.63100 41.87400 22.42300
H  41.22700 40.96300 22.46900
H  41.90200 48.03700 24.53000
H  40.40300 48.15200 25.44700
H  40.41100 47.09700 24.01600
H  40.61000 45.19200 29.99800
H  42.63000 46.79600 33.59100
H  42.41900 48.08900 32.32700
H  43.84700 47.08100 32.29000

