158

Mg 2.13500 -2.19100 44.99100
C  5.47300 -1.24300 44.62600
C  1.32500 0.67500 43.07800
C  -1.08700 -3.14800 45.17800
C  3.21300 -5.26400 46.25500
N  3.22100 -0.44500 44.02700
C  4.64200 -0.29500 43.96400
C  5.11200 0.93700 43.18300
C  3.76500 1.51400 42.75800
C  2.72000 0.53100 43.34600
C  3.56800 2.99400 43.32500
C  6.15800 0.62700 41.97300
C  7.30600 1.64300 41.72500
H  7.35500 2.38700 40.37000
N  0.38700 -1.40100 44.19600
C  0.22600 -0.17700 43.56700
C  -1.18700 0.03300 43.36300
C  -1.89200 -1.08100 43.90200
C  -0.87200 -1.93700 44.50400
C  -1.76500 1.27600 42.81900
C  -3.38700 -1.18300 43.94000
O  -4.10200 -0.25100 43.58600
C  -4.24000 -2.34700 44.52500
N  1.22300 -3.98600 45.47800
C  -0.14100 -4.08700 45.65800
C  -0.54500 -5.45800 46.17400
C  0.81200 -6.16600 46.50800
C  1.81400 -5.03700 46.11100
C  -1.47700 -5.42900 47.36800
C  1.01600 -7.50900 45.76600
C  1.02300 -8.75100 46.59300
N  3.91800 -3.05300 45.46300
C  4.21100 -4.33900 45.93900
C  5.65200 -4.52600 46.06800
C  6.19900 -3.30400 45.62600
C  5.07700 -2.47800 45.20100
C  6.44700 -5.73200 46.58600
C  7.44700 -2.50700 45.54400
O  8.64300 -2.76800 45.82200
C  7.02100 -1.17400 44.82000
C  7.30900 0.05600 45.52500
O  6.68100 0.49400 46.48500
O  8.30100 0.76600 44.88000
C  8.61600 2.07700 45.47100
H  1.02500 1.50400 42.43400
H  -2.13100 -3.40000 45.37500
H  3.38100 -6.26700 46.65400
H  5.49000 1.64600 43.92000
H  3.69400 1.46800 41.67100
H  4.45500 3.62700 43.29800
H  3.08800 2.86800 44.29600
H  2.76000 3.30000 42.66000
H  5.64000 0.54900 41.01700
H  6.60800 -0.36200 42.05500
H  8.26400 1.26900 42.08500
H  7.13600 2.45700 42.42900
H  -2.26600 2.01600 43.44300
H  -2.50000 1.03600 42.05100
H  -0.88600 1.81100 42.46000
H  -4.38500 -2.39100 45.60500
H  -3.89700 -3.26900 44.05600
H  -5.22400 -2.26000 44.06400
H  -1.01200 -5.95000 45.32100
H  0.99900 -6.35100 47.56600
H  -1.10300 -6.10700 48.13500
H  -2.52500 -5.68500 47.21400
H  -1.40200 -4.40000 47.72200
H  1.97500 -7.40200 45.25900
H  0.38100 -7.74200 44.91200
H  1.75600 -9.39800 46.11000
H  0.06500 -9.25800 46.48100
H  1.27200 -8.50400 47.62500
H  7.33100 -5.26300 47.01900
H  6.72300 -6.41400 45.78100
H  5.90500 -6.25100 47.37600
H  7.53200 -1.18700 43.85700
H  7.87500 2.71100 44.98400
H  9.66000 2.30200 45.25000
H  8.36300 2.26100 46.51600
Mg 52.97300 23.97700 44.52800
C  50.30600 26.15500 43.70000
C  51.19100 21.40800 43.15000
C  55.74100 22.15100 44.52700
C  54.61100 26.71700 45.83900
N  51.10300 23.93100 43.25000
C  50.22200 24.90800 43.08800
C  48.99500 24.29100 42.34500
C  49.04500 22.83700 42.81200
C  50.55600 22.67200 43.06300
C  48.16900 22.43900 43.99300
C  48.93800 24.64700 40.82300
C  50.28400 25.06600 40.21100
H  50.25600 25.81800 38.84400
N  53.36200 21.94800 43.89600
C  52.50300 21.04600 43.44700
C  53.11900 19.72000 43.40800
C  54.48600 19.92000 43.83200
C  54.59500 21.39200 44.07100
C  52.35200 18.46200 43.08300
C  55.54400 18.86600 44.03600
O  55.27400 17.67900 43.83600
C  56.91800 19.14700 44.53100
N  55.00200 24.50600 44.77600
C  55.91000 23.49800 44.89400
C  57.22900 24.09000 45.55800
C  56.95000 25.61400 45.74000
C  55.42600 25.64900 45.35700
C  57.58500 23.47400 46.95000
C  57.75000 26.57000 44.87000
C  58.80300 27.39400 45.69400
N  52.49900 25.97300 44.95100
C  53.24700 26.92100 45.57100
C  52.46300 28.15000 45.69500
C  51.25200 27.86100 44.97800
C  51.33200 26.53500 44.57500
C  52.80700 29.49100 46.24800
C  50.02700 28.45800 44.47800
O  49.63000 29.61600 44.59300
C  49.36100 27.31800 43.72500
C  48.96500 27.74400 42.36000
O  49.72000 28.29100 41.58700
O  47.61400 27.39700 42.17800
C  46.99700 27.77500 40.93400
H  50.55600 20.56800 42.85900
H  56.64300 21.54200 44.61700
H  55.01500 27.62900 46.28400
H  48.07300 24.71000 42.74700
H  48.68600 22.19900 42.00400
H  47.38500 23.19500 43.96800
H  48.68700 22.29700 44.94100
H  47.62800 21.53300 43.71800
H  48.16800 25.39300 40.62900
H  48.77900 23.75500 40.21600
H  50.84400 24.13100 40.19600
H  50.60500 25.82800 40.92100
H  52.96800 18.14300 42.24300
H  51.32500 18.77700 42.89700
H  52.27800 17.72000 43.87900
H  56.75000 19.60300 45.50700
H  57.45000 19.63100 43.71200
H  57.43600 18.19800 44.67400
H  57.95500 23.93600 44.76000
H  56.93700 25.90600 46.79000
H  56.62400 23.05200 47.24600
H  57.95600 24.16800 47.70400
H  58.25400 22.62800 46.79600
H  57.23300 27.31600 44.26600
H  58.41100 26.01300 44.20600
H  58.80400 27.04200 46.72500
H  58.45100 28.41600 45.83400
H  59.82000 27.29700 45.31300
H  52.06400 29.72000 47.01200
H  52.80000 30.25000 45.46600
H  53.82400 29.63200 46.61300
H  48.44100 27.02000 44.22900
H  46.71000 28.82600 40.92100
H  46.04600 27.27200 40.76200
H  47.66800 27.44600 40.14000

