158

Mg 26.11500 0.89800 29.21600
C  28.14900 0.77700 32.05800
C  23.32900 1.37000 31.39000
C  24.05400 1.07200 26.59000
C  28.73200 -0.04000 27.30500
N  25.83400 1.09000 31.48600
C  26.85200 1.14100 32.41000
C  26.19500 1.55100 33.78700
C  24.58000 1.50200 33.52700
C  24.60700 1.31700 31.99000
C  23.76500 0.47800 34.34800
C  26.73000 2.86000 34.28400
C  27.75400 2.78200 35.44000
H  27.57300 3.74100 36.60000
N  23.99800 1.28800 28.99600
C  23.06000 1.36600 29.98700
C  21.77800 1.42100 29.37300
C  21.92200 1.46900 27.94700
C  23.36800 1.27300 27.75900
C  20.48100 1.42000 30.13200
C  20.97200 1.72300 26.83300
O  21.28100 1.74000 25.61800
C  19.51400 2.04800 27.06600
N  26.37900 0.71100 27.20600
C  25.40000 0.78900 26.27100
C  26.01700 0.60400 24.87000
C  27.49800 0.21000 25.10500
C  27.56100 0.32300 26.64600
C  25.24900 -0.44500 24.05000
C  28.57100 1.07300 24.41400
C  28.54500 1.07600 22.87200
N  28.02400 0.33700 29.53500
C  29.04700 0.04500 28.66500
C  30.23300 -0.26400 29.36500
C  29.93600 0.00100 30.76500
C  28.62500 0.49500 30.77700
C  31.54100 -0.74800 28.79300
C  30.46100 0.06000 32.11200
O  31.56000 -0.31500 32.50500
C  29.38700 0.60100 32.95200
C  29.25100 -0.37800 34.04800
O  28.65500 -1.43800 34.06700
O  29.87500 0.16800 35.17900
C  29.61700 -0.48300 36.44800
H  22.48200 1.60000 32.04000
H  23.41400 1.11000 25.70700
H  29.59600 -0.32000 26.70000
H  26.46000 0.75000 34.47800
H  24.06900 2.46000 33.61500
H  24.38400 0.16000 35.18700
H  23.57900 -0.39800 33.72700
H  22.85600 0.98200 34.67700
H  25.98800 3.60300 34.57800
H  27.32800 3.23700 33.45400
H  28.75200 2.97100 35.04500
H  27.82900 1.76100 35.81400
H  20.63300 0.92800 31.09300
H  19.73700 0.81900 29.60900
H  20.32900 2.48900 30.27500
H  19.04300 1.16500 27.49900
H  19.02300 2.31200 26.12900
H  19.44200 2.82200 27.83000
H  25.93000 1.58800 24.40900
H  27.61900 -0.85500 24.90400
H  24.64300 0.15100 23.36800
H  24.63200 -1.06000 24.70500
H  25.83400 -1.05700 23.36300
H  29.55800 0.74200 24.73700
H  28.32800 2.05500 24.82000
H  29.54700 0.98700 22.45100
H  28.05400 1.93600 22.41700
H  27.88700 0.27200 22.54200
H  32.34800 -0.34700 29.40600
H  31.62100 -0.44600 27.74900
H  31.58600 -1.82200 28.97800
H  29.65500 1.53100 33.45300
H  29.57200 -1.56700 36.33500
H  28.75900 0.00200 36.91300
H  30.52600 -0.37100 37.03900
Mg 9.48800 48.62600 25.47600
C  7.37100 49.29700 28.16000
C  12.12300 49.98000 27.26200
C  11.63100 48.14400 22.77200
C  6.81100 48.03100 23.45500
N  9.73400 49.52200 27.45200
C  8.73400 49.57700 28.42000
C  9.38700 49.94900 29.73400
C  10.66600 50.72500 29.24500
C  10.88200 50.01700 27.90100
C  10.56600 52.30900 29.28800
C  9.61800 48.61600 30.56000
C  9.18700 48.77900 32.02100
H  8.97200 47.44000 32.88300
N  11.57900 48.86900 25.22000
C  12.48900 49.49300 26.01500
C  13.80600 49.35800 25.38900
C  13.65700 48.66500 24.16900
C  12.25600 48.52700 24.03100
C  15.07500 49.77900 26.15400
C  14.74400 48.06000 23.19700
O  14.46300 47.36600 22.24900
C  16.12000 48.32700 23.41100
N  9.20400 48.19500 23.37700
C  10.22800 47.91900 22.48300
C  9.69300 47.41500 21.15300
C  8.15400 47.38200 21.46900
C  8.01900 47.83700 22.83400
C  10.10300 48.25100 19.89500
C  7.48700 45.94300 21.22200
C  6.02300 45.90300 20.65700
N  7.45600 48.76100 25.68600
C  6.45700 48.46100 24.76800
C  5.20100 48.56800 25.37000
C  5.53000 48.80300 26.78200
C  6.92000 48.97800 26.87100
C  3.86800 48.22400 24.72200
C  4.97100 48.90000 28.09900
O  3.91100 48.65300 28.42000
C  6.09200 49.35100 29.06500
C  5.97500 48.23000 30.16100
O  6.46800 47.12300 30.04300
O  5.14400 48.64500 31.12800
C  4.76300 47.70200 32.20500
H  12.87300 50.33500 27.97100
H  12.24000 47.91000 21.89600
H  5.90900 47.90400 22.85300
H  8.76400 50.70400 30.21400
H  11.49000 50.45200 29.90500
H  10.70100 52.69600 30.29700
H  9.58400 52.67700 28.99300
H  11.31900 52.75600 28.63800
H  10.63400 48.22200 30.54800
H  9.03800 47.81900 30.09400
H  8.30400 49.41400 32.10500
H  9.86900 49.47700 32.50600
H  15.49000 48.81600 26.45300
H  14.80400 50.38500 27.01900
H  15.74300 50.36700 25.52600
H  16.27600 49.38200 23.18200
H  16.69800 47.67100 22.76000
H  16.14100 48.16100 24.48800
H  10.18100 46.44100 21.20400
H  7.60400 48.14500 20.91900
H  10.77400 49.09700 20.04700
H  9.20100 48.66300 19.44300
H  10.49900 47.66600 19.06500
H  7.35700 45.43400 22.17800
H  8.12200 45.31700 20.59600
H  5.75900 46.94400 20.47300
H  5.42500 45.50700 21.47800
H  5.88500 45.28800 19.76700
H  3.26500 47.46700 25.22400
H  3.94800 47.95900 23.66700
H  3.22100 49.10100 24.71900
H  5.85200 50.32100 29.50100
H  4.98600 46.65400 32.00700
H  3.68500 47.84800 32.27400
H  5.01000 47.94000 33.24000

