158

Mg 47.98900 34.27700 26.83100
C  46.11300 32.62200 29.32400
C  47.90300 37.08500 28.83000
C  49.21000 36.00900 24.23300
C  47.15700 31.58300 24.60500
N  47.30500 34.67800 28.96400
C  46.76200 33.81400 29.74300
C  46.72500 34.48700 31.15700
C  47.03400 36.04800 30.94700
C  47.44300 35.95300 29.51000
C  45.69700 36.88000 31.00500
C  47.94200 33.86300 32.04500
C  48.00200 34.33900 33.57500
H  47.08300 35.41300 34.15000
N  48.49600 36.24600 26.53200
C  48.37500 37.22700 27.51200
C  48.93400 38.43900 26.99800
C  49.53000 38.12700 25.75200
C  49.05600 36.80800 25.39100
C  49.10600 39.67000 27.82800
C  50.35000 38.98400 24.90100
O  50.85400 38.57200 23.85400
C  50.85200 40.31400 25.39300
N  48.12300 33.77900 24.80000
C  48.68500 34.73700 23.88300
C  48.74600 34.20700 22.46100
C  48.22700 32.74200 22.59200
C  47.75100 32.67000 24.08200
C  47.96600 35.18500 21.56800
C  49.31900 31.73800 22.25300
C  49.17100 30.99300 20.87700
N  46.95400 32.39000 26.86500
C  46.77100 31.40300 25.94200
C  45.89300 30.35800 26.47300
C  45.58100 30.90200 27.76700
C  46.24800 32.09900 27.99200
C  45.45200 29.10300 25.74800
C  44.81100 30.59000 29.01000
O  44.17500 29.55700 29.31500
C  45.05800 31.78200 30.07100
C  45.29400 31.27800 31.44300
O  46.18100 30.52600 31.72800
O  44.43200 31.89000 32.24700
C  44.58200 31.69600 33.70500
H  47.85600 37.91200 29.54100
H  49.53500 36.64600 23.40800
H  47.02800 30.70300 23.97000
H  45.78100 34.31200 31.67300
H  47.84600 36.44900 31.55400
H  45.25000 37.10800 30.03800
H  45.89200 37.76800 31.60500
H  45.01200 36.38300 31.69300
H  48.83200 34.04000 31.44200
H  47.89900 32.77400 32.04100
H  49.04800 34.38100 33.87900
H  47.65100 33.49800 34.17300
H  50.09100 39.73200 28.29000
H  48.27900 39.79500 28.52700
H  48.86700 40.50500 27.16900
H  49.99700 40.98500 25.47300
H  51.65500 40.68200 24.75400
H  51.34600 40.09500 26.34000
H  49.79300 34.13900 22.16300
H  47.45700 32.51600 21.85500
H  47.84000 36.13400 22.08900
H  46.97200 34.85500 21.26900
H  48.55600 35.39400 20.67600
H  49.48200 31.01000 23.04800
H  50.26300 32.27900 22.32700
H  50.18300 30.97000 20.47300
H  48.42500 31.43600 20.21600
H  48.84400 29.98200 21.11800
H  44.36400 29.05200 25.71900
H  45.91000 28.24900 26.24800
H  45.86500 29.04300 24.74100
H  44.06500 32.23000 30.10400
H  45.64200 31.53500 33.89900
H  44.10300 30.78200 34.05800
H  44.23500 32.56900 34.25700
Mg -10.53900 39.71700 40.46700
C  -9.22800 36.80800 39.10100
C  -7.44400 41.31400 39.69300
C  -12.06600 42.55900 40.58900
C  -13.50700 38.06700 41.19100
N  -8.57800 39.08000 39.43400
C  -8.25300 37.83000 38.99600
C  -6.81400 37.77400 38.48300
C  -6.20900 39.04400 39.03900
C  -7.50000 39.90700 39.44300
C  -5.28400 38.72600 40.21600
C  -6.67100 37.76100 36.86700
C  -5.88700 36.59300 36.15600
H  -6.62200 35.75800 35.10300
N  -9.78300 41.75000 40.35600
C  -8.53700 42.18200 40.01600
C  -8.57700 43.60000 39.93500
C  -9.95600 44.00400 40.03800
C  -10.68900 42.76200 40.39600
C  -7.35300 44.35900 39.57900
C  -10.50600 45.38000 39.85300
O  -9.76600 46.34900 39.62800
C  -11.94900 45.73100 40.02000
N  -12.45200 40.25500 41.08400
C  -12.83300 41.46800 40.97800
C  -14.33400 41.67100 41.29700
C  -14.75000 40.24800 41.72100
C  -13.52500 39.46100 41.35000
C  -14.76000 42.74200 42.38300
C  -16.13700 39.66600 41.18200
C  -17.18300 39.21500 42.17700
N  -11.31500 37.80800 40.22700
C  -12.57500 37.29200 40.43400
C  -12.56900 35.89800 40.05900
C  -11.26600 35.65900 39.51600
C  -10.55600 36.84500 39.65300
C  -13.60300 34.92500 40.28000
C  -10.49300 34.62800 38.84700
O  -10.66600 33.56000 38.32000
C  -9.09200 35.35700 38.69700
C  -8.07800 34.63200 39.56000
O  -8.10300 34.62600 40.77200
O  -7.10500 33.96400 38.84400
C  -5.94700 33.48000 39.65700
H  -6.47000 41.78000 39.53000
H  -12.63900 43.48700 40.53800
H  -14.45600 37.57600 41.41800
H  -6.39900 36.82600 38.82400
H  -5.76900 39.61600 38.22200
H  -5.34400 37.76200 40.72200
H  -5.42500 39.45000 41.01800
H  -4.28900 38.96900 39.84300
H  -6.20900 38.68500 36.51800
H  -7.67000 37.80500 36.43400
H  -5.62300 35.79100 36.84600
H  -4.95900 37.01100 35.76800
H  -7.03200 44.20400 38.54800
H  -6.53300 44.01400 40.20900
H  -7.38500 45.43300 39.76100
H  -12.48700 45.09800 39.31400
H  -12.23200 46.73400 39.69800
H  -12.17900 45.53100 41.06700
H  -14.96800 41.84500 40.42700
H  -14.80500 40.34200 42.80600
H  -13.90800 42.74300 43.06300
H  -15.61500 42.49100 43.01100
H  -14.79200 43.80500 42.14300
H  -15.96100 38.94200 40.38600
H  -16.60200 40.50400 40.66200
H  -18.03500 39.88900 42.08200
H  -16.79100 39.17100 43.19300
H  -17.51600 38.20100 41.95500
H  -14.28600 34.95100 39.43100
H  -14.14800 35.11800 41.20400
H  -13.20800 33.91100 40.21900
H  -8.77100 35.22800 37.66300
H  -5.15500 33.34600 38.92100
H  -6.10300 32.51500 40.13800
H  -5.47000 34.14800 40.37500

