158

Mg 44.85000 4.08400 47.08300
C  43.36600 7.14700 47.22000
C  41.79100 2.57600 46.49900
C  46.39000 0.97900 46.40300
C  47.94600 5.58800 46.96000
N  42.76800 4.83400 46.82900
C  42.45400 6.13400 47.01800
C  40.92200 6.34100 46.97500
C  40.39400 4.81200 46.84700
C  41.69600 3.97400 46.72400
C  39.54000 4.37300 48.12300
C  40.31500 7.35000 45.89800
C  40.95900 7.29900 44.54400
H  40.13000 6.98000 43.36700
N  44.16700 2.03500 46.67500
C  42.88500 1.69400 46.45000
C  42.78800 0.24800 46.24500
C  44.12900 -0.21200 46.19300
C  44.95100 0.92900 46.35100
C  41.45500 -0.53400 45.90700
C  44.43400 -1.67700 45.80800
O  43.48200 -2.43700 45.65300
C  45.84600 -2.15000 45.63400
N  46.82100 3.45500 46.58800
C  47.22000 2.15600 46.53100
C  48.73200 1.93900 46.54500
C  49.26600 3.47900 46.69500
C  47.94600 4.22200 46.74600
C  49.32800 0.99600 47.64000
C  50.30200 3.89800 45.62200
C  51.62500 4.58000 46.14400
N  45.59700 6.00200 47.13100
C  46.85600 6.46700 47.11000
C  46.89200 7.89700 47.29300
C  45.50800 8.21500 47.38200
C  44.77800 7.00800 47.26600
C  48.04000 8.86500 47.43600
C  44.52200 9.27300 47.53400
O  44.69300 10.47700 47.74300
C  43.08200 8.58300 47.47300
C  42.38300 8.74600 48.81400
O  42.59300 8.18600 49.86900
O  41.45600 9.70800 48.64600
C  40.46700 10.01500 49.77400
H  40.84300 2.07000 46.30600
H  46.88500 0.02300 46.22200
H  48.91900 6.08300 46.98000
H  40.76800 6.80400 47.95000
H  39.84000 4.68300 45.91800
H  38.66800 3.87500 47.69900
H  39.21200 5.20600 48.74500
H  40.21000 3.75900 48.72600
H  40.14000 8.33800 46.32300
H  39.27900 7.05600 45.73300
H  41.80100 6.60800 44.50800
H  41.48800 8.24600 44.44000
H  41.51100 -1.59500 46.14700
H  41.17400 -0.36000 44.86800
H  40.63400 -0.17500 46.52800
H  46.32000 -1.78100 46.54400
H  46.28400 -1.66300 44.76300
H  45.89000 -3.22800 45.48200
H  49.03000 1.50000 45.59300
H  49.74200 3.48100 47.67600
H  49.56000 0.00000 47.26200
H  48.58300 0.90900 48.43000
H  50.23100 1.43000 48.06900
H  49.67400 4.60200 45.07700
H  50.54700 3.04000 44.99500
H  52.44200 4.20000 45.53100
H  51.75400 4.38500 47.20900
H  51.50400 5.65700 46.02900
H  47.69500 9.88500 47.27100
H  48.78500 8.63900 46.67300
H  48.42800 8.85900 48.45500
H  42.39800 8.99100 46.72900
H  41.04400 10.21700 50.67700
H  39.79100 9.17500 49.93400
H  39.86100 10.85700 49.44000
Mg 41.26500 8.46800 30.14400
C  43.26200 10.01200 32.76500
C  39.21400 7.27000 32.42400
C  39.75700 6.92500 27.67000
C  43.88100 9.50900 27.94500
N  41.17400 8.75400 32.32400
C  42.02500 9.36400 33.20600
C  41.44800 9.42500 34.62900
C  40.26200 8.29600 34.48600
C  40.17000 8.10500 32.98400
C  40.47400 6.96100 35.20900
C  41.01500 10.84000 35.06600
C  40.45800 11.06400 36.47000
H  41.25900 11.92400 37.41100
N  39.69600 7.25200 30.03400
C  38.88200 6.91600 31.08200
C  37.75800 6.22500 30.57000
C  37.90300 6.16500 29.19100
C  39.13300 6.74000 28.90700
C  36.66100 5.76600 31.44300
C  36.89700 5.49100 28.19700
O  37.03700 5.60400 26.93900
C  35.58900 4.85700 28.70800
N  41.82800 8.18400 28.14200
C  40.91100 7.58300 27.27200
C  41.33100 7.74400 25.78900
C  42.66500 8.52600 25.87700
C  42.82900 8.75000 27.43000
C  41.20700 6.43800 25.02500
C  42.90000 9.77700 25.01400
C  41.94600 11.00600 25.36400
N  43.17100 9.51100 30.26200
C  44.07400 9.79600 29.29600
C  45.23000 10.48300 29.79800
C  44.95100 10.59300 31.17800
C  43.67000 9.95700 31.42300
C  46.36400 11.01000 28.99300
C  45.44300 11.10200 32.39600
O  46.51600 11.67100 32.61700
C  44.38000 10.74100 33.47900
C  45.09000 9.89700 34.52100
O  45.55700 8.80300 34.36900
O  44.77700 10.37900 35.73500
C  45.14200 9.46900 36.85800
H  38.46900 6.88200 33.12100
H  39.19800 6.45400 26.85900
H  44.55700 9.83100 27.15000
H  42.17200 9.08800 35.37000
H  39.31100 8.71200 34.81800
H  39.84000 6.81200 36.08300
H  41.48200 6.91700 35.62100
H  40.34900 6.07000 34.59400
H  40.30600 11.19600 34.31900
H  41.90800 11.46000 34.98900
H  40.33900 10.07700 36.91800
H  39.43400 11.42800 36.39200
H  36.87500 5.84100 32.50900
H  36.59400 4.69700 31.24200
H  35.75800 6.25700 31.08200
H  35.03200 5.57200 29.31300
H  35.88700 3.99900 29.31100
H  35.08500 4.47000 27.82200
H  40.69400 8.39800 25.19400
H  43.37900 7.77800 25.53100
H  40.51400 5.76600 25.53000
H  42.18300 5.96500 24.92000
H  40.83700 6.63500 24.01900
H  42.77000 9.54400 23.95800
H  43.94400 10.07300 25.11500
H  41.14500 10.75700 26.06000
H  41.30700 11.34200 24.54700
H  42.55300 11.84400 25.70700
H  46.34800 10.83300 27.91800
H  47.30000 10.55000 29.30800
H  46.54400 12.05200 29.25600
H  44.09600 11.68500 33.94400
H  46.22300 9.36600 36.94900
H  44.85900 8.44600 36.61300
H  44.77200 9.77300 37.83700

