158

Mg 48.41400 34.74800 26.55600
C  46.78700 33.46700 29.51100
C  48.93200 37.67200 28.48000
C  49.36500 36.34800 23.84000
C  47.41600 32.03100 24.93700
N  48.04500 35.41800 28.77200
C  47.39400 34.67300 29.79400
C  47.65500 35.32500 31.11700
C  47.76400 36.81000 30.55100
C  48.33700 36.66000 29.17000
C  46.54500 37.75400 30.56700
C  48.99000 34.76900 31.72900
C  48.97400 34.70800 33.32000
H  47.99800 35.55700 34.01000
N  49.12200 36.70500 26.21300
C  49.29700 37.73500 27.12500
C  50.01300 38.80800 26.52400
C  50.23700 38.41000 25.17000
C  49.52600 37.11800 24.95400
C  50.54300 40.04400 27.31000
C  50.95400 39.19000 24.07200
O  51.03100 38.74600 22.92200
C  51.47700 40.55700 24.33700
N  48.08500 34.35800 24.55300
C  48.86300 35.02500 23.63900
C  48.96800 34.21900 22.31000
C  48.21400 32.87000 22.66700
C  47.98700 33.08500 24.14500
C  48.43800 35.03300 21.03700
C  48.98300 31.51900 22.22100
C  50.48400 31.39100 22.62800
N  47.18900 33.13700 27.00500
C  46.94400 32.01200 26.23200
C  46.24700 30.97300 26.98700
C  46.01000 31.57600 28.27200
C  46.70300 32.86600 28.24000
C  45.82500 29.58600 26.64500
C  45.40300 31.49900 29.54500
O  44.76300 30.57200 30.01300
C  45.72900 32.82500 30.31700
C  45.86200 32.62200 31.73100
O  46.91000 32.32100 32.30000
O  44.61900 32.66700 32.31000
C  44.53000 31.95400 33.57600
H  48.91800 38.58900 29.07400
H  49.80800 36.76800 22.93500
H  47.22600 31.11700 24.36900
H  46.77900 35.27900 31.76400
H  48.46500 37.29400 31.23100
H  46.09800 37.85500 29.57800
H  46.80300 38.78100 30.82800
H  45.83700 37.29200 31.25500
H  49.89700 35.28000 31.40500
H  49.11100 33.73700 31.40000
H  49.94200 35.02600 33.70500
H  48.76800 33.69400 33.66400
H  51.62100 39.99100 27.46700
H  49.89700 40.15800 28.18100
H  50.30300 41.00700 26.85900
H  50.74500 41.19000 24.84000
H  51.82100 40.96700 23.38700
H  52.39000 40.44400 24.92200
H  50.03500 34.09500 22.12900
H  47.25900 32.88800 22.14200
H  48.20900 36.02000 21.44000
H  47.50400 34.69800 20.58500
H  49.21500 35.18600 20.28800
H  48.87700 31.40100 21.14200
H  48.42800 30.66300 22.60500
H  51.07300 31.35300 21.71200
H  50.73300 30.48900 23.18700
H  50.82100 32.27500 23.16900
H  46.32400 29.48000 25.68200
H  44.76300 29.34500 26.68900
H  46.40700 28.90500 27.26600
H  44.89200 33.51800 30.22900
H  44.74700 30.91100 33.34700
H  43.52800 31.96900 34.00400
H  45.14400 32.39900 34.35900
Mg -3.21800 35.16900 26.38900
C  -4.90400 33.41800 28.77600
C  -1.64700 37.05400 28.66600
C  -1.99900 37.16900 23.81800
C  -5.17300 33.55800 24.02400
N  -3.54400 35.41800 28.45100
C  -4.12200 34.45900 29.27400
C  -3.73400 34.57000 30.75500
C  -2.81700 35.86100 30.63300
C  -2.66400 36.20600 29.13700
C  -3.38800 37.07800 31.37300
C  -2.84000 33.32500 31.20000
C  -3.25200 32.79500 32.59200
H  -2.32200 32.89800 33.84200
N  -2.02800 36.95800 26.27200
C  -1.34100 37.45500 27.35300
C  -0.33500 38.29800 26.93400
C  -0.39500 38.30300 25.48200
C  -1.51800 37.42100 25.10800
C  0.70600 38.94200 27.86900
C  0.43700 39.02300 24.44500
O  0.25100 39.01800 23.18400
C  1.71000 39.68300 24.88900
N  -3.76600 35.57400 24.26800
C  -3.10000 36.37900 23.42900
C  -3.52100 36.34000 21.97800
C  -4.18400 34.95800 22.02400
C  -4.49400 34.67000 23.50400
C  -4.44100 37.58000 21.57200
C  -3.31200 33.79900 21.41000
C  -2.49700 32.90700 22.33500
N  -4.66200 33.73600 26.30300
C  -5.34500 33.14600 25.31300
C  -6.03000 32.01800 25.80000
C  -5.90200 32.04200 27.22400
C  -5.05400 33.11500 27.46000
C  -6.82200 31.05500 25.05100
C  -6.28100 31.46200 28.48700
O  -7.03900 30.51500 28.65500
C  -5.65000 32.40400 29.58000
C  -6.71000 32.97400 30.36000
O  -7.51400 33.81800 29.97800
O  -6.82400 32.35100 31.50400
C  -7.88100 32.70600 32.48100
H  -1.03000 37.53000 29.43100
H  -1.62100 37.69400 22.93800
H  -5.69600 32.89900 23.32800
H  -4.61300 34.74800 31.37300
H  -1.74800 35.71700 30.78800
H  -3.55000 37.91400 30.69300
H  -2.61300 37.36600 32.08300
H  -4.37000 36.87700 31.80200
H  -1.80100 33.63200 31.32100
H  -2.81300 32.51200 30.47400
H  -3.38400 31.74100 32.35000
H  -4.23600 33.08100 32.96400
H  1.69200 38.87800 27.40800
H  0.68600 38.44500 28.83900
H  0.53900 40.01600 27.94100
H  1.35700 40.42800 25.60200
H  2.06400 40.39500 24.14300
H  2.44100 38.95000 25.23000
H  -2.67100 36.52300 21.32100
H  -5.09600 34.97500 21.42700
H  -4.01200 37.94900 20.64100
H  -4.39700 38.35800 22.33400
H  -5.42000 37.16900 21.32400
H  -2.51400 34.18800 20.77800
H  -4.10400 33.19100 20.97100
H  -2.35900 33.45200 23.26800
H  -1.45500 32.86800 22.01800
H  -2.99100 31.93500 22.31200
H  -6.74600 31.02000 23.96500
H  -7.86200 31.33200 25.22200
H  -6.74500 30.00500 25.33300
H  -5.05700 31.72100 30.19000
H  -8.61500 33.36600 32.01900
H  -7.37400 33.16600 33.32900
H  -8.22500 31.70600 32.74500

