158

Mg 47.92200 34.19400 26.80600
C  46.14800 32.93000 29.60900
C  48.68600 37.00000 28.58200
C  48.91000 35.76600 23.92600
C  46.89100 31.50700 24.98300
N  47.49800 34.76100 28.85200
C  46.85000 34.08600 29.88200
C  46.97600 34.78400 31.18900
C  47.36700 36.22100 30.68300
C  47.94700 36.02700 29.26400
C  46.21600 37.27800 30.77800
C  48.02700 34.16800 32.19500
C  47.69700 34.36400 33.62400
H  46.71900 35.45300 34.08900
N  48.65800 36.13800 26.36900
C  48.99400 37.05400 27.27200
C  49.60100 38.21000 26.59900
C  49.60900 37.92900 25.17800
C  48.93900 36.57400 25.09100
C  50.09500 39.38400 27.31600
C  50.22500 38.71100 24.11100
O  50.24000 38.25200 22.95800
C  51.01500 39.98700 24.32500
N  47.80800 33.71200 24.73800
C  48.37900 34.46700 23.74600
C  48.40700 33.73000 22.45900
C  47.65000 32.37900 22.64800
C  47.47900 32.49500 24.19000
C  47.90500 34.52500 21.25200
C  48.49100 31.12300 22.30100
C  49.60600 30.67100 23.22500
N  46.84100 32.45000 27.21400
C  46.50500 31.42100 26.35700
C  45.80000 30.40900 27.08800
C  45.53300 31.02600 28.35500
C  46.23200 32.23900 28.41000
C  45.23800 29.16500 26.63200
C  44.78000 30.82600 29.53700
O  44.06600 29.84800 29.85500
C  45.03500 32.13700 30.40000
C  45.32300 31.74700 31.78700
O  46.33900 31.19200 32.15300
O  44.22600 32.19800 32.59600
C  44.38000 31.85300 34.03100
H  48.87900 37.85700 29.23100
H  49.56400 36.10400 23.11900
H  46.67100 30.58300 24.44400
H  45.96000 34.72600 31.57900
H  48.08900 36.58000 31.41700
H  45.28900 36.92000 31.22500
H  45.90000 37.48400 29.75500
H  46.50600 38.23100 31.22000
H  49.06500 34.47000 32.05000
H  48.12300 33.08300 32.17100
H  48.63200 34.60800 34.12900
H  47.22000 33.47300 34.03100
H  49.68800 40.27900 26.84700
H  51.18300 39.33600 27.26500
H  49.89000 39.43500 28.38600
H  51.29700 40.46500 23.38700
H  51.90300 39.70600 24.89200
H  50.53600 40.68500 25.01200
H  49.45900 33.51400 22.27100
H  46.77000 32.54900 22.02900
H  46.95200 34.11500 20.91900
H  48.75800 34.64700 20.58400
H  47.65100 35.53300 21.58000
H  48.90800 31.29800 21.31000
H  47.73500 30.35500 22.46300
H  49.92200 31.46600 23.90100
H  50.53800 30.39200 22.73300
H  49.30200 29.79100 23.79100
H  45.46100 28.44000 27.41500
H  45.64800 28.87200 25.66500
H  44.15800 29.26900 26.52600
H  44.08400 32.66900 30.41600
H  43.72400 31.01000 34.25000
H  44.01700 32.70900 34.60000
H  45.37100 31.59900 34.40700
Mg -6.18100 26.04300 25.97800
C  -4.78700 27.51300 28.73100
C  -7.81100 23.83800 27.96600
C  -7.65400 24.80000 23.23500
C  -4.17800 28.10100 23.89300
N  -6.17800 25.67100 28.14300
C  -5.67600 26.45700 29.08500
C  -6.06500 26.03700 30.50600
C  -6.88700 24.70700 30.18100
C  -7.00700 24.74800 28.64700
C  -6.27000 23.39500 30.60400
C  -6.77000 27.05700 31.41300
C  -6.56600 26.90100 32.91500
H  -6.07500 25.62300 33.56600
N  -7.50500 24.48600 25.62300
C  -8.06500 23.72500 26.56500
C  -9.10300 22.96200 25.97600
C  -8.98200 23.07400 24.54900
C  -8.06500 24.19700 24.38800
C  -9.95700 22.03500 26.89400
C  -9.65300 22.31600 23.48500
O  -9.64300 22.67500 22.30500
C  -10.50600 21.06600 23.90500
N  -5.71000 26.15300 23.83500
C  -6.59000 25.64000 22.88100
C  -6.49600 26.27400 21.50500
C  -5.49100 27.41600 21.78700
C  -5.09000 27.23800 23.24200
C  -6.19200 25.37400 20.27900
C  -6.06600 28.83400 21.46400
C  -6.50700 29.06500 19.99800
N  -4.74800 27.47900 26.20200
C  -4.02400 28.23700 25.27800
C  -3.19900 29.18300 26.04700
C  -3.51900 28.92200 27.42400
C  -4.39500 27.86100 27.45400
C  -2.32800 30.26900 25.54400
C  -3.09600 29.38700 28.74700
O  -2.41900 30.34900 29.06400
C  -3.95000 28.42300 29.71800
C  -3.01800 27.65400 30.61400
O  -1.97500 27.08200 30.24100
O  -3.43200 27.73200 31.89100
C  -2.50800 27.10100 32.79900
H  -8.39600 23.28200 28.70200
H  -8.02500 24.45200 22.26900
H  -3.60800 28.81200 23.29200
H  -5.09800 25.69800 30.87900
H  -7.88800 24.65300 30.60800
H  -7.05300 22.65800 30.78100
H  -5.66800 23.45800 31.51000
H  -5.70300 22.90300 29.81300
H  -7.84600 26.91300 31.31700
H  -6.50100 28.04600 31.03900
H  -7.46800 27.12600 33.48500
H  -5.94200 27.74200 33.21800
H  -10.84400 21.70400 26.35400
H  -10.39800 22.56500 27.73800
H  -9.45000 21.16300 27.30800
H  -10.44800 20.37500 23.06400
H  -11.53900 21.31300 24.15100
H  -10.10500 20.40500 24.67300
H  -7.50000 26.65800 21.32300
H  -4.54700 27.32000 21.24900
H  -6.29300 24.29300 20.37500
H  -5.12300 25.33500 20.07000
H  -6.71100 25.77200 19.40800
H  -5.27600 29.57700 21.57800
H  -6.86700 29.09500 22.15500
H  -7.53600 29.38300 19.83200
H  -6.27800 28.20100 19.37400
H  -5.88600 29.88200 19.63100
H  -2.95100 31.16100 25.47700
H  -1.77600 29.86700 24.69400
H  -1.65400 30.53700 26.35700
H  -4.44700 29.16600 30.34200
H  -2.16500 26.16300 32.36300
H  -3.08000 26.94100 33.71300
H  -1.70000 27.80900 32.98400

