158

Mg 29.84200 58.23900 40.70900
C  26.83700 56.60900 39.39200
C  31.66600 55.90800 39.44000
C  32.40800 60.39200 40.92700
C  27.64200 60.87400 41.59600
N  29.26600 56.52100 39.55600
C  28.07400 55.98300 39.12500
C  28.26300 54.65600 38.36100
C  29.71200 54.33700 38.78400
C  30.33800 55.64000 39.24700
C  29.85400 53.10700 39.79400
C  28.09800 54.95800 36.83600
C  27.31300 53.91000 36.05600
H  27.48300 53.96900 34.54100
N  31.83500 58.19300 40.31400
C  32.40200 57.12800 39.81900
C  33.81500 57.30600 39.80300
C  34.09700 58.63500 40.26200
C  32.77700 59.16000 40.52900
C  34.82000 56.24400 39.34100
C  35.51500 59.15400 40.49200
O  36.51500 58.42100 40.46000
C  35.77100 60.71800 40.87900
N  30.02200 60.29300 41.24800
C  31.14900 61.02700 41.18400
C  30.97600 62.49200 41.58100
C  29.50200 62.48500 42.05000
C  28.96400 61.16500 41.52000
C  32.02400 63.14900 42.47200
C  28.80100 63.83500 41.54800
C  27.79000 64.40000 42.56100
N  27.65400 58.61500 40.66400
C  26.94900 59.80400 40.99900
C  25.48900 59.57000 40.84300
C  25.43400 58.37100 40.16700
C  26.75100 57.81000 40.09700
C  24.38700 60.49000 41.13400
C  24.50100 57.37400 39.52100
O  23.31900 57.53500 39.30100
C  25.36600 56.20500 39.22000
C  24.93100 55.00500 40.05800
O  25.50600 54.55000 41.02800
O  23.88200 54.43500 39.44100
C  23.03800 53.71500 40.37300
H  32.28700 55.03800 39.21400
H  33.16500 61.17200 41.03300
H  26.94600 61.62600 41.97200
H  27.49000 53.93700 38.63300
H  30.24900 54.08200 37.87000
H  28.89700 52.59300 39.89000
H  30.17200 53.52300 40.75000
H  30.66200 52.43000 39.51600
H  29.06100 54.95800 36.32600
H  27.78800 55.99700 36.72500
H  26.27200 54.08700 36.32700
H  27.66400 52.91600 36.33500
H  34.38900 55.50700 38.66300
H  35.26100 55.64800 40.14000
H  35.64600 56.65900 38.76200
H  36.79200 61.08600 40.77300
H  35.20500 60.92700 41.78600
H  35.32600 61.43000 40.18400
H  31.05600 62.95600 40.59800
H  29.43600 62.28600 43.12000
H  31.41200 63.52400 43.29200
H  32.55700 63.92900 41.92800
H  32.70900 62.40800 42.88200
H  28.19800 63.58100 40.67600
H  29.41300 64.65900 41.18100
H  27.86400 65.48400 42.65100
H  27.98100 63.90500 43.51400
H  26.79000 64.09000 42.25900
H  23.83500 60.15400 42.01200
H  23.79200 60.62200 40.23100
H  24.80700 61.48300 41.29400
H  25.26700 55.81300 38.20800
H  23.51100 52.82300 40.78300
H  22.08800 53.46100 39.90300
H  22.75400 54.37600 41.19100
Mg -12.41200 17.38900 41.49500
C  -9.25800 15.65400 40.82800
C  -10.91400 20.15400 40.12700
C  -15.45700 18.76200 41.58300
C  -13.78700 14.25100 42.23000
N  -10.22400 17.79000 40.65400
C  -9.17500 17.01500 40.53200
C  -8.02300 17.83400 39.84800
C  -8.52200 19.28500 39.92700
C  -9.96200 19.08800 40.20200
C  -7.90700 20.06700 41.09400
C  -7.79000 17.36000 38.36000
C  -6.38600 17.00400 37.88400
H  -6.31500 15.73800 37.08200
N  -13.08800 19.29100 41.03600
C  -12.30900 20.28700 40.42000
C  -13.16700 21.48200 40.33600
C  -14.52600 21.14900 40.67700
C  -14.42300 19.71700 41.14200
C  -12.59500 22.87500 39.89100
C  -15.73000 21.91800 40.57500
O  -15.71600 23.08600 40.22100
C  -17.20900 21.33800 40.92600
N  -14.38900 16.54900 41.63100
C  -15.52200 17.34100 41.74000
C  -16.74400 16.55300 42.14500
C  -16.13100 15.19700 42.52400
C  -14.67300 15.36500 42.15300
C  -17.55600 17.17000 43.28700
C  -16.76500 14.10100 41.62100
C  -17.12000 12.86400 42.37300
N  -11.66900 15.38000 41.48300
C  -12.34200 14.27200 41.94400
C  -11.53000 13.10000 41.81000
C  -10.28300 13.61700 41.48400
C  -10.42600 14.96800 41.25200
C  -11.97500 11.72300 42.16100
C  -8.87400 13.24900 41.28000
O  -8.18000 12.22700 41.33100
C  -8.14700 14.59600 40.85200
C  -7.15600 14.93200 41.91200
O  -7.48900 15.27100 43.00700
O  -5.90300 14.79000 41.47600
C  -4.88300 15.24000 42.45400
H  -10.48900 21.14400 39.95100
H  -16.51300 19.04100 41.57300
H  -14.35600 13.36400 42.51900
H  -7.05600 17.61800 40.30100
H  -8.29400 19.80700 38.99800
H  -6.94300 19.69800 41.44500
H  -8.68700 20.04600 41.85400
H  -7.83300 21.13700 40.90000
H  -8.14400 18.03400 37.58000
H  -8.49400 16.52800 38.38400
H  -5.62400 16.90600 38.65700
H  -6.03100 17.84800 37.29200
H  -11.92400 22.73100 39.04400
H  -11.79200 22.98800 40.61900
H  -13.34300 23.66800 39.88200
H  -17.28000 20.49400 40.24000
H  -17.99000 22.03600 40.62400
H  -17.22400 21.10800 41.99100
H  -17.16200 16.48900 41.14000
H  -16.20400 14.97800 43.59000
H  -17.65600 16.61700 44.22100
H  -18.59300 17.16700 42.95000
H  -17.35800 18.23400 43.41700
H  -15.96700 13.75600 40.96400
H  -17.68100 14.37300 41.09700
H  -17.02100 13.03600 43.44500
H  -16.41200 12.07600 42.11700
H  -18.14400 12.53900 42.18800
H  -12.62900 11.35400 41.37100
H  -12.52800 11.71900 43.10100
H  -11.23600 10.92600 42.23800
H  -7.61300 14.57500 39.90200
H  -4.06100 14.52600 42.40300
H  -5.26600 15.39100 43.46400
H  -4.59100 16.24200 42.14200

