158

Mg 1.52800 -1.71300 42.61700
C  4.80400 -0.87600 42.06500
C  0.55100 1.15100 40.98600
C  -1.75900 -2.78000 42.62600
C  2.50800 -4.93200 43.74000
N  2.62400 -0.15800 41.50300
C  3.92900 0.11700 41.59900
C  4.32000 1.42100 40.95100
C  2.89200 2.18400 40.87900
C  1.95700 0.97600 41.17600
C  2.76200 3.26400 41.98500
C  4.73100 0.98600 39.52400
C  6.11600 1.46400 39.04900
H  6.21300 2.35500 37.85600
N  -0.29600 -0.97900 41.89600
C  -0.50900 0.28700 41.28900
C  -1.89700 0.52100 41.04600
C  -2.57000 -0.69500 41.44000
C  -1.49300 -1.61500 42.02600
C  -2.40600 1.79100 40.38600
C  -4.08600 -0.88000 41.29000
O  -4.76600 0.08500 40.87000
C  -4.77400 -2.12000 41.59000
N  0.53800 -3.54200 43.05600
C  -0.84400 -3.70600 43.07800
C  -1.28700 -5.12500 43.42800
C  0.07300 -5.80500 43.76100
C  1.11400 -4.65000 43.62400
C  -2.40800 -5.36900 44.44500
C  0.39600 -7.02000 42.87000
C  -0.14100 -8.32400 43.42800
N  3.29600 -2.72700 42.91800
C  3.53300 -4.01600 43.37400
C  4.94000 -4.22400 43.42100
C  5.52900 -2.90500 43.03800
C  4.47200 -2.12100 42.64100
C  5.63500 -5.46400 43.90800
C  6.77200 -2.20000 42.77500
O  7.95400 -2.43300 42.95000
C  6.30600 -0.79900 42.20000
C  6.70500 0.37600 43.01500
O  6.05400 0.86500 43.92000
O  7.85900 0.88400 42.55000
C  8.49100 1.89500 43.32200
H  0.37000 2.16600 40.62400
H  -2.82100 -3.02800 42.68000
H  2.76800 -5.91600 44.13500
H  5.12300 1.83200 41.56300
H  2.65400 2.75300 39.98000
H  3.76000 3.55600 42.31100
H  2.35700 2.67600 42.80800
H  2.17200 4.11700 41.65100
H  4.04000 1.53600 38.88600
H  4.69900 -0.08100 39.30400
H  6.62300 0.51100 38.89700
H  6.54700 2.03600 39.87000
H  -2.78600 2.52100 41.10100
H  -3.11800 1.66800 39.57000
H  -1.55100 2.26200 39.90200
H  -5.80200 -1.99900 41.24700
H  -4.82400 -2.13700 42.67900
H  -4.23400 -2.92800 41.09700
H  -1.64400 -5.44800 42.45000
H  0.04500 -6.16700 44.78900
H  -3.34600 -5.61500 43.94700
H  -2.42200 -4.48000 45.07600
H  -2.21300 -6.24900 45.05700
H  1.42600 -7.25000 42.59800
H  -0.11200 -6.93400 41.90900
H  -1.12800 -8.12900 43.84800
H  0.51300 -8.70800 44.21100
H  -0.15400 -9.11400 42.67800
H  5.11500 -6.38700 43.65300
H  5.54200 -5.39300 44.99200
H  6.70900 -5.37600 43.74300
H  6.69800 -0.63600 41.19600
H  9.40000 2.20100 42.80400
H  8.73500 1.52300 44.31600
H  7.99300 2.84200 43.52700
Mg 9.29200 48.78900 26.00100
C  7.31000 49.00500 28.97400
C  12.07300 49.54600 27.99200
C  11.23300 48.55200 23.36700
C  6.45100 48.17200 24.22800
N  9.57600 49.29900 28.18800
C  8.66000 49.21200 29.21800
C  9.30800 49.55700 30.50700
C  10.65100 50.20900 30.01600
C  10.83500 49.64300 28.61600
C  10.74300 51.79800 29.96900
C  9.53800 48.38000 31.40400
C  8.98200 48.60000 32.84200
H  8.89900 47.44500 33.83500
N  11.41000 49.00400 25.74800
C  12.41200 49.34700 26.65200
C  13.71500 49.21100 26.08100
C  13.45900 48.77200 24.71100
C  11.98700 48.73800 24.54400
C  15.05500 49.48000 26.82600
C  14.50400 48.36900 23.56200
O  14.07100 47.93900 22.46900
C  15.97900 48.44500 23.84600
N  8.91700 48.47100 24.08300
C  9.85900 48.39100 23.10400
C  9.27500 48.03600 21.73600
C  7.76700 47.76500 22.03400
C  7.68700 48.20100 23.54000
C  9.47500 48.97300 20.60700
C  7.25400 46.29700 21.79500
C  8.11600 45.19100 22.41200
N  7.31600 48.53800 26.47200
C  6.25300 48.28700 25.59900
C  5.04200 48.21300 26.38100
C  5.40800 48.53400 27.65800
C  6.80600 48.71400 27.68600
C  3.56300 47.97000 25.85600
C  4.86500 48.72200 28.98000
O  3.72500 48.69100 29.34200
C  6.09200 49.12800 29.89900
C  5.91600 48.14100 31.01300
O  6.36500 47.03700 31.04000
O  5.03800 48.66900 31.98700
C  4.56400 47.67800 32.96900
H  12.86300 49.86200 28.67700
H  11.85700 48.47300 22.47400
H  5.58500 47.91000 23.61700
H  8.69100 50.30400 31.00500
H  11.53400 49.99700 30.61900
H  9.75500 52.25800 29.97700
H  11.17200 52.06800 29.00400
H  11.22800 52.20500 30.85600
H  10.60200 48.14300 31.42000
H  9.16200 47.45200 30.97200
H  8.00200 49.07600 32.80700
H  9.54700 49.39300 33.33200
H  15.57500 48.52500 26.91000
H  14.92700 49.76700 27.87000
H  15.61400 50.24400 26.28600
H  16.26100 47.84200 24.70900
H  16.11900 49.50500 24.05600
H  16.48100 48.12700 22.93200
H  9.73600 47.07400 21.50900
H  7.19100 48.43900 21.40000
H  9.13600 49.98300 20.83800
H  9.09500 48.49200 19.70600
H  10.55100 48.91100 20.44600
H  7.23700 46.24300 20.70700
H  6.20100 46.21100 22.06300
H  7.56800 44.36500 22.86500
H  8.78900 45.60200 23.16500
H  8.76200 44.79400 21.62900
H  3.40300 48.25800 24.81700
H  2.84100 48.49400 26.48100
H  3.32000 46.91900 26.01200
H  5.91900 50.14500 30.25100
H  5.41200 47.11200 33.35300
H  3.92100 46.96100 32.45800
H  3.96000 48.13400 33.75400

