158

Mg 1.38000 7.67300 26.09900
C  2.08800 9.75100 28.85500
C  1.65300 4.97300 28.15900
C  0.88200 5.68800 23.43300
C  1.38400 10.48900 24.12300
N  1.65500 7.50600 28.32200
C  2.00900 8.42900 29.21300
C  2.15200 7.86600 30.61900
C  2.37500 6.35000 30.26900
C  1.86200 6.25600 28.79600
C  3.78200 5.72300 30.57000
C  0.80000 8.17700 31.31200
C  0.94700 8.68400 32.79100
H  2.02800 8.08900 33.64200
N  1.20500 5.54100 25.79100
C  1.39600 4.59000 26.80700
C  1.10300 3.26400 26.26800
C  0.85900 3.49200 24.90200
C  0.99200 4.95000 24.61700
C  0.93700 2.00300 27.01400
C  0.50000 2.41600 23.79300
O  0.29900 2.81800 22.65000
C  0.64700 0.93200 24.01300
N  1.08900 8.03000 24.18400
C  0.90300 7.05600 23.18000
C  0.79400 7.63300 21.78300
C  0.59800 9.14700 22.15600
C  1.20300 9.22400 23.52700
C  2.03900 7.38000 20.89800
C  -0.89200 9.65600 22.10200
C  -1.27700 10.90300 21.36800
N  1.61500 9.75400 26.38100
C  1.64200 10.71800 25.47700
C  1.91800 11.93800 26.14900
C  2.07800 11.63700 27.51300
C  1.91400 10.30200 27.57900
C  2.12400 13.34400 25.59600
C  2.46900 12.14800 28.83700
O  2.76300 13.28300 29.16500
C  2.35800 10.91900 29.81100
C  3.56500 10.74700 30.74500
O  4.51600 10.04000 30.53700
O  3.38600 11.42600 31.89500
C  4.40200 11.24700 32.91300
H  1.79800 4.20300 28.92000
H  0.59800 5.12900 22.53900
H  1.30600 11.34900 23.45500
H  2.99300 8.18900 31.23200
H  1.73900 5.85500 31.00200
H  4.64100 6.36400 30.77000
H  4.10900 5.29200 29.62400
H  3.69100 5.00800 31.38700
H  0.13800 7.33200 31.12000
H  0.42500 9.05600 30.78600
H  -0.01900 8.52800 33.27100
H  1.05100 9.76500 32.70600
H  -0.11500 1.83600 27.24400
H  1.39300 2.08800 28.00000
H  1.44600 1.18500 26.50300
H  0.54800 0.48900 23.02200
H  -0.18000 0.48400 24.56300
H  1.63900 0.80900 24.44700
H  -0.07300 7.21100 21.27600
H  1.19800 9.80700 21.52900
H  2.82500 8.13200 20.96700
H  1.81900 7.15600 19.85400
H  2.32600 6.34800 21.10000
H  -1.19400 9.92000 23.11500
H  -1.53600 8.83700 21.78000
H  -1.87300 11.59800 21.95900
H  -1.90000 10.70100 20.49700
H  -0.45000 11.54300 21.06000
H  2.97400 13.35300 24.91400
H  2.33100 14.01500 26.42900
H  1.18600 13.46700 25.05400
H  1.35400 10.96500 30.23400
H  4.87500 12.22800 32.95400
H  5.07600 10.41100 32.73200
H  3.93800 11.06500 33.88300
Mg 24.66400 -8.29300 47.45300
C  27.11100 -6.19700 46.16600
C  22.59400 -7.30900 44.77500
C  22.65400 -10.96800 47.96000
C  27.18200 -9.86400 49.30700
N  24.86200 -7.06300 45.64100
C  25.93400 -6.16700 45.42300
C  25.63600 -5.24800 44.22000
C  24.14300 -5.54100 43.84200
C  23.84200 -6.74200 44.78800
C  23.19000 -4.30800 44.07200
C  26.72200 -5.31800 43.09000
C  27.55000 -3.96600 42.74300
H  27.64900 -3.52900 41.24400
N  22.77400 -8.90400 46.66600
C  22.08600 -8.33900 45.59800
C  20.76700 -9.00000 45.51200
C  20.70900 -9.93200 46.51000
C  22.09000 -9.96600 47.15700
C  19.79900 -8.59700 44.40500
C  19.50900 -10.75400 46.86500
O  18.54900 -10.75700 46.13700
C  19.41200 -11.72600 48.00400
N  24.79000 -10.08500 48.65000
C  23.83100 -11.00500 48.75800
C  24.22500 -12.24600 49.49600
C  25.72600 -11.94600 49.86800
C  25.90600 -10.47400 49.29100
C  23.32300 -12.56600 50.77600
C  26.72100 -12.96800 49.29400
C  27.42300 -13.80300 50.40000
N  26.70500 -7.92900 47.91400
C  27.57600 -8.71300 48.60100
C  28.86200 -8.11300 48.48300
C  28.72300 -7.05700 47.60300
C  27.39100 -7.08100 47.23400
C  30.21400 -8.55000 48.97600
C  29.44700 -6.03500 46.93900
O  30.55600 -5.60800 47.07000
C  28.40600 -5.40600 45.99700
C  28.23800 -3.99000 46.36900
O  27.57300 -3.55000 47.30400
O  28.88700 -3.17800 45.46700
C  28.71100 -1.71400 45.67500
H  21.90900 -6.74200 44.14000
H  21.95700 -11.78100 48.17400
H  27.99900 -10.42600 49.76400
H  25.66800 -4.28700 44.73400
H  24.09000 -5.86500 42.80200
H  22.79600 -4.13000 45.07200
H  22.26600 -4.31200 43.49400
H  23.69900 -3.39100 43.77600
H  26.43100 -5.62400 42.08500
H  27.41500 -6.12500 43.32800
H  28.54200 -4.25300 43.09200
H  27.14000 -3.17100 43.36500
H  18.75400 -8.57900 44.71200
H  19.87500 -9.30000 43.57500
H  19.96700 -7.68900 43.82700
H  19.83800 -11.16000 48.83200
H  19.95600 -12.62400 47.71200
H  18.40200 -11.98400 48.32500
H  24.25100 -13.06800 48.78200
H  25.74800 -11.78000 50.94500
H  22.70400 -13.41300 50.48000
H  22.57600 -11.79800 50.97200
H  23.86500 -12.90100 51.66000
H  27.49300 -12.48700 48.69300
H  26.14900 -13.60400 48.61900
H  26.72200 -14.41500 50.96800
H  27.99600 -13.11000 51.01400
H  28.15900 -14.45600 49.93100
H  30.26700 -9.42600 49.62200
H  30.72800 -7.73000 49.47900
H  30.75700 -8.71400 48.04600
H  28.77400 -5.62400 44.99400
H  29.53700 -1.21000 45.17400
H  28.73600 -1.54700 46.75100
H  27.73700 -1.35100 45.34500

