158

Mg 30.61100 58.59900 40.22000
C  27.90700 56.70300 38.78600
C  32.80500 56.01500 39.22400
C  33.25700 60.66300 41.00100
C  28.36700 61.32200 40.45300
N  30.25300 56.62900 39.17300
C  29.12700 56.05100 38.69900
C  29.37900 54.63800 38.15500
C  30.77900 54.36900 38.79800
C  31.38200 55.74300 39.08200
C  30.68000 53.52500 40.15800
C  29.38700 54.61500 36.61300
C  28.49700 53.59700 35.89000
H  27.60200 54.10700 34.71600
N  32.70100 58.37400 40.18200
C  33.37500 57.27000 39.65600
C  34.81400 57.49600 39.67900
C  34.97400 58.79500 40.21600
C  33.65100 59.36900 40.48800
C  35.89000 56.49900 39.17600
C  36.31500 59.53000 40.33900
O  37.32000 59.06000 39.79600
C  36.52700 60.76700 41.03700
N  30.78800 60.67100 40.76000
C  31.96700 61.25100 41.12800
C  31.72800 62.80700 41.41700
C  30.18300 62.98400 41.15600
C  29.73600 61.55000 40.71400
C  32.11200 63.26300 42.79700
C  29.78000 64.10800 40.09400
C  28.71400 65.07400 40.55700
N  28.44600 58.88700 39.88700
C  27.72900 60.06800 40.00000
C  26.37200 59.84500 39.55200
C  26.41100 58.52000 39.10900
C  27.69000 57.98300 39.37000
C  25.20800 60.76200 39.50000
C  25.56900 57.41500 38.58000
O  24.39200 57.34400 38.30300
C  26.55500 56.26800 38.39300
C  26.07600 55.04000 39.09700
O  26.42800 54.58200 40.14000
O  25.31500 54.37300 38.23500
C  24.89500 53.00000 38.59500
H  33.43000 55.15700 38.97100
H  33.94800 61.45100 41.31000
H  27.71700 62.17300 40.67000
H  28.63400 53.88200 38.39800
H  31.41400 53.88200 38.05900
H  29.63100 53.43200 40.44100
H  31.38000 53.85700 40.92500
H  30.94900 52.48500 39.97200
H  30.37100 54.53800 36.15000
H  29.15800 55.64200 36.32800
H  27.77200 53.24700 36.62400
H  29.19600 52.78200 35.70500
H  36.69100 57.00400 38.63700
H  35.39000 55.71800 38.60400
H  36.30900 55.93000 40.00600
H  36.03500 61.54700 40.45700
H  37.61000 60.87000 40.97200
H  36.17100 60.73800 42.06700
H  32.37500 63.28100 40.67900
H  29.59300 63.18800 42.05000
H  31.58000 62.58100 43.46100
H  31.75500 64.28700 42.90300
H  33.19000 63.16600 42.92400
H  29.45600 63.55300 39.21400
H  30.67700 64.62600 39.75500
H  28.07800 65.33200 39.71000
H  29.29900 65.89100 40.97700
H  27.96600 64.69500 41.25400
H  25.10000 61.21300 40.48600
H  24.29900 60.19700 39.29900
H  25.32000 61.57900 38.78700
H  26.48700 55.96700 37.34700
H  23.83800 53.08800 38.84500
H  25.28000 52.44800 39.45300
H  24.97500 52.44300 37.66200
Mg 1.95500 41.82100 25.55300
C  3.06200 41.82800 28.92500
C  -1.00000 40.08500 26.74800
C  1.03000 41.00200 22.35700
C  5.04800 42.89300 24.50300
N  1.03200 41.26800 27.61600
C  1.71200 41.34000 28.81300
C  0.73700 41.07700 29.96700
C  -0.44300 40.38200 29.27800
C  -0.11600 40.48400 27.77900
C  -0.86500 38.98100 29.76400
C  0.38600 42.38100 30.87900
C  -0.21600 42.05600 32.29300
H  -1.53300 41.28900 32.28600
N  0.24800 40.66800 24.63600
C  -0.80600 40.12500 25.38800
C  -1.76400 39.61200 24.36100
C  -1.24100 39.91500 23.07700
C  0.04900 40.52800 23.29200
C  -3.11200 38.89300 24.67800
C  -1.75800 39.67100 21.66200
O  -1.12100 39.83000 20.63300
C  -3.08000 39.15500 21.42500
N  2.95200 41.74600 23.73000
C  2.32000 41.52700 22.54600
C  3.20000 41.99600 21.37200
C  4.28600 42.82800 22.01400
C  4.15300 42.42800 23.51200
C  3.63800 40.83500 20.35600
C  3.98900 44.34500 21.85000
C  3.94200 44.92300 20.48600
N  3.69300 42.33200 26.44100
C  4.89100 42.76000 25.92000
C  5.82500 43.15900 26.94400
C  5.14900 42.83400 28.13300
C  3.86400 42.24400 27.79700
C  7.09400 43.81500 26.66300
C  5.28000 42.86400 29.57500
O  6.13800 43.32300 30.33800
C  4.01400 42.06100 30.13400
C  4.43000 40.76200 30.84100
O  4.94400 39.71400 30.33600
O  4.41200 40.92100 32.19800
C  4.83000 39.73400 32.99200
H  -1.87200 39.46800 26.97300
H  0.83400 40.88000 21.29000
H  6.01800 43.32100 24.24500
H  1.24900 40.35300 30.60100
H  -1.32700 41.01900 29.30000
H  -1.90000 38.83100 30.07000
H  -0.25100 38.75200 30.63500
H  -0.66100 38.26400 28.96800
H  -0.28300 43.05500 30.34200
H  1.27300 42.98400 31.07100
H  -0.43400 43.08200 32.59000
H  0.64900 41.66800 32.83200
H  -3.39600 39.09400 25.71100
H  -3.13300 37.81600 24.51200
H  -3.98800 39.22900 24.12400
H  -2.97800 38.16800 21.87800
H  -3.36600 38.97800 20.38800
H  -3.87600 39.75800 21.86400
H  2.56000 42.66300 20.79400
H  5.28200 42.75000 21.57800
H  3.64400 39.87600 20.87400
H  4.68300 40.94000 20.06500
H  3.10400 40.86400 19.40600
H  4.81500 44.84300 22.35700
H  3.05600 44.61000 22.34800
H  4.27500 44.11800 19.83000
H  4.66200 45.74100 20.49000
H  2.92100 45.26600 20.32000
H  7.96700 43.18900 26.85000
H  7.05100 44.44500 27.55100
H  7.02500 44.41100 25.75300
H  3.50300 42.58200 30.94400
H  4.24200 39.93200 33.88900
H  5.91300 39.82800 33.06300
H  4.39900 38.82400 32.57300

