158

Mg 1.69800 7.46500 26.62900
C  2.27700 9.74700 29.39600
C  1.84900 4.93100 28.95600
C  1.26200 5.30100 24.13000
C  1.98100 10.14200 24.40300
N  2.19800 7.35300 28.96200
C  2.28700 8.42800 29.91400
C  2.05000 7.91500 31.32600
C  2.01100 6.39900 31.12900
C  2.04200 6.18700 29.59100
C  3.12200 5.56900 31.88700
C  0.80600 8.58600 31.95200
C  1.02400 9.07800 33.34700
H  2.00300 8.35600 34.26800
N  1.53600 5.44300 26.52500
C  1.65600 4.56000 27.58900
C  1.33300 3.22900 27.10300
C  1.05600 3.29800 25.71400
C  1.34500 4.73300 25.36700
C  1.33400 2.07200 28.00000
C  0.60100 2.33200 24.69200
O  0.51800 2.54900 23.52700
C  0.40500 0.90600 25.26400
N  1.90700 7.64500 24.52900
C  1.46800 6.62700 23.69900
C  1.41200 7.08400 22.22400
C  1.55400 8.63600 22.37800
C  1.85600 8.85700 23.86900
C  2.55000 6.36200 21.46900
C  0.30300 9.52200 21.97900
C  0.64600 10.80500 21.27300
N  2.07300 9.53600 26.80800
C  2.14100 10.46800 25.85000
C  2.17200 11.84900 26.47100
C  2.29800 11.57400 27.78400
C  2.25200 10.15600 27.98000
C  2.17300 13.14700 25.75200
C  2.49000 12.14000 29.12000
O  2.60600 13.29800 29.45400
C  2.36800 11.00600 30.11300
C  3.52100 11.14200 31.07700
O  4.64800 10.81600 30.77000
O  3.10900 11.72400 32.20900
C  4.20100 12.13600 33.12600
H  1.85700 4.16700 29.73500
H  0.99900 4.75000 23.22500
H  1.91100 10.99700 23.72800
H  2.97600 8.26100 31.78500
H  1.01200 6.01300 31.33000
H  3.79500 5.06800 31.19100
H  2.64400 4.72100 32.37600
H  3.64500 6.17000 32.63100
H  0.05700 7.81100 32.11900
H  0.27500 9.32300 31.35000
H  0.00900 9.11900 33.74400
H  1.39000 10.10400 33.37600
H  0.32800 1.68700 28.16700
H  1.81700 2.19800 28.96900
H  1.98900 1.29100 27.61500
H  1.36800 0.45300 25.49900
H  -0.16100 0.39800 24.48200
H  -0.21800 1.04100 26.14800
H  0.49200 6.67900 21.80000
H  2.37100 8.97500 21.74000
H  2.26700 5.99300 20.48300
H  2.88100 5.47400 22.00800
H  3.33100 7.12200 21.44100
H  -0.24900 9.69300 22.90300
H  -0.43500 8.94700 21.42000
H  0.26200 11.65400 21.83800
H  0.29600 10.85100 20.24100
H  1.72500 10.91700 21.16800
H  2.70400 13.02200 24.80800
H  2.71500 13.95000 26.25000
H  1.12600 13.40800 25.59800
H  1.48600 11.20200 30.72400
H  3.78100 12.56700 34.03500
H  5.00300 12.72400 32.67900
H  4.61800 11.20600 33.51200
Mg 48.06100 15.06300 27.78100
C  46.08300 15.18400 30.69100
C  50.27300 17.31500 29.39400
C  49.95500 15.16700 25.05300
C  45.62000 13.14000 26.20800
N  48.20200 16.14100 29.79400
C  47.25100 15.94400 30.85000
C  47.84800 16.65300 32.12600
C  48.97600 17.57900 31.59800
C  49.17600 17.00700 30.19900
C  48.61300 19.11500 31.50200
C  48.31500 15.54200 33.22600
C  48.01300 15.88700 34.66800
H  49.03900 15.40000 35.70100
N  49.86200 16.17300 27.22100
C  50.61900 16.99800 28.08100
C  51.86800 17.44800 27.36300
C  51.77400 16.72700 26.07600
C  50.45700 16.07100 26.01600
C  52.86500 18.29700 28.01900
C  52.80900 16.69700 25.03900
O  52.64000 16.12000 23.95200
C  54.14500 17.35100 25.31400
N  47.77000 14.48100 25.92100
C  48.74000 14.51600 24.95400
C  48.50500 13.45300 23.81700
C  47.13800 12.79100 24.19800
C  46.83800 13.46300 25.54800
C  48.53100 14.09600 22.34700
C  47.19300 11.27700 24.43000
C  48.07800 10.47600 23.35400
N  46.15100 14.39600 28.22400
C  45.26700 13.60300 27.52600
C  44.08000 13.39200 28.28000
C  44.35800 13.98900 29.49000
C  45.66300 14.54900 29.48400
C  42.82600 12.70000 27.79300
C  43.77100 14.15100 30.81400
O  42.74000 13.77100 31.30200
C  44.92000 14.93800 31.69500
C  44.33900 16.18100 32.29300
O  43.84200 17.12200 31.67200
O  44.40800 16.04800 33.66200
C  44.07800 17.23000 34.46000
H  50.92200 18.08100 29.82400
H  50.61800 15.05000 24.19300
H  45.13400 12.37600 25.59700
H  47.11100 17.29200 32.61300
H  49.86800 17.47600 32.21600
H  48.64600 19.46200 30.47000
H  49.37100 19.78300 31.91100
H  47.74200 19.40000 32.09300
H  49.37700 15.40500 33.02200
H  47.87800 14.58800 32.93500
H  47.09000 15.43000 35.02400
H  47.85200 16.94900 34.84800
H  53.62500 17.78700 28.61100
H  52.36100 18.94600 28.73500
H  53.44800 18.96100 27.38100
H  54.89900 16.99200 24.61400
H  54.45700 17.05900 26.31700
H  54.08800 18.41900 25.10100
H  49.29800 12.71300 23.92400
H  46.46600 13.05700 23.38300
H  48.72500 13.29500 21.63400
H  49.33700 14.82100 22.23200
H  47.59000 14.62000 22.18000
H  46.19000 10.85600 24.35900
H  47.46800 10.88800 25.41000
H  48.57800 11.08900 22.60500
H  47.37200 9.84500 22.81400
H  48.78000 9.80700 23.85100
H  42.13300 12.43400 28.59200
H  43.11400 11.85700 27.16600
H  42.35000 13.41500 27.12200
H  45.08200 14.21500 32.49500
H  44.34200 18.18700 34.01000
H  44.63500 17.12900 35.39200
H  42.99700 17.12600 34.55700

