158

Mg 54.14600 23.12900 44.92200
C  51.70300 25.41100 43.61200
C  52.26000 20.55000 43.74200
C  56.66600 21.09700 45.36400
C  56.04700 25.89900 45.84600
N  52.16000 23.06900 43.76700
C  51.29400 24.09900 43.39600
C  50.24900 23.51500 42.50000
C  50.22500 22.03200 43.07500
C  51.65300 21.82900 43.47800
C  49.22600 21.91000 44.31800
C  50.46000 23.62400 40.93900
C  49.28100 24.10300 40.05900
H  49.02700 23.44900 38.62800
N  54.47000 21.05900 44.57000
C  53.52900 20.12700 44.16300
C  54.06900 18.78700 44.19800
C  55.44100 18.91000 44.53600
C  55.61200 20.37500 44.87400
C  53.32000 17.50500 43.84800
C  56.43600 17.85000 44.58000
O  56.18800 16.66400 44.35300
C  57.81800 18.11700 44.84400
N  56.16200 23.48900 45.32900
C  56.94800 22.43800 45.59600
C  58.31400 22.83400 46.16600
C  58.21000 24.38900 46.22600
C  56.69700 24.63100 45.83900
C  58.68700 22.23600 47.51900
C  59.25200 25.06500 45.28300
C  60.65400 25.34200 45.92400
N  53.92900 25.15000 44.91500
C  54.73600 26.16600 45.41400
C  54.08900 27.47600 45.29900
C  52.91400 27.19200 44.55000
C  52.84600 25.77700 44.36500
C  54.74100 28.83700 45.70000
C  51.75400 27.75400 43.88600
O  51.38200 28.95800 43.81100
C  50.92400 26.59700 43.26100
C  51.00900 26.93400 41.79400
O  52.01500 26.90000 41.05500
O  49.83400 27.47800 41.35200
C  49.81300 28.26700 40.12800
H  51.60100 19.74000 43.42200
H  57.58400 20.52800 45.52500
H  56.68600 26.74200 46.11500
H  49.29900 24.03100 42.63900
H  50.01800 21.24500 42.35000
H  48.75600 22.86700 44.54500
H  49.65400 21.56900 45.26000
H  48.40800 21.33100 43.89100
H  50.81000 22.66300 40.56300
H  51.27500 24.32100 40.74100
H  49.32100 25.17300 39.85300
H  48.41300 23.97200 40.70500
H  53.58400 17.25600 42.82000
H  52.25100 17.69000 43.95200
H  53.52600 16.65200 44.49600
H  58.10600 18.98300 44.24800
H  58.30100 17.19700 44.51400
H  57.94700 18.27000 45.91500
H  59.08800 22.46800 45.49200
H  58.30200 24.74900 47.25000
H  58.06000 21.41900 47.87600
H  58.55600 22.90300 48.37200
H  59.69000 21.81500 47.45700
H  58.74500 25.98100 44.98200
H  59.37600 24.48300 44.36900
H  61.46500 25.05400 45.25600
H  60.70200 24.80300 46.87000
H  60.76100 26.41600 46.08100
H  55.82600 28.83400 45.60100
H  54.37600 29.14200 46.68000
H  54.33200 29.59400 45.03100
H  49.90000 26.69600 43.62000
H  49.15100 29.13300 40.14800
H  49.36600 27.68600 39.32100
H  50.79600 28.64200 39.84300
Mg 50.55200 45.13700 42.99000
C  47.54500 46.36800 41.69700
C  49.99800 42.18500 41.29300
C  53.74100 44.41000 43.27900
C  51.31000 48.48700 43.85100
N  48.86500 44.40700 41.59300
C  47.74600 45.04500 41.25000
C  46.83300 44.08900 40.42900
C  47.59700 42.71900 40.41100
C  48.91100 43.12900 41.08800
C  46.93600 41.61700 41.33200
C  46.51500 44.69700 39.07300
C  44.97300 44.62400 38.71100
H  44.49100 43.42000 37.77600
N  51.63700 43.35900 42.67000
C  51.24900 42.26200 41.98800
C  52.31500 41.30400 41.97700
C  53.40900 41.92100 42.62100
C  52.95900 43.28900 42.92000
C  52.18100 39.84700 41.48000
C  54.80700 41.26000 42.91500
O  55.12300 40.23800 42.34800
C  55.89000 41.97400 43.79800
N  52.24900 46.27300 43.38400
C  53.46400 45.73100 43.52300
C  54.55400 46.70700 43.84300
C  53.75500 48.01300 44.01800
C  52.33700 47.60000 43.72800
C  55.47100 46.56400 45.07600
C  54.33300 49.17400 43.19600
C  54.80900 50.37600 43.97500
N  49.58100 47.03400 42.98300
C  50.02200 48.24300 43.41000
C  48.88200 49.21100 43.37900
C  47.81300 48.50000 42.66700
C  48.40100 47.20700 42.42400
C  48.82600 50.48800 44.14500
C  46.41100 48.47300 42.27600
O  45.54600 49.36100 42.35800
C  46.25200 47.14300 41.49900
C  44.93700 46.59900 41.98900
O  44.86600 45.82800 42.97800
O  43.88800 46.92700 41.24400
C  42.50300 46.44000 41.65200
H  49.70200 41.20600 40.91200
H  54.78200 44.09400 43.18400
H  51.55000 49.51500 44.13100
H  45.94800 43.94600 41.04900
H  47.69800 42.28600 39.41600
H  45.85600 41.72100 41.44200
H  47.36400 41.60400 42.33400
H  47.28700 40.73600 40.79500
H  46.95000 44.10400 38.26800
H  46.98800 45.67100 38.95300
H  44.66500 45.48000 38.11000
H  44.40200 44.61700 39.64000
H  52.81000 39.55300 40.63900
H  51.16400 39.77500 41.09500
H  52.29200 39.04900 42.21400
H  55.45900 42.43000 44.68900
H  56.42100 42.64700 43.12500
H  56.59000 41.22500 44.16800
H  55.24700 46.61100 43.00700
H  53.83700 48.24900 45.07900
H  55.97900 47.49100 45.34000
H  56.07700 45.66600 44.95600
H  54.87400 46.29400 45.94700
H  53.51300 49.55000 42.58400
H  55.09000 48.71300 42.56100
H  54.21300 51.26700 43.77700
H  55.86200 50.57300 43.77500
H  54.68500 50.26800 45.05300
H  48.00800 50.42700 44.86300
H  48.67200 51.33900 43.48200
H  49.77300 50.70400 44.63900
H  46.08400 47.59500 40.52100
H  41.87500 47.24200 41.26300
H  42.40300 46.29300 42.72700
H  42.12800 45.58000 41.09800

