158

Mg 48.51800 44.83800 42.64500
C  44.94700 44.38500 42.32100
C  48.93600 41.52000 42.12900
C  51.93200 45.49400 42.36900
C  47.91200 48.31800 42.44100
N  47.03900 43.18000 42.39500
C  45.70900 43.21800 42.12200
C  45.16000 41.88500 41.89100
C  46.43400 40.86800 42.14400
C  47.60300 41.89700 42.22500
C  46.46200 40.03200 43.44100
C  44.35600 41.76700 40.57800
C  44.62900 42.76000 39.38700
H  44.77600 41.99900 38.01800
N  50.17300 43.65000 42.33400
C  50.16000 42.31800 42.09300
C  51.50300 41.88400 41.84900
C  52.38800 42.97400 41.92300
C  51.48000 44.14000 42.24000
C  51.70900 40.44400 41.52000
C  53.88400 42.81700 41.61700
O  54.29300 41.69600 41.46800
C  54.75400 44.02700 41.45600
N  49.79700 46.56000 42.54200
C  51.13900 46.60600 42.50200
C  51.63400 48.06900 42.52400
C  50.34000 48.92700 42.19800
C  49.25700 47.85100 42.51100
C  52.48100 48.46900 43.79800
C  50.26200 49.65900 40.83100
C  50.35700 51.21100 40.94600
N  46.84300 46.13000 42.48100
C  46.75800 47.52700 42.42100
C  45.37500 47.91500 42.32100
C  44.65600 46.72800 42.36900
C  45.59000 45.69200 42.34500
C  44.82100 49.32600 42.17700
C  43.33100 46.14300 42.36000
O  42.22400 46.75000 42.35900
C  43.47400 44.51300 42.32200
C  42.93500 43.95800 43.54400
O  42.09800 43.05200 43.59800
O  43.69600 44.33800 44.65500
C  43.36800 43.48300 45.82700
H  49.13400 40.46200 41.94600
H  52.97200 45.71200 42.11900
H  47.79700 49.40200 42.50300
H  44.50900 41.66900 42.73800
H  46.49200 40.21800 41.27100
H  45.64200 40.42600 44.04200
H  47.42500 40.18100 43.92800
H  46.34400 38.95500 43.32300
H  43.31700 41.77800 40.90600
H  44.57800 40.74300 40.27500
H  45.59200 43.26700 39.43900
H  43.72500 43.36700 39.33600
H  52.22600 40.24000 40.58300
H  50.86300 39.75700 41.54000
H  52.24300 39.84000 42.25500
H  54.69300 44.60300 42.38000
H  54.36000 44.66100 40.66200
H  55.78200 43.67400 41.37300
H  52.28200 48.26000 41.66900
H  50.23000 49.62200 43.03000
H  51.93500 48.82100 44.67300
H  53.21400 49.19300 43.44200
H  52.87700 47.49100 44.07200
H  49.33700 49.45400 40.29200
H  51.12400 49.34700 40.24000
H  51.11500 51.60700 40.27000
H  50.41500 51.65900 41.93800
H  49.46700 51.61300 40.46100
H  44.48000 49.83600 43.07800
H  43.99500 49.08400 41.50800
H  45.48800 49.97000 41.60400
H  43.01300 44.04200 41.45400
H  42.31100 43.65400 46.02900
H  44.05900 43.67800 46.64700
H  43.50600 42.44700 45.51800
Mg 36.13200 49.46700 24.76300
C  36.40500 47.58900 27.75700
C  34.69400 52.04900 26.59400
C  35.64100 50.96900 21.84000
C  37.20800 46.58700 23.06900
N  35.50400 49.64400 26.94800
C  35.81200 48.81800 27.99300
C  35.59600 49.61100 29.30800
C  34.84400 50.89800 28.92100
C  35.00600 50.90300 27.40700
C  33.40100 51.01200 29.40200
C  36.87200 49.81000 30.13200
C  36.84700 49.62100 31.64000
H  35.54600 49.56800 32.42000
N  35.40300 51.28100 24.31800
C  34.89200 52.23100 25.20800
C  34.45300 53.41600 24.38400
C  34.74100 53.11700 23.00200
C  35.28800 51.74800 23.04500
C  33.65400 54.60300 24.95000
C  34.32700 53.90000 21.68800
O  34.57600 53.44400 20.59400
C  33.64200 55.31900 21.80700
N  36.12000 48.76400 22.77000
C  36.00300 49.63800 21.77300
C  36.46400 49.08200 20.41100
C  37.08200 47.69900 20.80800
C  36.83800 47.70300 22.30700
C  35.49300 48.79200 19.32200
C  38.55300 47.38200 20.33700
C  39.67900 48.23600 20.94800
N  36.74200 47.50900 25.22900
C  37.12200 46.47600 24.44400
C  37.50600 45.39200 25.24300
C  37.23900 45.77600 26.54400
C  36.79400 47.09400 26.48800
C  38.20800 44.17800 24.75500
C  37.33900 45.32700 27.92300
O  37.72300 44.28800 28.38800
C  36.80800 46.57700 28.76700
C  35.71600 46.18900 29.73200
O  34.50600 46.14600 29.53900
O  36.23600 45.65500 30.82100
C  35.46600 45.06800 31.95200
H  34.22000 52.93200 27.02800
H  35.69900 51.48700 20.88100
H  37.74700 45.76600 22.59200
H  34.97800 49.03600 29.99900
H  35.38000 51.69000 29.44400
H  32.87200 50.77200 28.47900
H  33.22400 52.04000 29.71700
H  33.11300 50.28200 30.15800
H  37.28500 50.80100 29.94500
H  37.59100 49.11000 29.70500
H  37.50800 50.36400 32.08500
H  37.21800 48.60400 31.76300
H  33.27600 54.42400 25.95700
H  32.75200 54.64000 24.33900
H  34.16900 55.56300 24.97900
H  32.69600 55.20400 22.33600
H  33.40800 55.76900 20.84200
H  34.19400 56.08700 22.34900
H  37.20300 49.78200 20.02300
H  36.44400 46.89800 20.43600
H  34.85800 47.96300 19.63600
H  36.13900 48.61300 18.46200
H  34.94900 49.67500 18.98700
H  38.72600 47.30400 19.26400
H  38.73900 46.32800 20.54400
H  40.17400 48.84900 20.19500
H  40.50100 47.61900 21.30800
H  39.30100 48.86000 21.75800
H  37.70500 43.71000 23.90900
H  38.43700 43.52200 25.59500
H  39.10400 44.52000 24.23600
H  37.62000 47.00000 29.35800
H  34.88400 44.23900 31.54800
H  34.77400 45.83000 32.30900
H  35.94800 44.55200 32.78300

