158

Mg 53.43100 24.33500 43.95000
C  50.73500 26.70000 43.83600
C  51.20700 21.85100 43.40200
C  56.02000 22.22700 43.36500
C  55.64900 26.92900 44.33200
N  51.24800 24.33400 43.65100
C  50.35800 25.31700 43.66000
C  49.00000 24.79200 43.45200
C  49.14400 23.29800 43.84300
C  50.63300 23.08900 43.62900
C  48.69200 22.95800 45.23500
C  48.45000 25.01500 42.01700
C  49.22500 24.63600 40.75600
H  49.61500 25.69700 39.72300
N  53.58400 22.33000 43.50900
C  52.55200 21.49700 43.20600
C  53.06100 20.13500 42.92000
C  54.40700 20.23500 42.95200
C  54.76200 21.64500 43.32200
C  52.18500 18.92200 42.71700
C  55.47200 19.10200 42.69400
O  55.15400 18.00700 42.23900
C  57.02300 19.26200 42.94500
N  55.58400 24.62700 43.66100
C  56.41600 23.57800 43.54400
C  57.86500 23.98100 43.41800
C  57.77300 25.50700 43.85300
C  56.28100 25.71900 44.00200
C  59.04200 23.16500 44.07500
C  58.46700 26.40000 42.82000
C  57.69500 26.80700 41.51900
N  53.27000 26.41700 43.93100
C  54.20500 27.34000 44.32500
C  53.62500 28.66000 44.57700
C  52.25200 28.40800 44.26800
C  52.07800 27.05800 43.88400
C  54.28000 29.93800 45.09200
C  51.03000 29.14700 44.28100
O  50.76400 30.32600 44.46600
C  49.90700 28.02500 43.94900
C  49.32100 28.46400 42.61500
O  49.92200 28.70800 41.60900
O  47.97800 28.33700 42.63800
C  47.33600 28.88500 41.39900
H  50.65100 20.91500 43.32600
H  56.87400 21.62500 43.04900
H  56.23700 27.82300 44.55000
H  48.39400 25.41100 44.11400
H  48.55200 22.66400 43.18400
H  48.39400 23.81000 45.84500
H  49.48300 22.64900 45.91900
H  47.88000 22.23200 45.22800
H  48.28700 26.09000 41.94100
H  47.50100 24.47800 42.01200
H  48.72800 23.85700 40.17700
H  50.15600 24.12200 40.99300
H  52.73300 17.99800 42.53200
H  51.42300 19.10600 41.96000
H  51.63600 18.82600 43.65400
H  57.36600 19.92400 42.15000
H  57.31400 18.21200 42.92200
H  57.05400 19.66100 43.95900
H  58.07000 23.87000 42.35300
H  58.31200 25.71800 44.77600
H  59.79100 22.93400 43.31600
H  58.72000 22.32700 44.69200
H  59.53300 23.89900 44.71400
H  59.23800 25.71400 42.46800
H  59.02900 27.23300 43.24000
H  56.62200 26.78100 41.70700
H  57.76100 26.07000 40.71800
H  58.12300 27.73600 41.14100
H  54.06200 30.70500 44.34900
H  55.36500 29.97800 45.18700
H  53.73200 30.23800 45.98500
H  49.06700 28.02200 44.64400
H  47.55200 29.94700 41.28100
H  46.27800 28.64600 41.29300
H  47.73400 28.39800 40.50900
Mg 6.41700 55.52700 40.85100
C  5.06500 52.19800 40.48800
C  9.27400 54.45800 39.43500
C  7.52900 58.74200 40.82200
C  3.29100 56.58200 41.76200
N  6.91200 53.66800 39.79000
C  6.32000 52.41500 39.87800
C  7.10900 51.46400 39.01900
C  8.56100 51.98400 39.22900
C  8.25100 53.44600 39.55400
C  9.53900 51.40900 40.28700
C  6.55800 51.75500 37.57300
C  6.52500 50.45700 36.71700
H  6.09200 50.77800 35.28600
N  8.21100 56.50100 40.28900
C  9.25200 55.83800 39.71100
C  10.31700 56.82300 39.45100
C  9.91800 58.09300 39.98300
C  8.51200 57.84700 40.35000
C  11.69000 56.45500 38.91700
C  10.68700 59.39100 40.17100
O  11.80600 59.45200 39.69800
C  10.17700 60.60600 40.90000
N  5.54900 57.47600 41.12200
C  6.20700 58.61400 41.26000
C  5.23800 59.79900 41.60200
C  3.84300 59.09500 41.81500
C  4.24600 57.63600 41.58300
C  5.68400 60.51600 42.82300
C  2.67400 59.61200 40.91800
C  1.49900 60.35200 41.66700
N  4.42300 54.62100 41.09400
C  3.32000 55.16900 41.54500
C  2.34400 54.13300 41.67500
C  2.87300 52.92000 41.31100
C  4.21300 53.24100 40.99400
C  0.85400 54.41800 42.03400
C  2.79900 51.45200 41.16700
O  1.92700 50.66000 41.48900
C  4.26500 50.96200 40.66900
C  4.26200 50.04600 39.54000
O  3.60700 50.24500 38.53700
O  4.91900 48.91800 39.77400
C  4.76000 47.84600 38.80500
H  10.26200 54.12600 39.10900
H  7.84900 59.78600 40.81700
H  2.35400 57.05600 42.06200
H  6.92800 50.42800 39.30400
H  9.00500 51.90800 38.23600
H  9.14500 50.55200 40.83200
H  9.76400 52.20200 41.00100
H  10.48700 51.26900 39.76700
H  7.15500 52.53400 37.09900
H  5.54900 52.16400 37.63200
H  5.92700 49.62800 37.09700
H  7.55500 50.10300 36.76600
H  12.07600 57.33400 38.40100
H  11.46100 55.73800 38.12900
H  12.41300 56.06500 39.63400
H  10.95900 61.30500 41.19600
H  9.77800 60.24200 41.84700
H  9.37200 61.05900 40.32000
H  5.18800 60.51500 40.78200
H  3.50200 59.18900 42.84600
H  4.89400 60.93800 43.44300
H  6.22100 61.41300 42.51500
H  6.29000 59.90600 43.49300
H  2.27100 58.77300 40.35100
H  3.00000 60.26300 40.10700
H  1.11800 61.17200 41.05800
H  1.89700 60.73200 42.60800
H  0.66000 59.69100 41.88900
H  0.74100 55.13300 42.84800
H  0.44900 53.50900 42.47900
H  0.19500 54.63500 41.19400
H  4.53300 50.44100 41.58800
H  5.77100 47.55100 38.52500
H  4.37200 48.24900 37.86900
H  4.06000 47.17100 39.29700

