158

Mg 24.84700 1.25000 30.33200
C  27.01700 1.24400 33.03000
C  22.22200 0.91700 32.56300
C  22.87100 0.87900 27.78600
C  27.70500 0.92000 28.19500
N  24.70600 1.11500 32.53200
C  25.66700 1.26300 33.47700
C  25.19500 1.37800 34.90000
C  23.66800 0.93300 34.72600
C  23.50600 0.92300 33.20300
C  23.21700 -0.43400 35.40100
C  25.35800 2.78300 35.48300
C  26.32000 2.77800 36.71000
H  26.01500 3.66900 37.88000
N  22.85700 0.93200 30.19400
C  21.93800 0.89800 31.20300
C  20.61500 0.80200 30.59500
C  20.72100 0.73400 29.19100
C  22.22600 0.88800 29.03200
C  19.34300 0.74500 31.44100
C  19.72800 0.64000 28.09100
O  20.00700 0.66700 26.90300
C  18.27000 0.39500 28.44700
N  25.27700 0.85500 28.25800
C  24.25200 0.90100 27.33500
C  24.67500 1.10000 25.88500
C  26.25300 1.07800 26.09500
C  26.45200 0.95300 27.59500
C  24.14900 0.04300 24.84400
C  27.15900 2.13000 25.40700
C  28.40700 1.72700 24.72000
N  27.02700 1.03300 30.50400
C  28.00000 0.90200 29.60400
C  29.29400 0.80500 30.23100
C  28.95000 1.07500 31.57900
C  27.57200 1.13300 31.67300
C  30.62300 0.52600 29.51700
C  29.42000 1.17700 32.96800
O  30.53200 1.10300 33.42400
C  28.19700 1.44000 33.88600
C  28.33400 0.53900 35.04500
O  28.16200 -0.62100 35.02600
O  28.79700 1.25400 36.08500
C  29.20700 0.63100 37.30900
H  21.38000 0.79900 33.24900
H  22.27700 0.63200 26.90400
H  28.62300 0.94600 27.60400
H  25.72400 0.66000 35.52700
H  22.92200 1.62700 35.11100
H  22.32600 -0.27100 36.00700
H  23.92100 -0.85700 36.11700
H  22.98300 -1.20000 34.66100
H  24.42400 3.27500 35.75500
H  25.93900 3.36100 34.76400
H  27.24400 3.21000 36.32400
H  26.53300 1.74800 36.99800
H  19.11300 -0.29600 31.66500
H  18.44100 1.13600 30.96900
H  19.46000 1.31600 32.36200
H  17.64600 0.21600 27.57100
H  17.89300 1.29200 28.93800
H  18.07300 -0.41500 29.14900
H  24.37900 2.12400 25.66000
H  26.63200 0.10900 25.76900
H  23.66800 -0.80200 25.33600
H  24.86300 -0.49700 24.22300
H  23.48300 0.48400 24.10300
H  27.44800 2.86200 26.16000
H  26.47800 2.65000 24.73400
H  28.29600 0.64700 24.62600
H  29.34700 1.83900 25.26000
H  28.47100 2.38000 23.85000
H  30.53600 0.68600 28.44200
H  30.85000 -0.51700 29.73500
H  31.32200 1.30100 29.83100
H  28.27700 2.51700 34.03500
H  28.39300 0.69600 38.03100
H  30.03000 1.23200 37.69600
H  29.59100 -0.37400 37.13200
Mg 39.93900 9.12000 28.91500
C  41.86100 10.25500 31.55200
C  37.65400 7.76600 31.07300
C  38.18400 8.01400 26.25700
C  42.60400 9.90900 26.76300
N  39.90600 8.91600 31.06100
C  40.71800 9.54400 31.92900
C  40.15900 9.51200 33.32800
C  38.92500 8.52100 33.19500
C  38.76700 8.43200 31.67800
C  38.96900 7.19300 33.93800
C  39.85100 10.91700 33.86100
C  39.51000 11.17500 35.34800
H  40.50300 11.96100 36.19400
N  38.16000 8.06000 28.72200
C  37.29700 7.61300 29.72300
C  36.03800 7.12500 29.20800
C  36.22400 7.20900 27.73600
C  37.56800 7.79600 27.49700
C  34.85700 6.58700 30.03100
C  35.23600 6.99200 26.71900
O  35.49700 7.09200 25.51800
C  33.75100 6.59500 27.06300
N  40.41600 8.94300 26.83100
C  39.44900 8.52000 25.86200
C  40.00100 8.41200 24.41600
C  41.42500 9.11300 24.61800
C  41.52600 9.35200 26.15600
C  39.98100 6.98200 23.87500
C  41.45300 10.59600 23.92100
C  40.73800 11.81500 24.52700
N  41.81700 10.04200 29.03000
C  42.77700 10.33000 28.11200
C  43.88000 11.02700 28.71600
C  43.63500 11.00700 30.12700
C  42.34000 10.41100 30.21500
C  45.06900 11.61400 28.01400
C  44.11900 11.29200 31.43800
O  45.18100 11.75700 31.87600
C  42.94600 10.94300 32.42400
C  43.42200 10.10900 33.50500
O  44.16900 9.16600 33.33600
O  42.96000 10.63200 34.67300
C  43.36500 10.04600 35.90500
H  36.96600 7.37200 31.82400
H  37.62300 7.78400 25.34900
H  43.45900 10.05600 26.10000
H  40.83900 9.06600 34.05400
H  38.04300 9.07600 33.51600
H  39.81700 7.22600 34.62200
H  39.05400 6.36700 33.23200
H  38.04300 7.10100 34.50500
H  38.94200 11.22900 33.34700
H  40.74900 11.47900 33.60400
H  39.56200 10.13800 35.67700
H  38.50900 11.60800 35.34000
H  34.89800 6.76400 31.10500
H  34.62500 5.53500 29.86100
H  33.97300 7.14000 29.71100
H  33.59100 5.95500 27.93100
H  33.25300 6.14200 26.20600
H  33.18700 7.49900 27.29400
H  39.46700 9.01000 23.67700
H  42.29900 8.51600 24.35500
H  39.09100 6.85000 23.25900
H  39.88300 6.42100 24.80400
H  40.91000 6.81500 23.33100
H  41.04700 10.40300 22.92900
H  42.52500 10.74800 23.79100
H  40.12000 11.55400 25.38700
H  39.96400 12.13200 23.82900
H  41.41800 12.65800 24.64700
H  44.64200 11.81600 27.03200
H  45.82600 10.83000 27.99400
H  45.46100 12.54200 28.43200
H  42.59100 11.89800 32.81200
H  42.49700 9.88100 36.54300
H  44.03700 10.79200 36.32900
H  43.92900 9.11300 35.90200

