158

Mg 50.84600 45.46800 42.74900
C  47.96800 46.87300 41.14800
C  50.38800 42.62600 40.95800
C  53.98100 44.64400 43.49600
C  51.32800 48.71400 44.16400
N  49.40200 44.91000 41.25900
C  48.28500 45.55100 40.76000
C  47.38700 44.73300 39.94500
C  48.13300 43.34000 39.90300
C  49.34800 43.56000 40.80500
C  47.19500 42.16800 40.25800
C  47.03400 45.24800 38.52900
C  45.51600 45.23700 38.14900
H  45.05800 44.05600 37.25300
N  52.06000 43.79400 42.36300
C  51.63400 42.71700 41.62700
C  52.63200 41.76300 41.73000
C  53.74800 42.24800 42.48200
C  53.33500 43.59700 42.82700
C  52.45600 40.41000 41.11900
C  55.01900 41.47000 42.77100
O  55.16600 40.31700 42.39300
C  56.21900 42.19600 43.45500
N  52.50600 46.65400 43.39900
C  53.67900 46.02500 43.77800
C  54.66800 47.02700 44.33000
C  53.75800 48.17700 44.70400
C  52.43300 47.82100 44.07800
C  55.57000 46.55500 45.51700
C  54.32500 49.60000 44.44400
C  54.36900 50.47900 45.62500
N  49.87100 47.39000 42.75400
C  50.09000 48.51600 43.47200
C  48.99000 49.49200 43.21400
C  48.10800 48.81100 42.34400
C  48.72800 47.58900 42.05600
C  48.84900 50.90400 43.72200
C  46.86800 48.96500 41.64400
O  46.06800 49.89700 41.66300
C  46.68300 47.68100 40.90600
C  45.48100 47.06800 41.57900
O  45.50900 46.21200 42.40000
O  44.32200 47.40000 40.95400
C  43.10800 46.96500 41.63100
H  50.17900 41.70800 40.40400
H  54.98200 44.35500 43.82500
H  51.37900 49.57800 44.82900
H  46.44400 44.68300 40.48900
H  48.44700 43.13800 38.87800
H  46.19600 42.41200 40.61800
H  47.69200 41.69900 41.10700
H  47.25500 41.48000 39.41500
H  47.59400 44.69600 37.77400
H  47.31900 46.29500 38.42800
H  45.33400 46.11600 37.53100
H  44.83600 45.21200 39.00000
H  51.42500 40.19200 40.84000
H  52.69900 39.55400 41.74900
H  53.00600 40.34000 40.18100
H  55.87500 42.43000 44.46200
H  56.49900 43.05500 42.84500
H  57.13800 41.61400 43.53000
H  55.28200 47.15800 43.43900
H  53.49700 48.10600 45.76000
H  55.26900 47.09000 46.41800
H  56.57500 46.89400 45.26500
H  55.63500 45.48900 45.73400
H  53.60300 50.01800 43.74200
H  55.27100 49.51700 43.90900
H  55.39500 50.80400 45.79800
H  53.97300 50.10400 46.56900
H  53.79600 51.36500 45.35200
H  48.07500 51.02600 44.47900
H  48.66600 51.36200 42.75000
H  49.75400 51.38500 44.09200
H  46.45700 48.01000 39.89100
H  42.47000 47.81700 41.86500
H  43.29700 46.36500 42.52100
H  42.79600 46.29600 40.82900
Mg 16.07000 51.23700 26.02000
C  17.91800 50.02400 28.66000
C  13.70300 52.26000 28.20600
C  14.55500 52.79800 23.37300
C  18.52700 50.13200 23.83100
N  15.93000 51.32300 28.12100
C  16.82400 50.75100 29.01600
C  16.38700 51.08000 30.47900
C  14.85600 51.35400 30.27100
C  14.81100 51.68200 28.77800
C  13.88900 50.13200 30.56800
C  17.37100 52.18200 31.07700
C  17.55400 51.93900 32.65400
H  16.60100 52.63000 33.63900
N  14.37800 52.41000 25.79400
C  13.51300 52.67900 26.84800
C  12.48700 53.54600 26.34300
C  12.71600 53.70200 24.94400
C  13.90000 52.89700 24.61800
C  11.31900 54.12600 27.20800
C  11.90300 54.49200 23.90300
O  12.29800 54.57200 22.75200
C  10.64500 55.20200 24.24700
N  16.30100 51.17900 23.86600
C  15.68500 52.11300 23.03400
C  16.36300 52.07000 21.66100
C  17.69300 51.34900 21.81000
C  17.47400 50.77700 23.23900
C  15.49900 51.38800 20.58400
C  18.92000 52.31800 21.75900
C  20.16000 51.81400 20.95900
N  17.74200 50.09200 26.06700
C  18.65100 49.76900 25.15500
C  19.77700 49.07400 25.75200
C  19.50200 49.22100 27.12500
C  18.32100 49.82900 27.29900
C  21.08000 48.51500 25.21700
C  20.07200 48.87600 28.42300
O  21.05400 48.19600 28.70900
C  19.08000 49.44500 29.47100
C  18.75000 48.40600 30.47600
O  18.51300 47.20800 30.23700
O  18.95900 48.87400 31.76100
C  18.89200 47.88500 32.90400
H  12.83900 52.48000 28.83600
H  14.24500 53.42200 22.53200
H  19.36800 49.95600 23.15800
H  16.55200 50.19000 31.08500
H  14.60600 52.26200 30.82000
H  13.39900 50.46700 31.48300
H  14.36900 49.17300 30.76200
H  13.18900 50.01300 29.74200
H  16.69600 53.01400 30.87700
H  18.30700 52.37500 30.55300
H  18.58000 52.23300 32.87600
H  17.45200 50.86600 32.81500
H  10.41700 53.82900 26.67200
H  11.40400 55.21200 27.21700
H  11.32400 53.84500 28.26100
H  10.30200 55.76100 23.37600
H  10.91300 55.91800 25.02500
H  9.85600 54.55100 24.62200
H  16.48900 53.10200 21.33400
H  17.77900 50.52400 21.10300
H  16.04100 50.91100 19.76800
H  14.72400 52.05000 20.19700
H  14.94600 50.54900 21.00600
H  19.32200 52.58700 22.73600
H  18.68300 53.22100 21.19600
H  19.92800 51.71300 19.89800
H  20.56000 50.83400 21.21900
H  20.93400 52.56800 21.10100
H  21.25700 47.49000 25.54500
H  21.94800 49.12100 25.47700
H  21.03600 48.64800 24.13700
H  19.65300 50.25600 29.92000
H  19.12100 48.44700 33.80900
H  19.57000 47.05600 32.70100
H  17.93300 47.41300 33.11800

