158

Mg 16.98000 51.57300 26.19800
C  18.83700 50.11100 28.90600
C  14.45800 52.15000 28.44200
C  15.20200 52.33500 23.65900
C  19.15700 49.74900 24.05600
N  16.65900 51.13300 28.36800
C  17.60200 50.67200 29.28700
C  17.14100 50.88300 30.69200
C  15.60700 51.19200 30.52100
C  15.55300 51.55100 29.05000
C  14.72100 50.01100 30.85500
C  18.01300 52.06800 31.27800
C  18.30300 51.91800 32.79000
H  17.30500 51.09500 33.65100
N  15.14200 52.33900 26.10400
C  14.28000 52.53500 27.10300
C  13.15900 53.23300 26.54000
C  13.32400 53.22800 25.07400
C  14.59600 52.66000 24.84800
C  12.00700 53.59600 27.39300
C  12.36100 53.75300 24.02800
O  12.65500 53.86300 22.85700
C  11.05300 54.11800 24.42700
N  17.01700 50.97700 24.16200
C  16.30500 51.58200 23.32000
C  16.58500 51.17000 21.83100
C  18.00000 50.63500 21.99600
C  18.11700 50.49000 23.51000
C  15.56100 50.17200 21.21700
C  19.12600 51.54000 21.39000
C  19.68800 51.13800 20.02600
N  18.76100 50.38600 26.32800
C  19.50000 49.65500 25.42800
C  20.62500 48.93700 26.06200
C  20.38600 49.12700 27.43400
C  19.24800 49.96700 27.55800
C  21.70100 48.18700 25.34200
C  20.90500 48.70600 28.74300
O  21.91800 48.09000 29.06400
C  19.88500 49.35800 29.70200
C  19.31000 48.33100 30.55100
O  18.30600 47.59200 30.35700
O  20.21100 48.21800 31.62200
C  20.10900 47.07900 32.55200
H  13.69400 52.35400 29.19600
H  14.80700 52.77800 22.74200
H  19.85800 49.35500 23.31700
H  17.25100 50.04200 31.37600
H  15.27000 52.08400 31.04900
H  13.92400 50.25700 31.55600
H  15.31600 49.17900 31.23200
H  14.31400 49.71900 29.88700
H  17.45100 52.97900 31.07200
H  18.93400 52.04600 30.69500
H  18.27900 52.95000 33.13800
H  19.28700 51.53300 33.05700
H  11.17000 52.94700 27.13600
H  11.78100 54.65500 27.27000
H  12.18100 53.48000 28.46200
H  10.96000 55.00500 25.05300
H  10.71300 53.27400 25.02700
H  10.39700 54.17100 23.55800
H  16.63000 52.13900 21.33500
H  17.98800 49.61200 21.62100
H  14.84700 49.88900 21.99000
H  16.10900 49.31000 20.83900
H  14.94300 50.73400 20.51600
H  19.95900 51.79800 22.04400
H  18.64000 52.48100 21.13300
H  19.45800 51.80300 19.19400
H  19.34900 50.13000 19.78800
H  20.77700 51.13700 20.07000
H  21.97900 48.95200 24.61600
H  21.26300 47.28200 24.92100
H  22.66700 47.91400 25.76600
H  20.45100 50.06800 30.30500
H  19.63300 46.26600 32.00300
H  19.46900 47.53800 33.30500
H  21.03200 46.69100 32.98200
Mg -2.78400 34.77500 27.02900
C  -4.72600 33.49100 29.70000
C  -1.25000 37.05500 29.10500
C  -1.50200 36.28300 24.34900
C  -4.48500 32.44800 24.98200
N  -3.04000 35.23600 29.12300
C  -3.82800 34.54400 30.04900
C  -3.40900 34.95400 31.41800
C  -2.34300 36.17100 31.20700
C  -2.14000 36.09600 29.70300
C  -2.92600 37.58400 31.62100
C  -2.80300 33.76300 32.23600
C  -3.51600 33.35300 33.57000
H  -2.80100 33.17900 34.93800
N  -1.62200 36.49300 26.79400
C  -0.99100 37.19400 27.75300
C  -0.10600 38.23600 27.17700
C  -0.18200 38.02600 25.76100
C  -1.13800 36.92600 25.55900
C  0.51900 39.32600 27.96400
C  0.47700 38.74500 24.63400
O  0.37800 38.41900 23.49300
C  1.32800 39.92200 25.00300
N  -3.15600 34.56200 25.00000
C  -2.39200 35.21700 24.09900
C  -2.53500 34.71100 22.66400
C  -3.29900 33.38700 22.89800
C  -3.70800 33.47500 24.38300
C  -3.18500 35.70900 21.71400
C  -2.40800 32.12300 22.55300
C  -3.16300 31.07400 21.66800
N  -4.32800 33.19900 27.25600
C  -4.88500 32.36800 26.31000
C  -5.77400 31.44900 27.00700
C  -5.77100 31.84800 28.38900
C  -4.82000 32.93200 28.42700
C  -6.52000 30.25900 26.50300
C  -6.29600 31.55100 29.62900
O  -6.98200 30.59900 29.94200
C  -5.73800 32.65600 30.56300
C  -6.82300 33.39100 31.21000
O  -7.23700 34.44500 30.74000
O  -7.26600 32.84300 32.38300
C  -8.40900 33.45000 33.07000
H  -0.67300 37.68000 29.79000
H  -0.93300 36.46500 23.43500
H  -4.90700 31.72100 24.28500
H  -4.27000 35.33500 31.96700
H  -1.45700 35.99300 31.81600
H  -3.98500 37.46200 31.84700
H  -2.93600 38.23000 30.74300
H  -2.31500 38.05700 32.39000
H  -1.78300 34.08700 32.44200
H  -2.80000 32.84200 31.65300
H  -3.81600 32.32700 33.35800
H  -4.30300 34.09600 33.70400
H  -0.12600 40.20000 27.88000
H  1.57400 39.48500 27.74000
H  0.50500 39.05600 29.02000
H  0.78300 40.76800 25.42100
H  1.65800 40.37700 24.06900
H  2.17600 39.62300 25.61900
H  -1.52200 34.49600 22.32400
H  -4.24100 33.32300 22.35200
H  -2.58500 35.84200 20.81400
H  -3.30900 36.70800 22.13200
H  -4.21200 35.37100 21.57500
H  -2.18000 31.54400 23.44800
H  -1.52800 32.46700 22.00800
H  -3.20100 30.12100 22.19600
H  -2.67600 30.87500 20.71400
H  -4.16600 31.38500 21.37300
H  -6.43700 29.45200 27.23100
H  -5.91600 29.86600 25.68500
H  -7.54000 30.38700 26.13900
H  -5.29700 32.11400 31.40000
H  -8.05400 34.35800 33.55700
H  -8.79700 32.78400 33.84000
H  -9.31200 33.56600 32.47000

