158

Mg 7.71300 2.34400 27.83400
C  8.87700 1.21900 30.93600
C  5.37900 4.34000 29.59300
C  6.61500 3.56700 24.90800
C  9.71200 0.07600 26.25200
N  7.04000 2.58300 30.08100
C  7.87300 2.17100 31.12900
C  7.54200 2.98900 32.40500
C  6.20200 3.70700 31.95100
C  6.20100 3.54800 30.44200
C  4.82400 3.16000 32.70600
C  8.74000 3.96800 32.77500
C  8.51600 5.04900 33.95100
H  9.34400 4.82900 35.18800
N  6.26600 3.76900 27.31700
C  5.34600 4.40500 28.14100
C  4.40900 5.21400 27.34300
C  4.94300 5.16400 26.01400
C  5.96700 4.12700 26.01100
C  3.34500 6.05200 27.92400
C  4.51900 5.86600 24.76900
O  5.15700 5.81800 23.78100
C  3.40400 6.87200 24.81900
N  8.08300 1.88200 25.98800
C  7.55900 2.54500 24.90400
C  7.95100 1.88000 23.58500
C  8.98200 0.88700 23.95900
C  8.92900 0.89300 25.46600
C  6.72200 1.38600 22.69600
C  10.47300 1.21900 23.42000
C  11.31500 0.01000 22.95800
N  8.96300 0.92000 28.43300
C  9.73000 0.02800 27.67100
C  10.66200 -0.67400 28.47400
C  10.37700 -0.29500 29.77600
C  9.35100 0.74200 29.69100
C  11.62300 -1.60700 27.98200
C  10.72700 -0.43300 31.17300
O  11.61100 -1.14300 31.65100
C  9.88800 0.62200 31.99200
C  9.25500 -0.07600 33.11000
O  8.79400 -1.21300 32.96300
O  9.56800 0.44600 34.31300
C  9.10000 -0.48000 35.41300
H  4.68900 4.94400 30.18600
H  6.30100 3.87800 23.91000
H  10.55500 -0.52100 25.89800
H  7.31900 2.32300 33.23800
H  6.25500 4.78500 32.09900
H  4.21700 2.61700 31.98200
H  4.22400 4.00900 33.03400
H  5.04100 2.44700 33.50100
H  8.85600 4.49800 31.82900
H  9.61100 3.35900 33.01500
H  7.45500 5.04600 34.19900
H  8.73600 6.04400 33.56400
H  3.45300 7.05100 27.50000
H  3.37100 6.04700 29.01400
H  2.31600 5.73800 27.74700
H  2.59200 6.35400 25.33000
H  3.21800 7.17200 23.78800
H  3.82900 7.71900 25.35800
H  8.42000 2.67400 23.00500
H  8.69100 -0.14300 23.75100
H  5.76200 1.73200 23.07800
H  6.70300 0.30200 22.81000
H  6.89000 1.60300 21.64100
H  10.95400 1.80000 24.20700
H  10.27500 1.84600 22.55100
H  12.20000 -0.20200 23.55900
H  11.74100 0.23400 21.98000
H  10.68100 -0.86500 22.81600
H  12.37800 -1.81000 28.74100
H  12.05000 -1.19700 27.06600
H  11.07000 -2.53500 27.84200
H  10.54400 1.43300 32.30700
H  9.57000 -1.45200 35.26100
H  8.01600 -0.51300 35.51600
H  9.55100 -0.23000 36.37400
Mg 16.78900 52.09100 26.34600
C  18.81100 51.17800 29.03400
C  14.34600 52.90500 28.59400
C  14.95200 53.04900 23.64500
C  19.44800 51.15000 24.13300
N  16.73400 52.27200 28.55600
C  17.63100 51.78900 29.45500
C  17.13100 51.82200 30.89500
C  15.66300 52.12100 30.64000
C  15.58000 52.50300 29.14300
C  14.62100 51.08900 31.15400
C  17.95800 52.98700 31.65100
C  18.18800 52.70600 33.10000
H  17.22300 51.73800 33.76200
N  14.91800 52.86400 26.15600
C  14.02700 53.07200 27.16600
C  12.69600 53.51600 26.64700
C  12.90400 53.51900 25.19800
C  14.32600 53.17100 24.92900
C  11.53400 53.89200 27.51400
C  11.92900 53.83400 24.11500
O  12.28000 53.86100 22.95900
C  10.49100 54.32700 24.40200
N  17.12500 52.05400 24.20700
C  16.21300 52.63500 23.31100
C  16.77500 52.52900 21.84400
C  18.29600 52.09900 22.12200
C  18.33400 51.78900 23.59600
C  15.96800 51.69000 20.86600
C  19.29900 53.16200 21.61600
C  19.94900 54.10800 22.62000
N  18.61600 51.22300 26.44800
C  19.58000 50.89400 25.51900
C  20.72700 50.34200 26.12800
C  20.39800 50.31000 27.53100
C  19.19000 50.99400 27.63800
C  21.99500 49.91600 25.44100
C  20.97900 50.02200 28.87200
O  22.06000 49.65300 29.31800
C  19.90600 50.52400 29.89000
C  19.55200 49.22000 30.62000
O  19.17300 48.16700 30.13000
O  19.79700 49.47400 31.97900
C  19.58300 48.29500 32.82000
H  13.58800 53.09200 29.35700
H  14.36900 53.39000 22.78700
H  20.24100 51.01900 23.39300
H  17.17000 50.85100 31.38900
H  15.43900 53.05200 31.16000
H  14.12700 50.74200 30.24600
H  13.94500 51.33600 31.97300
H  15.10800 50.21400 31.58300
H  17.31200 53.85000 31.48500
H  18.85000 53.18300 31.05600
H  18.10600 53.68400 33.57300
H  19.23700 52.40900 33.10500
H  11.65100 54.92800 27.82900
H  11.23700 53.24500 28.34000
H  10.60200 53.93400 26.95000
H  10.54900 55.27700 24.93400
H  10.00300 53.46900 24.86400
H  9.97200 54.36200 23.44400
H  16.70300 53.56200 21.50400
H  18.54700 51.18400 21.58600
H  16.61300 51.33600 20.06100
H  15.22300 52.35900 20.43400
H  15.49000 50.82000 21.31500
H  18.70500 53.79900 20.96000
H  20.12600 52.77700 21.02000
H  21.03400 54.01400 22.65700
H  19.58200 53.90900 23.62700
H  19.73000 55.14900 22.38200
H  22.43200 50.64000 24.75300
H  21.74600 48.98100 24.94000
H  22.80700 49.81200 26.16100
H  20.41800 51.15100 30.62000
H  20.40900 47.59000 32.72500
H  18.65900 47.73800 32.66700
H  19.55600 48.55200 33.87900

