158

Mg 35.16800 2.81700 30.41200
C  32.73400 3.81200 32.74700
C  37.51700 3.29100 32.91400
C  37.63800 2.48400 28.12600
C  32.87900 3.10000 27.88800
N  35.13200 3.49900 32.53900
C  33.99200 3.62600 33.30600
C  34.34900 3.78100 34.77000
C  35.94800 3.98200 34.85700
C  36.22600 3.51000 33.35500
C  36.56900 5.39900 35.20500
C  33.79600 2.69000 35.66100
C  33.88600 2.79700 37.19600
H  34.19300 4.10700 37.92600
N  37.27300 2.78400 30.54800
C  38.02200 2.95000 31.68300
C  39.43600 2.77900 31.30700
C  39.49800 2.39500 29.95700
C  38.07100 2.56100 29.46000
C  40.52400 2.89900 32.38500
C  40.65000 1.91800 29.08400
O  40.46700 1.42300 28.00800
C  42.05400 2.09400 29.60500
N  35.27000 2.74200 28.26900
C  36.35500 2.62700 27.56800
C  36.08200 2.38800 26.05700
C  34.54400 2.50400 26.04400
C  34.22100 2.87500 27.46700
C  36.76600 3.39000 25.08200
C  33.93600 1.14900 25.59500
C  32.58500 1.30600 24.88600
N  33.16300 3.30100 30.34200
C  32.41000 3.40600 29.17000
C  31.07500 3.81700 29.56900
C  31.09300 4.02100 30.96100
C  32.44000 3.77100 31.36900
C  29.84700 3.91300 28.71200
C  30.33400 4.37500 32.23100
O  29.26400 4.90200 32.37700
C  31.34100 4.13000 33.43000
C  31.40700 5.38200 34.13500
O  32.13000 6.34900 33.84000
O  30.60500 5.37300 35.24600
C  30.61200 6.46600 36.13600
H  38.28000 3.44500 33.68000
H  38.37900 2.35900 27.33400
H  32.06700 3.16700 27.16100
H  33.91900 4.72800 35.09500
H  36.38400 3.30500 35.59100
H  35.89700 5.85400 35.93200
H  36.53000 6.07700 34.35200
H  37.58700 5.27600 35.57500
H  34.32300 1.74900 35.50300
H  32.77000 2.54700 35.32100
H  34.51400 2.02500 37.64000
H  32.85700 2.55400 37.46100
H  40.31900 2.50500 33.38100
H  40.55400 3.97300 32.56900
H  41.58100 2.78600 32.14200
H  42.65300 1.96700 28.70400
H  42.32000 1.30000 30.30200
H  42.18700 3.06600 30.08000
H  36.46400 1.42300 25.72300
H  34.12500 3.29800 25.42500
H  36.80100 4.42700 25.41800
H  36.46900 3.40100 24.03300
H  37.80700 3.06700 25.09800
H  33.80200 0.49000 26.45300
H  34.55200 0.65900 24.84100
H  32.36800 2.31700 24.54200
H  31.74900 0.99100 25.51100
H  32.55700 0.56200 24.08900
H  29.05300 3.52800 29.35200
H  29.98700 3.23600 27.86900
H  29.64600 4.89400 28.28300
H  30.94600 3.32700 34.05200
H  30.24000 7.35900 35.63300
H  31.59500 6.64700 36.57200
H  29.99500 6.10000 36.95600
Mg 53.84500 24.12200 44.81500
C  51.17500 26.25100 43.84300
C  51.90000 21.36000 43.77600
C  56.56400 22.28700 44.83000
C  55.78600 27.05300 45.08100
N  51.83500 23.85000 43.82400
C  50.95200 24.87500 43.64700
C  49.60500 24.34800 43.13300
C  49.73400 22.80700 43.51700
C  51.23400 22.62500 43.77900
C  48.88000 22.41100 44.76100
C  49.37600 24.55800 41.68500
C  47.92100 24.64700 41.22700
H  47.43100 24.05600 39.92500
N  54.21300 22.01100 44.36600
C  53.26400 21.11400 44.06000
C  53.95800 19.83200 44.03400
C  55.26500 20.04500 44.42400
C  55.44500 21.52700 44.49000
C  53.30800 18.56700 43.61200
C  56.27300 18.90500 44.72500
O  55.86600 17.73700 44.53600
C  57.68200 19.15400 45.28800
N  55.83900 24.54300 44.79900
C  56.70900 23.61700 44.97200
C  58.06700 24.26600 45.19200
C  57.86300 25.74800 45.29500
C  56.40900 25.77500 44.99100
C  58.74100 23.72600 46.47800
C  58.76500 26.63300 44.36300
C  58.74600 26.45500 42.83900
N  53.56100 26.28300 44.60900
C  54.41700 27.32900 44.87700
C  53.75200 28.57700 44.84300
C  52.42900 28.20600 44.53000
C  52.38500 26.77700 44.24800
C  54.37300 29.91000 45.03500
C  51.13800 28.67200 44.25300
O  50.69400 29.82600 44.24500
C  50.24200 27.40100 43.72900
C  49.73800 27.89300 42.43600
O  50.35600 28.07200 41.36500
O  48.40000 28.02200 42.53200
C  47.71400 28.63200 41.36100
H  51.24100 20.51200 43.57900
H  57.45900 21.66300 44.77700
H  56.49600 27.87700 45.18400
H  48.78600 24.78800 43.70200
H  49.38400 22.18600 42.69200
H  48.12600 21.63100 44.66000
H  48.35200 23.27900 45.15500
H  49.56700 22.04700 45.52500
H  50.01000 23.87300 41.12200
H  49.79500 25.53500 41.44600
H  47.55600 25.67200 41.15900
H  47.29500 24.22100 42.01200
H  53.95900 17.83000 43.14300
H  52.58500 18.85200 42.84700
H  52.73100 18.08400 44.40200
H  57.77600 18.22400 45.84900
H  57.79300 19.92500 46.05100
H  58.49500 19.17600 44.56300
H  58.62700 24.14500 44.26500
H  58.01900 26.01600 46.34000
H  59.58800 23.10100 46.19700
H  58.06800 23.10700 47.07100
H  59.12500 24.42800 47.21900
H  59.76300 26.51500 44.78500
H  58.54300 27.65600 44.66600
H  58.11600 25.65100 42.45700
H  59.73100 26.26200 42.41500
H  58.41400 27.33100 42.28100
H  53.73300 30.63600 44.53200
H  55.30900 30.17100 44.54100
H  54.49700 30.11800 46.09800
H  49.39100 27.36800 44.40800
H  46.63900 28.76200 41.48600
H  47.95500 28.15600 40.41000
H  48.08400 29.65700 41.33100

