158

Mg 34.74800 2.97900 29.60200
C  32.72000 4.14000 32.23800
C  37.37200 2.69300 31.81700
C  36.80900 2.49500 27.02700
C  32.07400 3.73900 27.50800
N  35.02100 3.45200 31.73500
C  34.03400 3.74600 32.65700
C  34.53900 3.58300 34.12400
C  36.10800 3.43000 33.92900
C  36.19000 3.12200 32.40400
C  37.03600 4.61100 34.23200
C  33.77600 2.43400 34.79500
C  33.13200 2.77100 36.13400
H  33.86900 3.83600 37.15200
N  36.81300 2.60900 29.41400
C  37.71900 2.53600 30.43600
C  39.04000 2.22900 29.89100
C  38.94500 2.10500 28.49600
C  37.49000 2.34500 28.26800
C  40.30400 2.03100 30.81800
C  40.03400 1.94400 27.38400
O  39.79700 1.95000 26.21100
C  41.47600 1.84200 27.88900
N  34.47700 3.14600 27.50700
C  35.48400 2.87300 26.63500
C  35.06100 3.18100 25.16500
C  33.50200 3.53100 25.38900
C  33.27400 3.39300 26.89700
C  35.81000 4.36100 24.47100
C  32.57400 2.69200 24.48600
C  32.18600 1.18200 24.81100
N  32.76200 3.69400 29.75200
C  31.77600 3.89700 28.85300
C  30.62400 4.42000 29.40600
C  30.88200 4.54000 30.78900
C  32.21600 4.13300 30.92100
C  29.35100 4.70400 28.64400
C  30.34000 4.82000 32.11400
O  29.25800 5.21000 32.49900
C  31.53800 4.50100 33.10800
C  31.69800 5.80600 33.91100
O  32.05300 6.90900 33.47900
O  31.19900 5.52600 35.18200
C  31.27800 6.62600 36.12700
H  38.17900 2.70100 32.55300
H  37.52600 2.46400 26.20400
H  31.37100 4.09700 26.75400
H  34.37000 4.58600 34.51600
H  36.49700 2.49200 34.32600
H  37.58000 4.89900 33.33200
H  37.75200 4.15000 34.91300
H  36.51500 5.39300 34.78500
H  34.52500 1.71200 35.12100
H  33.06800 1.84300 34.21300
H  33.14600 1.79000 36.60900
H  32.15100 3.18100 35.89300
H  40.15200 2.15600 31.89000
H  41.12300 2.70600 30.57400
H  40.62500 1.01800 30.57200
H  41.64000 2.77000 28.43700
H  42.11500 1.75500 27.01000
H  41.60000 0.98600 28.55200
H  35.04400 2.20400 24.68300
H  33.36000 4.59500 25.19700
H  36.36400 4.91900 25.22600
H  35.11000 5.06200 24.01700
H  36.42400 3.90500 23.69400
H  33.15500 2.48900 23.58700
H  31.68800 3.25500 24.19100
H  31.09900 1.11500 24.77200
H  32.49000 0.96400 25.83500
H  32.68400 0.43100 24.19800
H  28.85200 3.79900 28.29900
H  29.47100 5.30300 27.74100
H  28.57000 5.24800 29.17500
H  31.44900 3.78800 33.92700
H  31.19700 6.29700 37.16300
H  30.45500 7.32600 35.98300
H  32.23700 7.14100 36.06600
Mg -5.42000 24.68700 25.96300
C  -4.09400 26.08100 28.84100
C  -7.17500 22.41700 27.96400
C  -6.43900 23.21500 23.30500
C  -3.39100 26.77200 24.12300
N  -5.63600 24.42100 28.17700
C  -5.01600 25.13500 29.14900
C  -5.55600 24.78700 30.55900
C  -6.32000 23.41200 30.26300
C  -6.36500 23.36900 28.70000
C  -5.67700 22.10500 30.86300
C  -6.48200 25.81600 31.24300
C  -6.21200 26.12500 32.72800
H  -7.19400 25.41400 33.69100
N  -6.70300 23.20000 25.68200
C  -7.39100 22.43200 26.57400
C  -8.39400 21.72000 25.94200
C  -8.24000 21.92400 24.55400
C  -7.03500 22.79500 24.45700
C  -9.44100 20.93700 26.60600
C  -9.01200 21.35500 23.40000
O  -8.59200 21.40000 22.22400
C  -10.33600 20.54600 23.54000
N  -4.76500 24.79300 24.01400
C  -5.41900 24.10800 23.09500
C  -4.89700 24.48500 21.72400
C  -4.09100 25.72500 21.96800
C  -4.05500 25.79700 23.44300
C  -4.20800 23.37500 20.91600
C  -4.41900 27.05200 21.14300
C  -3.24000 27.85100 20.56400
N  -3.89100 26.10700 26.34200
C  -3.24900 26.99300 25.51900
C  -2.30500 27.86600 26.22900
C  -2.70000 27.57200 27.57700
C  -3.65500 26.51700 27.59200
C  -1.27300 28.87600 25.65700
C  -2.51800 28.07000 28.96400
O  -1.82800 28.98200 29.41100
C  -3.40600 27.13300 29.84300
C  -2.53800 26.49200 30.92800
O  -1.68400 25.64600 30.77100
O  -2.79800 27.18900 32.10200
C  -1.79600 26.91600 33.15800
H  -7.64500 21.65400 28.58700
H  -6.70800 22.65600 22.40600
H  -2.81400 27.43600 23.47700
H  -4.65200 24.53900 31.11500
H  -7.38700 23.55600 30.43400
H  -6.46400 21.52000 31.33900
H  -4.98900 22.39100 31.65900
H  -5.06900 21.51700 30.17600
H  -7.49600 25.42700 31.14500
H  -6.44600 26.74900 30.68000
H  -6.28700 27.19700 32.90900
H  -5.23000 25.73500 32.99800
H  -10.41900 21.14800 26.17400
H  -9.43300 21.10900 27.68300
H  -9.27900 19.87100 26.44100
H  -10.78900 20.37400 22.56300
H  -11.00600 21.28300 23.98200
H  -10.27000 19.62500 24.11800
H  -5.80500 24.68800 21.15500
H  -3.08200 25.41300 21.70000
H  -4.45700 22.40500 21.34700
H  -3.12500 23.49100 20.94700
H  -4.48200 23.41900 19.86100
H  -5.15300 27.71200 21.60400
H  -5.06100 26.59800 20.38900
H  -3.53900 27.97200 19.52200
H  -2.34000 27.23600 20.55600
H  -2.98700 28.82700 20.97800
H  -0.63400 29.18100 26.48600
H  -1.79000 29.80800 25.43100
H  -0.71200 28.44100 24.83000
H  -4.06300 27.80700 30.39200
H  -2.10900 26.08200 33.78500
H  -1.94900 27.77200 33.81600
H  -0.77400 26.78800 32.80100

