158

Mg -2.38000 17.15800 26.24700
C  -2.75400 15.12900 29.15900
C  -2.72500 19.88300 28.15100
C  -2.70500 19.16300 23.39500
C  -2.51600 14.28000 24.24600
N  -2.65700 17.41300 28.37900
C  -2.70400 16.52200 29.42000
C  -2.89400 17.18600 30.80800
C  -2.85800 18.68600 30.35600
C  -2.69100 18.67700 28.87100
C  -4.05600 19.46600 31.02200
C  -1.87700 16.77700 31.89600
C  -1.74800 17.85900 32.97100
H  -1.26200 17.27000 34.31100
N  -2.55900 19.29500 25.90100
C  -2.71700 20.21700 26.84100
C  -2.79900 21.55700 26.27000
C  -2.75800 21.37200 24.88800
C  -2.64700 19.89500 24.67400
C  -2.83300 22.77200 27.09200
C  -2.80500 22.39500 23.74600
O  -2.67800 21.96300 22.55300
C  -2.90100 23.88300 23.96600
N  -2.67700 16.75200 24.14400
C  -2.65300 17.77400 23.17400
C  -2.59200 17.12800 21.70100
C  -2.43700 15.61000 22.05000
C  -2.54000 15.51000 23.58800
C  -3.71800 17.48200 20.73500
C  -1.11200 14.92500 21.45100
C  -1.26000 14.01800 20.22100
N  -2.48100 15.06500 26.57200
C  -2.58600 14.03700 25.67000
C  -2.68200 12.81000 26.43300
C  -2.85600 13.18300 27.76500
C  -2.65800 14.58400 27.82900
C  -2.73400 11.38300 25.83500
C  -3.03700 12.74200 29.17700
O  -3.02800 11.62100 29.64000
C  -2.99300 13.99600 30.08400
C  -1.89800 13.75700 31.03600
O  -0.75700 14.12000 30.83100
O  -2.32000 13.16100 32.17300
C  -1.37500 13.01000 33.26000
H  -2.79600 20.75600 28.80200
H  -2.95600 19.72700 22.49400
H  -2.48200 13.37600 23.63500
H  -3.94900 16.99400 31.00700
H  -1.94800 19.17400 30.70600
H  -4.56800 20.18600 30.38300
H  -3.68200 20.04400 31.86700
H  -4.82600 18.84100 31.47400
H  -0.94900 16.49500 31.39800
H  -2.30200 15.92700 32.42900
H  -2.65100 18.45800 33.08900
H  -0.95400 18.46000 32.52700
H  -2.14900 22.58700 27.92100
H  -3.82400 22.85800 27.53900
H  -2.49400 23.63600 26.52100
H  -3.66700 23.98900 24.73400
H  -3.05600 24.42400 23.03300
H  -1.99900 24.33700 24.37700
H  -1.68600 17.46000 21.19300
H  -3.37400 15.09500 21.83800
H  -4.10200 16.61100 20.20500
H  -3.47300 18.24100 19.99200
H  -4.55900 17.90400 21.28600
H  -0.94100 14.15800 22.20700
H  -0.34100 15.66700 21.24400
H  -1.10000 14.64800 19.34600
H  -2.25600 13.57600 20.19800
H  -0.43700 13.30400 20.20900
H  -1.77300 10.91600 26.04900
H  -2.91900 11.36200 24.76100
H  -3.63100 11.01000 26.32900
H  -3.91800 14.13400 30.64400
H  -1.55300 12.00500 33.64400
H  -1.53100 13.71300 34.07900
H  -0.35800 13.01800 32.87000
Mg 40.68700 10.01900 30.24900
C  42.58100 11.39200 32.98500
C  38.68300 8.50600 32.50000
C  39.09400 8.74900 27.65800
C  43.33700 11.03400 28.13700
N  40.56600 10.07400 32.49900
C  41.40000 10.64900 33.39300
C  40.96300 10.37900 34.83900
C  39.76200 9.38500 34.65200
C  39.73600 9.25200 33.13100
C  39.84900 8.03900 35.43200
C  40.62400 11.62100 35.74000
C  41.62200 11.88000 36.88500
H  41.15300 12.34800 38.26400
N  39.13800 8.70200 30.03700
C  38.40600 8.25300 31.10100
C  37.25700 7.51700 30.54500
C  37.36900 7.56400 29.12800
C  38.56700 8.42600 28.88700
C  36.28500 6.68100 31.35700
C  36.39300 7.06900 28.02100
O  36.65400 7.17900 26.78800
C  35.04800 6.29600 28.41200
N  41.21800 9.83300 28.14400
C  40.36100 9.25500 27.31500
C  40.81400 9.33700 25.83300
C  42.26600 9.99700 25.98400
C  42.24900 10.38000 27.49500
C  40.76700 7.95800 25.11200
C  42.46400 11.29700 25.17100
C  43.90100 11.40200 24.62800
N  42.44000 11.22400 30.40500
C  43.43500 11.46700 29.47700
C  44.55800 12.15900 30.15200
C  44.19300 12.23500 31.52200
C  42.94700 11.52900 31.61000
C  45.82800 12.72600 29.57400
C  44.69100 12.66400 32.79900
O  45.73800 13.27700 32.99700
C  43.57800 12.16800 33.81300
C  44.36700 11.25000 34.73300
O  44.68400 10.09400 34.47300
O  44.66700 11.94100 35.94700
C  45.37600 11.15900 36.95300
H  38.04100 7.97900 33.20900
H  38.53000 8.48800 26.76000
H  44.17500 11.27900 27.48100
H  41.79100 9.83700 35.29500
H  38.88500 9.92700 35.00800
H  40.76100 7.94900 36.02200
H  39.62500 7.10700 34.91200
H  39.05300 8.24900 36.14600
H  39.66400 11.45300 36.22900
H  40.71400 12.44800 35.03500
H  42.35800 12.58900 36.50700
H  42.17100 10.94800 37.02300
H  36.46500 6.67300 32.43200
H  36.26400 5.70300 30.87600
H  35.28000 7.07800 31.21800
H  34.57200 6.76600 29.27300
H  35.36600 5.28700 28.67400
H  34.42600 6.11700 27.53400
H  40.05000 9.94200 25.34400
H  43.09300 9.28800 25.97100
H  39.90900 7.86700 24.44600
H  40.49200 7.20100 25.84700
H  41.73600 7.66900 24.70400
H  42.50100 12.19400 25.78900
H  41.81200 11.43700 24.30900
H  44.57000 10.54500 24.54300
H  44.44500 12.07700 25.28800
H  44.00300 11.91700 23.67300
H  46.02700 12.49400 28.52800
H  46.67600 12.45900 30.20400
H  45.78100 13.81500 29.57100
H  43.09800 13.03200 34.27200
H  46.03000 10.41600 36.49600
H  44.72900 10.68700 37.69200
H  46.01200 11.90000 37.43700

