158

Mg 17.15100 -1.06200 28.04500
C  15.84300 1.03100 30.68300
C  18.93800 -2.72600 30.25300
C  18.66100 -2.35200 25.46200
C  15.40400 1.23400 25.84900
N  17.29300 -0.92700 30.22700
C  16.61500 -0.11000 31.08400
C  16.97100 -0.44600 32.53700
C  18.19500 -1.42000 32.43200
C  18.13700 -1.75700 30.89000
C  19.59600 -0.85300 32.80600
C  15.67800 -0.88900 33.36100
C  15.59100 -0.60500 34.83100
H  16.83500 -0.17500 35.70800
N  18.50500 -2.41700 27.88800
C  19.08700 -3.05400 28.91800
C  19.91900 -4.07400 28.38100
C  19.78900 -4.06700 26.95700
C  19.00000 -2.96300 26.69400
C  20.74600 -5.04200 29.27800
C  20.37600 -4.97700 25.95100
O  20.26700 -4.80900 24.71100
C  21.15500 -6.18700 26.37100
N  17.10000 -0.52100 25.95700
C  17.80400 -1.26200 25.09600
C  17.74200 -0.74800 23.65400
C  16.55400 0.26500 23.83900
C  16.22900 0.28000 25.31200
C  19.03800 -0.03200 23.14000
C  15.40600 -0.04500 22.80300
C  14.20500 -0.84900 23.25100
N  15.80300 0.63000 28.13500
C  15.13300 1.37700 27.18700
C  14.22300 2.38300 27.79600
C  14.49300 2.24900 29.23600
C  15.48200 1.24800 29.36100
C  13.45200 3.36000 27.02300
C  14.19800 2.83000 30.43000
O  13.51700 3.77800 30.66800
C  15.04600 2.00500 31.56200
C  15.88500 2.92700 32.36900
O  16.97600 3.35600 32.04800
O  15.33000 3.11600 33.62700
C  16.03700 4.03100 34.57300
H  19.48600 -3.28100 31.01700
H  19.12400 -2.76600 24.56300
H  14.89000 1.88100 25.13500
H  17.36300 0.42700 33.05900
H  17.92000 -2.23700 33.10000
H  20.23300 -1.40000 33.50000
H  19.41600 0.11000 33.28400
H  20.22800 -0.76700 31.92200
H  15.66000 -1.97200 33.23500
H  14.78400 -0.42200 32.94900
H  15.40400 -1.60700 35.21700
H  14.67300 -0.07900 35.09600
H  21.77700 -5.06600 28.92700
H  20.35300 -6.05800 29.32200
H  20.71600 -4.70500 30.31400
H  22.20800 -5.90900 26.31300
H  20.93000 -6.99700 25.67700
H  20.97100 -6.68800 27.32100
H  17.48500 -1.49000 22.89700
H  16.96400 1.26000 23.66400
H  19.73300 -0.03900 23.98000
H  19.01500 1.02200 22.86400
H  19.50700 -0.70700 22.42400
H  15.77200 -0.45400 21.86100
H  14.90200 0.87700 22.51300
H  13.45700 -0.11800 23.55900
H  14.58100 -1.48700 24.05100
H  13.91500 -1.44900 22.38800
H  12.41600 3.12300 27.26500
H  13.49500 3.18000 25.94900
H  13.80800 4.38300 27.14500
H  14.33800 1.54600 32.25200
H  16.43400 4.92000 34.08400
H  16.90500 3.53200 35.00300
H  15.33900 4.35700 35.34400
Mg 26.20300 0.89700 28.98800
C  28.28600 0.74900 31.98600
C  23.48700 0.70200 31.24600
C  24.34600 0.93300 26.44300
C  29.02600 0.26900 27.11500
N  26.01900 0.80100 31.34900
C  26.93700 0.90900 32.31000
C  26.38100 0.98300 33.74700
C  24.81600 0.87700 33.48300
C  24.72000 0.91300 31.94800
C  24.04400 -0.32300 34.24200
C  26.83000 2.16300 34.60000
C  27.38400 1.93300 35.97100
H  27.05800 2.89100 37.13900
N  24.19200 0.86400 28.83400
C  23.22000 0.78200 29.87000
C  21.96700 1.02000 29.24900
C  22.13900 1.10200 27.84100
C  23.57600 0.91000 27.62800
C  20.66800 1.17900 30.00600
C  21.05300 1.44100 26.70100
O  21.42100 1.25500 25.57600
C  19.61700 1.76800 26.96500
N  26.65700 0.52400 27.09300
C  25.70400 0.72300 26.16200
C  26.27500 0.83700 24.73200
C  27.74000 0.51700 24.91800
C  27.84400 0.40600 26.45500
C  25.64800 -0.09800 23.61600
C  28.73900 1.55500 24.36100
C  28.76400 1.63000 22.88500
N  28.29700 0.55000 29.38000
C  29.30300 0.23800 28.50100
C  30.51400 0.13800 29.21500
C  30.25000 0.35100 30.56100
C  28.85700 0.64000 30.64000
C  31.79900 -0.25300 28.73900
C  30.79600 0.48000 31.91800
O  31.94900 0.31500 32.29200
C  29.53000 0.69800 32.93100
C  29.39500 -0.33400 33.96800
O  28.91800 -1.44000 33.85800
O  29.95100 0.08400 35.15800
C  29.97100 -0.81800 36.37400
H  22.59900 0.64300 31.87900
H  23.68800 0.94900 25.57200
H  29.90600 0.14600 26.48100
H  26.70500 0.13700 34.35400
H  24.30400 1.75200 33.88100
H  22.98500 -0.06900 34.27800
H  24.49000 -0.45500 35.22800
H  24.05100 -1.30400 33.76500
H  25.99000 2.82700 34.80200
H  27.53000 2.78300 34.04100
H  28.45500 1.74100 35.90400
H  26.91800 0.98000 36.22100
H  19.97200 0.37300 29.77300
H  20.20700 2.09300 29.63100
H  20.63800 1.34800 31.08300
H  19.46800 2.66200 27.57000
H  19.16300 0.86800 27.38000
H  19.10400 1.96400 26.02300
H  26.18900 1.88000 24.42600
H  27.95500 -0.45600 24.47700
H  24.96000 -0.69500 24.21500
H  26.32400 -0.83800 23.19000
H  25.07100 0.46800 22.88400
H  29.76700 1.39600 24.68700
H  28.45100 2.56600 24.65100
H  28.40000 2.59900 22.54600
H  28.13200 0.88300 22.40500
H  29.76700 1.42400 22.50900
H  31.68800 -1.32900 28.60400
H  32.56400 0.02800 29.46300
H  32.19600 0.22700 27.84500
H  29.67300 1.65100 33.44100
H  29.41000 -0.35100 37.18300
H  31.01200 -0.94900 36.67100
H  29.53200 -1.78800 36.13800

