158

Mg 24.84500 -6.41600 47.57000
C  27.24900 -4.10800 46.48200
C  22.65400 -5.19300 45.12300
C  22.70300 -8.92200 48.11600
C  27.42500 -7.99700 49.25200
N  25.01200 -4.99900 45.86900
C  25.99600 -4.06700 45.78300
C  25.69700 -3.14000 44.63700
C  24.20100 -3.19000 44.52200
C  23.92200 -4.53900 45.19700
C  23.38000 -1.90800 44.93700
C  26.41800 -3.64200 43.34400
C  27.14000 -2.45800 42.58500
H  27.16500 -2.42200 41.06700
N  22.89700 -6.94300 46.80200
C  22.14600 -6.36600 45.77900
C  20.86100 -6.97000 45.59100
C  20.81900 -8.06100 46.50200
C  22.15700 -8.06200 47.20700
C  19.82600 -6.63300 44.59000
C  19.67100 -9.04000 46.64500
O  18.58000 -8.78900 46.05600
C  19.85100 -10.41700 47.33000
N  25.10700 -8.21400 48.49100
C  24.03300 -9.04400 48.66700
C  24.38000 -10.32100 49.46700
C  25.88100 -10.00800 49.80000
C  26.19000 -8.66500 49.20200
C  23.44000 -10.50400 50.68700
C  26.85600 -11.15500 49.33900
C  27.25000 -12.31100 50.25800
N  26.90200 -6.02700 48.07300
C  27.81600 -6.78400 48.69800
C  29.17800 -6.23600 48.58500
C  28.95700 -5.05500 47.84700
C  27.59900 -4.99400 47.48500
C  30.44600 -6.91300 49.03700
C  29.61100 -3.88400 47.26400
O  30.77700 -3.56600 47.47700
C  28.51700 -3.17300 46.44000
C  28.20400 -1.75100 46.87400
O  27.91600 -1.35700 48.00100
O  28.19200 -1.03600 45.64900
C  27.46100 0.19400 45.84700
H  21.90900 -4.74600 44.46000
H  21.94800 -9.65900 48.39700
H  28.15500 -8.57300 49.82400
H  25.89800 -2.10900 44.92600
H  23.98700 -3.47400 43.49200
H  23.98800 -1.03500 45.17500
H  22.68300 -2.16000 45.73600
H  22.79000 -1.64400 44.06000
H  25.85800 -4.25600 42.63800
H  27.19600 -4.30000 43.73300
H  28.17700 -2.63500 42.86800
H  26.73200 -1.51300 42.94500
H  19.51300 -7.54600 44.08300
H  20.21300 -5.96100 43.82400
H  18.92600 -6.28500 45.09700
H  20.74400 -10.83300 46.86200
H  18.92900 -10.94800 47.09300
H  19.93200 -10.33300 48.41400
H  24.36600 -11.11900 48.72400
H  26.02400 -9.83700 50.86700
H  23.96000 -10.90900 51.55500
H  22.58000 -11.11700 50.41800
H  22.97800 -9.58300 51.04200
H  27.71900 -10.72000 48.83500
H  26.45400 -11.63700 48.44800
H  26.82300 -13.26800 49.95900
H  26.97800 -12.06500 51.28400
H  28.31200 -12.48200 50.08600
H  31.28900 -6.22700 49.11100
H  30.83500 -7.63700 48.32100
H  30.34600 -7.46400 49.97200
H  28.82900 -3.13000 45.39700
H  27.82000 0.80600 46.67500
H  26.40300 -0.04500 45.96300
H  27.53900 0.81100 44.95200
Mg 47.91000 44.90100 43.26300
C  44.56300 44.29700 42.49500
C  48.62100 41.57800 43.01000
C  51.09400 45.67200 43.61400
C  47.09000 48.36400 43.20700
N  46.80500 43.16600 42.55000
C  45.37500 43.13300 42.48700
C  44.91800 41.70500 42.21300
C  46.19800 40.84300 42.42700
C  47.31500 41.92300 42.75500
C  46.26200 39.89300 43.61700
C  44.26200 41.59300 40.81400
C  44.68800 42.33200 39.53900
H  43.91200 41.94200 38.20900
N  49.67000 43.70700 43.29100
C  49.74900 42.39500 43.24300
C  51.09000 42.02400 43.44800
C  51.87300 43.21100 43.55400
C  50.87500 44.28100 43.52500
C  51.45100 40.52100 43.46500
C  53.30800 43.30500 43.85600
O  53.98700 42.27100 43.85600
C  54.05200 44.52900 44.14600
N  48.94700 46.78200 43.27300
C  50.24300 46.78300 43.51900
C  50.74700 48.23300 43.68900
C  49.38700 49.07000 43.73500
C  48.40200 48.00000 43.36400
C  51.63200 48.42000 45.03100
C  49.46000 50.35200 42.88400
C  49.48600 51.65300 43.75200
N  46.13100 46.16800 42.95800
C  45.96300 47.52200 42.98300
C  44.58100 47.87000 42.79700
C  43.97300 46.60500 42.63100
C  44.97100 45.63600 42.70800
C  43.95500 49.23100 42.88200
C  42.63700 45.95600 42.45800
O  41.54800 46.46400 42.35000
C  42.99400 44.44300 42.29600
C  42.23200 43.81100 43.39400
O  41.32400 42.98300 43.27200
O  42.71800 44.18200 44.62200
C  41.99000 43.75200 45.85800
H  48.68300 40.49000 43.07900
H  52.12600 45.93900 43.85100
H  46.79900 49.41100 43.31600
H  44.17900 41.46700 42.97800
H  46.53500 40.30000 41.54500
H  46.90100 40.28900 44.40700
H  46.78500 38.96800 43.37600
H  45.26000 39.65200 43.97300
H  43.18200 41.61100 40.96000
H  44.45300 40.56500 40.50500
H  45.67500 41.90100 39.37000
H  44.54500 43.41300 39.51300
H  52.50400 40.28000 43.31700
H  50.90500 40.00900 42.67300
H  51.12000 40.02500 44.37700
H  54.17800 45.16200 43.26800
H  55.11400 44.38100 44.34000
H  53.61500 45.09300 44.97000
H  51.30300 48.34300 42.75900
H  49.17400 49.27000 44.78500
H  51.68900 49.43900 45.41300
H  52.63400 48.08000 44.76900
H  51.20000 47.65300 45.67300
H  48.63700 50.43300 42.17400
H  50.33200 50.38700 42.23100
H  50.25800 52.39500 43.54800
H  49.69500 51.44700 44.80200
H  48.47600 52.05500 43.66400
H  44.19100 49.88900 42.04500
H  44.29400 49.87000 43.69700
H  42.87200 49.20500 43.00500
H  42.68600 44.07400 41.31800
H  41.76800 42.68500 45.86700
H  41.02000 44.22500 46.01200
H  42.65500 43.94000 46.70100

