158

Mg 34.95800 2.58700 29.36400
C  32.81400 3.50900 31.96700
C  37.53500 2.15000 31.57500
C  36.94800 1.70600 26.74300
C  32.36100 3.40900 26.98200
N  35.11700 2.92700 31.51100
C  34.09000 3.24000 32.46100
C  34.68900 3.33900 33.94700
C  36.18300 3.03500 33.63100
C  36.31900 2.61000 32.16200
C  37.21000 4.22800 33.85300
C  34.03000 2.45300 34.95500
C  33.55400 3.07500 36.27900
H  34.56900 3.83400 37.03000
N  36.96300 1.97700 29.14300
C  37.84900 1.94200 30.14800
C  39.12500 1.48500 29.62800
C  39.02500 1.31100 28.23700
C  37.59000 1.59100 27.99300
C  40.33000 1.09100 30.56300
C  39.99600 0.79500 27.21200
O  39.66000 0.42500 26.10300
C  41.57300 0.57100 27.59100
N  34.69900 2.56800 27.20900
C  35.65300 2.11600 26.35600
C  35.09800 1.97400 24.89300
C  33.59300 2.34500 25.03300
C  33.54600 2.83700 26.48900
C  35.84600 2.80500 23.88700
C  32.68200 1.09400 24.78900
C  31.74200 1.21700 23.58100
N  33.01500 3.33600 29.37100
C  32.06400 3.59900 28.34700
C  30.80900 3.88300 29.01100
C  31.02800 3.88700 30.42000
C  32.39700 3.49400 30.59900
C  29.54300 3.92700 28.34500
C  30.38600 4.09500 31.76400
O  29.24300 4.43000 32.07000
C  31.53400 3.85100 32.82300
C  31.62000 5.06300 33.54600
O  32.33300 6.02800 33.28100
O  30.66700 5.02800 34.50100
C  30.54400 6.29100 35.22200
H  38.38500 1.98200 32.24100
H  37.57700 1.43200 25.89300
H  31.59200 3.68400 26.25800
H  34.56000 4.40200 34.15400
H  36.49300 2.20100 34.26100
H  37.80600 4.33900 32.94700
H  37.87100 4.01000 34.69200
H  36.74700 5.20900 33.96100
H  34.63600 1.56900 35.15300
H  33.08700 2.18200 34.48200
H  33.24100 2.23100 36.89300
H  32.65700 3.68700 36.18400
H  40.38400 0.07600 30.95700
H  40.36200 1.78300 31.40500
H  41.28000 1.33300 30.08700
H  41.66700 -0.14000 28.41300
H  42.11300 1.48500 27.83600
H  42.06700 0.20800 26.69000
H  35.26700 0.89900 24.83500
H  33.36500 3.10200 24.28200
H  36.47900 2.19300 23.24400
H  36.45100 3.58400 24.35100
H  35.26900 3.39100 23.17100
H  31.96100 0.95200 25.59400
H  33.25300 0.18800 24.58500
H  31.93300 0.45200 22.82800
H  31.91100 2.16000 23.06000
H  30.70600 1.10000 23.89700
H  29.37100 4.79700 27.71100
H  28.77100 3.91700 29.11500
H  29.34800 3.04200 27.73900
H  31.20600 3.05900 33.49500
H  30.16600 7.07700 34.56800
H  31.51600 6.68600 35.51800
H  29.95000 6.14000 36.12300
Mg 40.33000 9.57400 29.85500
C  42.33600 10.83400 32.39300
C  38.39700 8.26500 32.21200
C  38.47300 8.34100 27.37800
C  42.68500 10.76800 27.57200
N  40.44600 9.40300 32.02500
C  41.21400 10.10000 32.89500
C  40.90500 9.87400 34.40700
C  39.63400 8.91400 34.23000
C  39.46600 8.87400 32.70200
C  39.71800 7.54200 34.85900
C  40.58500 11.24400 35.14500
C  40.12700 11.06100 36.60500
H  40.93100 11.68800 37.74300
N  38.60200 8.51200 29.77800
C  37.95700 8.03200 30.85100
C  36.79600 7.25500 30.42700
C  36.74400 7.29600 29.03600
C  37.98100 8.06800 28.64200
C  35.78800 6.61300 31.34400
C  35.73700 6.82200 28.05900
O  35.88300 7.04800 26.85500
C  34.50400 6.11200 28.53700
N  40.57300 9.57900 27.76000
C  39.63000 9.00400 26.99700
C  39.81200 9.44600 25.52400
C  41.29700 10.17000 25.53900
C  41.54400 10.14500 27.05100
C  39.74200 8.22800 24.56400
C  41.45000 11.54800 24.82700
C  40.61600 12.74400 25.29300
N  42.16900 10.42200 29.93000
C  42.99500 10.85200 28.92600
C  44.20200 11.54900 29.52900
C  43.88600 11.61700 30.88400
C  42.71600 10.90100 31.05900
C  45.37200 12.09200 28.79000
C  44.36000 12.06700 32.19000
O  45.41200 12.64100 32.44800
C  43.39700 11.50100 33.21700
C  44.09500 10.53400 34.06100
O  44.34600 9.38100 33.80200
O  44.37800 11.03900 35.31200
C  45.22800 10.26800 36.19500
H  37.67600 7.77500 32.87000
H  37.79300 8.28000 26.52600
H  43.29500 11.19400 26.77300
H  41.66600 9.30200 34.93700
H  38.76800 9.29000 34.77500
H  40.74300 7.40500 35.20600
H  39.38600 6.80600 34.12700
H  39.20700 7.55400 35.82200
H  39.77800 11.68700 34.56200
H  41.48100 11.86600 35.16200
H  40.18300 10.01500 36.90900
H  39.11800 11.45600 36.72200
H  35.92700 6.80700 32.40700
H  36.03800 5.56300 31.19100
H  34.77000 6.74700 30.97900
H  33.93400 5.69700 27.70600
H  33.89900 6.89500 28.99500
H  34.67600 5.35000 29.29600
H  39.12400 10.25400 25.27500
H  41.97700 9.45100 25.08200
H  40.05900 7.28900 25.01700
H  40.26700 8.47200 23.64000
H  38.67900 8.12300 24.35100
H  41.10000 11.41600 23.80300
H  42.50900 11.75400 24.67100
H  41.22700 13.47400 25.82300
H  39.89300 12.31500 25.98600
H  40.12600 13.30300 24.49600
H  45.73300 11.25000 28.20000
H  46.23000 12.39400 29.39000
H  45.06900 12.90400 28.12800
H  42.98600 12.33800 33.78000
H  44.79500 9.27800 36.33700
H  45.19300 10.79100 37.15100
H  46.30400 10.14900 36.07100

