158

Mg 45.54500 17.35100 28.71600
C  43.55600 16.86100 31.67200
C  47.58000 19.45300 30.55800
C  46.96700 18.12300 25.93300
C  42.89400 15.67700 27.05100
N  45.51000 18.14500 30.82900
C  44.71100 17.63800 31.88200
C  45.18100 18.05700 33.19800
C  46.29700 19.06200 32.81200
C  46.57600 18.84000 31.31700
C  46.05700 20.49500 33.31700
C  45.72000 16.88700 34.10900
C  46.12100 17.07100 35.55700
H  45.72800 18.34000 36.35000
N  47.20300 18.51100 28.33000
C  47.91600 19.32400 29.17700
C  48.98900 20.02000 28.51000
C  48.78500 19.59000 27.13000
C  47.59300 18.77300 27.05400
C  49.87200 21.06900 29.20100
C  49.72400 19.85600 25.87100
O  49.49100 19.39500 24.77600
C  50.83300 20.77600 26.05300
N  44.99500 16.99900 26.74300
C  45.80200 17.39800 25.77800
C  45.27900 16.98600 24.39700
C  44.02100 16.12300 24.79100
C  43.95900 16.27100 26.28900
C  45.03700 18.16800 23.38100
C  43.96800 14.60600 24.33900
C  44.74000 13.68600 25.30700
N  43.74700 16.30700 29.16100
C  42.83000 15.67400 28.36900
C  41.92000 14.96000 29.26300
C  42.12500 15.46400 30.50400
C  43.25100 16.28500 30.41400
C  40.76300 14.07100 28.80900
C  41.62400 15.47100 31.86400
O  40.58100 14.92400 32.32200
C  42.49100 16.29000 32.68900
C  41.73500 17.39500 33.40300
O  40.72500 17.93600 33.00700
O  42.21200 17.53100 34.75800
C  41.54300 18.44400 35.64000
H  48.21800 20.15900 31.09400
H  47.50600 18.27400 24.99500
H  42.07000 15.20300 26.51300
H  44.34600 18.52300 33.72000
H  47.26400 18.83900 33.26300
H  45.09000 20.50900 33.81900
H  46.08200 21.14200 32.44000
H  46.80000 20.78700 34.05800
H  46.48400 16.40100 33.50200
H  44.92200 16.15700 34.24000
H  47.21100 17.05300 35.57900
H  45.68400 16.18400 36.01500
H  50.74400 20.62900 29.68400
H  49.36600 21.69400 29.93700
H  50.23600 21.82900 28.51100
H  51.28500 20.65400 27.03700
H  50.45200 21.77700 25.85000
H  51.61200 20.56500 25.32100
H  45.90200 16.23800 23.90600
H  43.10600 16.54800 24.38000
H  45.67500 18.98300 23.72400
H  43.99500 18.48400 23.34100
H  45.25300 17.91100 22.34400
H  44.56300 14.56400 23.42700
H  42.96500 14.31400 24.02700
H  44.08600 13.13000 25.98000
H  45.57000 14.18600 25.80600
H  45.12700 12.94100 24.61200
H  41.11200 13.39900 28.02500
H  39.93500 14.67600 28.44100
H  40.39900 13.60900 29.72700
H  42.78000 15.51500 33.39900
H  41.82100 19.43900 35.29100
H  41.99400 18.31400 36.62400
H  40.46300 18.39500 35.77400
Mg 48.40400 45.48500 42.71800
C  44.91600 45.01300 42.62800
C  48.82100 41.99700 42.21700
C  51.60800 46.00500 42.26000
C  47.72900 49.00200 42.59600
N  47.04500 43.76600 42.39100
C  45.62800 43.76300 42.36400
C  45.02000 42.34800 42.23400
C  46.27700 41.42300 42.27200
C  47.49500 42.45100 42.28200
C  46.27700 40.43200 43.46500
C  44.26100 42.26900 40.85900
C  44.87100 42.94600 39.62400
H  45.19300 42.08600 38.47400
N  50.08900 44.12800 42.38200
C  50.01500 42.80500 42.17900
C  51.34300 42.35100 41.96500
C  52.21100 43.45800 42.02200
C  51.35100 44.61700 42.28400
C  51.64500 40.90300 41.51600
C  53.67000 43.44600 41.92700
O  54.29100 42.40800 41.64500
C  54.41600 44.71900 42.32400
N  49.47300 47.25900 42.43700
C  50.82600 47.19200 42.33000
C  51.38500 48.53700 41.99200
C  50.21700 49.52700 42.23300
C  49.02400 48.56600 42.45100
C  52.63500 48.92300 42.93100
C  50.01000 50.49100 40.98000
C  50.21000 52.00400 41.26800
N  46.67600 46.80100 42.59000
C  46.58800 48.19900 42.58300
C  45.20600 48.62000 42.76900
C  44.57500 47.42300 42.78200
C  45.49300 46.35000 42.71700
C  44.77000 49.99800 42.88200
C  43.25700 46.79000 42.88000
O  42.14400 47.32000 43.05100
C  43.39700 45.31200 42.71000
C  42.91700 44.66200 43.94500
O  43.41300 44.66300 45.03200
O  41.84600 43.81700 43.64400
C  41.24200 43.10600 44.79800
H  48.95400 40.96200 41.89400
H  52.59100 46.38600 41.97800
H  47.56800 50.07900 42.67200
H  44.25000 42.27700 43.00200
H  46.35200 40.89000 41.32300
H  46.83000 40.91200 44.27200
H  46.62300 39.45000 43.14300
H  45.29600 40.40700 43.94000
H  43.26100 42.69600 40.93700
H  44.11400 41.23800 40.53900
H  45.83500 43.37000 39.90900
H  44.27600 43.80600 39.31800
H  50.80100 40.24200 41.71400
H  52.47100 40.45100 42.06300
H  51.82400 40.77900 40.44800
H  53.97600 45.23800 43.17600
H  54.50900 45.33800 41.43200
H  55.42300 44.42200 42.61700
H  51.67800 48.49400 40.94300
H  50.34400 50.12800 43.13300
H  52.97500 48.04800 43.48500
H  52.40600 49.59800 43.75500
H  53.42200 49.48600 42.42900
H  48.98200 50.30400 40.67100
H  50.73700 50.17600 40.23100
H  50.43600 52.39500 42.26000
H  49.31800 52.51200 40.90100
H  51.00400 52.25400 40.56400
H  43.96200 50.24200 42.19200
H  45.59700 50.69900 42.77100
H  44.29500 50.12600 43.85400
H  42.89700 44.95300 41.81000
H  41.99300 42.57900 45.38600
H  40.35200 42.50300 44.61700
H  40.93000 43.85300 45.52800

