158

Mg 27.57500 51.08100 25.67300
C  25.62200 52.44800 28.27700
C  29.72100 49.72200 27.98500
C  29.37600 49.98100 22.99100
C  25.23400 52.56400 23.43000
N  27.72000 51.28400 27.85400
C  26.79200 51.77900 28.73200
C  27.12800 51.46700 30.19500
C  28.53500 50.78400 30.04800
C  28.75100 50.54500 28.54300
C  29.62800 51.58100 30.75100
C  26.06600 50.47800 30.87900
C  25.16800 50.99600 31.98600
H  25.06500 50.13400 33.21100
N  29.30900 49.97700 25.51700
C  29.99200 49.44700 26.60800
C  31.01300 48.61400 26.02600
C  30.94000 48.67600 24.62100
C  29.80100 49.55400 24.28700
C  32.00000 47.75900 26.86300
C  31.81300 47.90600 23.58700
O  31.65900 48.07500 22.38100
C  32.91600 46.89900 23.99100
N  27.42500 51.38800 23.52300
C  28.36700 50.89200 22.67100
C  27.87100 51.03800 21.22600
C  26.56400 51.90900 21.32300
C  26.34100 51.94100 22.82300
C  28.86700 51.66400 20.24900
C  25.29400 51.40700 20.50800
C  24.22700 50.59800 21.20100
N  25.88400 52.37600 25.79000
C  24.95900 52.76000 24.81700
C  23.77500 53.48500 25.31400
C  24.01600 53.31500 26.75600
C  25.31300 52.65200 26.93100
C  22.67400 54.10900 24.46900
C  23.36600 53.54100 28.04900
O  22.30100 54.06300 28.34800
C  24.45700 53.04100 29.08500
C  24.80200 54.15700 29.91100
O  25.70700 54.93600 29.70600
O  23.90000 54.17400 30.93600
C  24.24200 54.90300 32.20000
H  30.38000 49.23600 28.70700
H  30.00800 49.62100 22.17600
H  24.44300 52.84100 22.73100
H  27.21500 52.43300 30.69200
H  28.55900 49.78000 30.47200
H  29.18300 52.34300 31.39100
H  30.28000 52.07500 30.03100
H  30.19900 50.89000 31.37100
H  26.43400 49.46100 31.00900
H  25.41500 50.30600 30.02200
H  24.15000 51.09500 31.61200
H  25.60000 51.95600 32.26600
H  32.01600 48.04900 27.91300
H  33.03200 47.88500 26.53500
H  31.82900 46.68900 26.74400
H  33.66100 47.40100 24.60800
H  33.54700 46.62400 23.14600
H  32.55400 45.98300 24.45800
H  27.58200 50.03500 20.91300
H  26.64600 52.95300 21.02100
H  28.86300 51.05700 19.34500
H  29.84900 51.71700 20.71900
H  28.54800 52.67500 19.99300
H  25.60200 50.80500 19.65400
H  24.77600 52.27900 20.10900
H  23.91500 49.77900 20.55300
H  23.33500 51.13800 21.51900
H  24.56800 50.24500 22.17500
H  22.97500 54.67200 23.58500
H  22.07500 54.72600 25.13800
H  22.06300 53.25800 24.16900
H  23.99100 52.25300 29.67600
H  23.43800 55.39300 32.75100
H  24.84000 55.76600 31.90800
H  24.85500 54.31400 32.88200
Mg -5.41400 25.91300 26.04900
C  -4.06400 27.05200 29.06200
C  -7.44100 23.64300 27.93200
C  -6.32700 24.45400 23.27400
C  -2.87800 27.73600 24.40500
N  -5.69600 25.46400 28.16100
C  -5.05400 26.04800 29.19100
C  -5.53600 25.54600 30.58000
C  -6.42800 24.31300 30.18500
C  -6.60500 24.51800 28.66200
C  -5.75800 22.96200 30.65500
C  -6.34400 26.65400 31.24400
C  -6.71500 26.51900 32.75800
H  -6.12100 25.34800 33.62400
N  -6.85000 24.37000 25.65100
C  -7.62600 23.62500 26.50600
C  -8.48500 22.74200 25.71300
C  -8.16700 22.93600 24.29800
C  -7.06200 23.89200 24.35400
C  -9.51600 21.84600 26.29200
C  -8.84000 22.32600 23.13300
O  -8.41700 22.44200 21.98700
C  -10.00700 21.42400 23.23200
N  -4.86900 26.12500 24.17300
C  -5.37400 25.42700 23.13000
C  -4.68300 25.71300 21.79100
C  -3.87100 26.99300 22.12200
C  -3.87400 26.96500 23.67200
C  -3.97600 24.44200 21.24300
C  -4.55100 28.29200 21.58900
C  -3.68500 29.17400 20.65300
N  -3.91200 27.30700 26.57900
C  -3.00900 27.92200 25.77600
C  -2.13500 28.75000 26.56500
C  -2.56700 28.43900 27.87200
C  -3.61000 27.60200 27.80600
C  -1.10400 29.67000 26.12400
C  -2.25300 28.69100 29.27000
O  -1.47100 29.44700 29.86100
C  -3.24500 27.79100 30.08300
C  -2.45300 27.07700 31.05500
O  -1.81000 26.01600 30.95200
O  -2.57000 27.80900 32.21800
C  -1.89100 27.11400 33.39200
H  -8.07600 22.98800 28.53200
H  -6.63300 23.98000 22.33900
H  -2.12100 28.20800 23.77400
H  -4.74200 25.17500 31.22900
H  -7.39300 24.46500 30.67000
H  -5.10100 23.07600 31.51700
H  -5.18100 22.45600 29.88000
H  -6.52400 22.22300 30.89000
H  -7.20200 26.88200 30.61100
H  -5.71900 27.54700 31.27500
H  -7.80300 26.48900 32.80400
H  -6.34800 27.44500 33.20100
H  -10.46900 22.30300 26.02600
H  -9.55300 21.97300 27.37400
H  -9.43300 20.79200 26.02700
H  -9.84200 20.42200 23.62800
H  -10.36800 21.20600 22.22600
H  -10.80400 21.86600 23.83100
H  -5.51300 25.98700 21.14100
H  -2.87100 26.96000 21.69000
H  -4.46800 24.20600 20.29900
H  -3.99600 23.56400 21.88800
H  -2.90600 24.61300 21.13300
H  -4.73900 28.90200 22.47300
H  -5.54700 28.10800 21.18600
H  -2.76800 28.63800 20.40800
H  -3.49200 30.18300 21.01800
H  -4.25600 29.30400 19.73400
H  -0.31700 29.25300 25.49600
H  -0.51000 29.94700 26.99400
H  -1.48700 30.59100 25.68600
H  -3.96200 28.43600 30.59100
H  -0.80700 27.22700 33.40900
H  -2.03000 26.03400 33.42000
H  -2.09800 27.54800 34.37100

