158

Mg 54.21100 24.76800 43.47700
C  51.62700 27.25700 43.39800
C  51.91900 22.46900 42.78000
C  56.76500 22.58300 43.20600
C  56.52300 27.41300 43.73500
N  51.98100 24.96200 42.94100
C  51.20200 26.00200 43.00900
C  49.73800 25.57500 42.65400
C  49.78400 24.01000 42.80200
C  51.32700 23.72300 42.76100
C  49.06200 23.40500 44.06200
C  49.14300 26.12600 41.21100
C  50.20000 26.70900 40.15200
H  50.28000 26.29000 38.63900
N  54.35200 22.81700 43.09900
C  53.27800 22.00400 42.84800
C  53.77300 20.50700 42.74900
C  55.19000 20.53500 42.95000
C  55.52000 22.02200 43.07100
C  52.89100 19.37300 42.46200
C  56.07000 19.31500 43.11100
O  55.58900 18.18800 43.02500
C  57.51900 19.38100 43.46000
N  56.38000 25.05000 43.19700
C  57.18800 23.95700 43.27900
C  58.69700 24.37200 43.44700
C  58.57200 25.87300 43.24800
C  57.07700 26.18200 43.44600
C  59.18400 23.90300 44.80100
C  59.05800 26.41900 41.87500
C  59.80800 27.79700 41.77100
N  54.18800 26.89300 43.55600
C  55.18900 27.80600 43.82500
C  54.55200 29.11600 44.20100
C  53.13600 28.92500 44.06400
C  52.95000 27.56300 43.64600
C  55.22900 30.49300 44.57300
C  51.82300 29.52100 44.24100
O  51.48800 30.58800 44.72900
C  50.82700 28.49100 43.72000
C  50.33600 29.13500 42.46900
O  50.95400 29.39900 41.48700
O  48.95500 29.50000 42.63200
C  48.30900 30.07500 41.48000
H  51.16800 21.68100 42.68800
H  57.53100 21.81800 43.35400
H  57.21300 28.23800 43.92600
H  49.21800 25.85400 43.57100
H  49.43200 23.53700 41.88600
H  48.89200 24.08800 44.89400
H  49.58800 22.57300 44.53000
H  48.12600 22.92800 43.77100
H  48.44600 26.91800 41.48400
H  48.56600 25.34300 40.71800
H  51.23300 26.70900 40.50100
H  49.89800 27.75000 40.03300
H  52.92100 18.73500 43.34500
H  53.22300 18.76300 41.62200
H  51.85100 19.68500 42.37000
H  57.91000 18.36800 43.55800
H  57.66800 19.87900 44.41800
H  57.94400 19.89400 42.59700
H  59.22600 23.94800 42.59300
H  59.08300 26.39200 44.05800
H  59.37300 22.83000 44.77700
H  58.45400 23.99400 45.60500
H  60.12300 24.41700 45.00600
H  58.24700 26.45900 41.14800
H  59.73800 25.69900 41.42000
H  60.85400 27.65800 41.49700
H  59.73200 28.42200 42.66100
H  59.51300 28.42400 40.92900
H  55.13100 30.82300 45.60700
H  54.68600 31.26500 44.02700
H  56.30500 30.49900 44.40000
H  49.99400 28.43500 44.42000
H  48.36800 29.43900 40.59600
H  48.80700 31.00300 41.19800
H  47.29300 30.26400 41.82600
Mg 47.65600 16.45300 28.77200
C  45.62200 15.98000 31.78100
C  49.79100 18.20600 30.72600
C  49.22100 17.28900 25.92800
C  45.02300 15.08200 26.89800
N  47.62500 17.06500 31.09100
C  46.78500 16.76000 32.05400
C  47.36500 17.20600 33.41900
C  48.66300 18.01400 33.01000
C  48.68800 17.85700 31.46600
C  48.81200 19.42800 33.52600
C  47.57900 15.98200 34.33700
C  47.91000 16.19400 35.80900
H  47.70200 17.63900 36.52000
N  49.34600 17.42500 28.37500
C  50.14300 18.18300 29.29900
C  51.35400 18.50700 28.64000
C  51.14100 18.21500 27.29100
C  49.81800 17.59700 27.13800
C  52.51300 19.14100 29.33700
C  52.09200 18.38100 26.01400
O  51.84100 17.96700 24.91200
C  53.47600 18.75600 26.22700
N  47.10900 16.29700 26.58500
C  47.97100 16.67800 25.61200
C  47.32200 16.39000 24.19600
C  46.14600 15.42300 24.53100
C  46.06400 15.57200 26.09100
C  46.76700 17.68500 23.59700
C  46.44800 13.93400 24.23700
C  45.73300 13.10600 23.13200
N  45.76800 15.68000 29.18900
C  44.82700 15.09400 28.28000
C  43.64800 14.62900 29.02700
C  43.96100 14.92500 30.33500
C  45.25000 15.49800 30.43700
C  42.37200 14.04200 28.34600
C  43.40100 14.85300 31.64000
O  42.36200 14.38000 32.08700
C  44.49000 15.46700 32.58500
C  43.88200 16.62800 33.31500
O  43.71300 17.71700 32.80000
O  43.61700 16.36800 34.66700
C  42.97700 17.49800 35.35700
H  50.54100 18.68100 31.36200
H  49.70500 17.48900 24.97000
H  44.18100 14.68700 26.32600
H  46.62200 17.83500 33.90800
H  49.51000 17.42000 33.35300
H  48.69700 20.19600 32.76200
H  49.79300 19.61400 33.96400
H  48.10000 19.51300 34.34700
H  48.32900 15.26800 33.99700
H  46.62900 15.44600 34.33000
H  48.88000 15.71900 35.95800
H  47.21200 15.52000 36.30500
H  52.36300 19.13600 30.41600
H  52.75900 20.15100 29.00900
H  53.38900 18.52300 29.13700
H  53.85100 17.84700 26.69800
H  53.46500 19.63300 26.87400
H  54.03800 19.08300 25.35200
H  48.02400 15.94300 23.49300
H  45.14700 15.65600 24.16200
H  47.67000 18.14700 23.19800
H  46.33100 18.32400 24.36500
H  46.09800 17.53900 22.75000
H  46.27400 13.29500 25.10200
H  47.52200 13.98400 24.05900
H  46.48400 12.73400 22.43400
H  44.79700 13.50100 22.73900
H  45.39500 12.11200 23.42500
H  42.57600 13.07400 27.88900
H  41.99200 14.74000 27.60100
H  41.58800 14.00800 29.10300
H  44.89500 14.74400 33.29400
H  42.62700 17.02500 36.27500
H  42.14200 17.89200 34.77900
H  43.63500 18.28600 35.72200

