158

Mg 46.76600 24.39000 28.47800
C  47.43600 26.55600 31.17000
C  45.87600 22.00100 30.81600
C  46.33800 22.17800 25.97600
C  48.30700 26.64000 26.35900
N  46.64900 24.34000 30.69600
C  46.80100 25.36000 31.59500
C  46.42400 24.99700 33.02300
C  46.25900 23.47300 32.88500
C  46.26500 23.22300 31.37100
C  47.34200 22.56500 33.61700
C  45.22700 25.87500 33.55400
C  45.63700 26.63100 34.85400
H  46.12500 25.80000 36.02600
N  46.06900 22.43600 28.38200
C  45.81700 21.57400 29.45700
C  45.55000 20.18500 29.04900
C  45.49800 20.24500 27.60100
C  46.05800 21.63100 27.24200
C  45.19500 19.04500 29.94300
C  45.20000 19.19700 26.53900
O  45.21300 19.45400 25.36400
C  44.67200 17.97400 26.94800
N  47.25600 24.38700 26.45600
C  46.83300 23.44600 25.54500
C  47.28000 23.77500 24.12500
C  47.84900 25.19500 24.31600
C  47.79500 25.42600 25.82700
C  48.30300 22.78200 23.38600
C  47.16800 26.33700 23.40600
C  45.76200 26.81000 23.84800
N  47.72200 26.18000 28.66800
C  48.30900 26.99200 27.71500
C  48.84200 28.12900 28.34200
C  48.60500 28.00900 29.70100
C  47.82400 26.85400 29.84000
C  49.57500 29.13100 27.59100
C  48.87500 28.59400 31.00700
O  49.54200 29.55500 31.32600
C  48.06500 27.70900 31.99000
C  49.04100 27.39500 33.14200
O  49.77900 26.44600 33.20700
O  48.90200 28.31800 34.14300
C  49.46700 27.91800 35.47900
H  45.63900 21.23900 31.56100
H  46.18200 21.66500 25.02500
H  48.70300 27.30400 25.58900
H  47.28500 25.16000 33.67100
H  45.29100 23.17400 33.28700
H  47.57400 23.00200 34.58900
H  48.28600 22.34400 33.12100
H  46.97600 21.54100 33.68500
H  44.26900 25.37400 33.69000
H  45.05600 26.65400 32.81100
H  44.73100 27.10800 35.22900
H  46.34300 27.41500 34.57900
H  46.02600 19.06100 30.64900
H  44.95200 18.10800 29.44100
H  44.27000 19.38900 30.40500
H  45.36900 17.32700 27.48000
H  44.26000 17.28300 26.21200
H  43.85500 18.12900 27.65200
H  46.31800 23.81400 23.61400
H  48.90700 25.31700 24.08200
H  49.16300 23.38000 23.08200
H  47.76500 22.43300 22.50500
H  48.55200 21.96500 24.06400
H  47.08200 26.23100 22.32500
H  47.74300 27.25400 23.53700
H  45.05400 27.00100 23.04200
H  45.81200 27.80000 24.30100
H  45.24100 26.21300 24.59700
H  48.79700 29.55800 26.95800
H  50.25400 28.63800 26.89500
H  50.02600 29.92500 28.18700
H  47.29900 28.36400 32.40500
H  49.83200 28.86600 35.87500
H  50.26000 27.19500 35.29200
H  48.63400 27.42700 35.98200
Mg -2.20300 35.18000 26.58400
C  -3.71500 33.33600 29.21600
C  -0.67400 37.14500 28.72200
C  -1.39200 36.94200 23.92200
C  -4.06800 32.96400 24.42100
N  -2.27100 35.24900 28.74700
C  -2.94500 34.43600 29.62500
C  -2.53800 34.80300 31.04500
C  -1.59000 36.05000 30.84300
C  -1.40100 36.11200 29.30500
C  -2.10900 37.39600 31.51000
C  -1.81700 33.59100 31.74600
C  -2.46300 32.86400 32.93500
H  -1.70700 32.89100 34.30700
N  -1.09200 36.77700 26.30700
C  -0.50600 37.48700 27.33500
C  0.21000 38.58100 26.73400
C  0.05900 38.49800 25.36300
C  -0.79200 37.32300 25.13300
C  0.89200 39.59600 27.60800
C  0.65800 39.36200 24.28300
O  0.55400 39.08100 23.09500
C  1.45900 40.58900 24.54400
N  -2.62400 34.96200 24.50500
C  -2.22900 35.89300 23.59400
C  -2.67800 35.60300 22.12900
C  -3.40400 34.21700 22.36400
C  -3.30600 34.00400 23.83800
C  -3.54200 36.70500 21.53900
C  -2.89500 32.96600 21.63000
C  -1.54300 32.35300 22.12000
N  -3.71200 33.51600 26.79400
C  -4.30600 32.74000 25.78400
C  -5.13300 31.69500 26.39100
C  -4.92500 31.93800 27.76000
C  -4.02400 32.98400 27.95100
C  -5.82800 30.65200 25.66100
C  -5.17100 31.38100 29.08800
O  -5.74300 30.36500 29.51000
C  -4.48200 32.37200 30.03400
C  -5.59300 33.02700 30.81300
O  -6.10300 34.10200 30.55600
O  -5.84200 32.29800 31.95100
C  -6.79500 32.93000 32.91200
H  -0.14100 37.71200 29.48800
H  -1.17400 37.57400 23.05800
H  -4.55100 32.24600 23.75600
H  -3.40700 35.13300 31.61500
H  -0.58500 35.82200 31.19900
H  -3.12100 37.27600 31.89900
H  -2.17400 38.13600 30.71300
H  -1.54300 37.73500 32.37700
H  -0.87000 33.93200 32.16300
H  -1.71700 32.68400 31.14900
H  -2.76900 31.84600 32.69300
H  -3.37400 33.45900 33.00600
H  1.17800 39.13800 28.55500
H  0.24900 40.46200 27.76300
H  1.84600 39.95700 27.22300
H  1.50600 41.21100 23.65000
H  2.49700 40.39000 24.80900
H  1.01700 41.20100 25.33000
H  -1.86600 35.55300 21.40300
H  -4.44100 34.34000 22.05300
H  -3.09200 37.10400 20.63000
H  -3.65600 37.45600 22.32100
H  -4.49700 36.26800 21.24800
H  -2.74900 33.32800 20.61200
H  -3.69000 32.22400 21.55800
H  -1.68400 31.27700 22.02000
H  -1.25200 32.62700 23.13400
H  -0.77300 32.68600 21.42400
H  -5.17900 30.14500 24.94700
H  -6.63500 31.16700 25.13800
H  -6.25200 29.93500 26.36300
H  -3.77300 31.80100 30.63400
H  -7.29900 32.17600 33.51700
H  -7.56900 33.49000 32.38600
H  -6.22200 33.54900 33.60200

