158

Mg 25.50600 1.24300 29.08800
C  27.47400 0.77000 32.00700
C  22.74300 1.74800 31.05700
C  23.70700 1.13100 26.29600
C  28.40500 0.18700 27.25700
N  25.14100 1.18600 31.29700
C  26.18900 1.32700 32.20400
C  25.60800 1.54500 33.60900
C  24.03100 1.46600 33.35800
C  23.94700 1.59000 31.80600
C  23.35400 0.22900 33.84800
C  26.05800 2.86400 34.29500
C  27.09100 2.66300 35.50300
H  26.71300 3.36000 36.85400
N  23.49700 1.42500 28.74100
C  22.53000 1.70400 29.70300
C  21.27300 1.73700 29.01600
C  21.53200 1.56000 27.63400
C  23.03000 1.46200 27.47300
C  19.96000 2.04700 29.70000
C  20.50300 1.51000 26.46100
O  20.83900 1.30400 25.26200
C  19.04300 1.75100 26.69900
N  25.97300 0.66300 27.11400
C  25.02800 0.85700 26.12600
C  25.59400 0.55700 24.75000
C  27.18600 0.49400 25.03900
C  27.17400 0.37200 26.55600
C  25.05400 -0.81400 24.04500
C  28.08600 1.69200 24.37900
C  29.25600 1.28300 23.49100
N  27.51100 0.47100 29.50200
C  28.56500 0.14200 28.63400
C  29.75100 -0.08100 29.40500
C  29.32200 0.05200 30.70700
C  27.94100 0.42500 30.72300
C  31.06700 -0.53800 28.77100
C  29.75500 0.20100 32.05400
O  30.91000 0.13400 32.46200
C  28.56900 0.60800 32.95600
C  28.32800 -0.51300 33.85600
O  27.95300 -1.62300 33.57700
O  28.58000 -0.10700 35.12700
C  28.36200 -1.09000 36.16200
H  21.87500 1.83100 31.71500
H  23.16900 1.12600 25.34600
H  29.26300 -0.14500 26.66800
H  25.95600 0.65800 34.13700
H  23.47900 2.33000 33.72900
H  23.21600 -0.50700 33.05500
H  22.36800 0.44800 34.25700
H  23.95400 -0.28200 34.60100
H  25.17700 3.43400 34.58900
H  26.55600 3.52100 33.58200
H  28.04500 3.05500 35.14900
H  27.31400 1.60900 35.66900
H  19.27800 1.23900 29.43900
H  19.61000 2.98500 29.26900
H  20.02200 2.13900 30.78500
H  18.59000 1.05700 27.40800
H  18.53700 1.72200 25.73400
H  18.92900 2.78600 27.02200
H  25.36100 1.43900 24.15400
H  27.55100 -0.45900 24.65600
H  25.75500 -1.64600 24.11600
H  24.90300 -0.51800 23.00700
H  24.11100 -1.16000 24.46900
H  28.46600 2.19000 25.27100
H  27.53400 2.41600 23.78000
H  29.03400 1.87800 22.60600
H  29.18900 0.22700 23.22700
H  30.27500 1.52800 23.79000
H  31.11100 -0.76600 27.70600
H  31.56200 -1.30100 29.37100
H  31.79300 0.27100 28.85000
H  28.66100 1.55400 33.48900
H  28.41800 -0.60600 37.13600
H  29.05500 -1.92900 36.09900
H  27.40600 -1.60300 36.05600
Mg 53.91300 24.21800 44.10500
C  51.16500 26.45200 43.27500
C  51.98500 21.84800 42.50000
C  56.41200 22.25400 44.50700
C  55.79300 26.99900 44.81600
N  51.94500 24.26100 42.74100
C  50.98800 25.23800 42.66100
C  49.75100 24.67200 41.89200
C  49.88500 23.11800 42.20900
C  51.35300 23.07300 42.46200
C  49.02800 22.58600 43.38100
C  49.69800 24.97700 40.34800
C  50.97700 25.30400 39.56400
H  50.76800 25.66900 38.07900
N  54.15000 22.27100 43.62900
C  53.23700 21.43500 43.07300
C  53.80800 20.06000 43.16300
C  55.03600 20.20000 43.89400
C  55.27300 21.61100 44.01600
C  53.09700 18.78500 42.54500
C  55.88000 19.01000 44.45000
O  55.44600 17.89000 44.29300
C  57.17300 19.25800 45.30100
N  55.80600 24.56600 44.52300
C  56.76900 23.58900 44.65800
C  58.15400 24.08700 44.90400
C  57.86800 25.62400 45.05400
C  56.39800 25.76800 44.74800
C  58.96300 23.42500 46.03600
C  58.86200 26.62000 44.43600
C  58.51300 27.05700 42.96400
N  53.62500 26.38100 44.08600
C  54.46200 27.27300 44.57100
C  53.75400 28.57600 44.67900
C  52.46500 28.31300 44.11800
C  52.42200 26.94000 43.85600
C  54.19700 29.91300 45.23000
C  51.17400 28.88500 43.78300
O  50.75700 30.00200 44.03000
C  50.28000 27.67900 43.26000
C  49.91000 28.01700 41.87900
O  50.70700 28.34400 41.03500
O  48.58900 28.24500 41.86000
C  48.16400 29.16200 40.76000
H  51.40800 21.04200 42.04300
H  57.20100 21.56800 44.82200
H  56.33100 27.87900 45.17300
H  48.88100 25.12500 42.36700
H  49.70000 22.52600 41.31200
H  48.35300 23.36500 43.73400
H  49.69100 22.26200 44.18400
H  48.53300 21.65500 43.10600
H  49.04200 25.84700 40.29200
H  49.33200 24.26600 39.60700
H  51.67200 24.47800 39.71500
H  51.52900 26.08000 40.09500
H  52.18200 18.85700 41.95700
H  52.77100 18.17100 43.38500
H  53.87200 18.25500 41.99100
H  57.62700 18.31400 45.60300
H  56.99400 19.86300 46.19000
H  58.02000 19.61400 44.71400
H  58.63800 23.99100 43.93200
H  57.84000 26.04600 46.05900
H  58.49100 22.56100 46.50400
H  58.98500 24.16200 46.83900
H  59.94800 23.19300 45.63300
H  59.84000 26.13800 44.44500
H  59.05600 27.54200 44.98400
H  57.85600 27.90600 42.77400
H  58.20100 26.18400 42.39200
H  59.48300 27.24800 42.50700
H  55.28300 29.93600 45.32000
H  53.80000 29.97300 46.24300
H  53.89400 30.78800 44.65500
H  49.41300 27.48200 43.89100
H  48.86800 29.99100 40.67900
H  47.25500 29.67700 41.07200
H  48.00400 28.77300 39.75500

