158

Mg 29.72300 57.95500 40.78400
C  27.01700 56.28000 39.36100
C  31.75300 55.65900 39.20200
C  32.41300 60.03300 41.20100
C  27.53200 60.64300 41.49900
N  29.37400 56.10400 39.55700
C  28.23200 55.63800 38.98800
C  28.42100 54.44700 38.14700
C  29.91200 54.03500 38.52700
C  30.40100 55.32300 39.14600
C  30.32200 52.76400 39.35700
C  28.21300 54.70400 36.61900
C  27.18400 53.82000 35.84200
H  26.30300 54.55600 34.89800
N  31.83600 57.79000 40.39100
C  32.40800 56.71500 39.74700
C  33.80100 56.91800 39.85400
C  34.08000 58.20000 40.46900
C  32.78500 58.75900 40.71700
C  34.79300 55.91700 39.27100
C  35.46400 58.74900 40.61400
O  36.48000 58.08400 40.31600
C  35.71500 60.03700 41.35000
N  29.95600 59.99700 41.26000
C  31.19600 60.58400 41.41500
C  31.00200 62.02700 41.81600
C  29.50000 62.21600 42.04600
C  28.93200 60.87300 41.57900
C  31.98600 62.52200 42.88200
C  28.75600 63.43300 41.38200
C  27.63400 64.08200 42.29000
N  27.72400 58.37900 40.63700
C  26.96300 59.44700 41.07900
C  25.54100 59.18800 40.77000
C  25.46800 57.88600 40.22900
C  26.85300 57.48100 40.09800
C  24.38700 60.16900 40.98400
C  24.58400 56.90400 39.67700
O  23.37500 56.89700 39.53200
C  25.58700 55.74700 39.13200
C  25.19100 54.52200 39.89800
O  24.99200 54.44500 41.07200
O  24.83400 53.47000 39.03400
C  24.22800 52.26700 39.74000
H  32.43600 54.94600 38.73400
H  33.24300 60.72200 41.37600
H  26.88800 61.48500 41.76100
H  27.75400 53.75500 38.66200
H  30.44100 53.94900 37.57800
H  30.82500 51.95200 38.83300
H  29.38700 52.33700 39.72000
H  30.97500 53.04000 40.18500
H  29.19000 54.69100 36.13600
H  28.00700 55.77300 36.56600
H  26.46500 53.36600 36.52400
H  27.76200 53.02800 35.36600
H  35.60700 55.87100 39.99500
H  35.12800 56.44700 38.37900
H  34.46800 54.90200 39.04300
H  35.37700 60.92800 40.82100
H  36.79400 60.01900 41.19600
H  35.40100 60.07000 42.39300
H  31.28500 62.63600 40.95700
H  29.26100 62.13300 43.10600
H  32.60000 63.26100 42.36900
H  32.65500 61.73200 43.22100
H  31.41800 62.98100 43.69200
H  28.35100 63.11700 40.42100
H  29.49900 64.18600 41.12000
H  27.95900 65.06800 42.62400
H  27.51300 63.59800 43.25900
H  26.63900 64.12900 41.84800
H  23.58100 59.74700 41.58300
H  23.97100 60.41200 40.00600
H  24.85200 60.98700 41.53400
H  25.34500 55.58200 38.08200
H  24.72000 51.46300 39.19200
H  23.18600 52.22900 39.42100
H  24.26300 52.22600 40.82900
Mg 5.96800 53.69900 40.49000
C  5.31600 50.20500 40.18200
C  9.20900 53.14400 39.56300
C  6.13600 56.92000 39.81100
C  2.39300 54.04300 40.81500
N  7.03600 51.91300 39.84200
C  6.61200 50.61800 39.79700
C  7.79100 49.70000 39.25600
C  9.01800 50.65100 39.39000
C  8.36000 52.01000 39.63600
C  9.99100 50.19500 40.42200
C  7.57400 49.03100 37.80700
C  6.77300 49.87600 36.77100
H  6.20000 49.23600 35.60500
N  7.54400 54.87400 39.94200
C  8.86500 54.49800 39.72900
C  9.63300 55.65600 39.82600
C  8.75100 56.78000 40.00600
C  7.37000 56.23800 39.84500
C  11.13700 55.54600 39.71100
C  9.17600 58.21400 40.19200
O  10.32700 58.54600 39.95800
C  8.21100 59.17700 40.77900
N  4.46100 55.23600 40.33800
C  4.82700 56.47300 39.99700
C  3.56500 57.40500 39.74400
C  2.41200 56.51200 40.10800
C  3.11600 55.17800 40.43200
C  3.47400 58.71800 40.54700
C  1.39400 56.33100 38.98600
C  0.48200 57.49400 38.67400
N  4.23700 52.46500 40.72200
C  2.91900 52.73100 40.98500
C  2.13900 51.55900 41.07800
C  3.04300 50.51600 40.78600
C  4.30700 51.16200 40.52800
C  0.64500 51.43900 41.38600
C  3.20800 49.09300 40.72400
O  2.34600 48.24300 40.84400
C  4.67500 48.83000 40.34900
C  4.74800 47.97600 39.12800
O  4.18300 48.24200 38.04500
O  5.25100 46.69900 39.48000
C  4.96200 45.77500 38.37300
H  10.25600 52.87600 39.40200
H  6.34400 57.99100 39.76200
H  1.31100 54.19100 40.84200
H  7.75200 48.85900 39.94800
H  9.58100 50.73600 38.46100
H  10.90600 50.28200 39.83600
H  9.97300 49.14100 40.69800
H  10.08400 50.71700 41.37400
H  7.10500 48.05100 37.89100
H  8.58000 48.96800 37.39100
H  7.54700 50.58100 36.47000
H  5.92200 50.35500 37.25400
H  11.63900 56.50600 39.82900
H  11.44800 55.22100 38.71900
H  11.62600 54.85800 40.40100
H  8.73000 59.99900 41.27300
H  7.59700 58.61400 41.48200
H  7.74100 59.75200 39.98100
H  3.55800 57.74800 38.70900
H  1.82900 56.82300 40.97400
H  4.32500 58.76400 41.22600
H  2.56500 58.93900 41.10600
H  3.63900 59.57800 39.89800
H  0.61400 55.64600 39.31900
H  1.84000 56.07100 38.02600
H  0.79600 58.04100 37.78500
H  0.30900 58.13700 39.53700
H  -0.51900 57.11700 38.46200
H  0.43000 51.13300 42.41000
H  0.26900 50.80400 40.58400
H  0.20200 52.42300 41.22800
H  5.14300 48.37400 41.22200
H  3.90700 45.83300 38.10600
H  5.08800 44.75500 38.73800
H  5.57000 46.06600 37.51700

