158

Mg 17.06300 -1.15500 27.68400
C  16.32500 1.12000 30.34200
C  18.74400 -3.19600 29.87600
C  17.91700 -2.93500 24.99800
C  15.34700 1.18600 25.57900
N  17.43800 -1.03800 29.88400
C  17.11700 0.01300 30.69500
C  17.66800 -0.34600 32.10500
C  18.58800 -1.62200 31.91200
C  18.22000 -2.01400 30.47700
C  20.07100 -1.33400 32.29600
C  16.58500 -0.35000 33.21400
C  16.91600 0.26100 34.57000
H  18.42900 0.44700 34.98700
N  18.28400 -2.80400 27.49800
C  18.79700 -3.53300 28.50200
C  19.41200 -4.73400 27.91900
C  19.19400 -4.74200 26.47400
C  18.44400 -3.45400 26.25800
C  20.12100 -5.70000 28.79300
C  19.56400 -5.67600 25.36100
O  19.23300 -5.45200 24.16500
C  20.27800 -7.05300 25.68000
N  16.83800 -0.82200 25.57500
C  17.27600 -1.70400 24.62600
C  17.05500 -1.20200 23.19700
C  16.11900 0.10100 23.38400
C  15.98000 0.11200 24.92200
C  18.35600 -0.97900 22.45400
C  14.64700 0.00900 22.73000
C  14.41700 1.06800 21.55100
N  15.98000 0.74300 27.86500
C  15.28200 1.49700 26.99800
C  14.64400 2.60500 27.57700
C  15.09000 2.54500 28.91100
C  15.85900 1.37200 29.05000
C  13.72000 3.70000 26.97400
C  15.03600 3.22500 30.19900
O  14.60800 4.33000 30.45400
C  15.72800 2.24500 31.23100
C  16.66700 3.03600 32.05400
O  17.78400 3.39300 31.74500
O  16.07500 3.43200 33.20400
C  16.90500 4.28200 34.08100
H  19.21800 -3.88500 30.57800
H  18.10700 -3.41200 24.03400
H  14.83200 1.88800 24.92000
H  18.25000 0.56400 32.24600
H  18.32200 -2.38400 32.64500
H  20.32900 -0.29700 32.51100
H  20.67300 -1.51000 31.40400
H  20.30500 -2.07900 33.05600
H  16.38400 -1.38300 33.49900
H  15.62400 0.07600 32.92400
H  16.44300 -0.37200 35.32100
H  16.35100 1.19200 34.51400
H  20.48400 -6.51500 28.16700
H  19.56300 -6.10400 29.63700
H  21.01200 -5.18700 29.15500
H  20.06000 -7.61500 26.58800
H  21.33800 -6.80000 25.65000
H  19.99400 -7.74000 24.88400
H  16.46800 -2.04100 22.82400
H  16.66900 0.98900 23.07300
H  18.18000 -0.04400 21.92100
H  18.42500 -1.82600 21.77200
H  19.11800 -0.93800 23.23200
H  13.92600 0.11700 23.54000
H  14.42300 -0.97300 22.31400
H  14.21100 0.54400 20.61800
H  15.16500 1.85900 21.49500
H  13.53600 1.61500 21.88900
H  12.72500 3.44500 26.60800
H  14.31800 4.02400 26.12200
H  13.63800 4.52200 27.68500
H  14.88100 1.91900 31.83600
H  16.24600 4.56800 34.90100
H  17.20600 5.28000 33.76000
H  17.80300 3.83900 34.51100
Mg 44.61800 3.18400 47.09600
C  42.44500 5.87700 46.89700
C  41.74500 1.03100 46.87900
C  46.60600 0.58300 46.66700
C  47.29800 5.35100 46.83300
N  42.39800 3.39700 46.85900
C  41.77300 4.63300 46.82400
C  40.23000 4.51600 46.65100
C  40.12000 2.92600 46.91300
C  41.52500 2.39500 46.75600
C  39.49400 2.58300 48.25500
C  39.73700 5.01100 45.28200
C  38.36800 5.72800 45.25400
H  37.67400 6.03200 43.93400
N  44.24100 1.05500 46.81300
C  42.99100 0.35300 46.76100
C  43.20500 -1.05800 46.47500
C  44.61000 -1.15600 46.19900
C  45.25600 0.21800 46.64100
C  42.11000 -2.12500 46.32700
C  45.27800 -2.36400 45.58900
O  44.76500 -3.46900 45.47900
C  46.76700 -2.38200 45.26100
N  46.66500 2.99700 46.93200
C  47.29900 1.78000 46.77900
C  48.79800 1.94700 46.54400
C  49.03000 3.53200 46.77300
C  47.56800 3.99100 46.86700
C  49.59300 0.96500 47.49000
C  49.83400 4.19800 45.63000
C  51.08800 4.89700 46.09200
N  44.87500 5.23000 46.96300
C  46.05600 5.95200 46.81000
C  45.66000 7.31100 46.73500
C  44.24800 7.37000 46.79900
C  43.84800 6.04700 46.88300
C  46.60000 8.49600 46.62800
C  43.08500 8.24900 46.85900
O  43.01800 9.46300 46.90500
C  41.83700 7.29100 46.71400
C  41.00000 7.55900 47.90300
O  41.30100 7.26900 49.08200
O  39.76500 8.15700 47.49500
C  38.87400 8.32200 48.62400
H  40.86100 0.41700 46.69400
H  47.24800 -0.29100 46.54500
H  48.08400 6.08700 46.64700
H  39.72800 5.16100 47.37100
H  39.42300 2.44800 46.22500
H  39.44800 3.45300 48.91100
H  40.19500 1.89600 48.72900
H  38.55100 2.04200 48.18100
H  39.58500 4.10700 44.69200
H  40.54300 5.61500 44.86500
H  38.41900 6.68800 45.76800
H  37.66200 5.16300 45.86100
H  42.29900 -3.17700 46.54000
H  41.91700 -2.10100 45.25500
H  41.18500 -1.89300 46.85400
H  47.12500 -1.45300 44.81800
H  46.92700 -3.14300 44.49700
H  47.40900 -2.71300 46.07700
H  49.09400 1.78300 45.50800
H  49.36600 3.79600 47.77600
H  48.99500 0.48100 48.26200
H  50.37600 1.56500 47.95400
H  49.92100 0.17300 46.81700
H  49.28600 4.82700 44.92900
H  50.27000 3.44600 44.97400
H  51.93500 4.23300 45.91800
H  51.03000 5.13700 47.15300
H  51.23800 5.74800 45.42800
H  47.26300 8.58500 47.48900
H  45.96700 9.38200 46.58100
H  47.17000 8.42100 45.70200
H  41.43200 7.45900 45.71700
H  37.97400 8.90200 48.41800
H  39.15200 8.73200 49.59500
H  38.54500 7.34200 48.97100

