158

Mg -2.05800 17.41700 26.25000
C  -2.28700 15.36100 29.03300
C  -2.79900 20.17200 28.22500
C  -2.07700 19.43700 23.49400
C  -2.07500 14.56100 24.28600
N  -2.52600 17.71000 28.36800
C  -2.37500 16.75500 29.34600
C  -2.51800 17.42000 30.79300
C  -3.05200 18.89800 30.42000
C  -2.70300 18.96700 28.87400
C  -4.52700 19.30300 30.62100
C  -1.21800 17.42700 31.68300
C  -1.35400 18.06900 33.09600
H  -1.31100 17.16900 34.37800
N  -2.32200 19.51700 25.95900
C  -2.57200 20.48700 26.87200
C  -2.62900 21.74400 26.33100
C  -2.26100 21.55700 24.97800
C  -2.27700 20.07800 24.75200
C  -2.65800 23.09700 27.04100
C  -1.89500 22.58800 23.89500
O  -1.80700 22.28500 22.75200
C  -1.82600 24.00400 24.22200
N  -2.30100 17.03200 24.12600
C  -2.10900 18.02400 23.24900
C  -1.99800 17.38100 21.88300
C  -1.86100 15.85800 22.11000
C  -2.02600 15.80100 23.64500
C  -3.25000 17.73500 20.97400
C  -0.51700 15.14400 21.59900
C  0.80700 15.75300 22.11000
N  -2.07600 15.37300 26.57400
C  -2.12800 14.33300 25.65000
C  -2.17800 13.09900 26.31100
C  -2.29200 13.41800 27.71300
C  -2.11400 14.82500 27.77500
C  -2.25500 11.69900 25.72500
C  -2.44400 12.97200 29.13400
O  -2.57700 11.85100 29.61800
C  -2.45300 14.19600 29.94200
C  -1.42600 14.05500 30.93300
O  -0.22700 14.27500 30.79500
O  -2.04000 13.47400 32.03000
C  -1.25000 13.00100 33.21700
H  -3.20000 21.05200 28.73200
H  -1.99900 20.02000 22.57400
H  -2.04700 13.65100 23.68100
H  -3.40100 16.93900 31.21200
H  -2.56000 19.64800 31.03900
H  -4.87800 19.80000 29.71600
H  -4.62200 20.02100 31.43600
H  -5.12000 18.42800 30.88600
H  -0.36600 17.85000 31.14900
H  -0.91600 16.40100 31.89500
H  -2.35700 18.44200 33.30600
H  -0.67600 18.91600 33.20100
H  -2.70500 23.07700 28.13000
H  -3.46400 23.74000 26.69100
H  -1.73300 23.63100 26.82300
H  -2.66600 24.41100 24.78500
H  -1.87500 24.50500 23.25600
H  -0.91100 24.13200 24.80100
H  -1.19200 17.87900 21.34500
H  -2.65200 15.25900 21.65700
H  -3.89400 18.31400 21.63600
H  -3.84800 16.88200 20.65200
H  -3.00600 18.38500 20.13400
H  -0.42100 15.12800 20.51400
H  -0.47600 14.10600 21.92800
H  1.38000 15.01200 22.66700
H  0.57600 16.55900 22.80600
H  1.40500 16.07100 21.25500
H  -3.18700 11.19800 25.98900
H  -1.42100 11.15900 26.17400
H  -1.95800 11.68300 24.67600
H  -3.44400 14.26600 30.38900
H  -0.24300 13.36700 33.01700
H  -1.20500 11.91200 33.22200
H  -1.61800 13.35400 34.18100
Mg -11.11400 40.40700 42.43700
C  -9.51400 37.65400 41.09600
C  -8.75900 42.43500 40.85100
C  -12.89100 43.11000 43.32200
C  -13.81500 38.37900 43.24400
N  -9.38600 40.06700 40.97200
C  -8.89100 38.81700 40.62100
C  -7.70400 38.91700 39.59200
C  -7.40800 40.43000 39.71600
C  -8.56300 41.06900 40.59600
C  -5.98100 40.79100 40.30800
C  -7.84000 38.20600 38.23600
C  -7.09400 36.84000 38.05400
H  -5.94200 36.75800 37.05900
N  -10.73700 42.56900 42.34800
C  -9.72000 43.10900 41.65500
C  -9.82700 44.51800 41.81300
C  -11.04600 44.77700 42.58800
C  -11.62400 43.50500 42.75300
C  -8.85200 45.45700 41.25500
C  -11.57300 46.18200 43.02600
O  -10.88300 47.17500 42.84900
C  -12.87400 46.26500 43.91300
N  -13.10300 40.69400 43.19500
C  -13.57700 41.89700 43.49400
C  -14.88700 41.77600 44.16800
C  -15.27000 40.27500 44.01600
C  -13.98600 39.73300 43.49800
C  -14.91400 42.20700 45.64100
C  -16.48700 40.04400 43.04500
C  -17.39000 38.80700 43.37200
N  -11.61000 38.46100 42.33900
C  -12.68100 37.73000 42.82600
C  -12.41500 36.33600 42.71600
C  -11.18900 36.28300 42.06100
C  -10.73100 37.61100 41.84100
C  -13.38000 35.21800 43.06500
C  -10.18100 35.36500 41.53900
O  -10.17700 34.12900 41.67800
C  -9.00600 36.23700 40.91300
C  -7.80100 35.89100 41.70200
O  -7.37300 36.49000 42.68800
O  -7.12300 34.92600 41.03600
C  -5.71200 34.83100 41.25500
H  -7.97000 43.04000 40.39900
H  -13.68400 43.82700 43.54200
H  -14.64800 37.69900 43.43100
H  -6.98300 38.38300 40.21100
H  -7.42700 40.89700 38.73100
H  -5.46100 39.88400 40.61600
H  -6.13700 41.52900 41.09400
H  -5.32800 41.27800 39.58400
H  -7.33400 38.78300 37.46200
H  -8.91300 38.10700 38.07100
H  -7.86600 36.11900 37.78800
H  -6.60100 36.55000 38.98200
H  -9.38800 45.95900 40.44900
H  -7.90800 44.96000 41.03200
H  -8.52200 46.21300 41.96700
H  -12.96100 45.48000 44.66400
H  -13.68200 46.11300 43.19800
H  -12.92600 47.26000 44.35600
H  -15.54200 42.42500 43.58700
H  -15.61400 39.71700 44.88800
H  -15.61800 43.02400 45.79900
H  -13.92900 42.55800 45.94800
H  -15.21200 41.37200 46.27500
H  -15.90800 39.83200 42.14600
H  -16.96200 41.02500 43.01300
H  -18.45300 39.04700 43.38200
H  -17.23300 38.40100 44.37100
H  -17.13200 38.01100 42.67300
H  -13.61500 35.15200 44.12700
H  -13.19900 34.22400 42.65600
H  -14.30800 35.55100 42.60000
H  -8.85500 35.91900 39.88200
H  -5.77400 34.31500 42.21300
H  -5.24300 35.81000 41.35400
H  -5.24700 34.14700 40.54500

