158

Mg 46.90500 44.50600 42.41100
C  43.41500 44.06700 42.28200
C  47.14500 41.01100 42.31100
C  50.07900 44.81100 41.79800
C  46.32900 47.99000 41.74800
N  45.35400 42.76200 42.20000
C  44.03200 42.80100 42.21700
C  43.45200 41.38300 42.03500
C  44.63900 40.54700 42.59900
C  45.80700 41.48700 42.33400
C  44.60300 40.06500 44.06600
C  42.88300 41.09100 40.60800
C  43.57700 41.81900 39.37200
H  44.41100 41.03700 38.39000
N  48.40000 43.15400 42.17100
C  48.32400 41.75900 42.17500
C  49.68500 41.14300 42.09300
C  50.58300 42.22800 41.80900
C  49.70800 43.49900 42.02000
C  49.96100 39.59800 42.05100
C  52.07200 42.13000 41.53500
O  52.62300 41.01600 41.36700
C  52.96800 43.34300 41.60500
N  48.05700 46.21400 41.84700
C  49.39900 46.01200 41.80700
C  50.03500 47.38500 41.57900
C  48.86700 48.43500 41.53600
C  47.66400 47.51900 41.64100
C  51.16800 47.64300 42.59600
C  48.76900 49.26700 40.28900
C  49.41500 50.65300 40.28700
N  45.21900 45.87300 42.17900
C  45.15900 47.21600 41.93500
C  43.75200 47.58700 41.80500
C  43.01700 46.33200 41.91000
C  43.96400 45.34100 42.16200
C  43.22100 48.98700 41.59400
C  41.72800 45.77800 41.93500
O  40.59400 46.27900 41.99000
C  41.94900 44.19700 42.06600
C  41.21100 43.90000 43.33500
O  40.11600 43.30100 43.39900
O  41.95300 44.13500 44.46400
C  41.42800 43.65400 45.75600
H  47.22000 39.96300 42.60700
H  51.11100 44.97300 41.48000
H  46.15700 49.04700 41.53300
H  42.62300 41.16900 42.71000
H  44.82200 39.70600 41.92900
H  45.18300 40.67800 44.75600
H  45.09400 39.09200 44.04500
H  43.55000 39.89900 44.29200
H  41.80100 41.19200 40.68700
H  43.04600 40.01800 40.50100
H  44.22300 42.64900 39.65600
H  42.81200 42.37000 38.82600
H  49.62800 39.25700 41.07000
H  49.48600 39.00800 42.83400
H  51.04000 39.46700 42.14400
H  52.79200 43.98400 40.74100
H  54.01400 43.05800 41.72300
H  52.66700 43.82900 42.53400
H  50.49000 47.33500 40.58900
H  48.90400 49.10700 42.39400
H  52.11600 47.55800 42.06500
H  51.15100 46.97300 43.45500
H  51.13100 48.63100 43.05600
H  47.80200 49.27700 39.78500
H  49.35200 48.81300 39.48800
H  48.79200 51.40200 39.79700
H  50.39000 50.68500 39.80200
H  49.76400 50.90000 41.28900
H  44.01200 49.72700 41.47000
H  42.54100 49.13100 42.43300
H  42.72100 48.87600 40.63200
H  41.58600 43.67500 41.18100
H  40.92900 42.70600 45.55400
H  40.70800 44.38600 46.12300
H  42.28200 43.60700 46.43100
Mg -5.26400 25.57800 26.26800
C  -3.66200 26.75500 29.07200
C  -6.89700 23.28300 28.37100
C  -6.52500 23.99000 23.57200
C  -3.17500 27.43600 24.18400
N  -5.31500 25.10800 28.45100
C  -4.64300 25.77600 29.40300
C  -5.20400 25.58700 30.84400
C  -5.85900 24.23400 30.62100
C  -6.10400 24.25400 29.11700
C  -5.06700 22.95200 31.14200
C  -6.08000 26.71500 31.42500
C  -5.87600 27.12500 32.94200
H  -5.58500 26.01500 33.92400
N  -6.50900 23.88200 25.94900
C  -7.08000 23.08600 26.96200
C  -7.79700 21.96000 26.33400
C  -7.63100 22.07700 24.91800
C  -6.83200 23.35500 24.75400
C  -8.35300 20.84200 27.20100
C  -8.13000 21.20000 23.75700
O  -7.97000 21.51500 22.54100
C  -8.89700 19.93900 24.07300
N  -4.89200 25.66900 24.21200
C  -5.64900 25.01400 23.31900
C  -5.14000 25.28500 21.87300
C  -4.34500 26.64200 22.03900
C  -4.01200 26.55400 23.54100
C  -4.39800 24.10800 21.22900
C  -5.05300 28.01900 21.72000
C  -5.78000 28.27900 20.33300
N  -3.72300 26.90700 26.53000
C  -2.98500 27.62500 25.58900
C  -2.09100 28.48900 26.28600
C  -2.29200 28.16800 27.63500
C  -3.27900 27.18400 27.72600
C  -1.09200 29.50500 25.68300
C  -1.84100 28.51800 28.95200
O  -1.03700 29.42200 29.27100
C  -2.77200 27.62100 29.98800
C  -1.96900 26.66400 30.88900
O  -1.44400 25.62200 30.57100
O  -1.85500 27.25300 32.07000
C  -1.10300 26.60300 33.13600
H  -7.31700 22.50200 29.00800
H  -7.04200 23.62400 22.68200
H  -2.42100 28.00600 23.63600
H  -4.40800 25.45600 31.57700
H  -6.73200 24.25500 31.27500
H  -4.66400 23.06100 32.14900
H  -4.32700 22.75700 30.36500
H  -5.75200 22.11400 31.27200
H  -7.12200 26.40200 31.35000
H  -5.87900 27.58600 30.80200
H  -6.79100 27.47000 33.42400
H  -5.19200 27.97200 32.99300
H  -8.71400 21.14500 28.18300
H  -7.55600 20.10400 27.30100
H  -9.18100 20.42100 26.63000
H  -9.00100 19.42600 23.11700
H  -9.93900 20.10000 24.34800
H  -8.45400 19.33800 24.86700
H  -6.02800 25.50400 21.28000
H  -3.38100 26.61300 21.53100
H  -4.49600 23.26400 21.91100
H  -3.36700 24.37700 21.00100
H  -4.86500 23.79200 20.29600
H  -4.18800 28.64600 21.94100
H  -5.78700 28.11100 22.52100
H  -6.84200 28.03800 20.37900
H  -5.29500 27.72100 19.53300
H  -5.75400 29.35400 20.15100
H  -0.85600 29.18800 24.66700
H  -0.20400 29.43400 26.31000
H  -1.45700 30.52900 25.60100
H  -3.50400 28.21500 30.53600
H  -0.11300 27.04300 33.25500
H  -0.93700 25.53200 33.02000
H  -1.67300 26.87100 34.02600

