158

Mg 25.82000 -6.70000 47.54500
C  26.85500 -3.53400 46.33700
C  22.75000 -6.08400 46.15100
C  25.09300 -9.75000 48.52000
C  29.24100 -7.43100 48.29000
N  24.95400 -5.04600 46.24300
C  25.50100 -3.84500 45.98800
C  24.53100 -2.91400 45.19100
C  23.13300 -3.66500 45.44200
C  23.62300 -5.05400 45.93700
C  22.31900 -3.07300 46.61300
C  24.89500 -2.76800 43.65100
C  24.83000 -1.31700 43.05400
H  25.93900 -0.92400 42.11300
N  24.13300 -7.79900 47.33500
C  23.00000 -7.34200 46.70700
C  22.07500 -8.47400 46.78100
C  22.69800 -9.52100 47.47400
C  24.02200 -9.11100 47.71700
C  20.75600 -8.45100 46.07700
C  22.06400 -10.94100 47.77800
O  20.91100 -11.10800 47.62800
C  22.77800 -12.13700 48.38400
N  27.00000 -8.35200 48.22100
C  26.40700 -9.39100 48.78800
C  27.36800 -10.20400 49.59000
C  28.75000 -9.78800 49.15500
C  28.34600 -8.45800 48.54500
C  27.05200 -10.25600 51.13100
C  29.47100 -10.80400 48.22200
C  30.95400 -11.22500 48.48800
N  27.72300 -5.74000 47.29600
C  28.96500 -6.17100 47.70600
C  29.90800 -5.13800 47.43300
C  29.16800 -4.01900 46.87300
C  27.83100 -4.46900 46.84300
C  31.36300 -5.15800 47.93900
C  29.15400 -2.69500 46.41800
O  30.06300 -1.89300 46.24100
C  27.66100 -2.38600 45.91800
C  27.32500 -1.11200 46.63200
O  27.23600 -0.99000 47.85800
O  26.95800 -0.09200 45.79100
C  26.61100 1.17000 46.47200
H  21.73500 -5.83300 45.83700
H  24.87900 -10.80700 48.69600
H  30.27000 -7.60800 48.61100
H  24.51800 -1.93000 45.65900
H  22.48800 -3.70900 44.56400
H  22.42200 -3.63500 47.54100
H  21.28800 -3.19000 46.27900
H  22.43600 -2.01100 46.82800
H  24.18300 -3.36500 43.08100
H  25.86200 -3.25700 43.52800
H  24.65300 -0.54400 43.80200
H  23.92400 -1.32600 42.44900
H  20.67100 -7.70100 45.29100
H  20.06600 -8.04800 46.81800
H  20.45500 -9.43300 45.71100
H  23.56600 -12.40500 47.68000
H  22.13900 -13.01300 48.49400
H  23.19700 -11.93200 49.36900
H  27.23100 -11.23300 49.25600
H  29.40400 -9.61100 50.00900
H  26.50200 -9.37800 51.46900
H  27.94500 -10.36200 51.74800
H  26.27600 -11.01700 51.20900
H  29.35700 -10.57500 47.16300
H  28.94900 -11.75100 48.35600
H  30.94800 -12.09400 49.14600
H  31.30800 -10.34200 49.02200
H  31.45700 -11.43800 47.54500
H  32.06100 -4.77400 47.19600
H  31.67300 -6.17800 48.16700
H  31.56900 -4.54500 48.81700
H  27.64700 -2.30400 44.83100
H  25.58300 1.12300 46.83100
H  26.55100 1.93200 45.69400
H  27.31900 1.37400 47.27500
Mg 35.83900 48.99400 25.88000
C  35.77100 47.22500 28.93200
C  34.37700 51.67100 27.41700
C  35.84800 50.58700 22.90100
C  37.10100 46.03600 24.31500
N  35.26300 49.35700 28.00600
C  35.42600 48.60300 29.08100
C  35.24200 49.48400 30.38600
C  34.62500 50.81500 29.84200
C  34.74200 50.56400 28.26100
C  33.21600 51.20100 30.31900
C  36.49900 49.56000 31.25300
C  36.33500 48.98400 32.70800
H  34.97600 48.87100 33.35700
N  35.11300 50.87200 25.25000
C  34.59000 51.83100 26.02900
C  34.36600 52.97700 25.22700
C  34.55800 52.55600 23.84000
C  35.23900 51.35500 23.92300
C  33.79300 54.23000 25.87200
C  34.27600 53.21100 22.56300
O  34.76900 52.96900 21.44700
C  33.24200 54.40800 22.61200
N  36.28800 48.39700 23.89800
C  36.34200 49.31600 22.92300
C  36.98700 48.69800 21.63000
C  37.37200 47.27100 22.05600
C  36.87600 47.16700 23.51200
C  36.03800 48.59900 20.44700
C  38.98400 47.07300 21.96000
C  39.77300 47.73600 23.13200
N  36.36900 47.12000 26.44400
C  36.90500 46.05300 25.71300
C  37.13200 44.91700 26.59600
C  36.67500 45.35700 27.83900
C  36.21600 46.66500 27.70900
C  37.62500 43.61400 26.16000
C  36.58200 44.86700 29.19800
O  36.77400 43.79100 29.71300
C  36.00500 46.10000 29.95600
C  34.89100 45.66500 30.82600
O  33.75000 45.60400 30.49700
O  35.37500 45.30500 32.09900
C  34.35000 44.55800 32.83600
H  33.89700 52.54800 27.85400
H  35.95900 51.16400 21.98000
H  37.64400 45.17500 23.91900
H  34.50900 48.97900 31.01500
H  35.23100 51.65900 30.17100
H  32.66900 51.43300 29.40600
H  33.17900 52.09600 30.94100
H  32.75100 50.36700 30.84400
H  36.82000 50.59000 31.40900
H  37.32400 48.98300 30.83400
H  36.98000 49.50200 33.41800
H  36.77000 47.98500 32.73300
H  33.85800 55.11400 25.23700
H  34.41100 54.57200 26.70300
H  32.78000 54.05400 26.23400
H  33.54900 55.30200 23.15500
H  32.33500 53.99300 23.05200
H  33.07000 54.79200 21.60700
H  37.87100 49.29000 21.39600
H  36.76900 46.55700 21.49400
H  35.34300 47.77200 20.59200
H  36.65900 48.37100 19.58000
H  35.57800 49.58300 20.35200
H  39.30100 47.59600 21.05700
H  39.27700 46.02500 21.90200
H  40.63600 48.33900 22.85000
H  40.13900 46.87300 23.68800
H  39.08000 48.27400 23.77900
H  38.67900 43.68500 25.89300
H  37.04300 43.28600 25.29800
H  37.61400 43.02700 27.07800
H  36.75500 46.50200 30.63700
H  34.83800 43.97200 33.61500
H  33.70500 43.94200 32.21000
H  33.65600 45.18700 33.39400

