158

Mg 46.87500 16.64700 27.55800
C  45.07600 16.38200 30.65000
C  49.05200 18.75300 29.22100
C  48.18700 17.36600 24.61200
C  44.17700 15.18000 25.98700
N  47.00800 17.53500 29.76500
C  46.23000 17.09400 30.83700
C  46.79200 17.67900 32.11000
C  47.97800 18.56300 31.64400
C  48.07100 18.26000 30.13300
C  47.85000 20.05000 32.06800
C  47.23100 16.47100 33.05500
C  47.00600 16.65800 34.54300
H  47.24700 18.09600 35.05500
N  48.46000 17.84600 27.02900
C  49.23800 18.63700 27.82100
C  50.35000 19.15100 27.02100
C  50.18200 18.71400 25.68300
C  48.90300 17.92800 25.73700
C  51.46200 19.88700 27.64200
C  51.04400 18.91400 24.48400
O  50.74300 18.49600 23.37100
C  52.41600 19.62100 24.63200
N  46.33300 16.31200 25.65200
C  47.02300 16.65100 24.52600
C  46.41400 16.16300 23.19400
C  45.12000 15.45500 23.68800
C  45.25800 15.62600 25.24000
C  46.01100 17.31100 22.12400
C  44.97200 14.02400 23.17300
C  45.66900 12.99700 23.99300
N  45.06700 15.87800 28.10000
C  44.02700 15.30800 27.31600
C  42.92600 14.91600 28.18000
C  43.27000 15.32400 29.53500
C  44.53700 15.95400 29.38600
C  41.69700 14.25700 27.79900
C  42.77300 15.41100 30.88000
O  41.79700 14.96800 31.45800
C  43.98400 16.03600 31.67000
C  43.45500 17.16300 32.56400
O  43.28800 18.31900 32.15300
O  43.20100 16.74900 33.89200
C  42.80700 17.72500 34.87700
H  49.77900 19.34200 29.78400
H  48.54000 17.64100 23.61600
H  43.32200 14.74800 25.46200
H  45.99000 18.20000 32.63200
H  48.89000 18.23500 32.14100
H  47.05800 20.21500 32.79800
H  47.52700 20.58600 31.17500
H  48.77000 20.48800 32.45600
H  48.28800 16.25400 32.90300
H  46.69800 15.53700 32.87500
H  47.49500 15.90800 35.16500
H  45.95100 16.39900 34.63500
H  51.44800 19.87700 28.73200
H  51.39800 20.87100 27.17800
H  52.34500 19.29900 27.39200
H  52.33000 20.59100 25.12300
H  52.75500 19.79100 23.61000
H  53.03900 19.00300 25.27800
H  47.14200 15.48800 22.74500
H  44.19400 15.99300 23.48900
H  46.46200 18.22400 22.51400
H  44.95900 17.50300 21.91200
H  46.44300 17.04600 21.15900
H  45.42200 13.93000 22.18500
H  43.90700 13.79900 23.22500
H  46.14500 12.26900 23.33600
H  45.00500 12.49700 24.69800
H  46.51600 13.37200 24.56800
H  41.36600 14.61300 26.82400
H  40.88600 14.46700 28.49600
H  41.84200 13.18100 27.70100
H  44.28400 15.30200 32.41800
H  42.51000 17.30800 35.84000
H  41.97400 18.32100 34.50500
H  43.70400 18.34300 34.91600
Mg 46.99300 25.07200 27.59500
C  47.99500 27.27100 30.21600
C  45.82100 23.02500 30.07000
C  46.47500 22.85200 25.17500
C  48.63600 27.10700 25.38800
N  46.92700 25.17400 29.91700
C  47.31400 26.15700 30.72300
C  47.01700 25.96700 32.20900
C  46.31100 24.58300 32.09100
C  46.33900 24.18300 30.60200
C  47.07600 23.54200 32.92900
C  46.07100 27.13100 32.74800
C  46.43700 27.71300 34.15400
H  45.37700 27.70400 35.31500
N  46.15200 23.23700 27.65200
C  45.72300 22.57700 28.74900
C  45.16000 21.30100 28.32900
C  45.46900 21.17900 26.92700
C  46.10100 22.44600 26.49100
C  44.49300 20.36500 29.24000
C  45.15800 20.08100 25.93800
O  45.45000 20.15200 24.74600
C  44.34000 18.89300 26.42400
N  47.42400 24.95300 25.48800
C  46.99400 24.00500 24.68300
C  47.57500 24.10000 23.26400
C  48.07600 25.68800 23.30400
C  48.04800 26.01200 24.84900
C  48.69000 22.99900 23.15400
C  47.16200 26.74700 22.46700
C  47.88200 27.88700 21.77200
N  48.18700 26.75700 27.71000
C  48.74900 27.52500 26.75300
C  49.22200 28.81300 27.19800
C  48.98100 28.70700 28.59500
C  48.38200 27.43400 28.83000
C  49.75800 29.88700 26.38600
C  49.13100 29.38600 29.83900
O  49.64000 30.49500 30.06200
C  48.48500 28.52900 30.90600
C  49.47300 28.30800 31.99600
O  50.47900 27.61400 31.95100
O  49.08700 29.04800 33.10200
C  49.91600 28.91400 34.28500
H  45.40500 22.44100 30.89400
H  46.31900 22.18700 24.32300
H  49.14200 27.81700 24.73100
H  47.97500 25.92600 32.72700
H  45.29300 24.70900 32.46000
H  46.68300 22.54000 32.75700
H  46.79300 23.80200 33.95000
H  48.13200 23.62100 32.67200
H  45.05500 26.73600 32.75300
H  46.15200 27.87700 31.95700
H  46.67700 28.74900 33.91400
H  47.27200 27.14400 34.56400
H  43.59700 19.92300 28.80300
H  44.08600 20.83800 30.13300
H  45.19600 19.63300 29.63800
H  44.64100 18.61900 27.43500
H  44.75800 18.20900 25.68500
H  43.30100 19.13200 26.20000
H  46.71600 23.92700 22.61600
H  49.08400 25.58600 22.90400
H  48.43900 22.19900 22.45700
H  48.97000 22.52200 24.09300
H  49.61600 23.43900 22.78200
H  46.39900 27.05400 23.18200
H  46.62000 26.20800 21.69000
H  48.00300 28.65000 22.54000
H  47.37000 28.25000 20.88100
H  48.88000 27.58300 21.45700
H  50.44300 29.40600 25.68700
H  50.30900 30.63800 26.95200
H  48.99900 30.31100 25.73000
H  47.76300 29.18200 31.39500
H  50.11100 29.94400 34.58400
H  50.86400 28.38100 34.21200
H  49.38000 28.32800 35.03200

