158

Mg 16.76600 -2.08400 27.06800
C  15.86800 0.21400 29.78700
C  18.91200 -3.58300 29.31200
C  18.17900 -3.76800 24.49700
C  15.33000 0.30100 24.84000
N  17.41500 -1.62900 29.23300
C  16.79100 -0.79500 30.17100
C  17.14900 -1.18300 31.57300
C  18.34200 -2.14100 31.36400
C  18.22900 -2.49100 29.91500
C  19.69800 -1.57000 31.78700
C  15.87400 -1.69300 32.42700
C  15.89300 -1.27100 33.89700
H  17.10700 -0.58300 34.52200
N  18.10500 -3.68200 26.92500
C  18.95000 -4.07700 27.97400
C  19.60900 -5.27900 27.51400
C  19.50900 -5.25800 26.06800
C  18.57200 -4.19700 25.80800
C  20.48500 -6.14500 28.44500
C  20.11800 -6.15900 25.00000
O  19.79000 -6.05700 23.83100
C  21.08500 -7.39400 25.24100
N  16.69200 -1.85100 24.98100
C  17.44200 -2.64500 24.11200
C  17.30000 -2.05300 22.63500
C  16.24700 -0.89000 22.78500
C  16.02400 -0.85500 24.25400
C  18.62200 -1.59200 22.06500
C  14.90700 -1.05900 21.95300
C  14.69400 0.14700 21.10000
N  15.68500 -0.21700 27.20200
C  15.12700 0.60700 26.27000
C  14.36300 1.61500 26.89900
C  14.71200 1.50400 28.19800
C  15.48000 0.41000 28.39300
C  13.50600 2.61700 26.28700
C  14.44500 2.13500 29.52500
O  13.82600 3.16600 29.86700
C  15.20700 1.31000 30.58500
C  16.15200 2.16900 31.44000
O  17.30900 2.35900 31.11400
O  15.43400 2.76500 32.43500
C  16.23400 3.61600 33.41400
H  19.56700 -4.12200 30.00000
H  18.66000 -4.17200 23.60400
H  14.80000 0.93500 24.12600
H  17.56500 -0.29000 32.04000
H  18.14100 -3.04900 31.93200
H  19.82100 -0.54800 32.14400
H  20.32800 -1.59700 30.89700
H  20.13700 -2.24100 32.52500
H  15.88700 -2.78100 32.47800
H  14.97900 -1.46300 31.84900
H  15.77900 -2.14100 34.54500
H  15.07200 -0.60500 34.16400
H  21.42800 -6.45200 27.99300
H  19.90300 -7.05100 28.61900
H  20.63000 -5.70400 29.43100
H  22.01800 -6.85500 25.40600
H  21.16100 -7.95200 24.30700
H  20.78500 -7.95200 26.12800
H  17.06200 -2.91400 22.01000
H  16.80100 0.00400 22.49900
H  18.87500 -0.78000 22.74800
H  18.63900 -1.25700 21.02800
H  19.35700 -2.38800 22.18600
H  14.08200 -1.14100 22.66000
H  14.85000 -2.02000 21.44200
H  15.57100 0.77400 20.93900
H  13.91000 0.75800 21.54800
H  14.43400 -0.16500 20.08800
H  12.47600 2.38500 26.56000
H  13.62100 2.75800 25.21200
H  13.78800 3.51400 26.83800
H  14.44700 0.91800 31.26100
H  16.86100 2.82900 33.83300
H  15.54500 4.14500 34.07300
H  16.89500 4.27900 32.85700
Mg 47.22100 24.86900 28.66800
C  47.67700 27.09100 31.35300
C  46.26700 22.48200 31.08900
C  47.00900 22.67000 26.13500
C  48.21700 27.29100 26.32800
N  47.02100 24.74100 30.99400
C  47.18800 25.86800 31.84000
C  46.85700 25.45600 33.29000
C  46.49500 23.98600 33.25700
C  46.59800 23.70100 31.71700
C  47.33100 23.07600 34.22600
C  45.69800 26.42900 33.68500
C  45.98800 27.31000 34.98300
H  44.96100 27.36000 36.05900
N  46.65700 22.89400 28.58500
C  46.29800 22.07900 29.69100
C  45.96700 20.80000 29.13300
C  46.06500 20.82200 27.70600
C  46.61200 22.19800 27.38700
C  45.44500 19.69600 29.95400
C  45.68400 19.86900 26.58600
O  45.79100 20.12800 25.41000
C  45.26800 18.45000 26.95300
N  47.65200 24.94600 26.57000
C  47.54700 23.86300 25.76200
C  47.68100 24.17000 24.29500
C  47.82900 25.76200 24.31500
C  47.91500 26.02100 25.81400
C  48.90500 23.48000 23.53800
C  46.68700 26.45800 23.62200
C  45.29100 26.28300 24.22100
N  47.80600 26.76800 28.73900
C  48.19600 27.64500 27.70200
C  48.53500 28.97500 28.31700
C  48.35700 28.76000 29.71200
C  47.97400 27.41100 29.94600
C  48.95600 30.18300 27.59900
C  48.51600 29.35800 31.03300
O  48.94400 30.49000 31.34400
C  47.98600 28.34500 32.07300
C  49.06800 28.07800 33.06400
O  50.00500 27.33700 32.87900
O  48.94400 28.90600 34.15600
C  49.84500 28.77500 35.26100
H  45.78000 21.78800 31.77700
H  46.95700 22.04200 25.24300
H  48.49000 27.98900 25.53300
H  47.75300 25.72300 33.85000
H  45.50700 23.94400 33.71600
H  47.98700 23.51100 34.98000
H  47.94700 22.30600 33.76200
H  46.55000 22.49200 34.71400
H  44.75600 25.91900 33.88300
H  45.41200 27.17200 32.94000
H  46.15800 28.35600 34.72800
H  46.95800 26.96500 35.34200
H  44.45300 19.38300 29.62700
H  45.31800 19.86000 31.02400
H  46.11500 18.84300 29.84200
H  44.75300 18.13200 26.04600
H  44.56900 18.47300 27.78900
H  46.18800 17.89000 27.12000
H  46.74900 23.84700 23.83000
H  48.78800 26.07300 23.90200
H  49.47800 22.83000 24.19800
H  49.52600 24.23400 23.05300
H  48.50800 22.73400 22.85000
H  46.73500 26.24100 22.55500
H  46.91000 27.52000 23.72600
H  45.33600 25.86300 25.22600
H  44.72200 25.50600 23.71100
H  44.73600 27.22100 24.24400
H  48.93000 31.08900 28.20300
H  48.48600 30.30300 26.62300
H  50.02500 30.00600 27.47400
H  47.17100 28.84000 32.60100
H  49.50400 28.03900 35.98800
H  49.91500 29.66600 35.88400
H  50.82700 28.41000 34.96000

