158

Mg 2.02200 -1.75400 44.66800
C  5.38900 -0.98200 44.11900
C  1.15900 0.70300 42.37100
C  -1.00200 -3.17900 44.61300
C  3.25500 -4.85300 46.13600
N  3.20600 -0.29700 43.35500
C  4.57500 -0.22200 43.27900
C  4.88100 0.99100 42.27200
C  3.51500 1.64500 42.00400
C  2.57800 0.64000 42.65100
C  3.35300 3.11900 42.40500
C  5.66300 0.43200 41.05100
C  7.07500 1.02200 40.89000
H  7.58400 1.33300 39.41400
N  0.32000 -1.24300 43.71700
C  0.12700 -0.16600 42.87500
C  -1.30100 -0.06900 42.65000
C  -1.97800 -1.20800 43.33500
C  -0.87100 -1.88700 43.96100
C  -1.82600 1.08200 41.78500
C  -3.40700 -1.41400 43.39100
O  -4.21100 -0.70700 42.73900
C  -4.13200 -2.40400 44.34500
N  1.28400 -3.66800 45.38700
C  -0.03600 -3.99100 45.20500
C  -0.40300 -5.41300 45.69000
C  0.99400 -6.01600 46.06500
C  1.91700 -4.78900 45.91100
C  -1.41600 -5.50100 46.91900
C  1.37600 -7.19500 45.14100
C  2.19000 -8.43700 45.76500
N  3.90000 -2.61400 45.35200
C  4.21800 -3.84200 45.92500
C  5.58300 -3.84800 46.20400
C  6.13500 -2.71100 45.57200
C  5.02300 -2.04700 44.99000
C  6.42500 -4.88000 46.89000
C  7.35900 -2.04700 45.25500
O  8.46200 -2.34300 45.56600
C  6.86700 -0.86800 44.26100
C  7.26100 0.43400 44.98400
O  6.92000 0.76100 46.14200
O  8.05600 1.17600 44.14900
C  8.19500 2.53600 44.60900
H  0.84600 1.51600 41.71300
H  -1.95600 -3.67300 44.41600
H  3.63900 -5.78900 46.54600
H  5.52300 1.49900 42.99200
H  3.32400 1.61100 40.93200
H  3.12000 3.70800 41.51800
H  4.32900 3.38900 42.80800
H  2.57700 3.19800 43.16700
H  5.09000 0.74100 40.17700
H  5.65500 -0.65100 41.17200
H  7.71300 0.23300 41.28900
H  7.23800 1.94800 41.44100
H  -1.19800 1.46200 40.98000
H  -2.11000 1.96700 42.35600
H  -2.75500 0.87700 41.25300
H  -4.19000 -3.33000 43.77300
H  -5.07000 -1.88900 44.55300
H  -3.59600 -2.56800 45.28000
H  -0.93800 -5.87400 44.86000
H  1.07700 -6.27300 47.12100
H  -1.01000 -5.68100 47.91500
H  -2.17600 -6.26700 46.76600
H  -2.00600 -4.59200 47.03100
H  1.81900 -6.81300 44.22200
H  0.37700 -7.57700 44.92700
H  2.52200 -8.21400 46.77900
H  3.09100 -8.69300 45.20800
H  1.47100 -9.25700 45.76700
H  6.50400 -5.66500 46.13800
H  5.81700 -5.25900 47.71100
H  7.39500 -4.49200 47.20100
H  7.36600 -0.98300 43.29900
H  7.21900 3.02200 44.58600
H  8.74500 3.16400 43.90700
H  8.75500 2.69500 45.53000
Mg 45.09900 4.77200 46.31400
C  43.11300 7.58800 46.07500
C  42.26700 2.74000 46.13900
C  47.18800 2.09200 45.54300
C  47.91500 6.79200 45.72800
N  42.89600 5.13600 45.96700
C  42.34800 6.38100 45.97000
C  40.84300 6.31300 45.79100
C  40.56400 4.77000 46.13600
C  41.96000 4.11000 46.16100
C  39.83400 4.60500 47.58400
C  40.09100 6.90400 44.58000
C  41.02800 7.38500 43.39300
H  40.38300 7.48800 41.98400
N  44.78400 2.73500 45.78900
C  43.53000 2.12800 45.83800
C  43.78700 0.71600 45.83500
C  45.14400 0.47300 45.54800
C  45.79200 1.80100 45.57600
C  42.69200 -0.24600 46.14800
C  45.81500 -0.82100 45.17000
O  45.06300 -1.76400 45.27100
C  47.22000 -1.11400 44.67500
N  47.30000 4.46900 45.76400
C  47.88200 3.25600 45.61400
C  49.47400 3.44700 45.61000
C  49.58000 4.93500 45.03400
C  48.18200 5.43100 45.50700
C  50.12800 3.12100 46.99300
C  49.77100 5.00100 43.47000
C  51.22500 5.33700 42.91400
N  45.50500 6.76700 46.13800
C  46.72200 7.46400 46.05100
C  46.42800 8.88300 46.14300
C  45.07400 8.97000 46.25700
C  44.52200 7.67900 46.10600
C  47.23200 10.05600 46.00300
C  43.99700 9.89200 46.47900
O  43.92600 11.07900 46.64400
C  42.70800 9.03900 46.49200
C  41.97500 9.14400 47.77500
O  41.78500 8.31400 48.69300
O  41.34300 10.30400 47.76600
C  40.71400 10.71700 49.01500
H  41.37700 2.12300 46.28100
H  47.86400 1.23700 45.61800
H  48.77500 7.46500 45.70500
H  40.52400 6.94800 46.61800
H  39.98000 4.23000 45.39100
H  39.49000 5.50000 48.10300
H  40.58200 4.11400 48.20600
H  38.94200 3.98100 47.65000
H  39.49600 7.69500 45.03600
H  39.51000 6.06200 44.20500
H  41.89900 6.73100 43.34600
H  41.36900 8.35000 43.76800
H  42.68100 -0.84300 45.23600
H  41.69400 0.16600 46.30000
H  42.94400 -0.90200 46.98100
H  47.31100 -2.10900 44.23900
H  47.80300 -1.08700 45.59600
H  47.38800 -0.29600 43.97400
H  49.96300 2.77600 44.90400
H  50.24600 5.44900 45.72600
H  49.19800 2.91700 47.52400
H  50.60500 3.97400 47.47500
H  50.83800 2.31400 46.81000
H  49.06000 5.70600 43.04000
H  49.51000 4.01600 43.08500
H  51.61900 4.49900 42.34000
H  51.96600 5.56800 43.67900
H  51.27700 6.29700 42.40000
H  47.34200 10.11600 44.92000
H  48.24400 10.03100 46.40600
H  46.67100 10.89600 46.41300
H  42.01900 9.45300 45.75500
H  41.40200 11.04200 49.79600
H  40.15200 9.90300 49.47400
H  39.99900 11.52500 48.86200

