158

Mg 47.23500 25.27000 28.52400
C  47.43800 27.62100 31.19200
C  46.00000 23.01700 30.73600
C  47.50600 22.87500 26.13500
C  48.88400 27.49200 26.45000
N  46.89800 25.39300 30.74400
C  46.92500 26.42000 31.65000
C  46.41300 25.99300 33.02300
C  46.28500 24.38600 32.86400
C  46.41800 24.27500 31.32600
C  47.36100 23.51700 33.57800
C  45.05500 26.74400 33.34200
C  45.00600 27.37000 34.76300
H  43.96300 26.86100 35.78000
N  46.63300 23.28200 28.38200
C  46.07500 22.51600 29.42400
C  45.68700 21.22700 28.89800
C  46.11400 21.23500 27.50000
C  46.80200 22.50300 27.29300
C  44.97100 20.12500 29.73400
C  45.93200 20.16700 26.38500
O  46.38900 20.21500 25.26300
C  44.99800 19.04900 26.60900
N  48.25500 25.08900 26.66500
C  48.13500 24.10500 25.80000
C  48.69400 24.40700 24.38500
C  49.01000 25.87300 24.50600
C  48.69500 26.22100 25.99900
C  49.87000 23.46100 23.96900
C  48.18700 26.76300 23.54000
C  46.66900 26.87800 23.79200
N  48.02900 27.16600 28.68200
C  48.57200 27.98600 27.75300
C  48.59300 29.36300 28.31100
C  48.23200 29.26000 29.66100
C  47.88900 27.86700 29.83100
C  49.16700 30.56800 27.62200
C  48.03700 29.97800 30.91100
O  48.24700 31.16600 31.15900
C  47.54100 28.89600 31.92400
C  48.58400 28.79300 32.94700
O  49.65000 28.21500 32.82100
O  48.24400 29.32700 34.21900
C  49.09800 29.00500 35.35000
H  45.63000 22.25100 31.42100
H  47.74600 22.04800 25.46500
H  49.18100 28.30600 25.78600
H  47.17200 26.31200 33.73700
H  45.27700 24.12000 33.18200
H  47.94700 23.05400 32.78300
H  46.80100 22.79000 34.16500
H  48.03200 24.03800 34.26100
H  44.20100 26.06700 33.32300
H  44.83200 27.50300 32.59200
H  44.66300 28.40000 34.66200
H  46.00600 27.43900 35.19300
H  45.71700 19.35400 29.92600
H  44.03800 19.83500 29.25100
H  44.66000 20.44400 30.72900
H  45.12800 18.45200 27.51200
H  45.08700 18.52700 25.65700
H  43.94600 19.31700 26.71000
H  47.93100 24.19200 23.63600
H  50.08200 26.01900 24.37600
H  49.91100 22.62800 24.67100
H  50.88900 23.84300 24.00900
H  49.69100 23.07600 22.96500
H  48.35400 26.24200 22.59700
H  48.56200 27.78500 23.59400
H  46.09400 26.69800 22.88300
H  46.35100 27.90700 23.96200
H  46.39900 26.17100 24.57600
H  50.02600 30.15800 27.09100
H  49.55000 31.25300 28.37900
H  48.42500 30.99500 26.94800
H  46.56800 29.20500 32.30600
H  50.11200 28.76000 35.03400
H  48.67200 28.13900 35.85600
H  49.09700 29.86700 36.01700
Mg -10.35400 17.17300 43.48800
C  -6.84200 16.86000 43.10700
C  -10.11900 20.43100 42.36600
C  -13.63500 17.18300 43.15700
C  -10.43900 13.62300 43.83200
N  -8.57400 18.45500 42.71300
C  -7.27800 18.17600 42.73400
C  -6.39800 19.48800 42.35600
C  -7.52400 20.59900 42.45000
C  -8.82500 19.81100 42.47000
C  -7.28400 21.61500 43.60900
C  -5.57300 19.20900 40.97800
C  -5.94100 20.05900 39.76100
H  -5.52500 19.52500 38.46000
N  -11.69300 18.55800 42.97600
C  -11.40700 19.85200 42.51800
C  -12.63500 20.57500 42.24900
C  -13.67800 19.70200 42.55500
C  -13.04000 18.36700 42.92200
C  -12.70800 22.03000 41.86500
C  -15.15300 20.05600 42.52700
O  -15.49900 21.22800 42.31700
C  -16.23600 19.07400 42.80200
N  -11.86200 15.64700 43.48700
C  -13.12300 15.95500 43.38400
C  -13.99500 14.76800 43.77600
C  -13.04800 13.55600 43.71200
C  -11.67400 14.31200 43.64000
C  -14.90900 14.90300 44.98000
C  -13.24200 12.67300 42.45100
C  -13.59900 11.20800 42.76900
N  -8.93200 15.46500 43.59300
C  -9.09400 14.15300 43.73800
C  -7.84200 13.45900 43.68500
C  -6.92600 14.50900 43.48100
C  -7.61600 15.70700 43.38700
C  -7.57000 12.01000 43.77600
C  -5.50600 14.79900 43.29500
O  -4.54200 14.07300 43.17800
C  -5.44500 16.37000 43.13100
C  -4.62600 16.97300 44.29700
O  -3.37600 16.85000 44.35700
O  -5.37700 17.51300 45.27500
C  -4.74800 17.79500 46.57600
H  -10.11400 21.51300 42.21500
H  -14.72400 17.16600 43.07500
H  -10.44500 12.53800 43.95500
H  -5.71700 19.68900 43.18300
H  -7.56000 21.27000 41.59200
H  -8.03400 21.44300 44.38200
H  -7.47900 22.58500 43.15200
H  -6.32800 21.56700 44.12900
H  -5.71700 18.16600 40.69700
H  -4.51800 19.34500 41.21700
H  -5.63000 21.07200 40.01700
H  -7.02800 20.06600 39.84000
H  -13.49400 22.14000 41.11800
H  -11.79200 22.36300 41.37800
H  -13.00700 22.71100 42.66200
H  -16.26700 18.78300 43.85200
H  -16.04100 18.27700 42.08500
H  -17.20600 19.45700 42.48500
H  -14.72900 14.63900 42.98100
H  -13.14900 13.08000 44.68700
H  -14.93500 14.12200 45.74000
H  -15.95100 15.00800 44.67700
H  -14.61800 15.83200 45.46900
H  -12.38500 12.66200 41.77700
H  -14.05700 13.03900 41.82600
H  -14.51700 10.97000 42.23100
H  -13.56400 11.02000 43.84200
H  -12.86100 10.57700 42.27400
H  -6.97200 11.66400 44.61900
H  -7.02300 11.67000 42.89600
H  -8.52300 11.48300 43.72600
H  -4.83000 16.57800 42.25500
H  -5.30900 17.78500 47.51100
H  -4.18200 18.70500 46.38000
H  -4.00700 17.01500 46.74900

