158

Mg 9.14600 47.49500 25.34300
C  7.13300 47.43700 28.50400
C  11.74000 48.34300 27.19200
C  10.89300 47.51400 22.52000
C  6.11300 47.44500 23.55900
N  9.29300 47.85500 27.57500
C  8.41500 47.76400 28.71300
C  9.14000 48.08300 30.02500
C  10.48800 48.80300 29.44900
C  10.53300 48.25800 27.96300
C  10.46000 50.35900 29.46700
C  9.39000 46.82400 30.95900
C  9.07100 47.22800 32.44000
H  8.72700 46.16500 33.50200
N  11.11800 47.77600 24.92100
C  12.06700 48.12800 25.83400
C  13.35900 48.22800 25.12900
C  13.17100 47.87800 23.79800
C  11.69700 47.69700 23.71100
C  14.61700 48.58900 25.86500
C  14.12500 47.66600 22.60800
O  13.59800 47.47800 21.48200
C  15.59800 47.58500 22.84400
N  8.60200 47.65900 23.39900
C  9.52400 47.56000 22.35000
C  8.86200 47.61600 20.93500
C  7.37900 47.39900 21.24900
C  7.35300 47.46500 22.83500
C  9.16400 48.92200 20.14000
C  6.67300 46.12900 20.57600
C  5.24700 46.52600 20.08800
N  7.06100 47.47200 25.86800
C  5.99300 47.47300 25.00700
C  4.70400 47.42200 25.76500
C  5.15300 47.29300 27.15600
C  6.55900 47.34900 27.16100
C  3.31500 47.49300 25.25200
C  4.71300 47.15200 28.51400
O  3.63000 46.84100 28.96600
C  5.99500 47.23400 29.41800
C  6.04800 45.90300 30.22800
O  6.42400 44.83400 29.75500
O  5.63700 46.16500 31.46300
C  5.52800 45.04400 32.42200
H  12.57200 48.53400 27.87400
H  11.32800 47.27600 21.54800
H  5.13100 47.39200 23.08500
H  8.46100 48.75900 30.54400
H  11.37100 48.46600 29.99100
H  10.55500 50.74100 28.45000
H  11.23200 50.72000 30.14700
H  9.67100 50.90900 29.98000
H  10.35600 46.32000 30.98300
H  8.79100 45.91700 30.87200
H  8.27600 47.96800 32.53400
H  9.80900 47.98500 32.70700
H  15.29900 47.74200 25.79500
H  14.43200 48.70200 26.93300
H  14.98500 49.56000 25.53500
H  15.67500 48.50700 23.42000
H  16.09800 47.71500 21.88400
H  15.88000 46.72100 23.44500
H  9.33700 46.76500 20.44600
H  6.84300 48.29800 20.94500
H  9.92200 48.75700 19.37500
H  9.64900 49.63200 20.81100
H  8.26500 49.18900 19.58300
H  6.47700 45.35100 21.31300
H  7.10800 45.72600 19.66200
H  5.23500 46.22900 19.03900
H  5.07100 47.60100 20.12900
H  4.43200 45.97700 20.55900
H  3.08000 46.47600 24.93700
H  3.44400 48.27700 24.50500
H  2.74700 47.95000 26.06200
H  6.03000 48.03100 30.16100
H  5.84800 44.04700 32.11900
H  4.49000 45.01600 32.75400
H  6.11500 45.29700 33.30500
Mg -10.35400 17.17300 43.48800
C  -6.84200 16.86000 43.10700
C  -10.11900 20.43100 42.36600
C  -13.63500 17.18300 43.15700
C  -10.43900 13.62300 43.83200
N  -8.57400 18.45500 42.71300
C  -7.27800 18.17600 42.73400
C  -6.39800 19.48800 42.35600
C  -7.52400 20.59900 42.45000
C  -8.82500 19.81100 42.47000
C  -7.28400 21.61500 43.60900
C  -5.57300 19.20900 40.97800
C  -5.94100 20.05900 39.76100
H  -5.52500 19.52500 38.46000
N  -11.69300 18.55800 42.97600
C  -11.40700 19.85200 42.51800
C  -12.63500 20.57500 42.24900
C  -13.67800 19.70200 42.55500
C  -13.04000 18.36700 42.92200
C  -12.70800 22.03000 41.86500
C  -15.15300 20.05600 42.52700
O  -15.49900 21.22800 42.31700
C  -16.23600 19.07400 42.80200
N  -11.86200 15.64700 43.48700
C  -13.12300 15.95500 43.38400
C  -13.99500 14.76800 43.77600
C  -13.04800 13.55600 43.71200
C  -11.67400 14.31200 43.64000
C  -14.90900 14.90300 44.98000
C  -13.24200 12.67300 42.45100
C  -13.59900 11.20800 42.76900
N  -8.93200 15.46500 43.59300
C  -9.09400 14.15300 43.73800
C  -7.84200 13.45900 43.68500
C  -6.92600 14.50900 43.48100
C  -7.61600 15.70700 43.38700
C  -7.57000 12.01000 43.77600
C  -5.50600 14.79900 43.29500
O  -4.54200 14.07300 43.17800
C  -5.44500 16.37000 43.13100
C  -4.62600 16.97300 44.29700
O  -3.37600 16.85000 44.35700
O  -5.37700 17.51300 45.27500
C  -4.74800 17.79500 46.57600
H  -10.11400 21.51300 42.21500
H  -14.72400 17.16600 43.07500
H  -10.44500 12.53800 43.95500
H  -5.71700 19.68900 43.18300
H  -7.56000 21.27000 41.59200
H  -8.03400 21.44300 44.38200
H  -7.47900 22.58500 43.15200
H  -6.32800 21.56700 44.12900
H  -5.71700 18.16600 40.69700
H  -4.51800 19.34500 41.21700
H  -5.63000 21.07200 40.01700
H  -7.02800 20.06600 39.84000
H  -13.49400 22.14000 41.11800
H  -11.79200 22.36300 41.37800
H  -13.00700 22.71100 42.66200
H  -16.26700 18.78300 43.85200
H  -16.04100 18.27700 42.08500
H  -17.20600 19.45700 42.48500
H  -14.72900 14.63900 42.98100
H  -13.14900 13.08000 44.68700
H  -14.93500 14.12200 45.74000
H  -15.95100 15.00800 44.67700
H  -14.61800 15.83200 45.46900
H  -12.38500 12.66200 41.77700
H  -14.05700 13.03900 41.82600
H  -14.51700 10.97000 42.23100
H  -13.56400 11.02000 43.84200
H  -12.86100 10.57700 42.27400
H  -6.97200 11.66400 44.61900
H  -7.02300 11.67000 42.89600
H  -8.52300 11.48300 43.72600
H  -4.83000 16.57800 42.25500
H  -5.30900 17.78500 47.51100
H  -4.18200 18.70500 46.38000
H  -4.00700 17.01500 46.74900

