158

Mg 41.31800 7.77500 30.37100
C  43.08100 9.36800 33.00900
C  39.05400 6.48000 32.63400
C  39.71900 6.03100 27.88400
C  43.59800 8.88400 28.05800
N  41.21900 7.88700 32.55400
C  41.97200 8.57500 33.48000
C  41.54300 8.40400 34.89600
C  40.40300 7.30600 34.66500
C  40.20700 7.18500 33.19100
C  40.50600 5.93800 35.44800
C  41.00400 9.74900 35.33500
C  41.61500 10.41500 36.58500
H  40.69800 10.80800 37.76400
N  39.58900 6.53600 30.21400
C  38.77300 6.14800 31.27700
C  37.63000 5.33600 30.71500
C  37.82500 5.34600 29.32600
C  39.07900 5.96800 29.10100
C  36.50000 4.72500 31.49700
C  36.86400 4.68400 28.31500
O  37.27100 4.54900 27.16300
C  35.41800 4.25400 28.62000
N  41.68300 7.38000 28.28200
C  40.91200 6.60800 27.48300
C  41.45400 6.53300 25.99900
C  42.53700 7.70800 26.04300
C  42.63700 8.02100 27.58300
C  41.90100 5.17700 25.55300
C  42.27300 8.92500 25.09800
C  41.09700 9.82800 25.41200
N  43.02500 8.86200 30.42400
C  43.86500 9.23800 29.40200
C  44.92100 10.09700 29.96100
C  44.60300 10.17100 31.35100
C  43.52200 9.37700 31.59000
C  46.07600 10.70000 29.21100
C  45.10000 10.73100 32.59400
O  46.05800 11.49500 32.79800
C  44.07400 10.29900 33.67600
C  44.98200 9.47200 34.58800
O  45.58400 8.46300 34.26400
O  45.08600 10.00000 35.79100
C  45.99700 9.37500 36.78800
H  38.31000 6.01600 33.28400
H  39.29900 5.42900 27.07500
H  44.20800 9.31800 27.26300
H  42.39700 7.96000 35.40700
H  39.47300 7.82900 34.88900
H  40.33300 5.10800 34.76300
H  39.67700 5.90700 36.15600
H  41.44900 5.78000 35.97100
H  39.94500 9.68400 35.58900
H  41.05400 10.53800 34.58500
H  41.97200 11.40300 36.29200
H  42.55400 9.90300 36.79700
H  35.58600 5.31500 31.42500
H  36.68400 4.83900 32.56500
H  36.55400 3.65500 31.30100
H  35.29600 3.52600 29.42200
H  34.99300 3.89200 27.68400
H  34.89600 5.17400 28.88600
H  40.61200 6.76600 25.34700
H  43.52200 7.31500 25.79300
H  42.80300 4.84200 26.06500
H  42.08100 5.20400 24.47800
H  41.21800 4.33600 25.67400
H  42.11300 8.41100 24.15000
H  43.19600 9.50200 25.03900
H  40.67500 9.59500 26.39000
H  40.31200 9.71000 24.66500
H  41.36700 10.87600 25.54500
H  46.20000 11.75900 29.43900
H  45.93200 10.52100 28.14600
H  47.05500 10.31800 29.50300
H  43.72100 11.18800 34.19900
H  46.05100 8.28700 36.83800
H  45.68000 9.63600 37.79700
H  47.03100 9.66400 36.60000
Mg 15.95700 53.27600 24.99300
C  17.45900 51.96000 27.79900
C  13.34500 54.34400 26.89500
C  14.42600 54.21300 22.14300
C  18.34500 51.45000 23.11100
N  15.43300 53.01400 27.06500
C  16.24900 52.70100 28.08300
C  15.70700 53.11900 29.42500
C  14.21400 53.58200 29.09200
C  14.25400 53.57500 27.54800
C  13.12400 52.49700 29.60600
C  16.64900 54.21200 30.06000
C  16.98800 53.99800 31.53200
H  16.03500 53.22000 32.46000
N  14.19100 54.37500 24.63400
C  13.25500 54.73700 25.55000
C  12.20900 55.41400 24.84900
C  12.54400 55.39500 23.47000
C  13.79900 54.65800 23.33000
C  11.00800 55.92900 25.63000
C  11.78900 55.88500 22.24700
O  12.16500 55.77400 21.06700
C  10.45200 56.46700 22.42800
N  16.28800 52.82000 22.90800
C  15.48100 53.30200 21.92500
C  16.12100 53.03900 20.55100
C  17.46700 52.20500 20.88800
C  17.40700 52.21600 22.39200
C  15.26900 52.31500 19.48200
C  18.77900 52.83900 20.22700
C  19.30100 52.18800 18.93200
N  17.48400 51.97500 25.33200
C  18.43100 51.39500 24.51400
C  19.40100 50.67100 25.17200
C  19.08600 50.95500 26.50100
C  17.85700 51.65100 26.52900
C  20.51400 49.82900 24.57500
C  19.58600 50.79400 27.80300
O  20.68800 50.36200 28.13600
C  18.50900 51.40800 28.77800
C  18.09300 50.42800 29.72400
O  17.14000 49.62500 29.54600
O  18.91000 50.59000 30.84900
C  18.43600 49.88200 32.03500
H  12.63000 54.78100 27.59500
H  14.00400 54.50700 21.18000
H  19.07800 50.92700 22.49400
H  15.59000 52.21700 30.02600
H  13.93600 54.55500 29.49700
H  12.62500 52.68200 30.55700
H  13.53200 51.49200 29.71700
H  12.42200 52.56600 28.77500
H  16.24300 55.22300 30.05600
H  17.61500 54.23900 29.55400
H  17.21000 54.99200 31.92100
H  17.99000 53.57100 31.56600
H  10.27700 55.13100 25.76300
H  10.53700 56.73900 25.07300
H  11.27500 56.37900 26.58500
H  10.12000 56.66400 21.40900
H  10.55400 57.42700 22.93500
H  9.66200 55.89900 22.92000
H  16.45500 54.01600 20.20100
H  17.26200 51.17600 20.59500
H  15.75100 51.71800 18.70800
H  14.96400 53.18500 18.89900
H  14.42800 51.81100 19.95900
H  19.54500 52.89900 20.99900
H  18.54300 53.85300 19.90500
H  18.57600 51.55500 18.42000
H  20.12500 51.55500 19.26300
H  19.63600 52.94800 18.22600
H  20.32800 49.31500 23.63200
H  20.46600 49.13200 25.41100
H  21.41000 50.44200 24.48000
H  18.98400 52.19600 29.36300
H  18.68900 48.83300 31.88000
H  17.36800 49.87600 32.25200
H  18.91200 50.29900 32.92200

