158

Mg 54.66700 23.49200 44.13700
C  52.37800 26.12600 43.43200
C  52.40000 21.39700 42.94100
C  57.15400 21.08400 43.97400
C  57.16900 25.85500 44.87200
N  52.51700 23.80000 43.57400
C  51.85400 24.89300 43.15100
C  50.40200 24.60600 42.80300
C  50.44000 23.03900 42.74600
C  51.86700 22.64800 43.11800
C  49.44100 22.41600 43.74400
C  49.78000 25.42000 41.62800
C  48.60000 24.76000 40.85500
H  48.84000 24.18200 39.48400
N  54.75900 21.48500 43.62100
C  53.69600 20.77200 43.11900
C  54.09100 19.42500 42.75500
C  55.45600 19.33800 42.95800
C  55.85700 20.70400 43.54600
C  53.09200 18.45400 42.12100
C  56.31300 18.10700 42.69400
O  55.84600 17.11500 42.11300
C  57.70700 17.99100 43.14400
N  56.82800 23.49800 44.47600
C  57.61800 22.35500 44.43800
C  59.04400 22.69100 44.91900
C  59.14200 24.22600 44.90500
C  57.63500 24.57300 44.73100
C  59.59300 22.02500 46.24900
C  60.08200 24.81200 43.82200
C  60.74300 26.17700 44.09400
N  54.77000 25.52000 44.28500
C  55.89600 26.34600 44.71700
C  55.43300 27.70700 44.71100
C  54.06800 27.66800 44.24700
C  53.70500 26.33700 44.00200
C  56.20900 28.98700 44.98900
C  52.90400 28.50300 43.95600
O  52.69200 29.65300 44.09200
C  51.85600 27.53500 43.32500
C  51.65500 27.91800 41.97700
O  52.26800 27.51800 40.97800
O  50.55700 28.72900 41.96200
C  50.06600 29.01500 40.64100
H  51.58100 20.76700 42.58900
H  57.99100 20.38800 44.05800
H  57.83900 26.70800 45.00100
H  49.83800 24.96200 43.66500
H  50.19700 22.67500 41.74800
H  49.95400 21.84600 44.51800
H  48.65700 21.80100 43.30300
H  48.89900 23.17800 44.30400
H  50.60400 25.55300 40.92700
H  49.61900 26.41500 42.04300
H  47.84000 25.52100 40.68000
H  48.07800 24.08000 41.52900
H  52.99600 18.87700 41.12200
H  52.16400 18.70000 42.63800
H  53.31800 17.38800 42.08400
H  58.23600 18.85300 42.73600
H  58.20800 17.11100 42.74100
H  57.83000 17.91800 44.22400
H  59.70500 22.32700 44.13300
H  59.50900 24.60900 45.85700
H  60.22600 21.18400 45.96400
H  58.73800 21.60800 46.78000
H  60.23600 22.76500 46.72600
H  59.47500 24.91300 42.92300
H  60.88900 24.08400 43.73300
H  60.09400 27.05100 44.04500
H  61.44000 26.44700 43.30100
H  61.24200 26.14200 45.06300
H  56.06300 29.71100 44.18800
H  57.28500 28.88900 45.13500
H  55.81400 29.56800 45.82300
H  50.89900 27.53700 43.84500
H  50.93900 29.18200 40.01000
H  49.30300 29.78800 40.54400
H  49.58100 28.14600 40.19700
Mg -9.83300 16.84800 40.96700
C  -6.29900 16.61000 41.07000
C  -9.42900 20.22800 40.21600
C  -13.05800 16.97100 39.94200
C  -10.03800 13.49800 41.40200
N  -8.10500 18.21400 40.53300
C  -6.81500 17.85000 40.65300
C  -5.90600 19.02100 40.28800
C  -6.90600 20.23100 40.53800
C  -8.25700 19.50800 40.50100
C  -6.56200 21.15300 41.83200
C  -5.37500 19.06600 38.81500
C  -3.76700 18.85600 38.62000
H  -3.37300 17.57600 37.98700
N  -11.12900 18.44000 40.23500
C  -10.75600 19.69200 39.97600
C  -11.85500 20.44900 39.55200
C  -12.95800 19.55400 39.53900
C  -12.43400 18.26600 39.93700
C  -11.76300 21.95000 39.29500
C  -14.32200 19.92500 38.97200
O  -14.67100 21.06200 38.77300
C  -15.39500 18.90100 38.73000
N  -11.26800 15.31400 40.27500
C  -12.51900 15.69200 40.16700
C  -13.52900 14.59200 40.58400
C  -12.51900 13.38500 40.87400
C  -11.23500 14.11700 40.89800
C  -14.44000 14.93300 41.77600
C  -12.37200 12.21600 39.87200
C  -12.92600 10.89800 40.30000
N  -8.50600 15.30000 41.16000
C  -8.71600 13.94000 41.36700
C  -7.46900 13.28400 41.65100
C  -6.50600 14.28100 41.53300
C  -7.16100 15.51000 41.26200
C  -7.35300 11.84000 42.03500
C  -5.07500 14.54100 41.69100
O  -4.22300 13.80200 42.08900
C  -4.91500 16.17300 41.41700
C  -4.54100 16.74000 42.75900
O  -5.25600 17.02100 43.69500
O  -3.18300 16.75600 42.70700
C  -2.54800 17.20500 43.82500
H  -9.14300 21.28100 40.25500
H  -14.14500 17.03600 40.02700
H  -10.13000 12.46300 41.73900
H  -5.04500 19.11900 40.94800
H  -6.92300 20.91100 39.68700
H  -6.64900 22.22900 41.68000
H  -5.55300 20.98100 42.20700
H  -7.31700 20.93100 42.58700
H  -5.50400 20.05000 38.36300
H  -5.90800 18.32600 38.21800
H  -3.25200 18.88400 39.58000
H  -3.28400 19.67500 38.08700
H  -12.11500 22.53100 40.14800
H  -12.36400 22.21000 38.42400
H  -10.70700 22.21500 39.23200
H  -16.26700 19.35200 38.25700
H  -15.71200 18.50700 39.69600
H  -15.03100 18.06300 38.13500
H  -14.12900 14.36900 39.70200
H  -12.57800 13.06400 41.91400
H  -14.22000 14.48400 42.74400
H  -15.43800 14.56300 41.54100
H  -14.40900 16.01700 41.88800
H  -11.33600 11.93600 39.68300
H  -12.86400 12.40100 38.91800
H  -13.01800 10.84700 41.38500
H  -12.17700 10.13100 40.10300
H  -13.83600 10.59000 39.78500
H  -8.35400 11.41200 42.07800
H  -6.72200 11.63300 42.89900
H  -6.91000 11.41500 41.13400
H  -4.31100 16.37500 40.53200
H  -2.96300 16.67700 44.68300
H  -2.83100 18.24700 43.97000
H  -1.46400 17.11800 43.74300

