158

Mg 24.58300 -6.76500 48.44000
C  26.89100 -4.61900 47.07400
C  22.10600 -5.35200 46.16200
C  22.68200 -9.43900 48.89800
C  27.24300 -8.19800 50.38100
N  24.55900 -5.24500 46.77100
C  25.63400 -4.49500 46.39000
C  25.27100 -3.45200 45.33600
C  23.69700 -3.46300 45.42000
C  23.39400 -4.72500 46.21700
C  23.07500 -2.15800 45.92200
C  25.90100 -3.80700 43.93100
C  26.23200 -2.62100 42.98100
H  25.47900 -2.57000 41.64700
N  22.54900 -7.21300 47.77900
C  21.74000 -6.52900 46.88700
C  20.47000 -7.32800 46.78600
C  20.61100 -8.52500 47.56800
C  22.01300 -8.46700 48.09400
C  19.29100 -6.88200 45.91700
C  19.44300 -9.62400 47.75600
O  18.33100 -9.29100 47.33300
C  19.64300 -10.95400 48.48900
N  25.02300 -8.63700 49.39400
C  23.95300 -9.45500 49.49600
C  24.27400 -10.58300 50.58900
C  25.67500 -10.20100 51.13700
C  26.00300 -8.93700 50.27600
C  23.13400 -10.76400 51.69000
C  26.82600 -11.28800 50.83100
C  27.92800 -11.30700 51.86300
N  26.63300 -6.42700 48.76600
C  27.56400 -7.04600 49.54800
C  28.82500 -6.26100 49.50200
C  28.59600 -5.27100 48.54700
C  27.23800 -5.42000 48.16900
C  30.00600 -6.55600 50.33400
C  29.22800 -4.23000 47.79300
O  30.39000 -3.80300 47.65700
C  28.13200 -3.70300 46.89300
C  27.91900 -2.34700 47.40200
O  27.27600 -2.09200 48.38100
O  28.35900 -1.36800 46.48600
C  27.94700 0.00900 46.67900
H  21.32700 -4.82800 45.60500
H  22.10000 -10.33200 49.13800
H  28.05100 -8.69800 50.91800
H  25.59600 -2.44600 45.60200
H  23.23400 -3.67700 44.45600
H  23.28500 -1.96900 46.97500
H  21.99200 -2.07100 45.83400
H  23.53100 -1.45700 45.22200
H  25.25900 -4.51900 43.41200
H  26.74300 -4.47800 44.09900
H  27.30500 -2.73100 42.81900
H  26.19600 -1.65400 43.48300
H  19.48800 -5.89500 45.49900
H  18.39400 -6.73900 46.52000
H  19.09100 -7.66300 45.18300
H  20.51200 -11.42500 48.02900
H  18.79400 -11.63000 48.39000
H  19.87100 -10.80300 49.54400
H  24.44400 -11.45300 49.95500
H  25.55500 -9.83000 52.15500
H  23.68100 -11.25000 52.49800
H  22.35700 -11.40500 51.27500
H  22.63100 -9.84800 51.99900
H  27.38200 -11.09300 49.91400
H  26.35400 -12.26700 50.73900
H  27.93600 -12.31400 52.27800
H  27.82900 -10.48200 52.56900
H  28.86700 -11.13500 51.33800
H  30.44200 -7.53000 50.11300
H  29.76300 -6.51600 51.39500
H  30.76500 -5.79100 50.16500
H  28.46500 -3.65800 45.85600
H  27.38300 0.25000 47.57900
H  27.19400 0.22600 45.92100
H  28.73000 0.75700 46.55600
Mg 29.74500 58.45800 39.69500
C  26.94900 56.44000 38.84500
C  31.75100 55.80100 38.66200
C  32.31600 60.49400 39.63300
C  27.52400 61.20800 39.84800
N  29.38600 56.50000 38.72700
C  28.20300 55.85300 38.52300
C  28.33400 54.42100 38.04900
C  29.75900 54.10800 38.54500
C  30.39800 55.58300 38.65500
C  29.90700 53.28600 39.82500
C  27.96700 54.09700 36.57400
C  26.66000 53.42900 36.33600
H  26.29300 53.14000 34.84500
N  31.76700 58.14100 39.36000
C  32.41300 56.97700 39.00700
C  33.83600 57.28500 38.88200
C  34.08700 58.62000 39.24200
C  32.69200 59.16400 39.46600
C  34.88500 56.32200 38.35200
C  35.42200 59.31500 39.32800
O  36.41700 58.64500 39.02600
C  35.56400 60.78800 39.63600
N  29.87400 60.58600 39.59700
C  31.05000 61.18100 39.76100
C  30.95000 62.69600 39.98000
C  29.40200 62.90900 39.73700
C  28.88300 61.45200 39.74000
C  31.40700 63.12000 41.40900
C  29.05100 63.54200 38.37300
C  27.84500 64.51500 38.35700
N  27.63900 58.75000 39.66300
C  26.88500 59.91100 39.74700
C  25.50200 59.54700 39.70200
C  25.49300 58.19800 39.33600
C  26.82500 57.78400 39.26800
C  24.43200 60.44600 40.15400
C  24.63200 57.09400 39.11800
O  23.43900 57.05800 39.16100
C  25.56400 55.91900 38.75900
C  25.25700 54.83400 39.58100
O  25.93400 54.55300 40.55500
O  24.11600 54.18500 38.98800
C  23.81200 52.99700 39.80400
H  32.37300 54.98400 38.28900
H  33.12300 61.23000 39.64600
H  26.77300 62.00100 39.85100
H  27.64200 53.79400 38.61000
H  30.25400 53.60100 37.71600
H  30.48600 53.89200 40.52200
H  30.42700 52.36500 39.56300
H  28.96500 53.04300 40.31700
H  28.71700 53.49000 36.06600
H  27.95600 55.03900 36.02700
H  25.80000 53.99500 36.69400
H  26.59000 52.47100 36.84900
H  35.55100 56.67700 37.56600
H  34.43800 55.38900 38.00900
H  35.50100 55.97500 39.18200
H  36.62900 60.98200 39.50600
H  35.31300 60.80000 40.69700
H  35.06800 61.42300 38.90200
H  31.45100 63.16800 39.13400
H  28.87500 63.40300 40.55400
H  30.57300 63.54400 41.96800
H  32.12300 63.93100 41.27100
H  31.84600 62.30200 41.98000
H  28.71100 62.80000 37.65100
H  29.93000 64.02500 37.94600
H  27.12400 64.20800 37.60000
H  28.22100 65.47500 38.00100
H  27.40700 64.59800 39.35100
H  24.57600 60.98000 41.09300
H  23.56300 59.79600 40.25500
H  24.19100 60.99000 39.24000
H  25.28700 55.73400 37.72100
H  23.23000 53.32300 40.66600
H  24.66200 52.34600 40.01100
H  23.23400 52.41500 39.08700

