158

Mg 24.73600 -8.42500 47.39100
C  27.17000 -6.16800 46.40600
C  22.78200 -7.42700 44.78600
C  22.68300 -11.02500 48.05000
C  27.19700 -9.81500 49.58000
N  24.89900 -6.89800 45.81500
C  26.02900 -6.15700 45.56400
C  25.82700 -5.19300 44.38700
C  24.28100 -5.38400 44.13000
C  23.97300 -6.65000 44.94800
C  23.45600 -4.07100 44.47500
C  26.66900 -5.66700 43.17700
C  27.48700 -4.59200 42.34300
H  26.99000 -4.32700 40.94400
N  22.88500 -9.05100 46.61000
C  22.25100 -8.50000 45.53000
C  21.02300 -9.20200 45.27000
C  20.99200 -10.28800 46.19500
C  22.20400 -10.15700 47.05900
C  20.06000 -8.79200 44.17500
C  19.92000 -11.35700 46.15300
O  19.01400 -11.41400 45.32300
C  19.75300 -12.26100 47.39100
N  24.96500 -10.23400 48.57300
C  23.87000 -10.97100 48.83100
C  24.27100 -12.12400 49.79400
C  25.63100 -11.65900 50.45000
C  26.00800 -10.52100 49.48800
C  23.18400 -12.67000 50.77100
C  26.69700 -12.75100 50.56500
C  27.45200 -12.85100 51.91300
N  26.76100 -8.10000 47.93600
C  27.58200 -8.72800 48.82900
C  28.90900 -8.04500 48.90500
C  28.77200 -6.99700 47.96200
C  27.44300 -7.09200 47.42600
C  30.02400 -8.37600 49.69600
C  29.43200 -5.95700 47.23600
O  30.62700 -5.66700 47.23300
C  28.45700 -5.32300 46.27300
C  28.12700 -3.90400 46.51700
O  27.50400 -3.57900 47.50600
O  28.68100 -3.10800 45.51700
C  28.12300 -1.77700 45.48700
H  22.17400 -7.01600 43.97700
H  21.99400 -11.84000 48.28100
H  27.93500 -10.25000 50.25600
H  26.05100 -4.19600 44.76500
H  24.10800 -5.56700 43.07000
H  22.82800 -4.28400 45.34000
H  22.87700 -3.75500 43.60800
H  24.03900 -3.21300 44.81000
H  26.08300 -6.13800 42.38700
H  27.34100 -6.48300 43.44400
H  28.54700 -4.79200 42.50100
H  27.27800 -3.72200 42.96500
H  19.18200 -9.40400 43.97000
H  20.56600 -8.68400 43.21600
H  19.73200 -7.80300 44.49200
H  20.39800 -13.13700 47.32500
H  18.70000 -12.53900 47.44500
H  19.98700 -11.67400 48.27900
H  24.50000 -12.97900 49.16000
H  25.43300 -11.20700 51.42200
H  22.20800 -12.32800 50.42700
H  23.41200 -12.05900 51.64500
H  23.25500 -13.71500 51.07400
H  27.36100 -12.75900 49.70100
H  26.17500 -13.70800 50.55100
H  28.51200 -12.99700 51.70500
H  27.06000 -13.66200 52.52600
H  27.28400 -11.93800 52.48300
H  30.64200 -9.17600 49.28900
H  29.74900 -8.65900 50.71300
H  30.58600 -7.44300 49.73400
H  28.94400 -5.38300 45.29900
H  27.14000 -1.88300 45.94500
H  28.12300 -1.34500 44.48600
H  28.65900 -1.05900 46.10800
Mg 0.10900 43.44600 25.34700
C  2.41300 43.00000 27.90000
C  -2.43500 42.58400 27.46700
C  -2.08400 43.71000 22.83000
C  2.80400 43.65500 23.09800
N  0.03400 42.83900 27.48000
C  1.05400 42.86800 28.37000
C  0.47100 42.78200 29.84800
C  -0.96000 42.22400 29.54900
C  -1.16500 42.55200 28.06800
C  -1.21000 40.69100 29.96500
C  0.56100 44.18600 30.52900
C  0.50000 44.13000 32.09900
H  0.39000 42.76900 32.67800
N  -2.03100 43.31600 25.16100
C  -2.85700 42.93100 26.13800
C  -4.19500 42.95500 25.65700
C  -4.14700 43.42300 24.32500
C  -2.73000 43.55100 24.05900
C  -5.41000 42.71300 26.50500
C  -5.20500 43.93200 23.33200
O  -4.84500 44.48400 22.25700
C  -6.72500 43.81500 23.65300
N  0.35200 43.70000 23.26500
C  -0.74300 43.73200 22.43100
C  -0.26600 43.67200 20.94600
C  1.26500 43.98500 21.10400
C  1.51900 43.73800 22.56900
C  -0.57700 42.28800 20.24200
C  1.68300 45.33600 20.54700
C  1.09800 46.56200 21.13800
N  2.26000 43.27400 25.37500
C  3.18100 43.39500 24.41800
C  4.59100 43.37100 25.03700
C  4.27300 43.13100 26.37700
C  2.87300 43.09900 26.56200
C  5.87400 43.54600 24.34200
C  4.91500 42.92300 27.69700
O  6.06900 42.92700 28.04400
C  3.70400 42.81300 28.76000
C  3.79100 41.57000 29.50000
O  3.36800 40.51400 29.05200
O  4.36000 41.74700 30.77000
C  4.29200 40.61300 31.68600
H  -3.29100 42.34700 28.10200
H  -2.72200 43.66300 21.94500
H  3.57700 43.85400 22.35400
H  1.12700 42.06700 30.34400
H  -1.63900 42.79400 30.18400
H  -1.11500 39.87900 29.24500
H  -2.07500 40.71000 30.62700
H  -0.36900 40.45300 30.61600
H  -0.30500 44.74300 30.17300
H  1.50900 44.64200 30.24300
H  -0.31800 44.73900 32.48400
H  1.38500 44.63800 32.48400
H  -6.20900 42.15200 26.02000
H  -5.83900 43.68200 26.76000
H  -5.12300 42.12100 27.37300
H  -7.39000 44.23700 22.90100
H  -6.96200 44.30400 24.59800
H  -7.01500 42.77500 23.80800
H  -0.74600 44.56900 20.55500
H  1.89000 43.22100 20.64100
H  -0.82200 41.53000 20.98600
H  0.28300 41.90800 19.69100
H  -1.48600 42.24000 19.64200
H  1.22600 45.40400 19.56000
H  2.77200 45.39400 20.54200
H  0.75900 47.20000 20.32200
H  1.90100 47.10300 21.63900
H  0.21300 46.36400 21.74300
H  5.90400 44.38200 23.64300
H  6.27900 42.63600 23.89900
H  6.60500 43.89500 25.07100
H  3.82100 43.59100 29.51400
H  5.16200 40.71200 32.33500
H  4.34200 39.66000 31.16000
H  3.45400 40.82600 32.35100

