158

Mg 36.44200 1.00500 29.69200
C  33.99100 2.04800 32.09800
C  38.71900 1.02400 32.18400
C  38.68000 0.45600 27.31200
C  33.95400 1.41000 27.13000
N  36.31800 1.47400 31.90500
C  35.22700 1.78000 32.64900
C  35.54400 1.74600 34.11400
C  37.11300 1.79000 34.19900
C  37.45400 1.37600 32.69300
C  37.68000 3.19200 34.61600
C  34.92900 0.56300 34.91200
C  34.28600 0.79300 36.31400
H  34.64200 2.16500 37.01300
N  38.46600 0.82000 29.68800
C  39.21600 0.76800 30.83800
C  40.57800 0.36200 30.50900
C  40.57500 0.18000 29.09100
C  39.19100 0.50200 28.65200
C  41.71300 0.33000 31.56900
C  41.60900 -0.30200 28.12900
O  41.44700 -0.49200 26.90200
C  42.88900 -0.81100 28.67600
N  36.22300 0.72500 27.54100
C  37.34700 0.60100 26.85600
C  37.13600 0.76700 25.36900
C  35.53800 0.80200 25.23300
C  35.20200 0.95600 26.69700
C  37.77700 2.16300 24.91500
C  34.78900 -0.36100 24.54000
C  34.39500 -1.54800 25.54200
N  34.37500 1.52900 29.61800
C  33.50100 1.58700 28.50700
C  32.19400 2.07900 28.96200
C  32.39300 2.26500 30.37800
C  33.67100 1.93100 30.73800
C  30.92100 2.37500 28.07800
C  31.61900 2.62200 31.54500
O  30.51000 3.01800 31.76500
C  32.70100 2.50700 32.72100
C  32.83400 3.85900 33.36000
O  33.49300 4.80700 32.96000
O  31.99000 3.82900 34.46600
C  31.56800 4.97200 35.18300
H  39.41800 0.78000 32.98700
H  39.41100 0.31500 26.51300
H  33.26700 1.64600 26.31500
H  35.17600 2.70700 34.47300
H  37.39000 1.08200 34.98000
H  37.51600 3.21300 35.69300
H  37.11200 3.93700 34.05900
H  38.72700 3.20000 34.31100
H  35.59700 -0.29000 35.03000
H  34.08400 0.22000 34.31500
H  34.52400 -0.09000 36.90700
H  33.21100 0.74100 36.14300
H  42.60400 0.78000 31.13200
H  41.84800 -0.70500 31.88200
H  41.56400 1.01800 32.40100
H  43.20600 -0.17600 29.50300
H  43.72500 -0.62400 28.00200
H  42.93800 -1.85100 28.99800
H  37.61600 -0.13800 24.99600
H  35.12100 1.69900 24.77700
H  37.07200 2.94200 25.20800
H  37.85100 2.11300 23.82900
H  38.78900 2.27200 25.30500
H  35.24200 -0.78100 23.64200
H  33.83300 0.05800 24.22500
H  34.56900 -2.55400 25.15900
H  33.34800 -1.58700 25.84000
H  35.01500 -1.55200 26.43900
H  30.89900 1.79300 27.15600
H  31.00700 3.40900 27.74500
H  30.06000 2.29300 28.74200
H  32.32500 1.79500 33.45500
H  30.50300 4.92200 35.40800
H  31.69900 5.88300 34.59900
H  32.10100 5.04100 36.13200
Mg 35.14600 49.90500 25.46600
C  35.04900 48.16300 28.53300
C  33.80800 52.59200 27.19500
C  35.04700 51.51300 22.63000
C  36.61900 47.10200 23.92500
N  34.65200 50.38100 27.67000
C  34.70500 49.49000 28.68300
C  34.48900 50.33500 30.04600
C  33.91800 51.70000 29.58500
C  34.05100 51.56000 28.06500
C  32.48800 52.00700 30.07200
C  35.71500 50.36700 31.02300
C  35.41900 49.87000 32.45000
H  34.01500 49.92700 33.07200
N  34.40800 51.74500 25.00000
C  33.96600 52.72400 25.79600
C  33.59000 53.92500 25.07200
C  33.86600 53.53100 23.71600
C  34.51100 52.24200 23.72900
C  32.87600 55.21000 25.69800
C  33.50600 54.25300 22.37300
O  33.68800 53.80600 21.25100
C  32.91200 55.55700 22.41400
N  35.61300 49.37900 23.50400
C  35.55000 50.19700 22.54100
C  35.91900 49.56600 21.19600
C  36.73800 48.29300 21.71200
C  36.30900 48.25700 23.12300
C  34.61900 49.11900 20.50400
C  38.23800 48.37600 21.57200
C  38.92300 49.79300 21.76600
N  35.62600 48.00900 26.03100
C  36.26600 47.01500 25.35500
C  36.55600 45.91000 26.24200
C  35.98100 46.26400 27.50400
C  35.50600 47.60100 27.34500
C  37.16200 44.63100 25.84600
C  35.85700 45.83600 28.85700
O  36.18800 44.76100 29.45300
C  35.13400 47.12000 29.57300
C  33.81900 46.72400 30.13000
O  32.77500 46.71800 29.52500
O  33.92800 46.30600 31.44300
C  32.82800 45.80100 32.31300
H  33.34100 53.43500 27.70800
H  35.11500 52.14100 21.74000
H  37.09400 46.23400 23.46300
H  33.68700 49.75500 30.50200
H  34.63400 52.50200 29.76700
H  32.36600 52.75700 30.85400
H  32.02700 51.07700 30.40400
H  31.88000 52.38100 29.24800
H  36.07800 51.39200 31.09900
H  36.51300 49.70100 30.69300
H  36.08900 50.36100 33.15500
H  35.56300 48.79100 32.39700
H  33.43100 55.71500 26.48800
H  31.89600 54.88500 26.04700
H  32.89300 55.97900 24.92500
H  32.09500 55.57900 23.13500
H  32.44100 55.75400 21.45100
H  33.67200 56.32700 22.54700
H  36.45300 50.23400 20.52000
H  36.44300 47.31500 21.33200
H  33.74500 48.84900 21.09700
H  34.75300 48.22400 19.89700
H  34.47200 49.87400 19.73200
H  38.65500 47.93000 20.66900
H  38.68900 47.81100 22.38800
H  39.80200 49.69700 22.40400
H  38.26200 50.58700 22.11400
H  39.35500 50.06300 20.80300
H  37.48900 44.00600 26.67700
H  37.94900 44.80400 25.11200
H  36.34500 44.09500 25.36200
H  35.88100 47.38200 30.32300
H  31.87600 46.20800 31.97300
H  33.01900 46.10500 33.34200
H  32.71500 44.71800 32.34600

