158

Mg -1.30800 17.71500 25.98100
C  -1.92500 15.73400 28.60800
C  -2.03500 20.44700 28.05500
C  -0.76200 19.82300 23.41900
C  -1.40300 15.02700 23.87100
N  -1.79900 18.00400 28.12800
C  -1.89000 17.03900 29.03900
C  -2.18000 17.58000 30.43300
C  -2.57900 19.11600 30.14900
C  -2.14200 19.19800 28.68000
C  -4.09200 19.40200 30.22900
C  -1.09000 17.41600 31.41700
C  -1.50300 16.81400 32.76400
H  -0.23000 16.31300 33.51300
N  -1.17700 19.76400 25.81600
C  -1.55800 20.70900 26.76000
C  -1.36000 22.03100 26.20300
C  -0.82100 21.91600 24.90400
C  -0.82700 20.44300 24.66700
C  -1.61900 23.33400 26.94700
C  -0.44200 22.98300 23.92600
O  0.03600 22.75900 22.82600
C  -0.56900 24.39900 24.27300
N  -1.26100 17.44300 23.88900
C  -0.98100 18.45800 23.06500
C  -0.85200 17.89700 21.55900
C  -0.71600 16.34900 21.78900
C  -1.14500 16.23800 23.28700
C  -1.95300 18.36300 20.57400
C  0.62900 15.68200 21.35900
C  1.72000 15.70200 22.42200
N  -1.61000 15.76300 26.15400
C  -1.65700 14.77900 25.19600
C  -1.85800 13.52400 25.87200
C  -1.92200 13.84700 27.21800
C  -1.86400 15.20400 27.29700
C  -1.96300 12.22200 25.19500
C  -2.07000 13.31200 28.47000
O  -2.17500 12.07500 28.72600
C  -2.31300 14.50400 29.40600
C  -1.64700 14.12200 30.63500
O  -0.47400 14.19600 30.90000
O  -2.63200 13.50800 31.43300
C  -2.19100 12.95200 32.69300
H  -2.29900 21.29000 28.69600
H  -0.72400 20.52100 22.58000
H  -1.22100 14.16300 23.22900
H  -2.98300 16.95300 30.82000
H  -2.11000 19.81400 30.84200
H  -4.38400 20.25500 29.61600
H  -4.40100 19.61700 31.25200
H  -4.62700 18.56000 29.79000
H  -0.66300 18.38400 31.67600
H  -0.26800 16.84100 30.99100
H  -2.28000 16.07200 32.58400
H  -1.89900 17.66500 33.31900
H  -0.70700 23.89300 27.16100
H  -2.14900 23.17500 27.88600
H  -2.29800 23.95600 26.36400
H  0.03400 24.46200 25.17800
H  -1.59600 24.74500 24.38300
H  -0.15200 25.04400 23.50000
H  0.14400 18.16000 21.20200
H  -1.51400 15.78500 21.30500
H  -2.57000 18.95400 21.25100
H  -2.60600 17.58800 20.17100
H  -1.54500 19.04600 19.82900
H  1.16400 16.05600 20.48600
H  0.44900 14.65400 21.04500
H  1.56900 16.42600 23.22200
H  2.67100 15.94100 21.94600
H  1.80800 14.69500 22.83200
H  -1.66800 11.41600 25.86700
H  -1.32400 12.32700 24.31800
H  -2.98800 12.06900 24.85500
H  -3.38400 14.62200 29.57500
H  -3.05300 12.45000 33.13400
H  -1.86100 13.82200 33.26100
H  -1.29600 12.33100 32.66000
Mg 10.03800 49.05900 25.79300
C  8.08000 48.85500 28.76900
C  12.77200 50.15700 27.54200
C  11.89000 48.88900 22.98600
C  7.06600 48.11200 24.05200
N  10.29900 49.37600 27.89200
C  9.42200 49.25900 28.95600
C  10.21200 49.43500 30.20500
C  11.41700 50.31600 29.79700
C  11.53700 49.87300 28.34900
C  11.20400 51.86600 29.87700
C  10.60800 48.00500 30.81500
C  10.38400 47.71100 32.26700
H  11.08400 48.58400 33.30700
N  12.14700 49.43200 25.28800
C  13.07200 49.87600 26.14800
C  14.41000 49.93100 25.55400
C  14.15500 49.53100 24.20200
C  12.65900 49.27300 24.08000
C  15.65900 50.35700 26.28400
C  15.06700 49.41200 23.00400
O  14.81000 49.06000 21.84200
C  16.55400 49.87200 23.29400
N  9.52500 48.76000 23.68300
C  10.53200 48.59200 22.78400
C  9.90700 47.89800 21.47400
C  8.36200 47.65900 21.81800
C  8.30700 48.21700 23.28300
C  10.20000 48.77700 20.17200
C  7.93300 46.15400 21.70600
C  8.72400 45.11300 22.48700
N  7.95600 48.68500 26.21700
C  6.89600 48.28000 25.45100
C  5.64300 48.13700 26.24700
C  6.09300 48.43400 27.49800
C  7.47300 48.68800 27.42000
C  4.29600 47.62000 25.79700
C  5.63600 48.59400 28.82900
O  4.54800 48.51600 29.33900
C  6.96100 48.64000 29.70900
C  6.94900 47.42700 30.54500
O  7.23400 46.29200 30.15100
O  6.57100 47.73900 31.84500
C  6.65100 46.50400 32.69700
H  13.52900 50.64800 28.15700
H  12.45000 48.85000 22.05000
H  6.13400 47.80300 23.57500
H  9.60500 50.01600 30.89800
H  12.37600 50.02100 30.22300
H  11.39300 52.25600 28.87700
H  11.87600 52.43000 30.52500
H  10.16100 51.94800 30.18300
H  11.65000 47.87200 30.52600
H  10.23800 47.15800 30.23700
H  10.70100 46.68200 32.43400
H  9.30800 47.79300 32.42200
H  15.59800 50.14300 27.35100
H  15.81300 51.43100 26.18500
H  16.51700 49.77100 25.95500
H  16.82100 49.06400 23.97500
H  16.65800 50.86000 23.74400
H  17.20700 49.67900 22.44300
H  10.40500 46.92900 21.43900
H  7.67400 48.25300 21.21600
H  11.06300 49.41000 20.37800
H  9.38800 49.47000 19.95000
H  10.41400 48.17000 19.29300
H  8.12800 45.91500 20.66100
H  6.87800 46.00700 21.93700
H  7.88600 44.65100 23.00900
H  9.33700 45.65200 23.20900
H  9.26000 44.33800 21.93900
H  3.77100 48.51600 25.46500
H  3.81700 47.22900 26.69500
H  4.37400 46.92800 24.95900
H  6.87700 49.45400 30.42900
H  5.81000 45.85400 32.45900
H  6.56000 46.78500 33.74600
H  7.56800 45.97400 32.43800

