158

Mg 55.51900 23.82100 44.67400
C  53.33900 26.51000 44.21200
C  53.09800 21.78300 43.46000
C  57.87200 21.45500 44.63100
C  57.93200 26.23500 45.88200
N  53.51000 24.26200 43.64100
C  52.80900 25.33800 43.59200
C  51.50500 25.06600 42.83200
C  51.29100 23.52700 43.06600
C  52.70100 23.16500 43.42900
C  50.31800 23.23100 44.22000
C  51.59000 25.51800 41.33200
C  50.23600 25.86200 40.64600
H  49.88100 25.06200 39.36900
N  55.50000 21.86300 43.99600
C  54.36200 21.18100 43.60100
C  54.79200 19.84200 43.32900
C  56.19400 19.72000 43.64900
C  56.59500 20.99900 44.12700
C  53.79800 18.81500 42.83400
C  57.03500 18.38200 43.61900
O  56.53500 17.32600 43.24900
C  58.42400 18.33700 44.01000
N  57.60200 23.87900 45.07700
C  58.29000 22.65500 45.17700
C  59.77500 22.89800 45.61100
C  59.74400 24.42700 45.89800
C  58.30800 24.88700 45.59300
C  60.32200 21.98900 46.75000
C  60.79300 25.24300 45.13300
C  61.84300 25.88900 46.09300
N  55.62100 26.03700 45.05900
C  56.67200 26.80300 45.58600
C  56.13400 28.19400 45.78000
C  54.81900 28.08100 45.30100
C  54.63100 26.74800 44.75400
C  56.83700 29.33600 46.27300
C  53.53200 28.77200 45.16600
O  53.16700 29.90300 45.57700
C  52.55600 27.84200 44.37500
C  52.24900 28.59100 43.12300
O  53.09300 28.92200 42.30700
O  50.87800 28.75000 43.03800
C  50.46000 29.60600 41.89000
H  52.23900 21.17800 43.16200
H  58.67600 20.71800 44.68400
H  58.64600 26.86200 46.41900
H  50.81700 25.74200 43.33900
H  50.95200 23.01700 42.16400
H  49.41100 22.77500 43.82200
H  50.01800 24.15800 44.70700
H  50.70600 22.62700 45.04100
H  52.08500 24.75900 40.72600
H  52.20000 26.41600 41.23600
H  50.31700 26.92500 40.42000
H  49.43100 25.77500 41.37500
H  53.03400 19.41900 42.34400
H  53.39000 18.25600 43.67600
H  54.42500 18.21300 42.17700
H  58.44300 18.71300 45.03300
H  58.93300 18.96400 43.27900
H  58.71400 17.28700 43.96300
H  60.33300 22.77600 44.68300
H  59.87200 24.55900 46.97200
H  61.01700 21.36100 46.19200
H  59.52000 21.37000 47.15100
H  60.86600 22.49400 47.54800
H  60.32100 26.11800 44.68700
H  61.26200 24.65100 44.34700
H  62.68100 25.20300 45.96500
H  61.50100 25.92800 47.12700
H  62.24000 26.80800 45.66200
H  57.02400 29.14000 47.32900
H  56.28400 30.26800 46.15900
H  57.79500 29.39100 45.75500
H  51.66500 27.66600 44.97900
H  50.41800 30.68700 42.02700
H  49.46000 29.33400 41.55100
H  51.12100 29.52500 41.02700
Mg 26.30600 50.61700 26.80000
C  24.17900 51.97300 29.32600
C  28.45300 49.65600 29.18700
C  28.36800 49.39500 24.29800
C  24.25500 52.16700 24.41100
N  26.22900 50.74200 28.96800
C  25.33800 51.41400 29.81000
C  25.56300 51.09200 31.31600
C  27.09800 50.56900 31.15700
C  27.28400 50.28600 29.69900
C  28.06400 51.51600 31.85100
C  24.58300 50.01000 31.95300
C  24.63400 49.58400 33.45700
H  25.57900 50.40100 34.38600
N  28.07200 49.61300 26.76200
C  28.83500 49.29800 27.88000
C  30.03100 48.64500 27.58000
C  30.02800 48.58300 26.20800
C  28.78400 49.20400 25.63200
C  31.08600 48.13900 28.55800
C  31.03800 47.94900 25.26800
O  30.90400 47.75300 24.05600
C  32.38200 47.64300 25.80800
N  26.25900 50.75800 24.64000
C  27.18100 50.11300 23.90400
C  26.76300 50.26900 22.43400
C  25.36100 51.00600 22.43100
C  25.27500 51.35600 23.89700
C  27.81400 51.03700 21.57200
C  24.21300 50.03100 22.06600
C  24.04400 49.46100 20.65100
N  24.60600 51.82900 26.82600
C  23.91700 52.44600 25.75200
C  22.71100 52.95700 26.21900
C  22.76500 52.83100 27.61800
C  23.95800 52.14000 27.88900
C  21.64600 53.56100 25.38100
C  22.03900 53.06800 28.82100
O  21.08100 53.75800 29.08700
C  22.91500 52.42900 30.01500
C  23.25600 53.45400 30.98500
O  24.13600 54.29500 30.88400
O  22.48500 53.29000 32.12700
C  22.79900 54.21200 33.25900
H  29.13700 49.46600 30.01700
H  29.02600 49.01900 23.51200
H  23.71300 52.48900 23.52000
H  25.42800 52.02900 31.85700
H  27.18700 49.58800 31.62200
H  27.55700 52.37300 32.29600
H  28.76700 51.79200 31.06500
H  28.60100 50.92700 32.59400
H  24.79000 49.10100 31.38800
H  23.57600 50.31900 31.67100
H  24.99200 48.55500 33.48900
H  23.63200 49.71200 33.86600
H  31.95400 48.79100 28.65600
H  31.45200 47.13600 28.33900
H  30.81600 48.03300 29.60800
H  32.86700 48.46900 26.33000
H  32.86800 47.67300 24.83200
H  32.35500 46.68400 26.32400
H  26.82300 49.28300 21.97400
H  25.33600 51.93800 21.86700
H  28.73800 50.82400 22.10900
H  27.61500 52.10800 21.61400
H  27.80400 50.75500 20.51900
H  23.21000 50.45000 22.14300
H  24.36800 49.11800 22.64100
H  23.16900 49.86900 20.14400
H  23.90100 48.39300 20.81700
H  24.97600 49.51300 20.08700
H  22.03200 53.62600 24.36400
H  21.40000 54.50300 25.87100
H  20.78400 52.89600 25.44100
H  22.35800 51.62100 30.48900
H  22.14400 53.76500 34.00700
H  22.33000 55.13800 32.92600
H  23.84100 54.40900 33.51000

