158

Mg 40.55800 8.83700 29.48100
C  42.45800 9.97600 32.19100
C  38.35900 7.52900 31.78000
C  39.02000 7.48600 26.84300
C  43.27600 9.68900 27.32400
N  40.49300 8.55400 31.74000
C  41.30400 9.23100 32.64000
C  40.84300 8.99200 34.02900
C  39.64000 8.01300 33.87900
C  39.45900 8.02800 32.41100
C  39.75200 6.51900 34.51000
C  40.47700 10.33200 34.77500
C  40.17100 10.21000 36.19100
H  41.12000 11.04900 37.15100
N  38.96400 7.75000 29.35900
C  38.22200 7.29300 30.42200
C  36.95000 6.76200 29.84100
C  37.13500 6.68500 28.43100
C  38.41000 7.37100 28.11600
C  35.73300 6.24800 30.63300
C  36.15500 6.10800 27.44200
O  36.35300 6.08500 26.20700
C  34.79700 5.58900 27.84900
N  41.15900 8.61500 27.35000
C  40.25900 8.02900 26.47100
C  40.86200 7.84900 25.09300
C  42.30200 8.59900 25.26100
C  42.34300 8.96800 26.68700
C  40.90600 6.31400 24.60200
C  42.39100 9.66200 24.14000
C  41.67000 10.97300 24.42300
N  42.41300 9.80900 29.65100
C  43.35100 10.08800 28.67500
C  44.47900 10.67100 29.32400
C  44.12000 10.76400 30.68700
C  42.90500 10.13100 30.81000
C  45.76300 10.98900 28.74300
C  44.59400 11.15800 31.91900
O  45.65600 11.76600 32.22200
C  43.59800 10.75100 33.06400
C  44.37700 10.10400 34.21000
O  45.32700 9.29700 34.11100
O  43.85800 10.47000 35.38400
C  44.50900 9.84100 36.57700
H  37.58700 7.28200 32.51200
H  38.50500 7.08900 25.96600
H  44.14300 9.97800 26.72700
H  41.55300 8.46400 34.66500
H  38.71600 8.51600 34.16400
H  39.37100 5.77800 33.80800
H  39.17500 6.34900 35.41900
H  40.80200 6.22900 34.56700
H  39.60700 10.79800 34.31200
H  41.36300 10.96100 34.69100
H  40.23800 9.17700 36.53600
H  39.19800 10.66400 36.37700
H  35.77900 5.17000 30.78800
H  34.83300 6.64000 30.16000
H  35.80700 6.70800 31.61800
H  34.74900 4.80400 28.60400
H  34.38600 5.21600 26.91100
H  34.11000 6.38100 28.14500
H  40.28000 8.40300 24.35600
H  43.12800 7.89000 25.31100
H  40.48200 6.33100 23.59800
H  40.37400 5.64900 25.28300
H  41.95900 6.03900 24.54500
H  42.16300 9.21700 23.17100
H  43.44900 9.90700 24.04500
H  40.94100 10.91800 25.23200
H  41.14700 11.26800 23.51300
H  42.39100 11.77200 24.59300
H  45.63800 11.45800 27.76700
H  46.42600 10.13200 28.62900
H  46.20800 11.72800 29.41000
H  43.06400 11.65000 33.37500
H  43.98600 10.08600 37.50200
H  45.52500 10.13500 36.84000
H  44.50400 8.76300 36.41700
Mg 48.96500 36.04200 26.39900
C  47.30800 34.47600 28.93100
C  49.26200 38.85500 28.09400
C  51.04900 37.35300 23.90200
C  48.46300 33.22900 24.43400
N  48.35600 36.57300 28.33000
C  47.79700 35.75500 29.26200
C  47.46900 36.55200 30.60200
C  47.76200 37.98800 30.18300
C  48.58500 37.85100 28.81400
C  46.57400 38.85900 30.13900
C  48.29000 36.07100 31.86800
C  47.34500 35.59600 33.11700
H  46.18400 36.58500 33.52000
N  50.04200 37.79400 26.12600
C  49.98600 38.89200 26.88300
C  50.86200 39.95600 26.47300
C  51.28600 39.60800 25.14100
C  50.72700 38.18000 24.97300
C  50.87700 41.29900 27.19000
C  52.06800 40.47700 24.13100
O  52.37900 40.09700 23.01100
C  52.46300 41.90400 24.63300
N  49.49600 35.46000 24.47400
C  50.47200 36.08500 23.69500
C  50.98800 35.17200 22.59600
C  50.17200 33.91500 22.74100
C  49.31800 34.19600 23.94700
C  50.93000 35.79200 21.20000
C  51.00300 32.63000 22.93500
C  50.81400 31.57100 21.78500
N  47.89900 34.27900 26.55500
C  47.76800 33.19600 25.67900
C  46.85400 32.21400 26.19900
C  46.59600 32.65200 27.49700
C  47.40400 33.87200 27.68000
C  46.55100 30.90000 25.54800
C  45.87800 32.42400 28.74200
O  45.05100 31.57400 29.01200
C  46.37900 33.55400 29.75600
C  47.19900 32.84200 30.81700
O  48.41200 32.78000 30.85600
O  46.32500 32.15100 31.55300
C  46.75500 31.53600 32.83200
H  49.34100 39.74900 28.71700
H  51.88000 37.51900 23.21200
H  48.28700 32.35700 23.80100
H  46.41000 36.34900 30.76400
H  48.44500 38.57300 30.79900
H  46.25000 38.87300 29.09900
H  46.85800 39.83200 30.54100
H  45.79700 38.31400 30.67600
H  48.89300 36.88600 32.26900
H  48.90400 35.20600 31.61700
H  48.02400 35.36300 33.93700
H  46.92600 34.59300 33.03900
H  51.83900 41.61800 27.59100
H  50.26800 41.33700 28.09400
H  50.39900 41.99700 26.50300
H  51.52800 42.46500 24.61400
H  53.07100 42.28700 23.81400
H  52.96900 41.96100 25.59700
H  52.02900 34.87100 22.71000
H  49.46600 33.78800 21.92000
H  50.24800 36.64000 21.26200
H  50.65400 35.08500 20.41700
H  51.90800 36.15400 20.88100
H  50.83600 32.04000 23.83700
H  52.08500 32.74000 23.00400
H  50.32800 32.00600 20.91200
H  50.01300 30.98100 22.23100
H  51.70800 30.99100 21.55800
H  45.46100 30.89200 25.53000
H  46.92600 30.04500 26.11000
H  46.85900 30.94800 24.50400
H  45.60800 34.05800 30.33900
H  47.82100 31.31300 32.78600
H  46.18700 30.61500 32.96500
H  46.50900 32.10400 33.72900

