158

Mg 16.17300 52.37500 27.13000
C  18.15700 50.99700 29.73100
C  13.77500 53.09800 29.44700
C  14.53000 53.58100 24.73600
C  18.56400 51.03000 24.80100
N  15.96400 51.95900 29.31900
C  16.93400 51.53000 30.20800
C  16.38600 51.33000 31.60700
C  14.97500 52.00900 31.49100
C  14.83600 52.34400 29.98800
C  13.73800 51.17000 31.98300
C  17.34100 51.81900 32.75400
C  17.16400 53.13500 33.61200
H  16.29700 53.04500 34.90100
N  14.33400 53.32400 27.15100
C  13.44800 53.57900 28.19300
C  12.31600 54.25800 27.69000
C  12.57700 54.52200 26.27700
C  13.85000 53.84800 25.98500
C  11.18500 54.57000 28.61000
C  11.80900 55.36800 25.29000
O  12.24900 55.68900 24.17500
C  10.38400 55.66200 25.53400
N  16.49600 52.26900 24.98800
C  15.66000 52.99600 24.18800
C  16.03500 52.92000 22.64800
C  17.47900 52.39000 22.82100
C  17.49600 51.77500 24.20800
C  15.03100 51.97000 21.87800
C  18.68200 53.32500 22.54500
C  19.91200 52.70000 21.79800
N  17.98200 51.02500 27.19500
C  18.87100 50.61200 26.16100
C  20.02400 49.92700 26.70200
C  19.76900 50.03400 28.07500
C  18.52300 50.75500 28.34600
C  21.24500 49.41800 26.04400
C  20.30800 49.67300 29.36000
O  21.26100 48.98600 29.62800
C  19.33600 50.31000 30.43600
C  18.82600 49.18000 31.33500
O  18.10100 48.25000 30.99600
O  19.42500 49.25500 32.58100
C  18.91500 48.34100 33.62400
H  13.02700 53.38700 30.18800
H  13.78700 53.89400 23.99900
H  19.30000 50.88100 24.00800
H  16.31400 50.25900 31.79500
H  14.90800 52.94200 32.05100
H  12.78200 51.68800 31.90200
H  13.97300 50.74700 32.96000
H  13.67200 50.31200 31.31400
H  18.27800 52.02800 32.23800
H  17.49000 51.00800 33.46700
H  16.80200 53.91700 32.94500
H  18.15200 53.45400 33.94600
H  10.54000 55.36200 28.22900
H  11.65700 54.88800 29.53900
H  10.60000 53.66600 28.77700
H  9.82900 54.78000 25.85400
H  10.01200 55.93500 24.54700
H  10.22800 56.44100 26.28100
H  16.00800 53.93800 22.25900
H  17.62200 51.52900 22.16800
H  14.40100 51.41400 22.57300
H  15.54100 51.33400 21.15500
H  14.43300 52.68700 21.31500
H  19.10300 53.64200 23.49900
H  18.40300 54.23100 22.00500
H  19.68000 51.72400 21.37300
H  20.79100 52.48200 22.40400
H  20.26800 53.37800 21.02300
H  21.49300 50.16300 25.28900
H  21.05200 48.49600 25.49600
H  22.00300 49.33800 26.82400
H  19.88600 50.99200 31.08400
H  18.59600 48.85000 34.53400
H  19.65900 47.59200 33.89500
H  18.07300 47.69300 33.37800
Mg -12.26300 15.90400 42.01500
C  -8.98600 15.09000 40.96600
C  -11.97900 18.71100 40.15200
C  -15.31400 16.83200 43.12200
C  -12.73300 12.67200 43.29200
N  -10.69200 16.66000 40.47600
C  -9.35500 16.32100 40.49100
C  -8.44100 17.38300 39.92600
C  -9.46900 18.55900 39.62800
C  -10.83300 17.96700 40.14200
C  -9.08400 19.90400 40.23000
C  -7.65900 16.91300 38.68400
C  -6.09400 17.08300 38.72100
H  -5.33500 17.63900 37.54400
N  -13.51900 17.51400 41.63300
C  -13.20000 18.55500 40.80100
C  -14.28500 19.50400 40.84000
C  -15.27800 18.99000 41.74700
C  -14.74200 17.71000 42.20500
C  -14.33500 20.79100 40.05200
C  -16.57000 19.69800 42.09800
O  -16.81100 20.80700 41.60000
C  -17.72700 18.99000 42.80100
N  -13.79100 14.94900 43.06500
C  -14.96800 15.50900 43.43600
C  -15.89000 14.41400 44.08300
C  -15.16200 13.00600 43.82500
C  -13.80700 13.55600 43.39600
C  -16.14900 14.60400 45.65200
C  -15.85400 12.07400 42.82300
C  -15.51000 10.53400 42.81300
N  -11.16400 14.14200 42.16300
C  -11.48900 12.92600 42.69800
C  -10.25300 12.13500 42.61500
C  -9.23700 12.94900 41.99600
C  -9.86800 14.16100 41.72400
C  -10.21000 10.80900 43.22000
C  -7.80100 12.97700 41.56500
O  -6.89500 12.10100 41.67600
C  -7.60200 14.45000 40.87300
C  -6.58200 15.15700 41.76500
O  -6.89700 15.78100 42.77100
O  -5.30200 14.90000 41.34100
C  -4.18000 15.15800 42.19300
H  -11.87800 19.72600 39.76200
H  -16.34000 17.02800 43.44100
H  -12.85700 11.65500 43.66900
H  -7.70100 17.68000 40.67000
H  -9.67300 18.54900 38.55700
H  -8.16500 19.81000 40.80800
H  -9.88300 20.23900 40.89100
H  -9.01000 20.66300 39.45100
H  -7.95800 17.44800 37.78200
H  -7.88800 15.87100 38.46400
H  -5.63400 16.09600 38.68200
H  -5.86800 17.61700 39.64400
H  -15.31600 21.01600 39.63300
H  -13.69100 20.83900 39.17400
H  -14.18600 21.69400 40.64300
H  -18.62100 19.59100 42.63900
H  -17.67200 19.01100 43.88900
H  -17.87800 17.98100 42.41600
H  -16.83500 14.48100 43.54200
H  -15.14400 12.65900 44.85900
H  -15.86000 13.80600 46.33700
H  -17.21900 14.77700 45.76300
H  -15.69100 15.50500 46.06200
H  -15.84500 12.46100 41.80400
H  -16.91300 12.05400 43.08400
H  -14.57500 10.33900 43.33800
H  -15.37000 10.13500 41.80800
H  -16.37400 10.04000 43.25800
H  -11.13900 10.27600 43.01700
H  -9.92300 10.78500 44.27200
H  -9.34700 10.35300 42.73600
H  -7.09000 14.33000 39.91800
H  -4.37700 15.45500 43.22200
H  -3.62800 15.99000 41.75600
H  -3.50200 14.30600 42.25100

