158

Mg 48.22500 34.66100 26.49300
C  46.32800 33.17000 29.20200
C  48.53800 37.47200 28.41300
C  49.57900 36.11500 23.83800
C  46.98300 32.07400 24.43100
N  47.62700 35.16200 28.66000
C  46.90300 34.40800 29.50200
C  46.86900 35.12400 30.82900
C  47.16300 36.61600 30.44800
C  47.85800 36.39800 29.09500
C  45.94500 37.64000 30.41400
C  47.89800 34.55400 31.81600
C  47.37200 34.39600 33.18300
H  46.49400 35.53900 33.69600
N  49.07500 36.45100 26.23500
C  49.22100 37.46400 27.14600
C  50.08200 38.50400 26.58800
C  50.33000 38.15200 25.26400
C  49.65400 36.86000 25.09800
C  50.53200 39.59700 27.42700
C  51.04800 38.87600 24.19600
O  51.24900 38.41600 23.06300
C  51.55900 40.22000 24.55400
N  48.25200 34.22400 24.33600
C  48.86600 34.97300 23.45800
C  48.88200 34.34300 22.11900
C  48.00700 33.08800 22.24800
C  47.75600 33.05300 23.75400
C  48.32700 35.32000 20.98700
C  48.64100 31.84000 21.63800
C  47.63100 30.82500 21.08900
N  47.03900 32.95100 26.71800
C  46.63500 31.99100 25.78300
C  45.77100 30.95900 26.49900
C  45.70000 31.42000 27.81000
C  46.45500 32.62200 27.91000
C  45.13400 29.67500 25.96900
C  45.13400 31.03900 29.09000
O  44.45900 30.09800 29.50700
C  45.40400 32.29200 29.93900
C  45.78700 31.86700 31.27200
O  46.84900 31.41900 31.63000
O  44.69600 31.98300 32.06300
C  44.90800 31.34200 33.33500
H  48.51000 38.42000 28.95500
H  50.03400 36.50500 22.92500
H  46.58300 31.25000 23.83700
H  45.81000 34.96700 31.03100
H  47.86500 37.11600 31.11500
H  45.09300 37.27500 30.98700
H  45.70300 37.64800 29.35100
H  46.23000 38.60800 30.82500
H  48.74000 35.24400 31.75200
H  48.29300 33.60500 31.45100
H  48.17400 34.37900 33.92200
H  46.89000 33.41800 33.17700
H  50.58400 39.36100 28.49000
H  49.88000 40.46900 27.48300
H  51.53200 39.88800 27.10700
H  50.99200 40.70600 25.34800
H  51.44400 40.85600 23.67700
H  52.59700 40.05300 24.84100
H  49.93400 34.08400 21.99700
H  46.99500 33.25300 21.87900
H  47.64200 34.84500 20.28500
H  49.20300 35.68200 20.44900
H  47.71100 35.91100 21.66500
H  49.18300 31.37900 22.46400
H  49.38800 32.09300 20.88600
H  47.66000 30.96400 20.00800
H  46.60100 31.04300 21.36900
H  47.84300 29.79700 21.38200
H  44.75100 29.04700 26.77400
H  45.82600 29.09700 25.35700
H  44.25000 29.93700 25.38800
H  44.43700 32.78900 30.02000
H  43.94500 31.18300 33.82100
H  45.57800 32.02800 33.85300
H  45.33900 30.34300 33.28000
Mg 25.90400 50.23400 27.10600
C  24.00400 51.78200 29.45100
C  28.34000 49.41300 29.48900
C  27.91200 49.27700 24.59300
C  23.65400 51.32700 24.60400
N  26.09000 50.45500 29.21600
C  25.09600 51.01800 30.03100
C  25.43800 50.83700 31.51100
C  26.93500 50.26000 31.51600
C  27.14000 49.98700 30.00200
C  27.95600 51.24300 32.06900
C  24.42600 50.00300 32.33500
C  24.05100 50.64100 33.69100
H  24.00700 49.62000 34.82900
N  27.86500 49.46700 27.04000
C  28.69000 49.15500 28.12700
C  29.86800 48.46500 27.61600
C  29.80000 48.55500 26.19300
C  28.49300 49.07500 25.87300
C  30.84800 47.86000 28.52400
C  30.81100 48.05700 25.19300
O  30.62400 48.10300 23.95000
C  32.13600 47.32100 25.66900
N  25.86000 50.42200 24.89600
C  26.67400 49.78100 24.14100
C  26.32000 49.82200 22.67100
C  24.89700 50.48200 22.70000
C  24.79100 50.76200 24.11900
C  27.24700 50.57300 21.66000
C  23.81900 49.54700 22.14000
C  23.29500 48.38600 23.02600
N  24.16500 51.38600 27.03000
C  23.31000 51.60100 25.91000
C  22.11900 52.25300 26.45800
C  22.37100 52.40600 27.86600
C  23.59500 51.85700 28.10800
C  21.05400 52.81900 25.62100
C  21.88300 52.95700 29.06300
O  20.88100 53.60600 29.28400
C  22.85200 52.40100 30.23400
C  23.16600 53.34800 31.33500
O  23.96100 54.24100 31.27100
O  22.26700 53.08900 32.29500
C  22.44600 53.85400 33.53400
H  29.02200 49.14900 30.30000
H  28.60000 48.97200 23.80200
H  22.90900 51.51700 23.82800
H  25.55000 51.80200 32.00600
H  26.99100 49.37900 32.15500
H  28.50100 51.71500 31.25200
H  28.71300 50.63600 32.56600
H  27.53300 51.95900 32.77400
H  24.81500 49.01400 32.57800
H  23.50900 49.96700 31.74700
H  23.07200 51.11000 33.58900
H  24.67700 51.51900 33.85100
H  30.95300 46.79700 28.30700
H  30.43000 47.83700 29.53000
H  31.86000 48.25800 28.59000
H  32.80800 48.01900 26.16800
H  32.53400 46.85300 24.76800
H  31.87800 46.60100 26.44600
H  26.26000 48.77800 22.36600
H  24.96100 51.41000 22.13200
H  26.63600 51.09000 20.92000
H  27.78900 49.79400 21.12400
H  27.93200 51.26500 22.15000
H  24.16600 49.06700 21.22500
H  23.01500 50.21400 21.83100
H  22.21200 48.37200 22.90200
H  23.57700 48.54100 24.06700
H  23.68000 47.48800 22.54100
H  21.44300 53.62600 25.00000
H  20.19500 53.16400 26.19600
H  20.82300 52.02000 24.91700
H  22.37000 51.47400 30.54600
H  23.48300 53.87600 33.87000
H  21.87000 53.22100 34.20900
H  22.06100 54.87200 33.47600

