158

Mg 46.28000 25.42800 28.47000
C  46.96600 27.57800 31.13200
C  45.16700 23.08100 30.61200
C  46.50500 23.15200 25.96600
C  47.59400 27.82900 26.35700
N  46.18900 25.32300 30.53900
C  46.41200 26.33400 31.43500
C  45.88500 25.93800 32.84000
C  45.47200 24.49800 32.68100
C  45.56800 24.32000 31.18300
C  46.39700 23.57300 33.49100
C  44.75800 26.95200 33.35500
C  45.09000 27.72800 34.65200
H  44.03100 27.73000 35.68600
N  45.79500 23.42200 28.31200
C  45.38700 22.56400 29.33500
C  45.10000 21.25500 28.85900
C  45.61900 21.22700 27.55100
C  46.04200 22.58500 27.23900
C  44.38500 20.23600 29.67600
C  45.71600 20.02600 26.59200
O  46.19700 20.12200 25.45900
C  45.31700 18.60300 27.05300
N  46.90100 25.48900 26.58400
C  46.92700 24.41200 25.69400
C  47.32300 24.78500 24.26000
C  47.41500 26.32800 24.32100
C  47.27500 26.58900 25.79500
C  48.73600 24.26700 23.71500
C  46.29800 27.10900 23.58700
C  44.79900 27.08400 24.11800
N  47.12500 27.30200 28.66100
C  47.57100 28.21200 27.69800
C  47.97200 29.39900 28.26400
C  47.86200 29.17300 29.68900
C  47.28500 27.87000 29.85100
C  48.38000 30.63000 27.54100
C  47.92900 29.88000 30.92900
O  48.21700 31.00600 31.28400
C  47.45100 28.75700 32.00900
C  48.57500 28.44100 32.87500
O  49.58700 27.85500 32.54500
O  48.33200 28.94700 34.13400
C  49.27300 28.39900 35.08300
H  44.66500 22.45700 31.35500
H  46.57300 22.45100 25.13200
H  47.88900 28.50600 25.55200
H  46.74500 26.08800 33.49300
H  44.43800 24.35400 32.99200
H  46.85300 24.08600 34.33700
H  47.03100 23.08200 32.75200
H  45.80100 22.83200 34.02400
H  43.93900 26.30400 33.66800
H  44.37500 27.60400 32.57000
H  45.09800 28.77600 34.35300
H  46.05500 27.33100 34.96600
H  43.41100 19.90300 29.31700
H  44.19200 20.52400 30.71000
H  45.03100 19.37100 29.82400
H  44.23000 18.57500 27.13100
H  45.82400 18.33800 27.98100
H  45.41900 17.75300 26.37800
H  46.63900 24.47300 23.47000
H  48.31900 26.83400 23.98300
H  49.53900 25.00300 23.73600
H  48.73400 23.92700 22.67900
H  49.00600 23.41300 24.33700
H  46.27600 26.67300 22.58800
H  46.63600 28.13900 23.47900
H  44.32100 26.45800 23.36500
H  44.26000 28.02000 24.26600
H  44.72700 26.57900 25.08200
H  48.30200 31.51500 28.17300
H  47.71500 30.66000 26.67800
H  49.43400 30.47200 27.31200
H  46.58400 29.17300 32.52100
H  49.01100 28.72900 36.08800
H  50.28600 28.76500 34.91800
H  49.28700 27.30900 35.08400
Mg 46.81700 35.71000 28.82100
C  44.98300 33.41100 30.99300
C  47.19200 37.74900 31.33900
C  48.06400 37.81900 26.62200
C  46.07400 33.44000 26.23700
N  46.29900 35.50900 30.93000
C  45.74500 34.46200 31.64000
C  45.69700 34.79300 33.11400
C  46.11500 36.30000 33.12900
C  46.60600 36.52300 31.71300
C  44.93600 37.30000 33.54100
C  46.81800 33.98000 33.84200
C  46.93700 33.94500 35.36100
H  46.07200 34.86600 36.24600
N  47.63700 37.48300 28.99300
C  47.74500 38.19800 30.16900
C  48.38100 39.49700 29.89800
C  48.68500 39.55500 28.52400
C  48.16100 38.26300 27.98000
C  48.70500 40.55900 30.86000
C  49.41300 40.50600 27.66900
O  49.72400 40.38900 26.50800
C  49.97300 41.81400 28.16500
N  47.01600 35.66900 26.67200
C  47.50600 36.65700 26.03700
C  47.33900 36.46200 24.56600
C  47.08000 34.94900 24.44800
C  46.63300 34.62600 25.89300
C  46.26200 37.41200 23.97500
C  48.38300 34.14800 24.12000
C  48.35700 33.34700 22.80500
N  45.74500 33.84500 28.58900
C  45.58000 33.01100 27.48100
C  44.74300 31.84600 27.81400
C  44.49300 31.96600 29.20500
C  45.16900 33.12300 29.63700
C  44.23800 30.70100 26.93100
C  43.77400 31.44200 30.41000
O  43.11600 30.41100 30.45000
C  43.94800 32.43400 31.58000
C  44.25200 31.85500 32.91100
O  45.20400 31.03400 33.08800
O  43.41600 32.31300 33.94100
C  43.70600 31.81200 35.27100
H  47.40800 38.37500 32.20800
H  48.61600 38.47100 25.94200
H  45.96000 32.67500 25.46600
H  44.75900 34.71100 33.66400
H  46.96700 36.43100 33.79600
H  44.16900 36.75700 34.09300
H  44.53500 37.97200 32.78300
H  45.34700 37.94200 34.32000
H  47.80400 34.24500 33.46100
H  46.70800 32.94600 33.51500
H  47.97300 34.27100 35.46400
H  47.01900 32.92200 35.72700
H  49.75600 40.83300 30.96000
H  48.58300 40.27500 31.90500
H  48.06300 41.42100 30.67600
H  49.23700 42.35400 28.76200
H  50.04300 42.47200 27.29900
H  50.81900 41.47700 28.76300
H  48.26300 36.83300 24.12400
H  46.28700 34.57100 23.80200
H  45.54700 37.65100 24.76200
H  45.75000 36.93400 23.14000
H  46.72900 38.38000 23.79300
H  48.49400 33.34100 24.84400
H  49.22300 34.84100 24.05500
H  48.11200 32.30400 23.00900
H  49.35000 33.31400 22.35500
H  47.62300 33.79700 22.13700
H  44.48000 29.64700 27.06500
H  44.55500 30.95600 25.92000
H  43.15700 30.80600 27.02600
H  42.94900 32.87000 31.60100
H  43.14700 32.49700 35.90900
H  44.77200 31.84600 35.49800
H  43.26300 30.84900 35.52400

