158

Mg 9.57100 48.44500 25.99000
C  7.11100 48.99400 28.36200
C  11.95300 49.47100 28.22300
C  11.85900 47.96800 23.68200
C  7.05500 48.22800 23.54300
N  9.54500 49.08100 28.08100
C  8.41800 49.07600 28.90100
C  8.85500 49.31800 30.37100
C  10.28200 49.95100 30.11300
C  10.62900 49.46100 28.73100
C  10.45500 51.49200 30.25400
C  8.79300 47.97300 31.10400
C  9.45200 47.82400 32.42800
H  8.64300 47.36600 33.69200
N  11.66200 48.58700 25.96700
C  12.46900 49.09900 26.93900
C  13.87700 49.11300 26.50000
C  13.80300 48.58600 25.13800
C  12.40000 48.28900 24.91800
C  15.12700 49.41600 27.31700
C  14.92400 48.23400 24.16300
O  14.84100 47.64200 23.12800
C  16.34600 48.69900 24.53400
N  9.46900 48.25600 23.95500
C  10.56300 47.93800 23.20700
C  10.29300 47.57700 21.72800
C  8.73200 47.83500 21.64200
C  8.34400 48.07900 23.13200
C  11.02600 48.31700 20.68100
C  7.97900 46.75300 20.81700
C  7.19800 47.10600 19.64800
N  7.48400 48.38600 25.94200
C  6.60500 48.33600 24.89300
C  5.25500 48.34800 25.37600
C  5.43000 48.58500 26.74900
C  6.80400 48.66000 27.01500
C  4.04200 48.06100 24.50100
C  4.65400 48.78400 27.99800
O  3.47800 48.80000 28.17300
C  5.71500 49.25700 29.03500
C  5.57700 48.42000 30.24800
O  5.29300 47.26200 30.26900
O  5.36100 49.21800 31.27600
C  4.83900 48.70300 32.60600
H  12.70000 49.83900 28.93000
H  12.57800 47.75900 22.88700
H  6.32500 48.04400 22.75200
H  8.19400 50.03100 30.86400
H  10.87200 49.53700 30.93000
H  9.62200 52.04000 30.69300
H  10.48200 51.84400 29.22300
H  11.32800 51.69000 30.87500
H  9.21500 47.28300 30.37400
H  7.78000 47.60500 31.26500
H  9.94600 48.72500 32.79200
H  10.25600 47.09800 32.31000
H  15.82000 50.05900 26.77300
H  15.61400 48.46700 27.54100
H  14.88000 49.92300 28.25000
H  16.67400 48.28200 25.48600
H  16.39800 49.78800 24.53900
H  17.06400 48.30400 23.81400
H  10.60700 46.53400 21.68800
H  8.63000 48.77900 21.10500
H  12.10200 48.21400 20.82100
H  10.89700 49.38900 20.83600
H  10.64400 48.03400 19.70100
H  7.24000 46.31000 21.48400
H  8.61500 45.89400 20.60100
H  6.13000 46.89000 19.67300
H  7.66200 46.63600 18.78100
H  7.24800 48.18500 19.49700
H  3.53700 48.98000 24.20200
H  3.21500 47.58200 25.02400
H  4.36800 47.50200 23.62400
H  5.63100 50.31600 29.28000
H  4.12700 49.44200 32.97400
H  5.67600 48.72600 33.30500
H  4.26800 47.77700 32.65800
Mg -5.06400 25.46400 25.66500
C  -3.88300 27.03900 28.68400
C  -6.56800 23.10400 27.69400
C  -5.71700 23.86000 22.90300
C  -3.00600 27.84400 23.93000
N  -5.18900 25.16200 27.93600
C  -4.87100 26.00500 28.91700
C  -5.49600 25.68300 30.26200
C  -6.24600 24.35000 29.92200
C  -5.96300 24.14100 28.38800
C  -5.87600 23.17700 30.84000
C  -6.37300 26.86300 30.82300
C  -6.32900 26.99900 32.39700
H  -5.72000 25.86200 33.30400
N  -6.01100 23.68000 25.33700
C  -6.61700 22.89100 26.23800
C  -7.48200 21.93900 25.51600
C  -7.35600 22.28400 24.09200
C  -6.30400 23.25300 24.04500
C  -8.48600 21.06500 26.27000
C  -8.12100 21.65500 22.95200
O  -7.99900 22.03400 21.79600
C  -9.21500 20.75400 23.32200
N  -4.59200 25.93100 23.76900
C  -4.88900 25.01800 22.73000
C  -4.39700 25.51000 21.36300
C  -3.64600 26.79000 21.68900
C  -3.82900 26.90900 23.22400
C  -3.53100 24.44300 20.67700
C  -4.02800 28.06800 20.88800
C  -5.15400 29.03700 21.50800
N  -3.79200 27.26100 26.13400
C  -3.01100 28.01100 25.36200
C  -2.27600 28.95600 26.21700
C  -2.61000 28.63800 27.54500
C  -3.60900 27.58900 27.42800
C  -1.33900 30.03800 25.73800
C  -2.31200 28.93500 28.93400
O  -1.58400 29.76000 29.48000
C  -3.07800 27.85900 29.71500
C  -2.34300 27.01100 30.60300
O  -2.07200 25.82200 30.37100
O  -2.05600 27.69200 31.72100
C  -1.27400 27.01700 32.79000
H  -7.28200 22.57600 28.32900
H  -5.90700 23.35600 21.95300
H  -2.45100 28.43400 23.19700
H  -4.61000 25.52100 30.87600
H  -7.31500 24.51600 30.05300
H  -6.75600 23.03500 31.46800
H  -4.96000 23.35900 31.40200
H  -5.70500 22.29500 30.22300
H  -7.41000 26.70600 30.52600
H  -6.13300 27.81700 30.35400
H  -7.34700 27.08200 32.77600
H  -5.82800 27.94400 32.60800
H  -8.27200 20.04300 25.95800
H  -9.55600 21.27200 26.26900
H  -8.20000 21.04000 27.32100
H  -9.93700 20.58500 22.52400
H  -9.83200 21.27100 24.05800
H  -8.80200 19.84500 23.75800
H  -5.27000 25.72800 20.74800
H  -2.60500 26.54300 21.48100
H  -2.46400 24.65900 20.74100
H  -3.85000 24.31600 19.64300
H  -3.67200 23.52400 21.24600
H  -4.37200 27.78100 19.89500
H  -3.06000 28.57000 20.91800
H  -5.97600 29.08300 20.79400
H  -4.71000 29.98200 21.82200
H  -5.65100 28.71800 22.42500
H  -1.28100 30.14000 24.65400
H  -0.36300 29.75600 26.13400
H  -1.61100 30.96100 26.25000
H  -3.76900 28.50200 30.26100
H  -1.87400 26.22900 33.24600
H  -1.07300 27.78100 33.54100
H  -0.42300 26.46100 32.39800

