158

Mg -1.33900 18.18200 27.58800
C  -1.96500 15.88700 30.22400
C  -2.35400 20.62400 29.77600
C  -1.24700 20.31800 25.08400
C  -1.36000 15.48000 25.34400
N  -1.77100 18.20200 29.88000
C  -1.95400 17.20600 30.71500
C  -2.28800 17.69500 32.19200
C  -2.52300 19.19500 31.98000
C  -2.23000 19.37900 30.44000
C  -3.97400 19.76600 32.25900
C  -1.13200 17.37300 33.17400
C  -1.59900 16.88900 34.49000
H  -0.69300 16.99400 35.66400
N  -1.50100 20.18400 27.50200
C  -1.96600 20.99800 28.50200
C  -2.07300 22.40600 28.01900
C  -1.69000 22.38000 26.58300
C  -1.41800 20.91300 26.34300
C  -2.64400 23.41300 28.89800
C  -1.60700 23.47400 25.64800
O  -1.31900 23.40900 24.46100
C  -1.72700 24.87800 26.24200
N  -1.41000 17.92000 25.45000
C  -1.18600 19.00400 24.59900
C  -1.05400 18.51400 23.15300
C  -0.75600 16.95200 23.39900
C  -1.20400 16.76800 24.85900
C  -2.24100 18.80100 22.20800
C  0.68700 16.41400 23.25600
C  1.64900 16.99700 24.29100
N  -1.63400 16.10400 27.69800
C  -1.56300 15.15800 26.67200
C  -1.93200 13.89000 27.31800
C  -2.04100 14.09900 28.66500
C  -1.83000 15.45900 28.88900
C  -1.84000 12.58300 26.64200
C  -2.19500 13.36500 29.89700
O  -2.24200 12.16300 30.10900
C  -2.10900 14.54900 30.95100
C  -0.96800 14.25800 31.83000
O  0.22700 14.28400 31.49200
O  -1.48200 13.92400 33.14100
C  -0.44700 13.33000 34.02600
H  -2.89300 21.31200 30.43100
H  -1.09500 20.97300 24.22400
H  -1.37500 14.62600 24.66400
H  -3.19600 17.16500 32.47900
H  -1.85300 19.90000 32.47200
H  -4.62200 19.68600 31.38600
H  -4.04300 20.84600 32.38800
H  -4.52100 19.38300 33.12100
H  -0.66800 18.29800 33.51900
H  -0.30300 16.79800 32.76000
H  -1.89000 15.84200 34.40300
H  -2.42400 17.56100 34.72600
H  -2.46000 23.27600 29.96400
H  -3.72900 23.31200 28.92600
H  -2.31300 24.41800 28.63700
H  -2.75400 25.11600 26.51700
H  -1.26900 25.55800 25.52300
H  -1.08200 24.95900 27.11600
H  -0.13900 18.81100 22.64100
H  -1.28700 16.23300 22.77600
H  -3.13100 18.21300 22.43500
H  -1.96700 18.64800 21.16400
H  -2.55700 19.83200 22.36800
H  1.04900 16.68600 22.26500
H  0.59600 15.33100 23.33000
H  1.37400 16.85400 25.33600
H  1.70100 18.08200 24.19200
H  2.65300 16.63600 24.07100
H  -0.89700 12.12100 26.93400
H  -1.96500 12.60300 25.56000
H  -2.67600 11.94300 26.92400
H  -3.04800 14.55900 31.50400
H  0.32000 12.75500 33.50700
H  -0.94000 12.78700 34.83200
H  0.20700 14.05400 34.51200
Mg 1.46900 -1.06900 44.18800
C  4.80300 -0.15700 43.46000
C  0.59900 1.50700 42.19000
C  -1.70200 -2.23000 44.22300
C  2.59900 -4.06900 45.54600
N  2.55300 0.57900 43.08100
C  3.91500 0.72700 42.86900
C  4.28800 1.95000 41.93000
C  2.88700 2.63000 41.84500
C  1.92500 1.47200 42.37000
C  2.74300 3.86800 42.74000
C  4.87200 1.41500 40.57700
C  6.25100 1.81300 40.20800
H  6.40100 2.87000 39.09800
N  -0.29900 -0.47100 43.35300
C  -0.50500 0.69200 42.61100
C  -1.87600 1.00100 42.47500
C  -2.61100 -0.14000 43.00300
C  -1.53200 -0.99700 43.60100
C  -2.39000 2.17800 41.74500
C  -4.10200 -0.31100 42.96700
O  -4.80800 0.62300 42.52000
C  -4.78300 -1.50600 43.42000
N  0.58600 -3.12000 44.48200
C  -0.76300 -3.18700 44.66900
C  -1.11800 -4.50400 45.29600
C  0.27000 -5.13700 45.84700
C  1.23200 -3.99900 45.34700
C  -2.18600 -4.37900 46.40300
C  0.67700 -6.49800 45.16500
C  0.70800 -7.74900 46.05000
N  3.32200 -1.92200 44.57500
C  3.62300 -3.12200 45.16100
C  5.07900 -3.23600 45.39200
C  5.56100 -2.11000 44.73000
C  4.48200 -1.31600 44.22200
C  5.78000 -4.42600 46.03200
C  6.77500 -1.56000 44.24800
O  7.95500 -1.86200 44.37900
C  6.36400 -0.20300 43.46500
C  7.04800 0.98600 44.19900
O  8.22900 1.20900 44.22600
O  6.14500 1.76400 44.97800
C  6.77700 3.01300 45.36600
H  0.30500 2.39600 41.62800
H  -2.71400 -2.51300 44.51800
H  3.00400 -4.89800 46.13000
H  5.04700 2.60400 42.35900
H  2.62200 2.76700 40.79600
H  2.26800 4.64500 42.14100
H  3.72300 4.20200 43.08100
H  2.09400 3.71400 43.60300
H  4.23600 1.78700 39.77300
H  4.85300 0.32800 40.49000
H  6.91500 1.00300 39.90700
H  6.80400 2.26600 41.03100
H  -3.22400 2.57000 42.32900
H  -2.78000 1.99200 40.74400
H  -1.71400 3.03300 41.75600
H  -5.85000 -1.52600 43.19800
H  -4.72500 -1.38500 44.50200
H  -4.30500 -2.42800 43.08800
H  -1.53500 -5.15800 44.52900
H  0.25500 -5.11900 46.93700
H  -2.27500 -3.35100 46.75400
H  -1.89800 -4.92100 47.30300
H  -3.23200 -4.58000 46.17300
H  1.60400 -6.44900 44.59300
H  -0.15100 -6.71800 44.49100
H  0.03700 -7.52800 46.88000
H  1.68500 -8.21700 46.17300
H  0.11300 -8.53600 45.58700
H  6.30000 -5.08300 45.33600
H  5.06000 -4.98900 46.62700
H  6.59200 -4.13600 46.69900
H  6.83700 -0.24200 42.48300
H  6.12700 3.70900 45.89600
H  7.08500 3.56300 44.47700
H  7.59300 2.86500 46.07500

