158

Mg 23.76900 -5.00700 45.78000
C  26.04500 -2.76500 44.24400
C  21.32300 -3.83800 43.69500
C  22.07400 -7.65100 46.73300
C  26.67500 -6.60600 47.43200
N  23.76000 -3.53000 44.04100
C  24.77400 -2.68000 43.70500
C  24.28900 -1.55700 42.81800
C  22.81000 -1.79500 42.68200
C  22.56800 -3.14400 43.51500
C  21.84800 -0.71600 43.18000
C  24.95900 -1.59200 41.39900
C  24.96400 -0.26900 40.66900
H  24.45000 -0.20200 39.17600
N  21.87800 -5.60200 45.36400
C  20.99100 -5.03700 44.51000
C  19.79000 -5.76200 44.51300
C  20.02200 -6.95400 45.34600
C  21.38700 -6.79900 45.84700
C  18.64800 -5.26200 43.67900
C  18.96000 -7.95800 45.57800
O  17.78700 -7.81500 45.24700
C  19.25900 -9.21100 46.38900
N  24.34800 -6.92000 46.91100
C  23.35600 -7.73700 47.30800
C  23.94700 -8.97300 47.91400
C  25.38400 -8.64300 48.18100
C  25.53600 -7.29400 47.49200
C  23.15900 -9.44100 49.16400
C  26.39300 -9.69500 47.71300
C  27.49200 -10.04500 48.72200
N  25.89000 -4.71300 45.91300
C  26.85500 -5.42800 46.62200
C  28.05900 -4.71800 46.38900
C  27.82300 -3.71500 45.50000
C  26.47600 -3.74400 45.24700
C  29.38400 -5.15400 46.95200
C  28.40400 -2.60700 44.68400
O  29.62100 -2.22200 44.61900
C  27.28000 -1.96100 43.88100
C  27.21700 -0.54600 44.21000
O  27.26600 -0.04200 45.32700
O  27.18900 0.22200 42.98900
C  27.32100 1.63500 43.16300
H  20.47700 -3.36600 43.19100
H  21.66900 -8.61700 47.04200
H  27.55500 -7.06700 47.88500
H  24.52300 -0.59100 43.26700
H  22.47400 -2.12100 41.69800
H  21.10300 -1.21300 43.80200
H  21.36900 -0.36200 42.26700
H  22.27200 0.14200 43.70100
H  24.41400 -2.29300 40.76700
H  25.96300 -2.00700 41.48400
H  26.02800 -0.05100 40.57900
H  24.59000 0.56900 41.25800
H  17.73900 -5.82900 43.87800
H  18.81900 -5.31300 42.60300
H  18.35100 -4.25200 43.96300
H  19.99600 -9.81900 45.86600
H  18.35500 -9.82000 46.38000
H  19.61100 -8.93700 47.38400
H  23.92600 -9.75200 47.15300
H  25.58900 -8.52600 49.24500
H  23.00200 -10.50500 48.98900
H  22.15100 -9.04400 49.28600
H  23.78600 -9.33300 50.05000
H  26.88400 -9.15900 46.90100
H  26.06100 -10.63300 47.26800
H  27.48600 -11.13200 48.81100
H  27.33400 -9.70500 49.74500
H  28.49800 -9.72300 48.45600
H  29.65000 -6.09600 46.47000
H  29.25900 -5.33800 48.01900
H  30.08700 -4.35700 46.70900
H  27.55900 -2.01800 42.82900
H  26.50900 2.28100 42.82800
H  28.17500 2.05700 42.63500
H  27.55700 1.96900 44.17300
Mg 6.63600 54.38000 41.02400
C  5.76500 50.95700 40.84300
C  9.83900 53.34600 39.89500
C  7.50100 57.59600 40.60600
C  3.39900 55.23900 41.74200
N  7.61300 52.39300 40.39200
C  7.09800 51.11600 40.47600
C  8.10500 50.00700 40.20300
C  9.43700 50.76600 40.25700
C  8.96700 52.26700 40.18900
C  10.39400 50.49400 41.49400
C  7.92100 49.30000 38.83500
C  7.60300 50.25100 37.62500
H  6.59600 49.69500 36.52200
N  8.51700 55.38900 40.44500
C  9.60700 54.78200 39.92200
C  10.49100 55.76300 39.34900
C  9.88300 56.99300 39.70000
C  8.56200 56.71800 40.26400
C  11.88600 55.49600 38.87900
C  10.46100 58.32800 39.32200
O  11.61000 58.36000 38.75900
C  9.89400 59.68600 39.48700
N  5.67600 56.09000 41.29900
C  6.26100 57.33900 41.15500
C  5.29100 58.41600 41.70700
C  3.98400 57.70000 41.88100
C  4.33600 56.26800 41.66400
C  5.69900 59.07400 43.09200
C  2.72700 58.18100 40.99700
C  1.43200 58.73900 41.75700
N  4.84900 53.42400 41.24400
C  3.64400 53.85100 41.67600
C  2.69500 52.77900 41.62600
C  3.43600 51.60000 41.36800
C  4.78600 52.03500 41.13500
C  1.20300 52.90100 41.74100
C  3.43700 50.09100 41.28100
O  2.50400 49.29500 41.45100
C  4.92000 49.64100 40.88100
C  4.79100 48.90600 39.58100
O  4.33100 49.32300 38.51800
O  5.14000 47.57500 39.85200
C  4.65800 46.60800 38.89000
H  10.84900 53.04400 39.61100
H  7.66100 58.66700 40.74500
H  2.35200 55.53900 41.81500
H  7.89100 49.28300 40.99000
H  10.05500 50.55400 39.38500
H  11.32600 50.18600 41.02000
H  10.03000 49.60100 42.00200
H  10.51200 51.38700 42.10900
H  7.30700 48.40200 38.89700
H  8.89900 48.90400 38.56000
H  8.55700 50.28400 37.10000
H  7.37200 51.27900 37.90600
H  12.07200 55.47200 37.80500
H  12.22300 54.52300 39.23500
H  12.56500 56.22400 39.32400
H  10.57200 60.52400 39.32600
H  9.78200 59.72400 40.57000
H  8.93000 59.90200 39.02600
H  5.33400 59.12700 40.88200
H  3.64700 57.77000 42.91500
H  6.27600 59.96200 42.83200
H  6.28600 58.46800 43.78200
H  4.79900 59.43900 43.58800
H  2.44700 57.36700 40.32900
H  3.18200 58.94200 40.36400
H  1.46500 58.42100 42.80000
H  0.59100 58.34300 41.18900
H  1.26400 59.81600 41.75500
H  1.06600 53.50500 42.63800
H  0.81600 51.88700 41.84300
H  0.84800 53.48300 40.89000
H  5.32900 48.96300 41.63000
H  5.02500 45.62900 39.19700
H  5.09900 46.69300 37.89700
H  3.56900 46.62600 38.86200

