158

Mg 42.61100 41.90100 26.30800
C  42.32400 44.21100 28.91000
C  44.03900 39.64200 28.61500
C  43.10800 39.57800 23.82800
C  41.88100 44.27400 23.98600
N  43.13100 41.94500 28.54500
C  42.78500 42.95000 29.37200
C  42.98200 42.48700 30.86100
C  43.67400 41.08200 30.66000
C  43.62600 40.86300 29.14200
C  45.09200 40.86000 31.28100
C  41.51000 42.44700 31.49500
C  41.30900 43.49800 32.67300
H  40.65100 42.88000 34.01900
N  43.39800 39.91500 26.26900
C  43.88200 39.18500 27.30700
C  44.36200 37.85900 26.87400
C  43.94600 37.77600 25.48400
C  43.50800 39.14300 25.15700
C  45.06300 36.78500 27.79700
C  43.90000 36.59900 24.56400
O  43.46900 36.65100 23.39700
C  44.21200 35.21800 25.08700
N  42.74000 42.00200 24.18200
C  42.72900 40.87500 23.39700
C  42.40100 41.20000 21.97700
C  41.79500 42.65100 22.03600
C  42.11100 43.01900 23.50400
C  43.62600 41.18200 21.00200
C  40.20500 42.78800 21.83100
C  39.32900 41.68300 22.43700
N  42.17800 43.82500 26.36600
C  41.95600 44.69700 25.32700
C  41.70300 45.99700 25.87700
C  41.78600 45.87000 27.25800
C  42.14500 44.56600 27.53500
C  41.48900 47.17900 25.19800
C  41.77000 46.57800 28.45700
O  41.55400 47.77300 28.76100
C  42.07400 45.51900 29.62800
C  43.27400 45.92800 30.51100
O  44.40200 45.51300 30.33700
O  42.87200 46.87400 31.43000
C  43.91500 47.27000 32.33400
H  44.42500 38.92500 29.34300
H  43.02600 38.92600 22.95500
H  41.52700 45.05900 23.31300
H  43.69100 43.09200 31.42600
H  43.06700 40.36800 31.21600
H  45.82400 40.42600 30.60000
H  45.04900 40.27200 32.19900
H  45.53100 41.81800 31.56000
H  41.30200 41.43400 31.84000
H  40.77100 42.70500 30.73700
H  40.55700 44.26000 32.47000
H  42.30900 43.89900 32.83800
H  45.29300 37.18700 28.78300
H  46.01400 36.41300 27.41500
H  44.33300 35.98500 27.92200
H  43.47800 34.68000 25.68800
H  45.19300 35.31600 25.55300
H  44.36100 34.56700 24.22500
H  41.67800 40.43400 21.69900
H  42.36300 43.35300 21.42500
H  44.47800 40.77500 21.54700
H  43.90400 42.02700 20.37100
H  43.46900 40.38100 20.27900
H  40.13800 42.65500 20.75200
H  39.76900 43.76200 22.05600
H  38.67700 42.10200 23.20300
H  40.01700 40.96400 22.88000
H  38.68500 41.22400 21.68700
H  41.43100 48.05400 25.84500
H  40.52800 47.08100 24.69300
H  42.33000 47.22300 24.50600
H  41.30000 45.30600 30.36500
H  44.08400 46.36900 32.92400
H  43.44900 48.04500 32.94300
H  44.82200 47.67500 31.88700
Mg -12.19000 38.60300 41.55000
C  -10.02500 36.13800 40.43900
C  -10.09700 40.97100 40.33400
C  -14.65300 40.72500 42.05900
C  -14.41000 35.89800 42.48500
N  -10.33000 38.50900 40.38100
C  -9.65000 37.40400 40.06200
C  -8.37400 37.76800 39.18900
C  -8.33300 39.40700 39.31600
C  -9.65900 39.64500 40.01000
C  -7.27400 39.97400 40.27300
C  -8.49200 37.15300 37.67700
C  -7.45500 36.02900 37.34700
H  -6.28800 36.27100 36.36300
N  -12.27500 40.59200 41.41600
C  -11.32700 41.40000 40.94500
C  -11.85200 42.75500 40.91000
C  -13.15100 42.75600 41.49000
C  -13.40000 41.28500 41.64900
C  -10.97500 43.98000 40.50700
C  -14.01200 43.94700 41.81700
O  -13.67900 45.14500 41.57500
C  -15.37600 43.78100 42.45200
N  -14.28800 38.33900 42.43300
C  -15.06300 39.40500 42.37600
C  -16.56800 39.06700 42.56000
C  -16.47100 37.51900 42.65200
C  -15.00000 37.21300 42.44900
C  -17.25500 39.63200 43.75600
C  -17.48100 36.72300 41.67200
C  -18.41900 35.57200 42.21300
N  -12.26100 36.46800 41.50800
C  -13.14500 35.55200 42.03900
C  -12.55200 34.24600 42.01000
C  -11.30100 34.41700 41.42200
C  -11.23800 35.80500 41.03400
C  -13.13800 33.04300 42.70400
C  -10.08600 33.73300 40.88400
O  -9.82200 32.55100 40.91500
C  -9.18800 34.83700 40.34700
C  -8.01300 34.84900 41.26400
O  -7.96300 35.33500 42.33400
O  -6.99400 34.14700 40.65000
C  -5.83600 33.85700 41.43900
H  -9.41500 41.68500 39.86700
H  -15.57100 41.31400 42.00500
H  -15.13800 35.10900 42.68100
H  -7.52800 37.34800 39.73300
H  -8.28100 39.75300 38.28300
H  -7.78900 40.41100 41.12900
H  -6.71800 40.72400 39.71100
H  -6.52400 39.22200 40.52000
H  -8.23900 37.92700 36.95200
H  -9.51600 36.80000 37.55600
H  -8.01600 35.14400 37.04500
H  -7.09600 35.76700 38.34200
H  -10.95900 44.65500 41.36200
H  -11.47100 44.51400 39.69600
H  -9.92100 43.79500 40.30200
H  -16.04400 43.30100 41.73700
H  -15.73900 44.79400 42.62900
H  -15.36900 43.33400 43.44600
H  -17.12100 39.24300 41.63800
H  -16.69200 37.10300 43.63500
H  -16.54900 40.33500 44.19700
H  -17.57900 38.88400 44.47900
H  -18.06900 40.26700 43.40300
H  -16.82400 36.41200 40.85900
H  -18.12300 37.44600 41.16800
H  -18.02300 35.08100 43.10200
H  -18.54500 34.85300 41.40300
H  -19.48300 35.79600 42.29500
H  -12.72900 33.05900 43.71400
H  -12.80100 32.16500 42.15300
H  -14.22300 33.14800 42.71900
H  -8.83600 34.55000 39.35700
H  -5.75500 34.44200 42.35500
H  -4.99900 33.93900 40.74500
H  -5.80300 32.79200 41.66900

