158

Mg 56.36600 24.77200 44.79100
C  53.56200 26.36200 43.56300
C  55.24200 21.75100 43.69000
C  59.36200 23.54200 45.14000
C  57.64900 28.01100 45.51700
N  54.70800 24.14500 43.73900
C  53.69200 24.96600 43.35700
C  52.64200 24.14600 42.49600
C  52.95300 22.75300 43.00700
C  54.40400 22.85800 43.44300
C  52.03200 22.22000 44.07100
C  52.99000 24.18300 40.95500
C  51.76500 24.16000 39.99800
H  51.82100 24.64400 38.55300
N  57.15600 22.81100 44.58100
C  56.52200 21.70400 44.19200
C  57.47300 20.65600 44.35000
C  58.69500 21.11100 44.73900
C  58.44600 22.56200 44.79000
C  57.05000 19.26300 44.01200
C  59.98900 20.26600 44.99500
O  59.93700 19.04700 44.89000
C  61.32600 20.80300 45.40500
N  58.21800 25.63700 45.19600
C  59.35700 24.90400 45.26900
C  60.62600 25.75000 45.55700
C  59.99900 27.15400 45.73800
C  58.48100 26.92700 45.50800
C  61.61600 25.29400 46.52100
C  60.59700 28.35500 44.87100
C  60.38900 28.19900 43.36200
N  55.64400 26.80500 44.88300
C  56.25600 27.99500 45.25300
C  55.24500 29.06800 45.13200
C  54.12700 28.39600 44.45600
C  54.49300 27.07400 44.28700
C  55.44500 30.51900 45.54000
C  52.93500 28.68500 43.80800
O  52.37800 29.73100 43.51300
C  52.36300 27.32300 43.40300
C  51.98500 27.55500 41.95800
O  52.72200 27.57800 41.01800
O  50.61700 27.79100 41.92100
C  49.85200 28.05300 40.67500
H  54.74800 20.79800 43.49200
H  60.38500 23.17400 45.24700
H  58.12300 28.97100 45.73200
H  51.66000 24.55500 42.73200
H  52.99800 21.96900 42.25100
H  51.22600 22.92200 44.28400
H  52.44300 21.90600 45.03100
H  51.44400 21.32200 43.87900
H  53.61400 23.33700 40.66500
H  53.55700 25.07200 40.67700
H  51.03000 24.68200 40.61000
H  51.32500 23.16900 40.11200
H  57.86200 18.95400 43.35400
H  56.12100 19.17500 43.44900
H  56.96100 18.64300 44.90400
H  61.15200 21.19200 46.40800
H  61.50700 21.50200 44.58800
H  62.16300 20.10800 45.45700
H  61.11600 25.73500 44.58400
H  59.98500 27.45900 46.78400
H  61.19900 24.57400 47.22500
H  61.98500 26.20100 46.99900
H  62.39500 24.75300 45.98300
H  61.66100 28.36100 45.10800
H  60.15600 29.30100 45.18200
H  59.76900 27.31400 43.21500
H  61.35500 28.16300 42.85900
H  59.78800 29.05300 43.05200
H  54.84600 31.00100 44.76700
H  56.47300 30.87700 45.59600
H  55.04800 30.77100 46.52300
H  51.43000 26.98400 43.85300
H  49.01000 27.36000 40.66000
H  50.49900 27.65400 39.89500
H  49.42100 29.03700 40.49100
Mg 48.45800 15.56800 28.74900
C  46.35000 15.30800 31.70300
C  50.38300 17.63300 30.72100
C  49.94900 16.48200 25.90000
C  45.89200 14.05900 26.97600
N  48.32600 16.39100 31.05000
C  47.51400 15.99400 32.05200
C  48.08300 16.48400 33.48100
C  49.35200 17.28000 33.07700
C  49.34300 17.16000 31.53400
C  49.51100 18.76900 33.48400
C  48.22700 15.31100 34.56100
C  49.01500 15.65400 35.74800
H  48.61400 16.80700 36.77200
N  50.03600 16.74600 28.36400
C  50.71700 17.53400 29.31500
C  51.79300 18.22900 28.59300
C  51.67500 17.95300 27.22500
C  50.57200 16.99800 27.08600
C  52.82800 19.07800 29.30900
C  52.50200 18.41700 26.03100
O  52.33900 17.99700 24.88400
C  53.69500 19.38800 26.30600
N  48.09000 15.13600 26.71800
C  48.77300 15.72300 25.66400
C  48.12200 15.44700 24.28500
C  47.05600 14.33300 24.76600
C  46.95500 14.53300 26.27400
C  47.60700 16.72100 23.68700
C  47.54300 12.90400 24.35000
C  48.04100 11.91800 25.40400
N  46.52700 14.89500 29.15800
C  45.67100 14.10600 28.39100
C  44.50900 13.63000 29.13600
C  44.82400 14.03700 30.41700
C  45.98800 14.83400 30.40500
C  43.38300 12.84300 28.60300
C  44.29200 13.93100 31.75800
O  43.36000 13.34300 32.28400
C  45.18300 14.82700 32.60000
C  44.31100 15.83100 33.35800
O  43.44300 16.46400 32.79900
O  44.53600 15.77800 34.69500
C  43.58100 16.60000 35.42500
H  50.98600 18.29200 31.34900
H  50.34500 16.91200 24.97700
H  45.13800 13.54100 26.38000
H  47.31000 17.12400 33.90800
H  50.27000 16.85500 33.48200
H  48.86100 18.88800 34.35100
H  49.28400 19.50400 32.71200
H  50.57000 18.87800 33.71500
H  48.58400 14.39100 34.09900
H  47.22600 15.09500 34.93500
H  50.06000 15.77300 35.46000
H  48.95500 14.83400 36.46400
H  52.81200 20.14300 29.07700
H  53.77800 18.59300 29.08400
H  52.73700 18.87400 30.37600
H  53.46900 20.35300 26.76000
H  54.16800 19.42500 25.32500
H  54.28400 18.69900 26.91000
H  48.95900 15.09300 23.68200
H  46.10700 14.58200 24.29300
H  46.67000 17.14000 24.05300
H  47.45400 16.34100 22.67600
H  48.31500 17.55000 23.67700
H  48.35300 12.79000 23.62900
H  46.70700 12.25800 24.08200
H  48.70900 11.28700 24.81800
H  47.30200 11.24700 25.84200
H  48.44300 12.35800 26.31600
H  42.40300 13.25300 28.84700
H  43.64600 11.84600 28.95800
H  43.43000 12.88400 27.51500
H  45.49300 14.22700 33.45500
H  43.83500 16.35000 36.45500
H  42.56000 16.24000 35.29600
H  43.63700 17.67100 35.22700

