158

Mg 54.38700 24.04100 44.90000
C  51.53100 26.11600 44.17500
C  52.32800 21.32400 44.07200
C  57.02100 22.07800 44.60800
C  56.23200 26.90600 45.27800
N  52.20100 23.79400 44.10500
C  51.31600 24.73000 43.90900
C  50.03100 24.09800 43.44000
C  50.15700 22.55000 43.75100
C  51.66900 22.51100 44.06500
C  49.24700 22.02000 44.95300
C  49.75000 24.31900 41.94100
C  50.95200 24.25600 40.88600
H  51.93800 23.05800 40.75600
N  54.68400 21.88600 44.49100
C  53.69600 20.96500 44.26900
C  54.35800 19.66100 44.17000
C  55.72000 19.86300 44.59200
C  55.87000 21.32600 44.62500
C  53.64300 18.34000 43.81900
C  56.80900 18.77000 44.70500
O  56.56500 17.59900 44.46900
C  58.24200 19.10400 45.05100
N  56.32900 24.45800 44.69000
C  57.28400 23.47700 44.67200
C  58.66900 24.09000 45.04700
C  58.41000 25.62500 44.97000
C  56.89600 25.67600 44.99700
C  59.15400 23.61400 46.51300
C  58.97100 26.24000 43.71700
C  58.80500 25.58600 42.25700
N  53.98600 26.11800 44.69900
C  54.84700 27.13000 45.02200
C  54.09000 28.30300 45.25100
C  52.82100 27.97300 44.90400
C  52.77500 26.62800 44.57700
C  54.63400 29.58300 45.81800
C  51.41600 28.49700 44.70900
O  50.91500 29.62200 44.89300
C  50.56000 27.26300 44.21800
C  50.17800 27.58900 42.88500
O  50.92300 27.78600 41.91900
O  48.83000 27.88700 42.96200
C  48.37100 28.62400 41.74500
H  51.78200 20.42500 43.78200
H  57.93200 21.48300 44.52300
H  56.86100 27.75500 45.55300
H  49.11700 24.38300 43.96000
H  49.89900 22.02500 42.83200
H  48.72800 21.16800 44.51400
H  48.50200 22.71500 45.34200
H  49.88700 21.64900 45.75400
H  49.16900 25.23800 41.86500
H  49.00000 23.62500 41.56300
H  51.50300 25.14600 41.18900
H  50.65000 24.46100 39.85900
H  54.22000 17.68000 43.17100
H  52.65000 18.53300 43.41200
H  53.51300 17.89300 44.80400
H  58.72300 19.43300 44.13000
H  58.70900 18.12900 45.18500
H  58.39800 19.78800 45.88600
H  59.41500 23.71900 44.34300
H  58.79600 26.25100 45.77400
H  58.48800 22.79600 46.78800
H  59.07700 24.29100 47.36400
H  60.14800 23.18800 46.37900
H  59.98600 26.54800 43.96500
H  58.43100 27.17300 43.55500
H  58.06800 26.20000 41.73900
H  58.45000 24.55500 42.25800
H  59.77500 25.65400 41.76400
H  54.00000 30.41600 45.51200
H  55.66200 29.77500 45.51300
H  54.54600 29.57100 46.90500
H  49.61700 26.97700 44.68500
H  47.44600 29.18700 41.87100
H  48.21600 27.92500 40.92300
H  49.13900 29.26100 41.30800
Mg 42.40300 41.85500 26.41700
C  41.57800 44.24800 28.85000
C  43.85100 39.90700 28.85300
C  43.43800 39.97700 23.98400
C  41.60300 44.40600 23.92600
N  42.84900 42.22900 28.59500
C  42.22600 43.14400 29.41500
C  42.28400 42.70500 30.87600
C  43.27400 41.46800 30.85800
C  43.40300 41.19000 29.36000
C  44.66600 41.80200 31.43900
C  40.84700 42.39300 31.60800
C  40.56000 43.31600 32.86300
H  41.40300 43.07500 34.10700
N  43.21100 40.03600 26.42700
C  43.79700 39.36600 27.51700
C  44.22400 38.04300 26.96400
C  43.84800 38.04900 25.58700
C  43.44000 39.40900 25.26300
C  44.78600 36.96200 27.80500
C  43.96800 36.83600 24.65100
O  43.60200 36.92900 23.45400
C  44.67100 35.57900 25.05500
N  42.61000 42.27000 24.29500
C  42.98600 41.21500 23.51700
C  42.73500 41.46600 22.00100
C  41.86800 42.73500 22.00100
C  42.05700 43.19800 23.46900
C  44.05200 41.67300 21.11200
C  40.31600 42.45300 21.63500
C  39.55100 41.56900 22.66100
N  41.83000 43.96400 26.36600
C  41.48000 44.81700 25.29100
C  40.91400 46.06600 25.84200
C  40.91800 45.83000 27.28600
C  41.53000 44.64800 27.53600
C  40.32300 47.21300 25.05500
C  40.49400 46.43800 28.48900
O  39.92900 47.51600 28.70600
C  40.94800 45.41900 29.60700
C  41.92000 46.18900 30.44900
O  43.09000 46.29400 30.21300
O  41.23400 46.57100 31.60000
C  41.89200 47.12500 32.73400
H  44.08800 39.23800 29.68300
H  43.64900 39.25800 23.19000
H  41.08900 45.04600 23.20500
H  42.73700 43.53600 31.41700
H  42.92700 40.60000 31.41900
H  45.45600 41.24900 30.93000
H  44.75800 41.25800 32.37900
H  44.94300 42.83400 31.65600
H  40.96200 41.40400 32.05200
H  40.04300 42.53100 30.88500
H  39.50600 43.37000 33.13500
H  40.81300 44.30400 32.47700
H  45.08700 37.34500 28.78000
H  45.74400 36.60000 27.43100
H  44.00100 36.24000 28.03100
H  45.71300 35.89600 25.09300
H  44.59900 34.85400 24.24400
H  44.32200 35.13200 25.98600
H  42.20500 40.62700 21.54800
H  42.20100 43.57400 21.39000
H  44.40000 42.69700 20.97400
H  43.74200 41.31100 20.13100
H  44.81900 40.93800 21.35400
H  40.23400 41.97100 20.66100
H  39.76000 43.38900 21.60000
H  38.88300 42.28300 23.14200
H  40.15100 41.22200 23.50200
H  38.98000 40.83700 22.08900
H  41.08900 47.75600 24.50100
H  39.80200 47.86600 25.75500
H  39.59200 46.79100 24.36600
H  40.06500 45.01300 30.10000
H  41.52100 46.68400 33.66000
H  41.62400 48.18100 32.76800
H  42.97100 47.06600 32.58700

