158

Mg -1.17100 17.80000 26.25600
C  -1.59400 15.28400 28.68700
C  -1.88900 20.09600 28.62700
C  -0.95200 20.08400 23.90600
C  -1.16700 15.26900 23.85600
N  -1.53400 17.68800 28.43900
C  -1.61800 16.57000 29.21700
C  -1.78100 16.91500 30.66700
C  -2.20000 18.46900 30.58000
C  -1.94100 18.74400 29.11400
C  -3.63400 18.99100 31.03800
C  -0.64100 16.50300 31.72000
C  -0.53400 17.37000 32.99400
H  -0.26600 16.78300 34.32900
N  -1.25000 19.84000 26.28000
C  -1.51100 20.59100 27.38600
C  -1.48800 21.97900 26.92600
C  -1.13000 21.96800 25.51100
C  -1.09800 20.58800 25.14200
C  -1.87000 23.23600 27.86000
C  -0.97600 23.11500 24.62300
O  -0.67000 22.93600 23.42200
C  -1.10600 24.54600 25.15200
N  -1.02700 17.69500 24.18700
C  -0.97300 18.80600 23.46100
C  -1.03800 18.48900 21.87900
C  -0.96300 16.92900 21.89700
C  -1.09300 16.59800 23.42500
C  -2.24700 19.16300 21.21200
C  0.18800 16.30000 21.14600
C  1.59500 16.24900 21.70200
N  -1.36400 15.69700 26.25200
C  -1.33700 14.81800 25.20200
C  -1.58100 13.47500 25.67500
C  -1.63300 13.62800 27.06200
C  -1.47800 15.00500 27.33000
C  -1.69800 12.33400 24.80400
C  -1.81300 12.88600 28.27000
O  -1.82900 11.65700 28.43300
C  -1.86400 13.92800 29.41200
C  -0.83800 13.51200 30.35900
O  0.33500 13.72400 30.26400
O  -1.40900 12.94200 31.46100
C  -0.58000 12.47000 32.53600
H  -2.23300 20.81400 29.37400
H  -0.99300 20.71500 23.01500
H  -1.24700 14.47500 23.11100
H  -2.72200 16.41900 30.90500
H  -1.56000 19.11500 31.18100
H  -3.52200 19.78800 31.77300
H  -4.12600 18.21100 31.61700
H  -4.27500 19.28900 30.20800
H  0.25000 16.32600 31.11600
H  -0.99600 15.50400 31.97100
H  -1.51000 17.84000 33.11600
H  0.25800 18.08900 32.78400
H  -2.67200 23.82300 27.41200
H  -1.01100 23.89700 27.96900
H  -2.01400 22.91500 28.89200
H  -1.02600 25.31600 24.38500
H  -0.32300 24.53700 25.91100
H  -2.10200 24.79400 25.51700
H  -0.17200 18.99400 21.45100
H  -1.86200 16.60900 21.36900
H  -2.92200 19.63600 21.92600
H  -2.74500 18.43200 20.57400
H  -1.81400 19.98500 20.64200
H  0.24400 16.89200 20.23300
H  -0.11900 15.31300 20.80200
H  1.56200 16.67600 22.70400
H  2.39000 16.70200 21.11000
H  1.82200 15.18800 21.80500
H  -1.70400 11.39900 25.36500
H  -0.93400 12.39000 24.02900
H  -2.71400 12.38100 24.41200
H  -2.81500 13.87300 29.94400
H  -1.23000 11.98100 33.26200
H  -0.06100 13.33800 32.94100
H  0.10900 11.68300 32.23000
Mg -2.08100 35.18900 26.59800
C  -3.99000 33.44400 28.95000
C  -1.48000 37.53200 29.07300
C  -0.23500 36.84600 24.33700
C  -3.21200 33.04000 24.23700
N  -2.71600 35.41800 28.79600
C  -3.26800 34.43500 29.54900
C  -2.99700 34.76100 31.04800
C  -2.53300 36.21700 31.08400
C  -2.21500 36.40700 29.56100
C  -3.66400 37.12100 31.71700
C  -2.11100 33.64100 31.69500
C  -2.74300 32.80500 32.79200
H  -2.02300 32.79200 34.15200
N  -1.04300 36.98000 26.64600
C  -0.85300 37.77300 27.80600
C  0.17700 38.78700 27.46000
C  0.37300 38.75400 26.08400
C  -0.28000 37.49300 25.60100
C  0.85800 39.62900 28.53300
C  1.24600 39.67000 25.22500
O  1.54200 39.48500 24.06000
C  1.67200 40.91900 25.71100
N  -1.85300 35.08300 24.49700
C  -0.92800 35.77000 23.82700
C  -0.74000 35.22000 22.39000
C  -1.70400 33.94600 22.39500
C  -2.35200 34.00400 23.79400
C  -1.01800 36.21400 21.27200
C  -1.04500 32.56800 22.13200
C  -0.33800 31.88200 23.33000
N  -3.54700 33.66600 26.48500
C  -3.88300 32.87200 25.44300
C  -4.88900 31.82500 25.87600
C  -4.95700 32.04700 27.26400
C  -4.09400 33.15600 27.57700
C  -5.59300 30.82600 25.07400
C  -5.49100 31.63000 28.49800
O  -6.19900 30.66800 28.73300
C  -4.90700 32.45900 29.68500
C  -5.96900 33.15700 30.43300
O  -6.72100 33.93500 29.92500
O  -6.13400 32.56600 31.68200
C  -7.25200 32.99600 32.48400
H  -1.24000 38.26400 29.84800
H  0.38900 37.37600 23.61500
H  -3.43100 32.30300 23.46100
H  -3.95200 34.64300 31.55900
H  -1.59700 36.34100 31.62900
H  -3.31800 37.70100 32.57300
H  -4.43000 36.45600 32.11500
H  -4.07100 37.74100 30.91800
H  -1.29800 34.09100 32.26500
H  -1.70600 32.95600 30.95000
H  -2.70100 31.79900 32.37400
H  -3.78900 33.06700 32.94800
H  1.94500 39.61100 28.45800
H  0.57200 39.32500 29.54000
H  0.49700 40.65700 28.53500
H  0.92900 41.51100 26.24500
H  2.11400 41.52200 24.91800
H  2.51700 40.74700 26.37700
H  0.29400 34.88000 22.33000
H  -2.50100 34.06000 21.66000
H  -1.84300 35.77700 20.71000
H  -0.02500 36.35300 20.84500
H  -1.31300 37.22000 21.57100
H  -0.23400 32.70400 21.41500
H  -1.72800 31.87700 21.63800
H  -0.92000 30.97600 23.49900
H  -0.34500 32.42900 24.27200
H  0.73500 31.73200 23.20600
H  -5.28500 30.77300 24.03000
H  -6.64200 31.11500 25.14400
H  -5.42600 29.81800 25.45400
H  -4.30200 31.83600 30.34300
H  -7.89100 33.74500 32.01500
H  -6.85000 33.38100 33.42100
H  -7.84400 32.11900 32.74400

