158

Mg 2.74600 -2.41900 45.53200
C  5.81100 -1.02600 44.64900
C  1.26200 -0.04200 43.27800
C  -0.10000 -3.91700 45.60300
C  4.45200 -5.18600 46.79900
N  3.44000 -0.82600 44.05900
C  4.75200 -0.37700 43.97200
C  4.90700 0.80200 43.01300
C  3.42000 1.13100 42.67200
C  2.63600 0.06300 43.36300
C  2.94300 2.50700 43.13000
C  5.76600 0.49000 41.73700
C  7.07300 1.36000 41.59000
H  7.57800 1.59300 40.14000
N  0.76700 -1.90000 44.77100
C  0.40600 -0.93600 43.88600
C  -0.98500 -1.01600 43.60600
C  -1.46000 -2.18800 44.28100
C  -0.29800 -2.68100 44.95600
C  -1.74100 -0.15100 42.57800
C  -2.90000 -2.76900 44.20500
O  -3.76300 -2.26100 43.50300
C  -3.32100 -4.00500 45.04900
N  2.23400 -4.21700 46.23600
C  0.96900 -4.57800 46.19300
C  0.80000 -5.94200 46.86300
C  2.26800 -6.37800 47.22100
C  3.05500 -5.13900 46.78700
C  -0.12500 -6.04700 48.12900
C  2.73500 -7.75900 46.53000
C  2.40100 -8.99000 47.37500
N  4.68800 -2.96000 45.73600
C  5.22600 -4.11100 46.36000
C  6.64900 -3.88900 46.56700
C  6.84700 -2.63000 45.92300
C  5.68800 -2.18100 45.37700
C  7.68800 -4.69500 47.35700
C  7.86600 -1.68300 45.67300
O  9.04700 -1.66600 45.93200
C  7.28800 -0.61900 44.76200
C  7.42700 0.81800 45.33000
O  6.73400 1.34500 46.25400
O  8.47200 1.39700 44.75600
C  8.55400 2.84700 45.03200
H  0.77600 0.69200 42.63200
H  -1.01600 -4.50900 45.65900
H  4.94600 -5.98600 47.35400
H  5.44000 1.60000 43.52900
H  3.28400 1.12800 41.59100
H  2.12800 2.45400 43.85100
H  2.60400 3.07500 42.26400
H  3.83100 2.98600 43.54300
H  5.18800 0.61700 40.82100
H  6.11800 -0.54100 41.71900
H  7.79000 0.93500 42.29200
H  6.97600 2.34100 42.05600
H  -1.18800 0.76600 42.37700
H  -2.68300 0.27300 42.92500
H  -1.98200 -0.73400 41.68900
H  -2.86800 -4.92200 44.67200
H  -4.38500 -4.19800 44.91500
H  -3.03000 -3.85900 46.08900
H  0.32600 -6.59400 46.13000
H  2.37500 -6.56400 48.29000
H  -0.48600 -5.05800 48.41200
H  0.40300 -6.34100 49.03600
H  -0.90500 -6.79700 47.99500
H  3.75000 -7.83100 46.13900
H  1.98300 -7.77900 45.74100
H  1.32400 -9.15600 47.38400
H  2.65100 -8.79700 48.41900
H  2.91700 -9.88300 47.02400
H  7.74800 -5.67900 46.89300
H  7.43800 -4.85100 48.40700
H  8.68200 -4.26300 47.24600
H  7.71800 -0.64600 43.76100
H  7.56100 3.22500 44.78900
H  9.21400 3.30200 44.29300
H  8.90900 3.03100 46.04600
Mg -5.29100 24.99500 26.01400
C  -3.71000 26.32600 28.93000
C  -7.15200 23.14700 28.18800
C  -6.30800 23.34600 23.29700
C  -3.10600 26.91600 24.11500
N  -5.26900 24.67500 28.30500
C  -4.65600 25.39300 29.24200
C  -5.05300 25.05200 30.65300
C  -6.02200 23.83800 30.40100
C  -6.18700 23.85600 28.88800
C  -5.48400 22.45100 30.87400
C  -5.79400 26.32900 31.25300
C  -5.62700 26.51200 32.70600
H  -6.67800 25.79600 33.54400
N  -6.56200 23.44000 25.78000
C  -7.22300 22.82700 26.80900
C  -8.03500 21.80300 26.20000
C  -7.86400 21.91400 24.77900
C  -6.87600 22.91100 24.52400
C  -8.92500 20.88700 27.02300
C  -8.51300 21.21700 23.66300
O  -8.33600 21.48400 22.49700
C  -9.53300 20.14500 24.01900
N  -4.68400 25.08000 23.94000
C  -5.31600 24.35300 23.02100
C  -4.86700 24.75100 21.57800
C  -3.90000 25.94800 21.85100
C  -3.92400 26.00600 23.37100
C  -4.29600 23.53400 20.81700
C  -4.25300 27.27600 21.22200
C  -3.43200 27.53400 19.94500
N  -3.81000 26.46200 26.37600
C  -2.93700 27.04800 25.50300
C  -2.04300 28.01100 26.21100
C  -2.25800 27.72800 27.55000
C  -3.31700 26.72800 27.59700
C  -1.05900 28.99300 25.66200
C  -1.90600 28.02900 28.92900
O  -1.07500 28.79100 29.41400
C  -2.74100 27.08200 29.84600
C  -1.69900 26.27600 30.62600
O  -1.30300 25.15600 30.36400
O  -1.57100 26.86000 31.84500
C  -1.03100 26.00800 32.95600
H  -7.88200 22.60500 28.79400
H  -6.56700 22.92500 22.32400
H  -2.56100 27.69600 23.57800
H  -4.14500 24.80200 31.20200
H  -6.97700 24.10200 30.85500
H  -4.55200 22.73600 31.36200
H  -5.23200 21.81200 30.02800
H  -6.23300 22.06800 31.56700
H  -6.86800 26.24600 31.08900
H  -5.52600 27.26500 30.76300
H  -5.76700 27.56700 32.94200
H  -4.60900 26.26900 33.00900
H  -9.97900 20.96100 26.75400
H  -8.71200 21.01400 28.08400
H  -8.70900 19.86300 26.72000
H  -10.14400 19.77100 23.19700
H  -10.24800 20.62900 24.68400
H  -9.00000 19.38600 24.59200
H  -5.72700 25.02800 20.96800
H  -2.87000 25.70000 21.59300
H  -4.98500 22.97000 20.18900
H  -4.02900 22.80300 21.58000
H  -3.40500 23.90200 20.30700
H  -4.03300 28.19400 21.76500
H  -5.26400 27.35000 20.82000
H  -4.04600 27.67700 19.05600
H  -2.70700 26.76300 19.68600
H  -2.81300 28.42900 20.00300
H  -1.29700 29.23100 24.62500
H  -0.07300 28.58200 25.87900
H  -1.10900 29.89600 26.27100
H  -3.17600 27.71100 30.62300
H  -0.60400 25.05100 32.65500
H  -1.85700 25.69900 33.59600
H  -0.26100 26.49400 33.55500

