158

Mg -2.19800 17.40200 27.10000
C  -2.75700 15.24400 29.78600
C  -3.18500 20.04400 28.94500
C  -2.02500 19.38700 24.31100
C  -2.24600 14.54700 25.03600
N  -2.78900 17.52600 29.07200
C  -2.89700 16.58800 30.12600
C  -3.11100 17.23200 31.55200
C  -3.41700 18.71800 31.10500
C  -3.10700 18.79000 29.65100
C  -4.89500 19.14800 31.51500
C  -1.83700 17.14200 32.46000
C  -2.00100 17.78500 33.84700
H  -1.38100 17.07400 35.05700
N  -2.32700 19.45400 26.75100
C  -2.79500 20.37600 27.63400
C  -2.69700 21.70100 27.10300
C  -2.25700 21.54900 25.71100
C  -2.21400 20.09500 25.55100
C  -3.04600 22.95900 27.87100
C  -1.90600 22.62400 24.69700
O  -1.65800 22.37900 23.50500
C  -1.81300 23.98600 25.14500
N  -2.08100 17.02000 24.89800
C  -1.96200 17.97900 24.00800
C  -1.87100 17.39000 22.59800
C  -1.71200 15.83700 22.94400
C  -2.08700 15.75600 24.37000
C  -3.08200 17.67800 21.77300
C  -0.25500 15.32000 22.52900
C  0.93600 15.85300 23.35500
N  -2.28600 15.36400 27.32700
C  -2.27600 14.37000 26.39500
C  -2.50500 13.14000 27.04000
C  -2.70100 13.41100 28.41300
C  -2.55200 14.74300 28.49300
C  -2.70300 11.72400 26.35800
C  -2.93900 12.84300 29.71000
O  -3.11900 11.69000 30.01500
C  -3.02400 14.06200 30.71100
C  -2.05100 13.72000 31.75300
O  -0.82600 13.59900 31.60400
O  -2.81200 13.52200 32.91900
C  -2.08400 12.81700 33.92900
H  -3.42000 20.80100 29.69600
H  -1.86900 20.02700 23.44000
H  -2.36500 13.71000 24.34400
H  -3.98700 16.74900 31.98600
H  -2.75800 19.42900 31.60400
H  -5.34700 18.23000 31.89100
H  -5.44700 19.56300 30.67200
H  -4.85600 19.92500 32.27800
H  -1.08900 17.65900 31.86000
H  -1.57000 16.09400 32.59700
H  -3.07100 17.69800 34.03500
H  -1.69500 18.83100 33.84300
H  -3.52600 22.82500 28.84100
H  -3.73000 23.48300 27.20400
H  -2.16900 23.57000 28.08400
H  -0.95200 24.00000 25.81300
H  -2.71500 24.33500 25.64800
H  -1.62500 24.58900 24.25700
H  -0.94400 17.72800 22.13400
H  -2.43300 15.17700 22.46200
H  -3.98800 17.86700 22.34900
H  -3.38300 17.00700 20.96800
H  -2.70400 18.55700 21.25100
H  -0.18200 15.63900 21.48900
H  -0.21200 14.23200 22.59200
H  0.57600 16.31200 24.27600
H  1.47700 16.61900 22.79900
H  1.61800 15.01900 23.52200
H  -2.45500 10.89500 27.02200
H  -1.88200 11.81400 25.64600
H  -3.72800 11.58500 26.01600
H  -4.07000 14.01100 31.01200
H  -1.55600 11.96000 33.51100
H  -2.82200 12.46000 34.64800
H  -1.36900 13.49500 34.39500
Mg 35.01700 3.44300 29.81000
C  32.97000 4.64400 32.28300
C  37.67200 3.21900 31.96800
C  37.11400 2.80800 27.13100
C  32.44200 4.09300 27.50600
N  35.21900 3.80200 31.92400
C  34.20600 4.27400 32.77300
C  34.72700 4.15100 34.19000
C  36.32400 3.99000 34.07200
C  36.44500 3.69200 32.54400
C  37.18800 5.17800 34.57600
C  34.05800 2.98600 34.94200
C  33.72700 3.14300 36.48000
H  34.53500 4.12400 37.29700
N  37.07900 2.96800 29.56700
C  38.00700 2.81100 30.63800
C  39.30600 2.39800 30.08600
C  39.12700 2.43300 28.70100
C  37.69500 2.75600 28.36500
C  40.49600 2.18900 31.00200
C  40.30000 2.16400 27.65500
O  40.14700 2.26000 26.49300
C  41.72100 1.86200 28.00700
N  34.85800 3.48300 27.74100
C  35.82400 3.14300 26.80400
C  35.40900 3.11900 25.36800
C  33.88000 3.13200 25.57000
C  33.67900 3.57100 27.01800
C  36.03400 4.25300 24.45600
C  33.17200 1.78400 25.32700
C  31.89200 1.75400 24.45200
N  33.06000 4.35900 29.81400
C  32.11900 4.42600 28.87200
C  30.86200 4.85100 29.43400
C  31.15000 4.85600 30.74100
C  32.49800 4.61900 30.98800
C  29.61000 5.14200 28.68700
C  30.56000 5.11600 32.05000
O  29.40400 5.42400 32.41900
C  31.65800 4.75000 33.08600
C  31.55800 5.92100 34.09400
O  31.84400 7.12500 33.91600
O  31.21100 5.32300 35.23700
C  30.79800 6.23400 36.30800
H  38.45700 3.26800 32.72400
H  37.73000 2.61900 26.24900
H  31.58300 3.93700 26.85000
H  34.37500 5.07300 34.65400
H  36.68300 3.08900 34.57100
H  37.78100 5.52000 33.72700
H  37.94800 4.81100 35.26600
H  36.56800 6.02000 34.88100
H  34.60800 2.04600 34.92200
H  33.15300 2.74300 34.38600
H  33.84400 2.11700 36.83000
H  32.69700 3.40800 36.71500
H  41.17900 3.01800 30.81700
H  40.94600 1.20900 30.84400
H  40.07200 2.18200 32.00600
H  42.28600 1.62800 27.10500
H  41.72400 0.92200 28.56000
H  42.14600 2.67700 28.59200
H  35.87100 2.20400 24.99600
H  33.38500 3.82800 24.89200
H  36.85200 4.76000 24.96800
H  35.27400 5.02100 24.31500
H  36.35000 3.70200 23.57000
H  32.88900 1.36500 26.29300
H  33.80100 1.00200 24.90200
H  31.48100 0.76000 24.62800
H  32.16500 1.93200 23.41200
H  31.18800 2.40000 24.97600
H  29.87100 5.57600 27.72200
H  29.14900 5.94900 29.25700
H  28.86000 4.35900 28.79300
H  31.47700 3.83400 33.64900
H  30.33400 5.62800 37.08600
H  30.04500 6.97800 36.04700
H  31.68500 6.62300 36.80700

