158

Mg 24.86100 -5.45300 46.22000
C  27.28900 -3.53500 44.48400
C  22.57700 -4.30000 43.88500
C  23.01800 -8.14000 46.90100
C  27.43500 -6.62000 48.25500
N  24.87000 -3.95300 44.48400
C  26.02400 -3.36800 43.95100
C  25.59700 -2.53500 42.73600
C  24.06700 -2.39400 42.86600
C  23.84100 -3.58300 43.77400
C  23.60900 -1.03800 43.45000
C  26.16700 -3.14700 41.51500
C  26.51900 -2.03100 40.39900
H  26.06800 -2.34100 38.96100
N  23.01900 -6.04300 45.53600
C  22.19300 -5.46500 44.65900
C  20.99400 -6.24900 44.44600
C  21.01600 -7.25400 45.38600
C  22.38100 -7.20300 46.00700
C  19.90900 -5.90000 43.39600
C  19.94500 -8.35400 45.56200
O  18.83000 -8.23800 45.01900
C  20.12300 -9.50600 46.54400
N  25.12400 -7.08000 47.39900
C  24.25900 -8.14300 47.48300
C  24.58400 -9.06000 48.71700
C  26.09000 -8.73800 48.87400
C  26.17600 -7.35700 48.22700
C  23.83900 -8.59600 49.90400
C  26.98400 -9.74700 48.08500
C  27.70800 -10.80100 48.91300
N  27.03500 -5.06500 46.43800
C  27.89400 -5.64800 47.31200
C  29.24600 -5.10000 47.08900
C  29.04000 -4.26400 46.00200
C  27.71000 -4.36100 45.60500
C  30.45900 -5.22800 47.91200
C  29.77100 -3.30700 45.09500
O  30.96400 -3.13600 45.02400
C  28.64400 -2.84400 44.08900
C  28.53200 -1.38500 44.14000
O  28.37000 -0.77600 45.17700
O  28.71300 -0.75100 42.91700
C  28.66900 0.77300 42.95200
H  21.88800 -3.84800 43.16800
H  22.37700 -8.97200 47.19800
H  28.13200 -7.14200 48.91500
H  26.02500 -1.56300 42.98100
H  23.51100 -2.63600 41.96000
H  24.35600 -0.27000 43.65000
H  23.01400 -1.31600 44.32000
H  22.91400 -0.46500 42.83600
H  25.40100 -3.88600 41.27800
H  27.05300 -3.72100 41.78600
H  27.60300 -2.13200 40.44200
H  26.16000 -1.04900 40.70700
H  19.97900 -4.94500 42.87600
H  18.92100 -5.87600 43.85600
H  20.01900 -6.68400 42.64700
H  19.24600 -10.09800 46.80400
H  20.38800 -8.96300 47.45100
H  20.93300 -10.15300 46.20700
H  24.39900 -10.11300 48.50300
H  26.47000 -8.72000 49.89500
H  22.76900 -8.55400 49.70100
H  24.17100 -7.59300 50.17400
H  23.94200 -9.30200 50.72800
H  27.73400 -9.21500 47.50000
H  26.41800 -10.37800 47.40000
H  27.74400 -10.45300 49.94600
H  28.71800 -10.96500 48.53800
H  27.13900 -11.72900 48.86600
H  30.78100 -4.21600 48.15700
H  31.17800 -5.82400 47.35000
H  30.30400 -5.80800 48.82200
H  28.92300 -3.07500 43.06100
H  27.81600 1.03700 43.57700
H  28.51200 1.06300 41.91300
H  29.55400 1.26300 43.35800
Mg 42.50000 41.94600 26.21900
C  41.50300 44.27400 28.70000
C  43.41900 39.77400 28.80000
C  43.50900 39.63300 23.93000
C  41.88700 44.21000 23.80000
N  42.33900 41.98500 28.51900
C  41.91900 43.07300 29.25700
C  41.89600 42.64700 30.76200
C  42.66800 41.22400 30.79500
C  42.75500 40.93600 29.26500
C  43.86600 41.02400 31.69200
C  40.47100 42.57700 31.40900
C  40.33700 43.23600 32.75000
H  41.34600 42.97800 33.84600
N  43.37500 40.07000 26.32600
C  43.66500 39.42000 27.48300
C  44.11300 38.07400 27.12900
C  43.97200 37.91800 25.72600
C  43.67400 39.21000 25.21900
C  44.51000 36.91900 28.17400
C  44.16600 36.70500 24.87400
O  44.04500 36.66800 23.66900
C  44.48100 35.35300 25.50800
N  42.75900 41.89600 24.21400
C  43.26200 40.89700 23.43200
C  43.34400 41.28700 21.92900
C  42.69800 42.71800 21.90200
C  42.39700 42.94100 23.43200
C  44.73000 41.14600 21.15600
C  41.40600 42.69000 21.10700
C  40.18600 42.06400 21.81900
N  41.75000 43.82100 26.20600
C  41.58300 44.66000 25.12200
C  41.18700 46.01900 25.59400
C  41.12700 45.86700 27.00900
C  41.45200 44.51900 27.32200
C  40.93200 47.21100 24.79700
C  40.75100 46.53700 28.23600
O  40.52900 47.76300 28.34600
C  41.01400 45.54200 29.42500
C  42.02300 46.10200 30.24500
O  43.01100 46.59700 29.74200
O  41.79200 45.82100 31.56800
C  42.85200 46.28600 32.43300
H  43.50000 38.99300 29.55900
H  43.87500 38.97000 23.14300
H  41.68700 45.01200 23.08700
H  42.47700 43.35200 31.35500
H  42.10400 40.35400 31.13300
H  44.56000 40.41900 31.10900
H  43.66500 40.58000 32.66800
H  44.44900 41.93000 31.85500
H  40.05800 41.57000 31.37400
H  39.92200 43.16200 30.67100
H  39.40000 42.84800 33.14800
H  40.20500 44.31000 32.61500
H  45.45000 36.44100 27.89900
H  43.68500 36.22200 28.31700
H  44.67600 37.40400 29.13600
H  43.86000 35.21900 26.39400
H  45.56300 35.38400 25.63700
H  44.29400 34.46000 24.91100
H  42.73500 40.57300 21.37300
H  43.38800 43.44500 21.47400
H  45.38200 41.96400 21.46100
H  44.56300 41.24500 20.08300
H  45.09800 40.14400 21.37900
H  41.58000 42.06400 20.23200
H  41.19800 43.73400 20.87300
H  39.83500 41.17400 21.29700
H  39.51900 42.92700 21.83700
H  40.36100 41.69700 22.83000
H  41.40500 46.94300 23.85300
H  41.57600 47.92000 25.31900
H  39.90600 47.52800 24.61100
H  40.14800 45.23300 30.01000
H  43.26000 47.25100 32.13300
H  43.71500 45.62800 32.33900
H  42.51500 46.31600 33.46900

