158

Mg 44.04400 42.32700 26.09300
C  43.07900 44.62800 28.64000
C  45.29300 40.36900 28.48300
C  45.09900 40.45100 23.75500
C  43.38400 44.98000 23.77500
N  44.02400 42.56900 28.34800
C  43.65100 43.49600 29.22700
C  43.87900 43.09200 30.71100
C  44.85300 41.88200 30.49300
C  44.74400 41.55200 28.98700
C  46.31100 42.07300 31.02000
C  42.46200 42.80000 31.34500
C  42.11200 43.28200 32.73500
H  43.28700 43.47900 33.79900
N  44.99100 40.52800 26.11500
C  45.37900 39.84000 27.20700
C  45.81800 38.56000 26.80400
C  45.76100 38.53100 25.38100
C  45.22500 39.84200 25.01800
C  46.20500 37.45900 27.69600
C  46.27500 37.53600 24.42300
O  46.08800 37.63100 23.17800
C  46.97700 36.33600 24.89900
N  44.40600 42.78000 24.08000
C  44.80500 41.77200 23.35400
C  44.79400 42.13900 21.82800
C  44.13100 43.55400 21.83500
C  44.01500 43.79900 23.34000
C  46.11200 42.04800 21.11200
C  42.76300 43.57400 21.07100
C  41.72600 42.64600 21.63400
N  43.31500 44.37800 26.17800
C  43.11000 45.27100 25.15100
C  42.54900 46.53700 25.64800
C  42.53100 46.28800 27.00800
C  43.02200 44.97600 27.28400
C  42.05700 47.74300 24.88600
C  42.18700 46.87000 28.28800
O  41.63000 47.92600 28.52000
C  42.49400 45.82000 29.38900
C  43.38300 46.41500 30.49700
O  44.60300 46.66400 30.46500
O  42.59700 46.71400 31.54900
C  43.23800 47.15600 32.77400
H  45.74300 39.76300 29.27200
H  45.13800 39.73900 22.92800
H  43.12200 45.73200 23.02800
H  44.34500 43.95900 31.18000
H  44.47800 40.97600 30.96900
H  46.42000 43.10200 31.36400
H  47.02500 42.00600 30.20000
H  46.55000 41.39500 31.83900
H  42.24500 41.74100 31.20100
H  41.77600 43.32900 30.68500
H  41.39200 42.63400 33.23600
H  41.64900 44.26800 32.72600
H  47.25500 37.22700 27.51500
H  45.51300 36.62500 27.57900
H  46.21400 37.81300 28.72700
H  47.85400 36.56000 25.50700
H  47.10600 35.60500 24.10100
H  46.22500 35.77600 25.45500
H  44.08400 41.51200 21.28900
H  44.86800 44.19700 21.35400
H  46.10000 41.24200 20.37800
H  46.93800 41.97200 21.82000
H  46.25200 42.95100 20.51900
H  42.87100 43.41200 19.99800
H  42.40800 44.59900 21.17300
H  42.17600 41.91700 22.30800
H  41.28400 42.02400 20.85500
H  40.93600 43.22500 22.11300
H  42.02700 47.40400 23.85000
H  42.86200 48.45500 25.06600
H  41.07300 48.14900 25.12200
H  41.54700 45.45900 29.79100
H  44.01400 47.86200 32.47600
H  43.67200 46.39200 33.42000
H  42.45600 47.59800 33.39100
Mg 27.43300 50.45100 26.80400
C  25.13500 51.37700 29.16100
C  29.75500 50.27000 29.19700
C  29.73400 50.12100 24.26900
C  25.07900 51.31500 24.33500
N  27.44100 50.76500 28.90400
C  26.34100 50.89000 29.66200
C  26.59600 50.69700 31.16400
C  28.15700 50.30700 31.16000
C  28.48000 50.50000 29.69100
C  29.03800 51.05700 32.17100
C  25.65000 49.63300 31.89400
C  24.85900 50.19400 33.09800
H  24.80300 49.47900 34.40600
N  29.46800 50.04100 26.75100
C  30.24900 50.04300 27.86800
C  31.61200 49.90800 27.49300
C  31.65300 49.80500 26.07500
C  30.21900 49.95400 25.58900
C  32.71400 49.98700 28.48100
C  32.84400 49.62300 25.13300
O  32.76100 49.80200 23.90500
C  34.20000 49.27400 25.78400
N  27.39100 50.56000 24.70800
C  28.40500 50.32900 23.92300
C  28.02600 50.42500 22.43300
C  26.50400 50.66800 22.42100
C  26.32900 50.78600 23.94900
C  28.99100 51.30600 21.62900
C  25.71200 49.53800 21.73000
C  25.66100 48.27400 22.54800
N  25.45600 51.23900 26.70100
C  24.61000 51.52400 25.68600
C  23.37200 52.07900 26.17300
C  23.53400 51.97400 27.55900
C  24.78800 51.51300 27.80100
C  22.21300 52.50400 25.35400
C  22.79300 52.19500 28.78800
O  21.65900 52.59700 28.99500
C  23.84700 51.73800 29.91200
C  24.03700 52.85500 30.84200
O  24.89700 53.74200 30.73800
O  23.22400 52.72600 31.92300
C  23.44400 53.79400 32.94500
H  30.48900 50.14200 29.99600
H  30.52900 49.95300 23.54000
H  24.35300 51.54400 23.55300
H  26.47800 51.61100 31.74600
H  28.22100 49.22700 31.28800
H  29.42100 50.32500 32.88300
H  28.47500 51.85000 32.66300
H  29.91600 51.46900 31.67400
H  26.26500 48.75200 32.08100
H  24.84900 49.33900 31.21600
H  23.82500 50.43200 32.84700
H  25.26200 51.17000 33.36700
H  33.05300 48.99900 28.79500
H  32.36100 50.52000 29.36400
H  33.67400 50.35700 28.12300
H  34.92000 48.94500 25.03600
H  34.11700 48.45900 26.50400
H  34.71100 50.12700 26.23100
H  28.12300 49.39300 22.09600
H  26.49500 51.68100 22.02000
H  29.87000 51.65000 22.17300
H  28.40700 52.10300 21.16700
H  29.26600 50.53600 20.90900
H  26.22100 49.30500 20.79500
H  24.72700 49.91000 21.44800
H  25.64700 47.45700 21.82600
H  24.71400 48.17900 23.08000
H  26.46200 48.13700 23.27400
H  22.22100 53.59000 25.44900
H  21.21100 52.18200 25.63800
H  22.42400 52.33300 24.29900
H  23.46000 50.90300 30.49400
H  23.59900 54.80000 32.55700
H  24.23300 53.40700 33.59000
H  22.49900 54.00700 33.44500

