158

Mg 24.37000 -4.66200 45.73000
C  26.56900 -2.36700 44.12200
C  21.91300 -3.54700 43.65100
C  22.47400 -7.29500 46.57600
C  27.01500 -5.84500 47.43000
N  24.23100 -2.99500 44.21400
C  25.16700 -2.21900 43.67200
C  24.71900 -1.42800 42.45900
C  23.18000 -1.66500 42.54000
C  23.04500 -2.80900 43.57300
C  22.36100 -0.33700 42.83900
C  25.38700 -1.88200 41.12800
C  26.10000 -0.83700 40.28300
H  25.84300 -0.81000 38.80000
N  22.44700 -5.30600 45.23500
C  21.60900 -4.66900 44.39300
C  20.35200 -5.41500 44.35200
C  20.53700 -6.59300 45.09800
C  21.86200 -6.39500 45.67800
C  19.17400 -5.10800 43.55400
C  19.51400 -7.69700 45.25700
O  18.35200 -7.61600 44.87500
C  19.80100 -8.92000 46.00500
N  24.65000 -6.34000 46.81300
C  23.72700 -7.28800 47.11000
C  24.25300 -8.36600 48.03100
C  25.61700 -7.79000 48.46200
C  25.79600 -6.58900 47.50300
C  23.35700 -8.79800 49.17200
C  26.74600 -8.86100 48.39200
C  27.49800 -8.96000 49.68200
N  26.37500 -4.19800 45.80700
C  27.37000 -4.77800 46.57900
C  28.53000 -3.97800 46.54900
C  28.26600 -3.15600 45.45200
C  26.94600 -3.25500 45.06600
C  29.81600 -4.08500 47.35100
C  28.87600 -2.18700 44.58400
O  30.00600 -1.75000 44.60500
C  27.80800 -1.66200 43.65000
C  27.66200 -0.16000 43.72000
O  26.94000 0.44600 44.50600
O  28.50600 0.39500 42.83000
C  28.80500 1.77800 43.23900
H  21.00100 -3.21400 43.15200
H  21.90700 -8.13000 46.99300
H  27.79300 -6.21600 48.10000
H  24.94900 -0.38400 42.67300
H  22.60700 -2.09800 41.72000
H  22.92400 0.57600 42.64600
H  21.94100 -0.25800 43.84200
H  21.70000 -0.31100 41.97300
H  24.67800 -2.45900 40.53600
H  26.14700 -2.59500 41.44800
H  27.17400 -1.02500 40.29700
H  26.03600 0.17300 40.68600
H  19.05200 -5.77900 42.70400
H  19.17800 -4.07900 43.19300
H  18.30300 -5.24300 44.19500
H  19.78600 -8.52000 47.01900
H  20.79100 -9.27000 45.71100
H  18.98700 -9.63500 45.88500
H  24.38100 -9.22600 47.37400
H  25.57300 -7.46600 49.50200
H  23.95600 -9.01400 50.05700
H  22.86000 -9.72400 48.88000
H  22.70200 -7.95100 49.37400
H  27.46100 -8.66100 47.59300
H  26.36900 -9.87400 48.25400
H  26.84000 -9.05600 50.54500
H  28.11900 -8.08400 49.87400
H  28.15600 -9.82900 49.66300
H  30.49100 -3.32300 46.96100
H  30.23800 -5.08400 47.24400
H  29.60700 -3.84900 48.39500
H  28.14900 -1.90900 42.64500
H  29.74700 1.97300 42.72700
H  28.87800 1.96500 44.31100
H  28.00200 2.40400 42.85200
Mg -1.44600 35.19400 26.83800
C  -3.52500 33.62900 29.10500
C  -0.45800 37.38100 29.40800
C  0.08300 37.19100 24.60700
C  -2.74900 33.33800 24.32600
N  -2.06000 35.55400 28.98700
C  -2.77100 34.67400 29.71600
C  -2.82800 35.20400 31.17100
C  -1.95700 36.50800 31.21500
C  -1.44700 36.50700 29.79200
C  -2.71200 37.78100 31.56200
C  -2.42800 34.16700 32.21300
C  -3.43900 33.56500 33.19000
H  -2.85200 33.06500 34.55100
N  -0.30300 36.94300 27.01200
C  0.03700 37.62300 28.13500
C  1.07700 38.62700 27.85900
C  1.25900 38.61000 26.41900
C  0.28700 37.55100 25.96800
C  1.79000 39.50300 28.83400
C  2.16700 39.47200 25.49800
O  2.32600 39.18700 24.31400
C  3.04200 40.50700 26.08900
N  -1.16600 35.14800 24.79300
C  -0.53800 36.10700 24.04800
C  -0.53200 35.76400 22.54800
C  -1.38400 34.42600 22.54300
C  -1.73700 34.26000 23.97800
C  -1.10900 36.94100 21.61200
C  -0.73700 33.10400 22.06200
C  -1.55500 32.16800 21.13500
N  -2.87500 33.73600 26.70700
C  -3.31300 33.05800 25.59300
C  -4.30800 32.10700 26.00800
C  -4.34800 32.22100 27.41800
C  -3.53400 33.27400 27.76700
C  -5.04800 31.14100 25.12500
C  -4.99100 31.66800 28.60400
O  -5.72600 30.73500 28.72300
C  -4.55700 32.66800 29.72700
C  -5.80800 33.36900 30.08600
O  -6.15700 34.47800 29.70900
O  -6.50700 32.68800 31.05300
C  -7.51400 33.49400 31.74800
H  -0.04900 37.73500 30.35600
H  0.62800 37.70900 23.81400
H  -3.20500 32.66400 23.59800
H  -3.88000 35.35800 31.41300
H  -1.09200 36.43300 31.87400
H  -3.31900 37.56200 32.44000
H  -3.33200 38.19400 30.76700
H  -1.95600 38.44600 31.97900
H  -1.55600 34.58400 32.71800
H  -2.21700 33.26900 31.63200
H  -3.93500 32.66500 32.82500
H  -4.24900 34.23700 33.47500
H  2.86700 39.58600 28.68900
H  1.77800 39.15000 29.86600
H  1.33400 40.49200 28.80100
H  3.73800 40.14000 26.84400
H  2.41700 41.17100 26.68800
H  3.55100 41.14000 25.36200
H  0.42100 35.46800 22.11000
H  -2.28500 34.53400 21.93800
H  -2.18700 36.91500 21.45300
H  -0.58400 37.09700 20.67000
H  -0.94000 37.90900 22.08300
H  -0.38500 32.57800 22.95000
H  0.24100 33.29500 21.62000
H  -2.60600 32.43600 21.02700
H  -1.55200 31.18800 21.61200
H  -1.11200 32.14100 20.14000
H  -4.44100 30.50800 24.47900
H  -5.61700 31.74700 24.41900
H  -5.78600 30.58700 25.70500
H  -4.18500 32.17700 30.62500
H  -8.21000 33.95100 31.04500
H  -6.99500 34.25700 32.32900
H  -7.99700 32.75000 32.38100

