158

Mg 46.33400 17.10800 29.05500
C  44.58800 16.64400 32.20400
C  48.66800 18.77900 30.69600
C  47.43800 17.80900 26.17200
C  43.46200 15.51000 27.60300
N  46.57300 17.73100 31.25200
C  45.78400 17.36200 32.33300
C  46.44700 17.91000 33.60000
C  47.67100 18.77100 33.10300
C  47.62400 18.53500 31.59700
C  47.67500 20.27900 33.51700
C  46.88400 16.84500 34.66600
C  46.05800 16.84800 35.99800
H  45.83100 18.21900 36.63500
N  47.99100 17.95600 28.51700
C  48.89400 18.56600 29.30900
C  50.09900 18.94900 28.51800
C  49.75100 18.66600 27.19500
C  48.31800 18.19300 27.23000
C  51.28700 19.59800 29.06900
C  50.52100 18.67600 25.95900
O  50.00300 18.45300 24.88500
C  51.96100 18.91200 25.97800
N  45.52800 16.72400 27.15700
C  46.15900 17.16200 26.10000
C  45.43900 16.85500 24.74400
C  44.31800 15.83400 25.26500
C  44.44900 15.92000 26.75900
C  45.00900 18.18100 24.03000
C  44.44600 14.46400 24.69500
C  43.56400 14.12700 23.51600
N  44.39500 16.30200 29.72800
C  43.37900 15.68200 28.95200
C  42.36400 15.17400 29.80200
C  42.79200 15.52700 31.08400
C  44.03500 16.23300 30.97300
C  41.01100 14.55600 29.33600
C  42.42800 15.51600 32.48700
O  41.42100 15.01700 33.04800
C  43.57000 16.19900 33.23900
C  42.93100 17.32300 33.96900
O  42.78200 18.46300 33.46400
O  42.47000 16.84500 35.15400
C  41.44800 17.79600 35.80800
H  49.46000 19.32900 31.20900
H  47.79300 18.15800 25.20000
H  42.71100 14.82300 27.20900
H  45.68400 18.51200 34.09400
H  48.59400 18.32800 33.47600
H  48.42200 20.47000 34.28800
H  46.73700 20.62600 33.95100
H  47.83500 20.93300 32.66000
H  47.93700 16.97300 34.91400
H  46.73300 15.86000 34.22500
H  46.63100 16.38100 36.79900
H  45.18000 16.22900 35.81500
H  51.32300 20.65600 28.81300
H  52.13000 19.01500 28.69900
H  51.25200 19.48000 30.15200
H  52.49200 18.09200 26.46300
H  52.25700 19.86000 26.42600
H  52.29700 18.87900 24.94200
H  46.15300 16.32800 24.11100
H  43.29200 16.12800 25.04400
H  45.59600 19.00500 24.43600
H  43.94900 18.35700 24.20900
H  45.28600 18.17800 22.97600
H  44.14700 13.68800 25.39900
H  45.46000 14.12900 24.47300
H  44.11400 14.53500 22.66800
H  42.55600 14.50700 23.68100
H  43.60400 13.04200 23.41900
H  40.58100 15.05400 28.46800
H  40.31400 14.52500 30.17400
H  41.20700 13.52100 29.05600
H  43.93400 15.50500 33.99700
H  42.11200 18.21600 36.56400
H  40.64000 17.30700 36.35200
H  40.99700 18.54200 35.15300
Mg 43.31400 42.26400 26.78400
C  42.15500 44.46300 29.30500
C  44.31200 40.18900 29.39100
C  44.76600 40.40000 24.49800
C  43.06900 44.96200 24.54800
N  43.23500 42.24000 29.05300
C  42.55200 43.22400 29.82400
C  42.52400 42.96800 31.38100
C  43.49600 41.73600 31.43900
C  43.75400 41.36600 29.87200
C  44.84000 41.90700 32.28500
C  41.07200 42.82100 31.86100
C  40.65700 43.38100 33.19900
H  41.58900 43.37300 34.35600
N  44.33900 40.46300 26.92100
C  44.65000 39.77300 28.05700
C  45.26200 38.51700 27.60800
C  45.15100 38.45600 26.22600
C  44.76500 39.79200 25.77500
C  45.67900 37.39300 28.48600
C  45.44200 37.29200 25.17300
O  45.25300 37.53500 23.95400
C  45.64800 35.90000 25.58400
N  43.84800 42.59700 24.73200
C  44.35400 41.63400 24.05000
C  44.45100 41.97200 22.60200
C  43.77200 43.45000 22.61800
C  43.52900 43.73700 23.99800
C  45.81900 41.84700 21.91400
C  42.47300 43.56000 21.65900
C  41.16200 42.82500 22.13600
N  42.73900 44.26500 26.88200
C  42.57400 45.22000 25.87700
C  42.05000 46.49200 26.43400
C  41.76300 46.18200 27.73400
C  42.28500 44.89900 27.99200
C  41.73000 47.71900 25.67500
C  41.09500 46.68200 28.95300
O  40.44000 47.72400 29.08800
C  41.41900 45.62700 30.01000
C  42.20300 46.39200 31.00100
O  43.39700 46.62900 30.87500
O  41.43500 46.74200 32.14000
C  42.14400 47.41200 33.18400
H  44.72100 39.57500 30.19600
H  45.26000 39.75600 23.76800
H  42.95900 45.82000 23.88300
H  43.08300 43.78800 31.83200
H  42.95600 40.93400 31.94200
H  45.02600 42.92100 32.63900
H  45.60900 41.60200 31.57500
H  45.01100 41.27100 33.15300
H  40.95200 41.73900 31.90200
H  40.42200 43.09700 31.03100
H  39.74100 42.93600 33.58800
H  40.48000 44.43400 32.98400
H  45.67200 37.87900 29.46200
H  46.67700 37.02000 28.26000
H  44.92700 36.60500 28.49900
H  46.32000 35.66000 26.40700
H  45.85100 35.35000 24.66500
H  44.65000 35.63300 25.93200
H  43.81900 41.25800 22.07400
H  44.44000 44.25400 22.30800
H  46.55900 41.50300 22.63600
H  45.98700 42.89800 21.67900
H  45.93200 41.35600 20.94800
H  42.81600 43.19200 20.69200
H  42.28500 44.62000 21.48900
H  41.17700 42.67700 23.21600
H  40.88900 41.90500 21.61900
H  40.33700 43.51200 21.95000
H  42.51900 47.73600 24.92400
H  41.75700 48.53000 26.40300
H  40.76200 47.65700 25.17600
H  40.47600 45.25200 30.41000
H  42.42100 48.41000 32.84400
H  43.03600 46.83500 33.42500
H  41.45800 47.48000 34.02800

