158

Mg 0.66000 8.44100 27.63000
C  1.66800 10.73300 30.14700
C  0.68900 5.97000 30.03600
C  -0.02600 6.36100 25.15100
C  0.98100 11.12000 25.32600
N  1.12300 8.46700 29.84200
C  1.49600 9.46500 30.68400
C  1.59300 8.95100 32.14300
C  1.66200 7.41100 31.92400
C  1.03500 7.23800 30.53400
C  3.06300 6.76900 31.94000
C  0.31700 9.31200 33.00000
C  0.48400 9.49300 34.53500
H  -0.31200 8.52600 35.44900
N  0.24100 6.43100 27.61600
C  0.25000 5.59100 28.70900
C  -0.30300 4.32700 28.30900
C  -0.41700 4.40000 26.88700
C  -0.06100 5.74300 26.48500
C  -0.65700 3.19400 29.25000
C  -0.87400 3.28800 25.94700
O  -1.01700 3.45900 24.76500
C  -1.15600 2.04000 26.49500
N  0.77100 8.66700 25.52000
C  0.32000 7.67600 24.73300
C  0.07900 8.14800 23.30100
C  0.05200 9.69800 23.45600
C  0.61200 9.87900 24.89700
C  1.12500 7.44200 22.30900
C  -1.38600 10.24600 23.33200
C  -2.01400 10.38800 21.90100
N  1.26900 10.45800 27.61000
C  1.43300 11.44600 26.61600
C  1.77300 12.69700 27.21100
C  1.85600 12.50800 28.54300
C  1.55300 11.10400 28.77000
C  1.79400 13.81900 26.35100
C  2.06800 13.16500 29.81400
O  2.24000 14.36800 30.09000
C  1.78900 12.04900 30.89500
C  2.88300 12.12400 31.90900
O  4.06800 12.00400 31.68700
O  2.31900 12.39600 33.13200
C  3.24900 12.58200 34.29500
H  0.70300 5.15800 30.76600
H  -0.18100 5.62700 24.35700
H  0.78200 11.94500 24.63900
H  2.47000 9.32300 32.67300
H  1.10900 6.86300 32.68700
H  3.79000 7.53600 32.20800
H  3.33300 6.20600 31.04700
H  3.28600 6.09900 32.77000
H  -0.45200 8.55100 32.86600
H  -0.27600 10.16100 32.65700
H  0.26800 10.54200 34.74100
H  1.51500 9.35300 34.85900
H  -1.71500 2.93200 29.24800
H  -0.46400 3.59400 30.24500
H  0.04600 2.36300 29.18100
H  -2.10900 2.10300 27.02100
H  -0.23500 1.76800 27.01000
H  -1.26200 1.25300 25.74900
H  -0.90600 7.79500 22.99700
H  0.70600 10.02000 22.64600
H  1.94000 8.14500 22.13400
H  0.70300 7.20600 21.33200
H  1.39800 6.49800 22.78000
H  -1.42700 11.22400 23.81300
H  -2.06300 9.51400 23.77300
H  -1.31000 10.13100 21.11000
H  -2.36500 11.41500 21.79400
H  -2.91300 9.77400 21.84000
H  0.76900 14.11000 26.12100
H  2.46100 13.62900 25.51000
H  2.20700 14.68700 26.86500
H  0.82000 12.22600 31.36100
H  3.70200 13.56500 34.16700
H  3.98400 11.78200 34.38200
H  2.65500 12.45900 35.20100
Mg 6.23600 53.85700 41.26500
C  5.35500 50.39400 40.95900
C  9.29300 53.05100 40.35500
C  6.72500 57.06000 41.11500
C  2.68100 54.41700 41.82100
N  7.07600 51.99000 40.53800
C  6.62000 50.68600 40.54500
C  7.68300 49.64700 40.03900
C  8.93800 50.48400 40.43600
C  8.40200 51.95100 40.48400
C  9.73300 50.02100 41.73500
C  7.50500 49.13800 38.56500
C  6.80100 50.01100 37.56900
H  6.28600 49.44700 36.22600
N  7.84200 54.93600 40.87600
C  9.02100 54.41400 40.38400
C  9.92600 55.53400 40.09800
C  9.22200 56.72600 40.38500
C  7.90200 56.28400 40.81000
C  11.34300 55.44000 39.51700
C  9.67600 58.14500 40.27600
O  10.84700 58.41700 39.91800
C  8.84800 59.47300 40.47900
N  4.81500 55.48700 41.35000
C  5.37300 56.76200 41.22900
C  4.23200 57.78000 41.35700
C  2.89600 56.96500 41.24300
C  3.44000 55.56100 41.50800
C  4.12100 58.60900 42.68600
C  2.21600 56.92500 39.88300
C  0.84800 57.62500 39.77800
N  4.41000 52.68400 41.43600
C  3.08400 53.08800 41.77100
C  2.25600 51.94000 41.90400
C  3.17500 50.83900 41.73800
C  4.45000 51.35600 41.36000
C  0.84000 51.97300 42.39300
C  3.24700 49.42000 41.70700
O  2.40200 48.52600 41.95200
C  4.62200 49.08400 41.13400
C  4.27100 48.34900 39.81300
O  3.89500 48.86900 38.74500
O  4.31800 47.03900 40.03700
C  4.19000 46.16700 38.90200
H  10.34700 52.84100 40.16100
H  6.86100 58.12100 41.33500
H  1.63100 54.68300 41.95800
H  7.57100 48.83600 40.75900
H  9.56800 50.55100 39.54900
H  9.93500 50.88000 42.37400
H  10.70600 49.60700 41.47200
H  9.21600 49.27900 42.34300
H  6.89900 48.23300 38.61100
H  8.45100 48.80300 38.13900
H  7.48100 50.82500 37.31900
H  6.00200 50.60700 38.01200
H  11.09400 55.85600 38.54000
H  11.76200 54.44900 39.34100
H  12.13700 56.01300 39.99400
H  9.50300 60.34300 40.44400
H  8.46300 59.33400 41.49000
H  7.97500 59.48800 39.82700
H  4.34300 58.48900 40.53600
H  2.14100 57.18100 42.00000
H  3.91100 57.98500 43.55500
H  3.26500 59.28300 42.68400
H  5.05000 59.13000 42.92000
H  2.17600 55.87900 39.58100
H  2.90900 57.46100 39.23400
H  0.82800 58.11200 40.75300
H  0.07100 56.86200 39.72200
H  0.86500 58.35000 38.96500
H  0.21000 52.19800 41.53200
H  0.71100 52.72000 43.17600
H  0.55200 50.97600 42.72700
H  5.11100 48.41700 41.84400
H  4.97300 46.32600 38.16000
H  3.21800 46.14500 38.40800
H  4.37400 45.15100 39.25100

