158

Mg 46.22700 3.59500 47.59800
C  43.68000 5.83700 46.78100
C  43.82300 1.03700 47.55400
C  48.68200 1.13700 47.36200
C  48.56500 6.05800 46.84900
N  44.00600 3.45900 47.12200
C  43.14900 4.52800 46.84200
C  41.69800 3.97200 46.77000
C  41.79300 2.48400 47.23200
C  43.31700 2.30000 47.26600
C  41.11300 2.22200 48.61700
C  41.02000 4.16700 45.32500
C  39.66200 4.96600 45.27600
H  39.63600 6.04700 44.12900
N  46.26400 1.34800 47.40000
C  45.16300 0.59200 47.58900
C  45.59500 -0.80300 47.73800
C  47.08300 -0.80500 47.71300
C  47.44400 0.61100 47.55200
C  44.70300 -1.98900 47.92200
C  47.93700 -2.06800 47.77900
O  47.38600 -3.16400 47.75300
C  49.45900 -2.15400 47.77700
N  48.32800 3.57600 47.12300
C  49.14800 2.46600 47.24100
C  50.60900 2.84400 47.13600
C  50.51900 4.34600 46.62500
C  49.04100 4.71200 46.89400
C  51.36900 2.77000 48.49300
C  50.85800 4.42700 45.08700
C  52.34500 4.39700 44.74400
N  46.19100 5.62200 47.25700
C  47.22700 6.46700 46.92400
C  46.62700 7.77400 46.50900
C  45.20400 7.60900 46.54600
C  45.01600 6.27200 46.86800
C  47.38700 8.99200 45.94200
C  43.92000 8.26700 46.31000
O  43.62400 9.39800 45.92500
C  42.96800 7.15100 46.61500
C  42.03400 7.44200 47.76800
O  42.09700 6.88100 48.85300
O  41.13900 8.44100 47.43000
C  40.17100 8.97800 48.43900
H  43.09900 0.23100 47.68700
H  49.48200 0.43200 47.59800
H  49.26800 6.84700 46.57600
H  41.05800 4.48500 47.48900
H  41.31000 1.80200 46.53200
H  40.57000 3.04600 49.08000
H  41.83800 1.94300 49.38100
H  40.47500 1.34900 48.47800
H  40.95300 3.22600 44.78000
H  41.72400 4.75100 44.73200
H  39.56300 5.43500 46.25500
H  38.84400 4.29700 45.00800
H  43.65700 -1.68500 47.93000
H  44.99100 -2.37500 48.90000
H  44.88400 -2.66700 47.08800
H  49.89900 -3.14600 47.87600
H  49.74200 -1.60900 48.67800
H  49.89500 -1.62700 46.92800
H  51.14700 2.16600 46.47400
H  51.18100 4.98400 47.21000
H  51.79100 3.73700 48.76700
H  52.19200 2.05600 48.48100
H  50.67700 2.52500 49.29900
H  50.31100 5.22500 44.58500
H  50.54800 3.44400 44.73400
H  52.91400 4.54100 45.66200
H  52.60600 5.21900 44.07700
H  52.66300 3.46900 44.27000
H  48.29300 8.65000 45.44100
H  47.77300 9.42200 46.86600
H  46.73000 9.62900 45.35100
H  42.39800 7.18900 45.68700
H  40.63700 9.91900 48.73100
H  40.03500 8.39300 49.34900
H  39.17900 8.99000 47.98800
Mg -9.23900 39.87800 39.89300
C  -8.24300 36.77400 38.67700
C  -6.20100 41.07000 38.98700
C  -10.60900 42.88400 40.00600
C  -12.50000 38.42300 40.30700
N  -7.50700 38.95700 38.66600
C  -7.19600 37.66200 38.62300
C  -5.78200 37.38100 38.03900
C  -5.12800 38.70100 38.55000
C  -6.35800 39.69700 38.78000
C  -4.11200 38.60800 39.66200
C  -5.96800 37.25700 36.43300
C  -5.41300 36.01700 35.62200
H  -6.37100 35.51700 34.55000
N  -8.46800 41.75300 39.66700
C  -7.19000 42.01600 39.32200
C  -7.04700 43.50700 39.19200
C  -8.27000 44.06800 39.62500
C  -9.24200 42.87600 39.79700
C  -5.85700 44.13200 38.60000
C  -8.48800 45.51100 39.74800
O  -7.56100 46.27800 39.51000
C  -9.80300 46.19400 40.26500
N  -11.31600 40.61700 40.04900
C  -11.61500 41.89500 40.08200
C  -13.16800 42.03900 40.24200
C  -13.70400 40.60300 40.45600
C  -12.38600 39.80600 40.25400
C  -13.73000 42.93000 41.36700
C  -14.92800 40.18400 39.61200
C  -16.06100 39.50200 40.41900
N  -10.17600 38.06300 39.68500
C  -11.46100 37.64000 39.90100
C  -11.52800 36.21900 39.71100
C  -10.31300 35.82700 39.22800
C  -9.60300 36.97800 39.12700
C  -12.77100 35.33400 39.89600
C  -9.53800 34.74300 38.78100
O  -9.78900 33.53000 38.70900
C  -8.17100 35.34000 38.45800
C  -7.20900 34.75700 39.40000
O  -6.91600 35.32200 40.41600
O  -6.57000 33.60700 38.95300
C  -5.38300 33.25300 39.72100
H  -5.19900 41.45400 38.79000
H  -11.07600 43.86300 40.13100
H  -13.54500 38.12500 40.41900
H  -5.57800 36.41900 38.50900
H  -4.64600 39.20000 37.71000
H  -4.51500 38.93200 40.62100
H  -3.24900 39.22600 39.41100
H  -3.73900 37.59200 39.79100
H  -5.63800 38.19300 35.98100
H  -7.04100 37.21800 36.24600
H  -5.04700 35.15300 36.17600
H  -4.51000 36.36300 35.11800
H  -6.01100 44.67600 37.66800
H  -5.12800 43.32300 38.55600
H  -5.45600 44.80000 39.36200
H  -10.70600 45.87100 39.74700
H  -9.65200 47.26400 40.12100
H  -9.81900 45.92800 41.32200
H  -13.53000 42.32600 39.25500
H  -13.92200 40.37600 41.49900
H  -12.96400 43.67200 41.59100
H  -14.09200 42.42700 42.26400
H  -14.56100 43.48100 40.92600
H  -14.57200 39.44000 38.89900
H  -15.23300 41.07000 39.05500
H  -16.26100 38.52800 39.97300
H  -16.98700 39.98400 40.10500
H  -16.06700 39.47400 41.50900
H  -13.09500 35.35700 40.93700
H  -12.53000 34.30200 39.64200
H  -13.68600 35.70500 39.43300
H  -7.90100 35.04400 37.44400
H  -5.65800 32.81500 40.68000
H  -4.70900 34.10200 39.83800
H  -4.72000 32.55400 39.21000

