158

Mg 25.50500 1.17900 28.99400
C  27.41100 0.80500 32.04700
C  22.66100 1.51800 31.09400
C  23.56300 1.13500 26.37400
C  28.30300 0.31300 27.22800
N  25.16300 1.19900 31.31100
C  26.08000 1.12000 32.30800
C  25.43300 1.35500 33.67100
C  23.95700 1.38300 33.26700
C  23.90100 1.32300 31.80400
C  22.89500 0.31400 33.85900
C  25.99800 2.55500 34.41400
C  26.73900 2.31800 35.78400
H  26.43900 3.22300 36.96500
N  23.40600 1.29400 28.75500
C  22.44400 1.50500 29.70600
C  21.17500 1.75000 29.01300
C  21.48200 1.81100 27.59900
C  22.83900 1.38700 27.49900
C  19.90100 1.90500 29.74600
C  20.56800 2.18100 26.40100
O  20.91600 2.07100 25.27400
C  19.24600 2.70200 26.69100
N  25.87900 0.57500 27.08700
C  24.92900 0.85500 26.13500
C  25.51700 0.80500 24.69600
C  27.04400 0.42000 25.02600
C  27.08700 0.47100 26.53100
C  24.90100 -0.23600 23.74300
C  28.09100 1.37700 24.39700
C  28.77100 0.85300 23.11100
N  27.48200 0.63400 29.49200
C  28.52000 0.36200 28.60900
C  29.71500 0.19200 29.35900
C  29.37600 0.39400 30.76900
C  27.93900 0.56300 30.73700
C  31.11900 0.02600 28.75000
C  29.85000 0.48000 32.18300
O  30.99300 0.29100 32.62400
C  28.59300 0.83700 33.06700
C  28.48400 -0.28500 34.07700
O  28.10700 -1.37800 33.76200
O  28.94200 0.18300 35.31500
C  28.84300 -0.74000 36.46200
H  21.77300 1.59100 31.72600
H  23.03200 0.96300 25.43600
H  29.24000 0.00700 26.75700
H  25.63500 0.43100 34.21200
H  23.50900 2.35700 33.46500
H  23.22000 0.15700 34.88800
H  22.87300 -0.58400 33.24100
H  21.92200 0.79200 33.97400
H  25.13600 3.14600 34.72100
H  26.44900 3.26100 33.71700
H  27.75100 2.64400 35.54400
H  26.63300 1.25000 35.97800
H  19.80000 1.16400 30.54000
H  18.97500 1.59700 29.26100
H  19.71300 2.85900 30.23800
H  18.78800 3.14000 25.80500
H  19.38400 3.41100 27.50700
H  18.58400 1.93200 27.08800
H  25.49400 1.78600 24.22000
H  27.49800 -0.53100 24.74800
H  25.67300 -0.96500 23.49500
H  24.62300 0.36600 22.87800
H  24.04100 -0.67700 24.24600
H  28.89400 1.68700 25.06600
H  27.68900 2.36300 24.16300
H  28.53200 -0.16900 22.81800
H  29.85900 0.84000 23.17100
H  28.45500 1.47500 22.27300
H  31.25000 0.49300 27.77400
H  31.22900 -1.05300 28.64100
H  31.80700 0.32700 29.54100
H  28.79800 1.76900 33.59500
H  29.12300 -1.73000 36.10100
H  27.87500 -0.82000 36.95600
H  29.45500 -0.46500 37.32000
Mg -11.66600 16.96000 41.52000
C  -8.36000 15.92500 41.84400
C  -10.63700 20.16900 40.88200
C  -14.72800 17.83700 40.54200
C  -12.60800 13.50900 41.59000
N  -9.73900 17.86100 41.36500
C  -8.52400 17.33400 41.66400
C  -7.30100 18.38200 41.34400
C  -8.16500 19.74200 41.40400
C  -9.62300 19.24300 41.24200
C  -7.98100 20.63500 42.59300
C  -6.73100 18.07100 39.86800
C  -5.19600 18.13600 39.69900
H  -4.54100 17.01600 38.81500
N  -12.62600 18.77300 40.89100
C  -12.01200 19.95100 40.75900
C  -12.91700 21.00600 40.37700
C  -14.16100 20.30600 40.10800
C  -13.94200 18.97200 40.56400
C  -12.44900 22.35700 40.03900
C  -15.46400 20.90200 39.53300
O  -15.54900 22.06700 39.12800
C  -16.79000 20.03800 39.41400
N  -13.42700 15.80600 41.00900
C  -14.59000 16.45700 40.79400
C  -15.71100 15.43300 40.83500
C  -15.02800 14.02000 40.94500
C  -13.60000 14.48300 41.23900
C  -16.85600 15.66500 41.86700
C  -15.22600 13.16300 39.72100
C  -14.41100 13.43600 38.45600
N  -10.76800 15.11700 41.83500
C  -11.22200 13.78500 41.75400
C  -10.19600 12.89800 41.92800
C  -9.02000 13.72200 41.92100
C  -9.41700 15.01100 41.86200
C  -10.23200 11.38500 42.01900
C  -7.57000 13.62800 42.07400
O  -6.80900 12.65700 42.24300
C  -7.03700 15.08200 41.87900
C  -6.29900 15.40500 43.05400
O  -6.74300 15.56300 44.16800
O  -4.95300 15.29200 42.80400
C  -4.06800 15.14400 43.92500
H  -10.20800 21.16400 40.74500
H  -15.75400 18.11200 40.28800
H  -12.93100 12.46600 41.60200
H  -6.56600 18.23500 42.13500
H  -7.99000 20.39100 40.54600
H  -7.26600 20.21700 43.30100
H  -8.94200 20.62600 43.10900
H  -7.51500 21.60200 42.40400
H  -7.05200 18.96700 39.33600
H  -7.22300 17.13300 39.61100
H  -4.74100 18.19000 40.68800
H  -4.91500 19.09700 39.26700
H  -11.90100 22.20200 39.10900
H  -11.92900 22.79600 40.89000
H  -13.38500 22.90700 39.93800
H  -17.56200 20.66100 38.96100
H  -17.09000 19.65300 40.38900
H  -16.51400 19.24300 38.72000
H  -16.21800 15.49500 39.87200
H  -15.38200 13.43700 41.79500
H  -16.57900 16.34500 42.67200
H  -17.29700 14.73600 42.22800
H  -17.70800 16.18500 41.42900
H  -16.27000 13.26100 39.42400
H  -14.92500 12.15300 40.00200
H  -13.83900 12.56900 38.12500
H  -13.89700 14.39300 38.36900
H  -15.19400 13.49700 37.70100
H  -10.44400 11.11600 40.98400
H  -11.09100 11.09300 42.62300
H  -9.35100 10.92800 42.47000
H  -6.36000 15.16400 41.02800
H  -3.02900 15.40100 43.71900
H  -4.23200 14.14100 44.32000
H  -4.33000 15.86400 44.70100

