158

Mg 35.48800 1.45600 29.40900
C  33.46600 2.46200 32.05700
C  38.19500 1.40700 31.52000
C  37.67700 0.93300 26.77500
C  32.82400 1.90500 27.19800
N  35.78200 1.93400 31.59900
C  34.82000 2.21200 32.50100
C  35.41300 2.16500 33.90300
C  36.98000 2.24000 33.62600
C  37.01700 1.80800 32.15100
C  37.62700 3.67300 33.82700
C  34.90900 0.91300 34.70700
C  34.64100 1.09900 36.17100
H  35.06300 2.34100 36.87500
N  37.63900 1.04700 29.20400
C  38.51900 1.07900 30.25200
C  39.81200 0.69000 29.67300
C  39.73200 0.55600 28.28100
C  38.31000 0.89900 28.01500
C  41.03300 0.54600 30.72500
C  40.84400 0.26700 27.20800
O  40.77700 0.16000 25.94800
C  42.27800 -0.13100 27.79100
N  35.32400 1.32100 27.41200
C  36.33200 1.11500 26.47000
C  35.85800 1.05200 25.01900
C  34.31200 1.03500 25.24500
C  34.10700 1.42600 26.70000
C  36.48500 2.17900 24.16300
C  33.66400 -0.20200 24.78800
C  33.19400 -1.26100 25.87500
N  33.54600 2.12500 29.49900
C  32.54700 2.26700 28.54200
C  31.33000 2.78200 29.15900
C  31.63100 2.75700 30.53400
C  33.03300 2.50700 30.67900
C  30.03500 3.14400 28.43900
C  31.04400 2.87900 31.86300
O  29.87700 3.00200 32.21700
C  32.27200 2.78700 32.90700
C  32.36600 3.95700 33.62700
O  32.61900 5.08000 33.15000
O  31.89500 3.79500 34.92100
C  31.56000 5.00600 35.62800
H  39.09000 1.54100 32.13100
H  38.34500 0.79400 25.92300
H  32.03300 2.01100 26.45300
H  35.05000 3.05600 34.41600
H  37.55000 1.55000 34.24800
H  36.88300 4.32900 34.27900
H  37.74900 4.09400 32.82900
H  38.60700 3.60600 34.30000
H  35.57000 0.04900 34.63200
H  33.94800 0.66400 34.25700
H  35.15300 0.21700 36.55600
H  33.57900 1.01400 36.40100
H  41.85000 -0.09900 30.40000
H  40.77800 0.01800 31.64300
H  41.41200 1.56500 30.80500
H  42.60900 0.67800 28.44200
H  43.03300 -0.33900 27.03200
H  42.05200 -0.98800 28.42700
H  36.18000 0.11000 24.57500
H  33.77400 1.75600 24.63000
H  37.03900 1.70400 23.35300
H  37.14100 2.84600 24.72300
H  35.70900 2.75900 23.66200
H  34.38500 -0.74600 24.17800
H  32.78000 0.15400 24.26100
H  32.11100 -1.30900 25.76200
H  33.55600 -1.17600 26.89900
H  33.67200 -2.14900 25.46100
H  29.17400 2.82700 29.02700
H  30.01500 2.60000 27.49400
H  29.95100 4.20000 28.18200
H  32.01700 1.93600 33.53800
H  30.77600 4.78800 36.35300
H  31.30100 5.85600 34.99700
H  32.50200 5.29000 36.09800
Mg 47.53300 15.28000 27.61800
C  45.36200 15.17500 30.12800
C  49.81600 17.07400 29.48400
C  49.74200 15.40200 24.92900
C  45.14200 13.56900 25.54700
N  47.51900 16.22100 29.53400
C  46.53800 15.89700 30.49500
C  47.00900 16.36500 31.87600
C  48.20500 17.27300 31.53800
C  48.60100 16.76100 30.10200
C  47.98500 18.73600 31.36600
C  47.19400 15.30700 33.05400
C  47.16800 15.87600 34.45600
H  48.31700 15.53500 35.35700
N  49.50000 16.17800 27.24200
C  50.26500 16.86600 28.20100
C  51.49600 17.27100 27.62800
C  51.48600 16.90300 26.28200
C  50.22700 16.05700 26.10500
C  52.62900 18.07000 28.37200
C  52.54100 17.08700 25.22400
O  52.46100 16.44600 24.21100
C  53.77200 17.95700 25.34200
N  47.42900 14.68900 25.52200
C  48.52900 14.80700 24.64000
C  48.26600 14.06800 23.31400
C  46.87600 13.35100 23.64000
C  46.37600 13.97100 24.90500
C  48.20300 15.05800 22.15800
C  46.94600 11.83700 23.75600
C  47.81800 11.05000 22.77900
N  45.59500 14.64000 27.69200
C  44.78800 13.92800 26.90700
C  43.58400 13.67800 27.53400
C  43.76700 14.12900 28.82000
C  45.03600 14.66900 28.88100
C  42.42700 12.90800 27.02900
C  43.20400 14.17300 30.13500
O  42.11300 13.82900 30.50300
C  44.21600 14.80300 31.03700
C  43.71400 15.93000 31.83600
O  43.48400 17.06700 31.42400
O  43.65700 15.54900 33.16400
C  43.10700 16.41500 34.18300
H  50.49300 17.54500 30.19900
H  50.35600 15.38900 24.02600
H  44.42600 12.93000 25.02600
H  46.21900 17.02500 32.23400
H  49.11100 17.04300 32.09800
H  47.74200 19.00200 30.33800
H  48.83600 19.35000 31.66500
H  47.13400 19.00800 31.99100
H  48.13800 14.77800 32.92100
H  46.50400 14.52400 32.73800
H  46.26300 15.44700 34.88600
H  47.00600 16.92500 34.20900
H  52.79300 19.05000 27.92500
H  53.48500 17.39600 28.36700
H  52.51200 18.26600 29.43800
H  53.60200 18.99300 25.63300
H  54.15800 17.93600 24.32300
H  54.47300 17.52600 26.05800
H  49.09200 13.36100 23.23100
H  46.20100 13.67300 22.84700
H  47.18800 15.36200 21.90300
H  48.66100 14.61300 21.27500
H  48.78200 15.95400 22.38000
H  45.92800 11.44700 23.73700
H  47.42100 11.58600 24.70400
H  48.66000 10.55700 23.26400
H  48.33000 11.64800 22.02400
H  47.26500 10.24000 22.30500
H  42.40300 12.81100 25.94300
H  41.59400 13.38500 27.54500
H  42.46200 11.96100 27.56800
H  44.53000 13.99900 31.70400
H  43.86200 16.85700 34.83300
H  42.43700 15.80500 34.79000
H  42.50500 17.19800 33.72200

