158

Mg 35.01900 3.44100 29.28700
C  33.05700 4.11200 31.99500
C  37.82700 3.48600 31.48200
C  36.94500 2.71200 26.74000
C  32.21900 3.75100 27.10000
N  35.38900 3.68700 31.43200
C  34.40500 3.94900 32.36500
C  34.91400 3.85800 33.78800
C  36.48300 3.90500 33.54400
C  36.62700 3.73000 32.11600
C  37.22700 5.26600 34.03000
C  34.50900 2.55500 34.52000
C  34.35600 2.71100 36.06600
H  35.06200 3.83100 36.85700
N  37.01100 3.03800 29.15400
C  37.97900 3.03500 30.16000
C  39.26300 2.51200 29.65000
C  38.99600 2.27300 28.28000
C  37.59500 2.67900 27.96200
C  40.40900 2.29500 30.57000
C  39.90600 1.61800 27.23600
O  39.64900 1.47100 26.04400
C  41.21600 1.12800 27.68800
N  34.63500 3.15700 27.20800
C  35.66800 2.98100 26.34900
C  35.11900 2.76000 24.89600
C  33.59400 2.99000 25.13200
C  33.42900 3.34700 26.56200
C  35.84000 3.53000 23.72800
C  32.57300 1.87400 24.62000
C  32.56300 0.57600 25.42900
N  32.98500 3.80100 29.44100
C  32.03100 3.98000 28.47400
C  30.76800 4.23000 29.16100
C  31.17600 4.34100 30.58200
C  32.49900 4.03100 30.69200
C  29.40100 4.34100 28.53500
C  30.61400 4.58400 31.89500
O  29.48800 4.89800 32.23300
C  31.86600 4.36200 32.93700
C  31.92300 5.52900 33.78600
O  32.32000 6.60200 33.46700
O  31.35500 5.22600 35.02000
C  31.09900 6.32400 36.00400
H  38.69600 3.42400 32.14000
H  37.65800 2.53800 25.93000
H  31.28900 3.86400 26.53900
H  34.57700 4.77300 34.27600
H  36.97600 3.13700 34.14100
H  37.88000 5.10200 34.88800
H  36.54100 6.08500 34.24600
H  37.66500 5.72600 33.14400
H  35.26000 1.78200 34.35200
H  33.56800 2.13600 34.16400
H  34.58500 1.76800 36.56200
H  33.33100 2.83500 36.41300
H  40.06900 1.60400 31.34100
H  40.57400 3.27800 31.01300
H  41.37500 2.03100 30.13900
H  42.05800 1.81600 27.76800
H  41.57200 0.34100 27.02400
H  41.08100 0.60700 28.63600
H  35.29800 1.71100 24.66000
H  33.28200 3.87900 24.58600
H  35.92000 2.78100 22.94000
H  36.77900 3.91600 24.12400
H  35.15000 4.34300 23.50100
H  32.90400 1.72800 23.59200
H  31.62700 2.40700 24.52800
H  32.66800 -0.11900 24.59500
H  31.57000 0.37800 25.83200
H  33.28500 0.43200 26.23300
H  29.32700 3.75600 27.61900
H  28.96200 5.31500 28.32100
H  28.69500 3.98500 29.28600
H  31.58100 3.47200 33.50000
H  30.70500 5.86200 36.90900
H  30.42300 7.08500 35.61400
H  31.93400 6.91800 36.37700
Mg -6.77000 24.91900 25.47800
C  -5.06100 26.26200 28.16900
C  -8.45300 22.71000 27.66100
C  -7.95400 23.23500 22.82100
C  -4.73000 26.76300 23.32100
N  -6.82100 24.58300 27.70500
C  -6.09800 25.37500 28.52000
C  -6.47600 24.93400 30.04700
C  -7.36000 23.60600 29.82700
C  -7.61100 23.66500 28.36100
C  -6.70500 22.20000 30.15800
C  -7.23100 26.01400 30.84700
C  -7.00300 25.99200 32.29900
H  -6.27400 24.79500 32.97300
N  -8.20700 23.37300 25.22500
C  -8.75200 22.60400 26.24800
C  -9.72100 21.68400 25.65800
C  -9.54500 21.79300 24.22500
C  -8.50700 22.79800 24.05100
C  -10.64100 20.78000 26.51700
C  -10.16800 20.96100 23.13400
O  -9.92400 20.99100 21.92100
C  -11.04900 19.79900 23.60400
N  -6.42000 25.03700 23.40800
C  -7.04000 24.27000 22.51900
C  -6.38700 24.32300 21.11800
C  -5.52400 25.59100 21.25700
C  -5.61700 25.87700 22.75100
C  -5.62000 23.03200 20.64600
C  -5.93600 26.82600 20.35700
C  -4.97200 27.26600 19.26100
N  -5.12400 26.16400 25.66800
C  -4.50500 26.98000 24.74000
C  -3.46300 27.74600 25.37200
C  -3.63300 27.50000 26.73000
C  -4.64800 26.51600 26.80600
C  -2.45700 28.73000 24.75000
C  -3.11700 27.73900 28.03900
O  -2.20900 28.47400 28.39100
C  -4.04000 26.98200 29.01000
C  -3.24200 26.03700 29.81100
O  -2.81700 24.96800 29.39600
O  -2.97300 26.47100 31.07600
C  -2.11200 25.80600 32.00700
H  -9.01300 22.03300 28.30900
H  -8.34700 22.74900 21.92600
H  -4.23500 27.43000 22.61200
H  -5.51400 24.64300 30.46900
H  -8.31300 23.72400 30.34100
H  -5.69000 22.48700 30.43500
H  -6.55000 21.62000 29.24800
H  -7.13000 21.65800 31.00300
H  -8.30300 26.03900 30.65500
H  -6.84600 26.98900 30.54800
H  -7.99100 26.14600 32.73100
H  -6.41400 26.84300 32.64000
H  -11.03000 21.52800 27.20800
H  -10.10700 20.01200 27.07700
H  -11.49600 20.34400 26.00100
H  -11.22400 19.03000 22.85100
H  -12.01900 20.19700 23.90100
H  -10.58500 19.19600 24.38500
H  -7.11200 24.67200 20.38400
H  -4.49900 25.25400 21.10400
H  -5.92200 22.80800 19.62200
H  -6.06800 22.23200 21.23400
H  -4.55100 23.17700 20.80300
H  -6.08400 27.62300 21.08600
H  -6.81100 26.61600 19.74100
H  -3.95400 27.09900 19.61000
H  -4.93700 28.32700 19.01100
H  -5.03400 26.71500 18.32300
H  -2.16000 28.24700 23.81900
H  -1.51400 28.79300 25.29300
H  -2.96400 29.67500 24.55700
H  -4.59600 27.68000 29.63600
H  -2.48900 26.11500 32.98200
H  -1.03300 25.94700 31.94600
H  -2.39800 24.75800 31.91100

