158

Mg -2.12000 16.92700 26.33800
C  -2.64200 15.01700 29.07900
C  -2.66900 19.74600 28.38500
C  -2.20000 18.94700 23.54600
C  -2.34800 14.19400 24.25900
N  -2.67700 17.39200 28.45500
C  -2.60200 16.38700 29.41000
C  -2.82600 16.96000 30.75200
C  -3.12000 18.45700 30.58200
C  -2.78000 18.61000 29.08000
C  -4.51500 19.05400 30.92800
C  -1.61500 16.81300 31.71600
C  -2.07800 16.47000 33.23900
H  -0.98800 16.41900 34.30600
N  -2.33500 19.02400 26.02800
C  -2.51600 19.99000 26.98900
C  -2.37700 21.30000 26.45500
C  -2.20800 21.08600 25.04200
C  -2.27300 19.61600 24.80700
C  -2.54600 22.62100 27.10700
C  -1.99500 22.09300 23.90600
O  -1.85100 21.80500 22.72400
C  -1.77000 23.51700 24.21500
N  -2.26500 16.61200 24.26400
C  -2.23100 17.53400 23.33900
C  -2.32100 17.02000 21.88300
C  -2.11600 15.49900 22.16800
C  -2.29200 15.39100 23.65100
C  -3.69700 17.37900 21.14600
C  -0.75600 14.91500 21.58700
C  -0.76800 14.14200 20.24900
N  -2.36100 14.97300 26.59900
C  -2.40200 13.96800 25.67700
C  -2.70800 12.66300 26.29700
C  -2.71400 12.99600 27.68600
C  -2.55800 14.41200 27.77600
C  -2.93600 11.29000 25.77500
C  -2.83900 12.54100 29.03400
O  -2.97500 11.38000 29.40100
C  -2.86500 13.85000 29.99300
C  -1.73800 13.58800 30.90500
O  -0.59000 13.63000 30.61800
O  -2.18100 13.05200 32.06600
C  -1.12800 12.33600 32.85500
H  -2.67400 20.68400 28.94300
H  -2.17200 19.50700 22.60800
H  -2.36300 13.30600 23.62400
H  -3.65900 16.45000 31.23500
H  -2.37900 19.06300 31.10300
H  -5.21600 18.27200 31.22000
H  -4.91000 19.66900 30.12000
H  -4.41700 19.68800 31.81000
H  -1.13200 17.77000 31.91200
H  -0.89900 16.20200 31.16500
H  -2.64400 15.53900 33.26100
H  -2.81800 17.22900 33.49400
H  -1.67600 23.27400 27.04800
H  -2.85200 22.52500 28.14900
H  -3.32400 23.17100 26.57700
H  -2.73200 24.02600 24.27200
H  -1.23000 23.81000 23.31500
H  -1.10400 23.73600 25.05000
H  -1.45400 17.40600 21.34600
H  -2.93700 14.87200 21.82100
H  -3.56500 16.92900 20.16300
H  -3.84800 18.45800 21.17700
H  -4.48400 16.90400 21.73200
H  -0.39300 14.21700 22.34200
H  -0.03700 15.71400 21.40900
H  0.07100 14.52700 19.66800
H  -1.71100 14.28300 19.72100
H  -0.78600 13.05300 20.30000
H  -3.53900 11.27400 24.86700
H  -3.61800 10.78200 26.45700
H  -2.01100 10.72000 25.68400
H  -3.78000 13.89100 30.58300
H  -1.25800 12.66900 33.88500
H  -0.08300 12.49400 32.58700
H  -1.36800 11.27400 32.90500
Mg 25.20200 1.80900 30.11900
C  27.40100 1.71400 32.85800
C  22.59000 2.17400 32.36800
C  23.18700 1.81700 27.40200
C  27.87600 0.97600 27.93500
N  25.09300 2.13300 32.32300
C  26.10100 2.10400 33.21500
C  25.67800 2.48700 34.63700
C  24.14700 2.42900 34.52100
C  23.86700 2.20100 33.02500
C  23.39400 1.39800 35.46100
C  26.28500 3.78900 35.17600
C  26.92400 3.65800 36.56700
H  26.63600 4.71800 37.59000
N  23.12500 1.85500 29.88000
C  22.29500 2.02300 31.00900
C  20.96700 1.99400 30.36600
C  21.07100 1.86600 28.92500
C  22.50900 1.78800 28.72800
C  19.64600 2.13100 31.16300
C  19.98900 1.80500 27.83500
O  20.25600 1.54800 26.66600
C  18.56400 1.98100 28.15100
N  25.53800 1.33300 28.00900
C  24.52700 1.64600 27.03500
C  25.04100 1.54500 25.56700
C  26.60900 1.38400 25.83700
C  26.71800 1.27600 27.34600
C  24.38100 0.50100 24.64500
C  27.54000 2.50800 25.14900
C  27.61600 3.81100 25.98000
N  27.17500 1.42400 30.31500
C  28.11300 1.01500 29.38100
C  29.31800 0.57600 30.07800
C  29.16600 0.99500 31.43300
C  27.78300 1.46400 31.51500
C  30.53200 -0.01200 29.42300
C  29.76100 1.13300 32.68300
O  30.92000 1.05000 33.01500
C  28.67300 1.65900 33.66500
C  28.56300 0.70500 34.75500
O  27.86000 -0.35500 34.79900
O  29.30100 1.22400 35.81800
C  29.28800 0.52300 37.11300
H  21.77200 2.36800 33.06500
H  22.54100 1.77500 26.52200
H  28.71900 0.82500 27.25700
H  26.01200 1.65800 35.26200
H  23.64900 3.35700 34.79800
H  22.87100 0.59500 34.94100
H  22.62800 1.99800 35.95200
H  24.00200 0.99600 36.27200
H  25.47400 4.51400 35.11200
H  27.09000 4.01100 34.47600
H  28.00600 3.60500 36.44400
H  26.62300 2.67300 36.92400
H  19.03100 3.01800 31.01500
H  19.73700 1.96800 32.23700
H  19.01000 1.30300 30.85000
H  18.56000 2.93800 28.67400
H  18.32200 1.16300 28.82900
H  17.91500 1.94100 27.27600
H  24.89300 2.56200 25.20200
H  26.85400 0.40900 25.41800
H  23.96400 0.98900 23.76400
H  23.57000 -0.00900 25.16500
H  25.09400 -0.28400 24.39500
H  27.38800 2.54900 24.07000
H  28.57000 2.16700 25.25100
H  27.37900 4.62900 25.29900
H  28.63800 3.99400 26.31100
H  26.89100 3.86400 26.79200
H  30.85000 -0.84100 30.05500
H  31.36400 0.68400 29.31400
H  30.47300 -0.50600 28.45300
H  28.97000 2.61700 34.09400
H  28.47500 0.82800 37.77300
H  30.16700 0.83200 37.67900
H  29.54200 -0.53400 37.04500

