158

Mg 42.00400 41.26800 27.17000
C  41.40100 43.80500 29.39200
C  42.82400 39.29400 29.76200
C  42.83700 38.83200 24.94100
C  41.55800 43.48000 24.57100
N  42.31900 41.58200 29.33200
C  41.74400 42.63200 30.05900
C  41.68700 42.36600 31.61600
C  42.48400 41.02700 31.72500
C  42.52700 40.56100 30.24300
C  43.85400 40.84300 32.47900
C  40.24700 42.37400 32.21300
C  39.94400 43.36500 33.36100
H  39.31500 42.76900 34.58500
N  42.75700 39.30300 27.31000
C  42.92600 38.62600 28.50500
C  43.18600 37.23800 28.20100
C  43.23300 37.05700 26.79000
C  42.90900 38.41300 26.28200
C  43.42600 36.21700 29.35900
C  43.58000 35.78900 25.95500
O  43.78400 35.82100 24.75700
C  43.91400 34.46500 26.57100
N  42.33100 41.25400 25.06100
C  42.50300 40.08600 24.41500
C  42.33200 40.23000 22.90100
C  41.85800 41.69900 22.72000
C  41.92000 42.18000 24.18300
C  43.50700 39.68800 22.04000
C  40.52100 41.91900 21.91600
C  39.24700 42.18300 22.70000
N  41.72600 43.28400 26.95900
C  41.53300 44.03500 25.85100
C  41.11200 45.41500 26.27900
C  41.01200 45.34300 27.64100
C  41.42800 44.02400 27.99400
C  40.61300 46.52500 25.29800
C  40.70000 46.08400 28.75400
O  40.16400 47.18500 28.90000
C  40.83900 45.11400 29.96300
C  41.51900 45.87500 31.05400
O  42.70300 46.24900 31.08500
O  40.54300 46.22100 31.96300
C  40.98100 46.72400 33.26900
H  42.94500 38.73300 30.69200
H  42.98100 38.04900 24.19300
H  41.21200 44.04000 23.70100
H  42.20200 43.11000 32.22500
H  41.78100 40.31800 32.16300
H  44.71600 40.97400 31.82400
H  43.75900 39.91100 33.03500
H  43.88700 41.64700 33.21400
H  39.97300 41.35800 32.49700
H  39.57600 42.46000 31.35900
H  39.22600 44.13300 33.07500
H  40.86400 43.82200 33.72600
H  43.74700 36.64300 30.31000
H  44.23100 35.49700 29.21400
H  42.50200 35.63900 29.38200
H  43.02000 34.33200 27.18100
H  44.79500 34.36100 27.20500
H  43.95100 33.63300 25.86800
H  41.45100 39.60200 22.76900
H  42.53500 42.21700 22.04100
H  43.70300 40.44400 21.28000
H  43.25500 38.72500 21.59500
H  44.42700 39.55600 22.61100
H  40.49600 41.09100 21.20700
H  40.88400 42.79300 21.37500
H  39.40000 41.79000 23.70500
H  38.36500 41.64000 22.36000
H  38.99000 43.23000 22.53800
H  39.82000 46.22100 24.61500
H  41.38400 47.10300 24.78900
H  40.14000 47.26700 25.94100
H  39.94600 44.81900 30.51400
H  41.88100 47.32700 33.14600
H  40.99900 45.96700 34.05300
H  40.11700 47.37500 33.40300
Mg -10.30400 16.89100 40.95000
C  -6.84400 16.18400 41.05000
C  -9.49900 20.17300 40.33700
C  -13.56300 17.50000 40.32300
C  -10.90500 13.52500 40.70800
N  -8.40400 17.94000 40.68800
C  -7.09200 17.50100 40.86200
C  -6.06400 18.53600 40.36100
C  -6.86500 19.78000 40.64300
C  -8.34500 19.31300 40.54400
C  -6.65200 20.47700 41.93900
C  -5.61000 18.41700 38.79800
C  -4.08400 18.40400 38.33700
H  -3.57600 17.00100 37.79600
N  -11.44600 18.65700 40.62300
C  -10.88400 19.89000 40.32000
C  -12.00300 20.85500 40.20900
C  -13.09900 20.12700 40.28600
C  -12.83500 18.72100 40.47700
C  -11.84800 22.35200 39.73000
C  -14.57500 20.70500 40.10800
O  -14.77900 21.91000 39.97500
C  -15.74600 19.80000 40.17500
N  -12.00100 15.61800 40.59300
C  -13.20000 16.13100 40.30800
C  -14.22100 14.95300 39.97200
C  -13.36900 13.63600 40.07700
C  -12.04700 14.30300 40.52600
C  -15.40200 14.87200 40.92800
C  -13.18000 12.92900 38.67600
C  -13.19800 11.40000 38.68200
N  -9.15600 15.18200 40.97400
C  -9.55200 13.85700 40.96900
C  -8.41100 12.93500 41.06600
C  -7.35900 13.81900 41.09500
C  -7.84900 15.16500 41.05000
C  -8.37400 11.35900 41.16700
C  -5.82700 13.85500 41.25000
O  -4.98600 12.99400 41.39800
C  -5.48300 15.39000 41.19100
C  -4.72700 15.85000 42.35000
O  -3.79800 16.61000 42.38000
O  -5.30000 15.27200 43.42300
C  -4.63200 15.51400 44.69200
H  -9.22600 21.20700 40.11700
H  -14.62900 17.59800 40.10700
H  -11.03200 12.49800 40.36200
H  -5.20700 18.56500 41.03400
H  -6.59300 20.57600 39.95000
H  -5.93100 19.95100 42.56500
H  -7.60900 20.57100 42.45300
H  -6.19700 21.46000 41.81400
H  -6.10500 19.17900 38.19700
H  -5.99800 17.41600 38.61000
H  -3.37800 18.78400 39.07500
H  -4.00400 19.10100 37.50300
H  -10.81300 22.40400 39.39000
H  -11.85400 23.00000 40.60700
H  -12.44200 22.79900 38.93400
H  -15.80800 19.16800 39.28800
H  -16.65100 20.38000 40.35300
H  -15.62800 19.12100 41.02000
H  -14.58400 15.14200 38.96200
H  -13.72800 12.95800 40.85100
H  -15.39000 15.73600 41.59300
H  -15.48000 13.94600 41.49800
H  -16.33400 14.91900 40.36600
H  -12.25800 13.27900 38.21300
H  -14.01100 13.16700 38.01200
H  -14.12200 11.20600 38.13600
H  -13.27400 10.98200 39.68600
H  -12.42900 10.82800 38.16400
H  -7.36700 11.00100 40.95200
H  -9.14400 10.90500 40.54300
H  -8.43400 11.14600 42.23400
H  -4.74400 15.45000 40.39200
H  -5.08400 16.35200 45.22200
H  -3.55300 15.55300 44.54200
H  -4.86200 14.65800 45.32600

