158

Mg 9.12400 3.16300 27.23700
C  10.50500 1.55800 30.07900
C  7.36000 5.31900 29.37400
C  7.59700 4.39700 24.57300
C  10.53600 0.53800 25.19400
N  8.95000 3.34800 29.48600
C  9.62100 2.62400 30.41700
C  9.35800 3.19900 31.79400
C  8.30200 4.32500 31.55600
C  8.21500 4.36500 30.02300
C  6.89500 4.21100 32.29500
C  10.62400 3.66700 32.61200
C  10.34200 4.55600 33.83200
H  10.97500 4.18300 35.15900
N  7.86000 4.82000 26.97800
C  7.21700 5.57100 27.98300
C  6.35300 6.55200 27.33700
C  6.39400 6.27300 25.92000
C  7.32500 5.14900 25.80000
C  5.48000 7.56300 28.10500
C  5.67700 6.86000 24.72500
O  5.69600 6.40700 23.56500
C  4.66800 7.95100 24.98100
N  9.17300 2.55600 25.17400
C  8.30500 3.19200 24.33900
C  8.30000 2.48900 22.94400
C  9.34900 1.39800 23.07300
C  9.73100 1.50400 24.57900
C  6.91900 2.05500 22.34300
C  10.67000 1.72000 22.24100
C  10.95200 0.82400 20.97800
N  10.30100 1.36600 27.50800
C  10.88000 0.49300 26.59700
C  11.70800 -0.46600 27.32300
C  11.67100 0.00700 28.66400
C  10.73800 1.09400 28.73700
C  12.42400 -1.67900 26.81400
C  12.19500 -0.24000 30.00400
O  13.00400 -1.08600 30.46100
C  11.43300 0.74600 30.94900
C  10.73400 0.05800 32.09700
O  9.62100 -0.41800 32.06500
O  11.46500 0.05500 33.38200
C  10.74900 -0.39100 34.49400
H  7.08900 6.19200 29.97200
H  7.18300 4.77300 23.63500
H  10.87200 -0.29300 24.57100
H  8.87900 2.33600 32.25700
H  8.74500 5.29100 31.79600
H  6.85500 3.69400 33.25400
H  6.28400 3.63900 31.59700
H  6.57600 5.22700 32.52900
H  11.24800 4.18800 31.88600
H  11.23000 2.82300 32.94000
H  9.28100 4.48300 34.06900
H  10.57400 5.60600 33.65000
H  5.80500 8.59300 27.96000
H  5.59000 7.44200 29.18300
H  4.47800 7.32800 27.74600
H  4.03600 7.49000 25.74000
H  4.06500 8.18900 24.10500
H  5.13900 8.83700 25.40800
H  8.54300 3.22100 22.17400
H  9.01300 0.37300 22.91600
H  6.97700 0.99200 22.11200
H  6.56000 2.55400 21.44300
H  6.15500 2.19800 23.10800
H  11.51100 1.71400 22.93400
H  10.62500 2.73400 21.84400
H  11.99100 0.49800 21.02100
H  10.81000 1.41600 20.07300
H  10.37300 -0.09900 21.00200
H  12.67400 -2.28000 27.68800
H  13.32500 -1.31100 26.32300
H  11.70400 -2.21400 26.19400
H  12.22000 1.38300 31.35100
H  9.98700 0.37300 34.64500
H  11.24500 -0.38400 35.46500
H  10.23600 -1.33000 34.28500
Mg 40.75500 7.78900 29.49000
C  42.64600 9.22000 31.96800
C  38.53600 6.66400 31.80900
C  38.91300 6.61000 26.92600
C  43.21300 8.68300 27.11600
N  40.59900 7.96100 31.62000
C  41.42200 8.64200 32.46900
C  41.00100 8.60900 33.97300
C  39.96600 7.43700 33.85300
C  39.60700 7.38900 32.34800
C  40.24600 6.13700 34.56800
C  40.47900 10.00700 34.52700
C  39.75500 10.02400 35.90000
H  40.56800 10.63200 37.05500
N  39.08400 6.73800 29.40200
C  38.27300 6.41900 30.46200
C  37.21700 5.58200 29.94600
C  37.15900 5.72000 28.50800
C  38.42200 6.41900 28.24300
C  36.31300 4.87500 30.99500
C  36.11500 5.28100 27.56700
O  36.30600 5.26400 26.34700
C  34.76800 4.93600 28.15900
N  41.03600 7.64000 27.37900
C  40.20000 7.03800 26.59900
C  40.56900 7.16700 25.04800
C  41.82100 8.02900 25.17200
C  42.04300 8.07300 26.62000
C  40.86900 5.74700 24.46600
C  41.91100 9.42600 24.30500
C  40.90400 10.44200 24.73600
N  42.57400 8.74100 29.53200
C  43.47400 9.00900 28.46100
C  44.58000 9.70900 28.98700
C  44.27000 9.89800 30.34300
C  43.05100 9.23300 30.62500
C  45.79900 10.24300 28.16200
C  44.72000 10.39900 31.61600
O  45.77800 11.00300 31.77000
C  43.72100 10.07500 32.69100
C  44.31900 9.45500 33.93900
O  44.88700 8.38700 33.99100
O  44.20500 10.29400 34.96400
C  44.64800 9.73600 36.30900
H  37.76900 6.24100 32.46100
H  38.30700 6.32600 26.06300
H  43.89100 9.09400 26.36500
H  41.81000 8.36200 34.66000
H  39.02400 7.83900 34.22500
H  39.46900 5.97300 35.31500
H  41.24200 6.10100 35.00700
H  40.23700 5.36700 33.79600
H  39.90600 10.45500 33.71600
H  41.28400 10.74100 34.54100
H  39.52800 9.00000 36.20000
H  38.77000 10.42400 35.66200
H  35.46100 5.55200 31.05700
H  36.76400 4.52600 31.92400
H  35.77200 3.99300 30.65400
H  34.60800 5.44900 29.10700
H  34.94200 3.89100 28.41600
H  33.98900 5.04600 27.40600
H  39.75600 7.55000 24.43100
H  42.66100 7.44600 24.79600
H  41.83000 5.66000 23.95900
H  40.15800 5.53100 23.66900
H  40.63000 4.99600 25.21900
H  41.56400 9.14000 23.31200
H  42.91900 9.83500 24.37800
H  39.92400 9.96700 24.69200
H  40.88100 11.25100 24.00600
H  41.19300 10.77200 25.73300
H  45.47900 10.93700 27.38400
H  46.38000 9.43200 27.72300
H  46.48000 10.76700 28.83200
H  43.38600 11.05500 33.03100
H  45.71600 9.95700 36.33700
H  44.27700 8.73700 36.53300
H  44.24600 10.37600 37.09400

