158

Mg 43.24500 3.46400 46.98600
C  41.18300 6.23800 46.95800
C  40.33400 1.43200 47.26700
C  45.13800 0.73200 46.24500
C  46.03800 5.53300 46.40600
N  40.98400 3.80300 47.08100
C  40.45800 5.05900 47.09600
C  38.91700 4.98300 47.25000
C  38.70400 3.44000 47.77300
C  40.03000 2.79900 47.23600
C  38.58800 3.32100 49.29000
C  37.97900 5.24400 45.96600
C  38.61300 4.92700 44.60500
H  39.00800 5.99200 43.56300
N  42.82100 1.41700 46.75200
C  41.55100 0.73300 47.00600
C  41.72200 -0.69700 46.70300
C  43.10000 -0.88000 46.20600
C  43.75500 0.43500 46.34100
C  40.58700 -1.72300 46.82300
C  43.66100 -2.11800 45.63900
O  43.14300 -3.24700 45.69800
C  44.97900 -2.13600 44.83600
N  45.28500 3.11900 46.41600
C  45.80200 1.92600 46.27400
C  47.36500 1.92600 46.12800
C  47.74700 3.50500 46.20400
C  46.26000 4.14200 46.23700
C  48.15200 1.03700 47.15600
C  48.74200 4.06000 45.13000
C  49.99600 3.28000 44.74200
N  43.62200 5.48700 46.80400
C  44.78100 6.19000 46.46200
C  44.47800 7.58800 46.56000
C  43.11000 7.58800 46.77800
C  42.58000 6.36300 46.85700
C  45.37200 8.65000 46.41100
C  41.95600 8.51100 46.92300
O  41.96400 9.75900 46.96900
C  40.69500 7.70100 47.00300
C  39.97100 8.11200 48.21200
O  40.08400 7.64800 49.33600
O  39.16700 9.18800 47.91100
C  38.53900 9.71800 49.13200
H  39.39300 0.90000 47.41800
H  45.76100 -0.16200 46.16500
H  46.92900 6.14700 46.26100
H  38.69500 5.77900 47.96100
H  37.78600 3.01400 47.36900
H  38.61600 4.27900 49.81000
H  39.53600 2.85500 49.56000
H  37.74900 2.73400 49.66400
H  37.75000 6.31000 45.97900
H  37.03600 4.75000 46.20100
H  37.80300 4.28600 44.26000
H  39.50900 4.33400 44.78700
H  40.79500 -2.38500 47.66400
H  40.66200 -2.35500 45.93800
H  39.56900 -1.38500 47.01200
H  45.78900 -2.41300 45.51100
H  45.22500 -1.17700 44.38100
H  45.05500 -2.89200 44.05500
H  47.57800 1.61200 45.10600
H  48.07800 3.68900 47.22600
H  47.51900 0.63000 47.94400
H  49.04500 1.45700 47.61800
H  48.44200 0.08100 46.71900
H  49.12200 5.04700 45.39400
H  48.10600 4.26100 44.26700
H  50.07700 2.45600 45.45100
H  50.83200 3.96400 44.88600
H  50.19200 2.97600 43.71400
H  44.97500 9.53500 46.90700
H  45.47100 8.72500 45.32800
H  46.39400 8.44600 46.73200
H  40.16000 8.00900 46.10500
H  38.01100 10.56400 48.69300
H  39.14500 9.87800 50.02400
H  37.82200 8.91700 49.31400
Mg 30.12800 58.02600 40.53600
C  27.11400 56.28500 39.87300
C  31.89300 55.33000 39.43500
C  32.86800 59.99900 40.09100
C  28.17300 60.87600 41.20900
N  29.47600 56.06500 39.65400
C  28.19500 55.49500 39.56700
C  28.32500 54.02800 39.22400
C  29.87400 53.82100 39.07000
C  30.47100 55.15400 39.48900
C  30.41100 52.56300 39.83400
C  27.40400 53.51600 38.06400
C  27.19500 54.33100 36.81500
H  27.97400 54.07500 35.50900
N  32.13700 57.67700 40.15000
C  32.61300 56.48000 39.68500
C  34.06000 56.53000 39.65900
C  34.36800 57.90500 39.80600
C  33.09800 58.61700 39.97200
C  34.95300 55.43800 39.28100
C  35.73700 58.51300 39.56700
O  36.72000 57.83300 39.35000
C  35.92500 60.03100 39.70200
N  30.47500 60.16200 40.59800
C  31.70800 60.72700 40.45800
C  31.66800 62.26900 40.63100
C  30.16500 62.49700 41.04700
C  29.54100 61.11500 40.92200
C  32.73000 62.79100 41.70600
C  29.36400 63.51700 40.15700
C  28.44700 64.50300 40.99900
N  28.04900 58.54700 40.70800
C  27.45000 59.72400 40.99000
C  26.00300 59.53200 40.97000
C  25.81700 58.24800 40.53300
C  27.09300 57.64900 40.33200
C  25.01600 60.62300 41.33800
C  24.81300 57.24400 40.12100
O  23.61300 57.29500 40.20900
C  25.60700 55.93500 39.79100
C  25.30500 54.81500 40.73600
O  25.95100 54.48200 41.66000
O  24.12300 54.22600 40.23300
C  23.70500 52.98800 40.96200
H  32.53800 54.46900 39.24700
H  33.63200 60.77100 40.20000
H  27.47900 61.65400 41.53500
H  28.01200 53.46800 40.10500
H  30.12000 53.63000 38.02500
H  31.39700 52.21900 39.52300
H  29.70900 51.77800 39.55200
H  30.49300 52.72800 40.90800
H  26.39000 53.44600 38.45800
H  27.68200 52.50500 37.76500
H  27.26700 55.38400 37.08900
H  26.19300 54.17200 36.41600
H  35.64600 55.81500 38.52900
H  34.55400 54.58600 38.73100
H  35.55000 55.21100 40.16400
H  35.57600 60.35800 40.68100
H  35.32300 60.34200 38.84900
H  36.97200 60.33200 39.65100
H  31.79400 62.79300 39.68400
H  30.20700 62.79600 42.09400
H  33.18500 61.94800 42.22700
H  32.29300 63.41000 42.49000
H  33.53200 63.31100 41.18300
H  28.80100 63.00400 39.37700
H  30.08800 64.19900 39.71200
H  28.68400 65.56300 41.09800
H  28.46100 64.30700 42.07100
H  27.39800 64.45000 40.71000
H  25.44800 61.51200 41.79600
H  24.43700 60.11400 42.10900
H  24.43500 60.95700 40.47800
H  25.44200 55.69300 38.74100
H  22.70800 52.66600 40.66400
H  23.79200 53.06100 42.04700
H  24.52600 52.28400 40.82800

