158

Mg 24.45200 2.95100 29.38500
C  26.90000 2.74900 32.02900
C  22.01900 3.18100 31.62300
C  22.40500 2.82000 26.78000
C  27.19300 2.36800 27.05700
N  24.50500 2.93200 31.59300
C  25.55300 2.97700 32.41900
C  25.09500 3.06600 33.92000
C  23.52300 3.25200 33.77700
C  23.29700 3.12300 32.20400
C  22.72600 2.30600 34.61500
C  25.78500 4.25200 34.67800
C  26.19400 3.92500 36.12000
H  25.26500 4.71000 37.08700
N  22.52300 2.85800 29.21100
C  21.65300 3.00600 30.26500
C  20.26400 3.02700 29.82400
C  20.38500 2.83400 28.41600
C  21.82700 2.81300 28.08800
C  18.97300 3.22700 30.67700
C  19.27800 2.82800 27.43400
O  19.39700 2.82700 26.21200
C  17.94900 2.53700 28.02500
N  24.75500 2.67400 27.07800
C  23.72600 2.87900 26.25000
C  24.25300 3.15900 24.83400
C  25.82500 3.05200 25.02800
C  25.94800 2.72900 26.46700
C  23.72800 2.25800 23.64900
C  26.67700 4.23800 24.67400
C  26.60000 5.52200 25.68400
N  26.55500 2.63500 29.48500
C  27.47700 2.23500 28.46700
C  28.78600 2.03700 29.07800
C  28.58300 2.20500 30.47000
C  27.29500 2.60100 30.69800
C  30.06900 1.55400 28.45600
C  29.24500 2.19900 31.72400
O  30.39900 1.99900 32.08400
C  28.10800 2.52700 32.80600
C  28.02500 1.36300 33.83000
O  27.39100 0.30500 33.83100
O  28.72800 1.80300 34.99600
C  28.89600 0.79200 36.10100
H  21.19200 3.49700 32.26300
H  21.59300 2.97400 26.06600
H  28.11800 2.44500 26.48100
H  25.29300 2.06500 34.30400
H  23.21300 4.25800 34.05700
H  22.61500 1.37900 34.05100
H  21.81400 2.78200 34.97600
H  23.16700 1.97600 35.55600
H  25.14200 5.13100 34.63500
H  26.67400 4.53800 34.11500
H  27.19900 4.26500 36.37200
H  26.01200 2.86800 36.31000
H  18.32500 4.02800 30.32100
H  19.19200 3.53900 31.69800
H  18.41200 2.29200 30.65800
H  17.93400 1.63000 28.63000
H  17.31200 2.32500 27.16600
H  17.38300 3.39200 28.39500
H  24.12100 4.17400 24.45900
H  26.18700 2.18700 24.47200
H  24.33300 1.35300 23.58900
H  23.73900 2.87400 22.75000
H  22.71300 1.92200 23.86400
H  26.47400 4.48900 23.63200
H  27.71300 3.90100 24.69000
H  26.33900 5.19700 26.69100
H  25.88000 6.15400 25.16300
H  27.56300 6.01800 25.80800
H  30.81600 1.74300 29.22700
H  30.36800 2.19200 27.62400
H  30.11500 0.49900 28.18600
H  28.39900 3.47100 33.26600
H  29.25800 -0.16400 35.72200
H  28.04400 0.47600 36.70300
H  29.53800 1.23500 36.86200
Mg 44.38500 42.51500 26.06500
C  43.03800 44.54400 28.63800
C  45.92400 40.71600 28.46900
C  45.59700 40.62100 23.53100
C  43.03300 44.83900 23.68000
N  44.35400 42.62900 28.31900
C  43.72500 43.47300 29.11600
C  43.85300 43.02600 30.59000
C  45.04900 42.05700 30.52800
C  45.13500 41.77400 28.98700
C  46.36400 42.43000 31.17500
C  42.60900 42.55200 31.47900
C  42.69600 41.86900 32.87000
H  41.83800 42.44600 33.96900
N  45.51700 40.87200 25.98300
C  46.09500 40.31100 27.09600
C  46.93200 39.16100 26.72500
C  46.73100 39.02900 25.31900
C  45.95300 40.21500 24.87400
C  47.85300 38.40300 27.71100
C  47.29100 37.99700 24.42500
O  47.05200 38.02800 23.20200
C  48.20600 36.90000 24.92800
N  44.22200 42.65800 23.89500
C  44.82200 41.77300 23.06100
C  44.74500 42.15700 21.57000
C  43.68700 43.26800 21.64000
C  43.59500 43.65900 23.19000
C  46.10700 42.30700 20.86500
C  42.22500 43.00600 20.98300
C  41.35800 42.07400 21.90500
N  43.28500 44.33200 26.07500
C  42.89700 45.17400 25.07200
C  42.17600 46.28500 25.64400
C  42.09900 45.94900 26.98100
C  42.87100 44.83500 27.23400
C  41.46200 47.50500 24.99700
C  41.54500 46.39800 28.28700
O  40.82100 47.41700 28.51000
C  42.11800 45.51300 29.42900
C  42.81200 46.32400 30.43300
O  43.87200 46.95500 30.28500
O  42.21400 46.22800 31.66800
C  42.83800 46.85000 32.88500
H  46.50000 40.14600 29.20100
H  45.92100 40.02400 22.67500
H  42.46900 45.44000 22.96500
H  44.23100 43.91800 31.08900
H  44.85200 41.06800 30.94300
H  46.56500 41.73400 31.98900
H  46.26500 43.42800 31.60200
H  47.18500 42.46200 30.45800
H  42.16300 41.79500 30.83400
H  41.97200 43.42100 31.64400
H  43.73800 41.92400 33.18600
H  42.45700 40.82200 32.68300
H  48.61200 39.04700 28.15500
H  48.43700 37.70400 27.11400
H  47.34800 37.81900 28.48000
H  48.38800 36.15900 24.15000
H  47.65200 36.41200 25.73000
H  49.18700 37.26600 25.23200
H  44.30200 41.23200 21.20100
H  44.02200 44.18500 21.15500
H  46.98500 42.56900 21.45600
H  46.06300 43.02700 20.04800
H  46.39300 41.32500 20.49000
H  42.40800 42.53100 20.01900
H  41.72600 43.97200 20.90000
H  40.99200 42.67600 22.73700
H  41.92900 41.22800 22.28800
H  40.49400 41.58500 21.45500
H  41.49300 48.23200 25.80800
H  40.45100 47.20100 24.72700
H  42.08500 47.80900 24.15500
H  41.23900 45.05200 29.87900
H  43.62500 47.55900 32.63100
H  43.12400 45.98700 33.48700
H  42.04400 47.37300 33.41800

