158

Mg 2.96200 -1.80100 45.76100
C  6.26100 -0.72200 44.94900
C  1.69900 0.61000 43.47000
C  0.11700 -3.32100 45.96300
C  4.55700 -4.25400 47.64000
N  3.94400 -0.34000 44.27500
C  5.25700 -0.00600 44.25100
C  5.42700 1.07500 43.24800
C  4.02800 1.72600 43.14300
C  3.16700 0.61000 43.59600
C  3.80400 3.04300 43.97500
C  6.15600 0.58500 41.94800
C  7.55400 1.26900 41.67700
H  7.73000 2.05900 40.42200
N  1.11300 -1.42800 44.84700
C  0.80700 -0.39500 44.01400
C  -0.61900 -0.43900 43.76600
C  -1.16500 -1.51700 44.43700
C  0.01100 -2.18200 45.06800
C  -1.38100 0.54500 42.85800
C  -2.56200 -2.03200 44.27000
O  -3.40800 -1.40200 43.68800
C  -2.98500 -3.32300 44.81300
N  2.43900 -3.60500 46.59300
C  1.13700 -4.01200 46.57500
C  0.90100 -5.31800 47.39300
C  2.31600 -5.57100 48.03400
C  3.16300 -4.44200 47.41800
C  -0.29700 -5.18400 48.43800
C  2.92100 -6.97800 47.91800
C  2.95300 -7.87500 49.20900
N  4.99200 -2.33600 46.32100
C  5.41900 -3.33400 47.08300
C  6.90300 -3.36900 47.23600
C  7.27100 -2.30800 46.44700
C  6.09600 -1.80000 45.81800
C  7.80700 -4.34300 47.93800
C  8.36400 -1.35100 46.10800
O  9.50800 -1.18400 46.55700
C  7.78300 -0.39800 45.05100
C  7.95600 0.99300 45.63500
O  7.22800 1.48800 46.47100
O  9.16200 1.57000 45.10200
C  9.26100 2.98000 45.49900
H  1.29700 1.43300 42.87500
H  -0.83500 -3.83100 46.12300
H  4.97500 -4.88900 48.42300
H  6.05300 1.83900 43.70900
H  3.77100 1.96100 42.11000
H  3.13100 2.85500 44.81200
H  3.33800 3.75400 43.29300
H  4.73600 3.41200 44.40400
H  5.53100 0.48800 41.06100
H  6.32200 -0.48700 42.05900
H  8.19300 0.38600 41.69100
H  7.73500 1.89700 42.54900
H  -0.86900 1.47700 42.61600
H  -2.24400 0.97800 43.36300
H  -1.56900 0.06000 41.90000
H  -2.98100 -3.21700 45.89800
H  -2.21200 -4.01900 44.48800
H  -4.00000 -3.53400 44.47600
H  0.61500 -6.00200 46.59400
H  2.17700 -5.30300 49.08100
H  -0.62500 -4.14500 48.41300
H  0.02200 -5.54300 49.41700
H  -1.08900 -5.75700 47.95600
H  3.90900 -6.90300 47.46400
H  2.23700 -7.51800 47.26300
H  2.45300 -8.78300 48.87200
H  2.34100 -7.63700 50.07900
H  3.97000 -8.13000 49.50800
H  8.27500 -3.81400 48.76800
H  8.49700 -4.71200 47.17900
H  7.19600 -5.11500 48.40600
H  8.24500 -0.54900 44.07500
H  8.97700 3.03400 46.55000
H  8.60000 3.56300 44.85700
H  10.26600 3.39600 45.42700
Mg 43.24500 3.46400 46.98600
C  41.18300 6.23800 46.95800
C  40.33400 1.43200 47.26700
C  45.13800 0.73200 46.24500
C  46.03800 5.53300 46.40600
N  40.98400 3.80300 47.08100
C  40.45800 5.05900 47.09600
C  38.91700 4.98300 47.25000
C  38.70400 3.44000 47.77300
C  40.03000 2.79900 47.23600
C  38.58800 3.32100 49.29000
C  37.97900 5.24400 45.96600
C  38.61300 4.92700 44.60500
H  39.00800 5.99200 43.56300
N  42.82100 1.41700 46.75200
C  41.55100 0.73300 47.00600
C  41.72200 -0.69700 46.70300
C  43.10000 -0.88000 46.20600
C  43.75500 0.43500 46.34100
C  40.58700 -1.72300 46.82300
C  43.66100 -2.11800 45.63900
O  43.14300 -3.24700 45.69800
C  44.97900 -2.13600 44.83600
N  45.28500 3.11900 46.41600
C  45.80200 1.92600 46.27400
C  47.36500 1.92600 46.12800
C  47.74700 3.50500 46.20400
C  46.26000 4.14200 46.23700
C  48.15200 1.03700 47.15600
C  48.74200 4.06000 45.13000
C  49.99600 3.28000 44.74200
N  43.62200 5.48700 46.80400
C  44.78100 6.19000 46.46200
C  44.47800 7.58800 46.56000
C  43.11000 7.58800 46.77800
C  42.58000 6.36300 46.85700
C  45.37200 8.65000 46.41100
C  41.95600 8.51100 46.92300
O  41.96400 9.75900 46.96900
C  40.69500 7.70100 47.00300
C  39.97100 8.11200 48.21200
O  40.08400 7.64800 49.33600
O  39.16700 9.18800 47.91100
C  38.53900 9.71800 49.13200
H  39.39300 0.90000 47.41800
H  45.76100 -0.16200 46.16500
H  46.92900 6.14700 46.26100
H  38.69500 5.77900 47.96100
H  37.78600 3.01400 47.36900
H  38.61600 4.27900 49.81000
H  39.53600 2.85500 49.56000
H  37.74900 2.73400 49.66400
H  37.75000 6.31000 45.97900
H  37.03600 4.75000 46.20100
H  37.80300 4.28600 44.26000
H  39.50900 4.33400 44.78700
H  40.79500 -2.38500 47.66400
H  40.66200 -2.35500 45.93800
H  39.56900 -1.38500 47.01200
H  45.78900 -2.41300 45.51100
H  45.22500 -1.17700 44.38100
H  45.05500 -2.89200 44.05500
H  47.57800 1.61200 45.10600
H  48.07800 3.68900 47.22600
H  47.51900 0.63000 47.94400
H  49.04500 1.45700 47.61800
H  48.44200 0.08100 46.71900
H  49.12200 5.04700 45.39400
H  48.10600 4.26100 44.26700
H  50.07700 2.45600 45.45100
H  50.83200 3.96400 44.88600
H  50.19200 2.97600 43.71400
H  44.97500 9.53500 46.90700
H  45.47100 8.72500 45.32800
H  46.39400 8.44600 46.73200
H  40.16000 8.00900 46.10500
H  38.01100 10.56400 48.69300
H  39.14500 9.87800 50.02400
H  37.82200 8.91700 49.31400

