158

Mg 8.20300 2.90900 27.42400
C  9.66300 1.52900 30.35500
C  6.30000 4.82000 29.66900
C  6.74100 4.07100 24.70000
C  9.34700 0.16400 25.66300
N  7.94100 3.10700 29.80400
C  8.88000 2.60200 30.69200
C  8.79200 3.24600 32.06300
C  7.56800 4.27800 31.80700
C  7.25300 4.08400 30.36300
C  6.31100 4.05700 32.66100
C  10.08100 3.92600 32.50000
C  10.53700 3.41600 33.92200
H  10.85400 4.46600 35.06800
N  6.83900 4.40100 27.17400
C  6.06700 4.95700 28.22000
C  5.01400 5.76900 27.59100
C  5.30900 5.73600 26.20800
C  6.34500 4.70800 25.95100
C  4.03500 6.61500 28.39100
C  4.64900 6.54000 25.15400
O  4.90700 6.38500 23.99000
C  3.61100 7.57500 25.56600
N  8.16900 2.34400 25.40900
C  7.57100 2.99000 24.46300
C  7.75200 2.25700 23.06400
C  8.50100 0.95800 23.43100
C  8.62400 1.06200 24.96800
C  6.50700 2.14700 22.13800
C  9.93800 0.73100 22.73700
C  10.17200 1.28400 21.31000
N  9.38800 1.29800 27.80800
C  9.75800 0.25700 26.99000
C  10.62200 -0.62400 27.73900
C  10.61400 -0.14600 29.05500
C  9.84400 1.03500 29.02200
C  11.27200 -1.86500 27.12900
C  11.23700 -0.27500 30.35800
O  12.03700 -1.17900 30.70600
C  10.68000 0.84800 31.21000
C  10.08300 0.17400 32.40600
O  9.00300 -0.40300 32.39800
O  10.91800 0.26800 33.47800
C  10.58600 -0.60600 34.57000
H  5.69000 5.50100 30.26500
H  6.21500 4.36100 23.78800
H  9.72400 -0.69500 25.10400
H  8.52500 2.46600 32.77600
H  7.78800 5.34400 31.86200
H  5.61800 3.31200 32.27100
H  5.73400 4.97500 32.77600
H  6.56900 3.71300 33.66300
H  10.04100 5.01300 32.57100
H  10.81200 3.69000 31.72700
H  11.47600 2.88300 33.76900
H  9.83700 2.66700 34.29300
H  4.50500 7.53900 28.72700
H  3.74200 6.03300 29.26500
H  3.11000 6.77000 27.83700
H  2.71100 6.97500 25.70000
H  3.33000 8.21000 24.72500
H  3.96400 8.16100 26.41500
H  8.54300 2.81300 22.56100
H  7.87900 0.07000 23.31800
H  5.65200 2.70200 22.52400
H  6.19200 1.16700 21.78000
H  6.95700 2.54500 21.22900
H  10.01200 -0.35100 22.62900
H  10.60500 1.16500 23.48100
H  9.25100 1.47300 20.76000
H  10.75500 0.57900 20.71600
H  10.78200 2.18100 21.41400
H  11.65500 -1.50900 26.17200
H  10.54900 -2.67700 27.04800
H  12.05700 -2.25300 27.77900
H  11.52800 1.47700 31.48200
H  10.11100 -1.48400 34.13300
H  9.93700 -0.08400 35.27400
H  11.45700 -0.83600 35.18400
Mg 16.38100 -2.24200 27.64100
C  15.23100 -0.26700 30.24300
C  18.43500 -3.84800 29.78400
C  17.48300 -3.97600 24.98500
C  14.46300 -0.14500 25.50100
N  16.86900 -2.00300 29.76800
C  16.24100 -1.17200 30.62300
C  16.75100 -1.40300 32.08300
C  17.78900 -2.59900 31.89500
C  17.67600 -2.89500 30.39700
C  19.15500 -2.28100 32.34900
C  15.61600 -1.83900 33.02300
C  15.45700 -1.07800 34.31700
H  16.68600 -0.45400 34.96200
N  17.75100 -3.75000 27.47900
C  18.46600 -4.37500 28.46600
C  19.38700 -5.28800 27.89800
C  19.01100 -5.43500 26.52300
C  18.04500 -4.32100 26.27000
C  20.51300 -5.98400 28.58400
C  19.45400 -6.45800 25.44400
O  19.03000 -6.47500 24.31500
C  20.48100 -7.47900 25.84200
N  16.10400 -2.01900 25.50200
C  16.58000 -2.89200 24.60700
C  16.20600 -2.50700 23.08800
C  15.17000 -1.39900 23.30300
C  15.22400 -1.11100 24.85100
C  17.51100 -2.04900 22.35600
C  13.77300 -1.78700 22.79100
C  13.16800 -1.04200 21.59100
N  15.07900 -0.69800 27.79300
C  14.40800 0.08600 26.85200
C  13.71100 1.11100 27.47600
C  14.01100 1.00400 28.77800
C  14.81000 -0.07900 28.96700
C  12.69600 2.09200 26.81700
C  13.84600 1.71900 30.03200
O  13.20400 2.71800 30.24600
C  14.63400 0.82300 31.09300
C  15.50400 1.94300 31.53900
O  16.31700 2.52300 30.77600
O  15.23800 2.43600 32.80700
C  16.09500 3.50200 33.30200
H  19.12300 -4.41000 30.41800
H  17.79900 -4.50900 24.08600
H  13.74200 0.51300 25.01200
H  17.35500 -0.59800 32.50100
H  17.33100 -3.50900 32.28100
H  19.86600 -2.09700 31.54300
H  19.50200 -3.20000 32.82000
H  19.10400 -1.51800 33.12600
H  15.73200 -2.88000 33.32600
H  14.63700 -1.82400 32.54300
H  14.86600 -1.71700 34.97300
H  14.75700 -0.29500 34.02400
H  20.06300 -6.96300 28.75200
H  20.65700 -5.52200 29.56100
H  21.41800 -5.98600 27.97600
H  20.24200 -8.08600 26.71600
H  21.47500 -7.05400 25.98000
H  20.51500 -8.12400 24.96400
H  15.88700 -3.43500 22.61300
H  15.40600 -0.50300 22.72800
H  18.30900 -1.88300 23.08000
H  17.35000 -1.15800 21.75000
H  17.86400 -2.84800 21.70200
H  13.03100 -1.68100 23.58300
H  13.79600 -2.85900 22.59500
H  13.89200 -1.05800 20.77600
H  12.93400 -0.05900 21.99800
H  12.26600 -1.57700 21.29200
H  13.25000 2.83900 26.24800
H  11.97500 2.55200 27.49300
H  12.17100 1.49400 26.07200
H  14.04600 0.49000 31.94900
H  17.10000 3.43500 32.88600
H  16.13800 3.33700 34.37800
H  15.76300 4.51900 33.09200

