158

Mg 25.70400 -0.12900 29.20000
C  27.50200 -0.15800 32.23100
C  22.87400 0.45900 30.82700
C  24.21900 -0.00600 26.20100
C  28.64700 -1.23900 27.60300
N  25.30700 0.18400 31.25400
C  26.13400 0.27500 32.34400
C  25.39500 0.58100 33.64700
C  24.02400 0.79100 33.12400
C  23.99700 0.40300 31.64300
C  23.03500 0.02300 33.96400
C  26.03500 1.78600 34.43300
C  26.92800 1.70100 35.74800
H  26.48600 2.61800 36.84900
N  23.79200 0.17800 28.53000
C  22.69600 0.37400 29.41300
C  21.49100 0.50000 28.59500
C  21.89300 0.40900 27.22100
C  23.33900 0.15300 27.27400
C  20.12400 0.67900 29.22700
C  21.13100 0.35500 25.92300
O  21.59400 0.15700 24.77300
C  19.73400 0.60500 26.14900
N  26.30500 -0.85400 27.27500
C  25.49400 -0.51400 26.19400
C  26.21900 -0.68600 24.91000
C  27.63500 -1.14000 25.36600
C  27.51300 -1.07900 26.83400
C  25.56900 -1.55900 23.90600
C  28.81200 -0.26700 24.81600
C  29.02000 1.07400 25.37700
N  27.70100 -0.60500 29.73800
C  28.79300 -1.03200 29.02000
C  29.99700 -1.13300 29.82700
C  29.45500 -0.86700 31.14400
C  28.09300 -0.55600 31.01900
C  31.40500 -1.44800 29.28400
C  29.83400 -0.85500 32.53000
O  30.88600 -1.17100 33.08000
C  28.55600 -0.27000 33.26900
C  28.21000 -1.22400 34.30100
O  27.40600 -2.13700 34.18400
O  29.01300 -1.08100 35.44200
C  28.86300 -2.10700 36.44100
H  21.98200 0.70600 31.40600
H  23.79500 0.06500 25.19800
H  29.61400 -1.59400 27.24000
H  25.59400 -0.27000 34.29800
H  23.80800 1.85800 33.18100
H  23.20600 0.13400 35.03500
H  23.04000 -1.05800 33.82800
H  22.01200 0.35900 33.79200
H  25.26100 2.54300 34.56800
H  26.75300 2.20800 33.73000
H  27.93300 2.04700 35.50700
H  26.88600 0.64000 35.99500
H  19.89300 1.74400 29.25700
H  20.06600 0.26100 30.23200
H  19.35700 0.09700 28.71700
H  19.30000 -0.33400 26.49200
H  19.42000 0.86500 25.13800
H  19.57000 1.38700 26.89000
H  26.28700 0.26900 24.38800
H  27.89000 -2.14800 25.03900
H  25.16500 -2.39200 24.48200
H  26.17800 -1.89500 23.06700
H  24.72700 -0.97500 23.53400
H  28.55000 -0.10900 23.76900
H  29.74300 -0.83000 24.76100
H  29.80100 1.06300 26.13800
H  28.05200 1.42800 25.72900
H  29.09300 1.74100 24.51800
H  31.57300 -0.50600 28.76100
H  31.42800 -2.39000 28.73600
H  32.16600 -1.56300 30.05600
H  28.81300 0.65400 33.78900
H  29.78700 -2.24700 37.00200
H  28.58700 -3.04500 35.96100
H  28.09000 -1.79400 37.14300
Mg 35.66600 1.39600 29.78200
C  33.48600 2.48000 32.11900
C  38.24200 1.27400 32.23500
C  37.99700 0.41800 27.40700
C  33.18800 1.67300 27.30200
N  35.86800 1.95300 31.80300
C  34.77300 2.26300 32.61600
C  35.10400 2.35400 34.09200
C  36.70200 2.31700 34.03600
C  36.94200 1.78500 32.58700
C  37.49700 3.67100 34.22700
C  34.50600 1.24300 35.03600
C  34.22700 1.52100 36.44700
H  34.73900 2.87900 36.99900
N  37.72400 0.70500 29.85100
C  38.59500 0.70300 30.98400
C  39.92300 0.14400 30.62000
C  39.87100 0.06100 29.20500
C  38.48700 0.32700 28.80200
C  41.08200 -0.07600 31.61300
C  40.97800 -0.31600 28.28000
O  40.81500 -0.57200 27.07200
C  42.45500 -0.23500 28.73800
N  35.55400 1.05600 27.70200
C  36.69700 0.79500 26.95000
C  36.36200 0.63700 25.49200
C  34.77700 0.73600 25.49300
C  34.51700 1.25800 26.88200
C  37.15000 1.62700 24.56000
C  34.09500 -0.65100 25.20500
C  32.98800 -0.66700 24.06700
N  33.72000 2.07000 29.65800
C  32.83100 2.16400 28.61200
C  31.49900 2.59700 29.13900
C  31.72300 2.74100 30.55100
C  33.05700 2.33200 30.80900
C  30.27600 2.93900 28.31700
C  31.12500 3.15000 31.79600
O  29.97100 3.39200 32.19400
C  32.24400 2.98000 32.86100
C  32.46200 4.22400 33.67700
O  33.21500 5.09000 33.40800
O  31.63700 4.23800 34.80100
C  31.79000 5.41500 35.57700
H  38.98200 1.23200 33.03700
H  38.79400 0.45900 26.66100
H  32.38900 1.55600 26.56800
H  34.77600 3.33400 34.44000
H  37.14100 1.66700 34.79400
H  38.11500 3.58500 35.12200
H  36.79000 4.48500 34.38200
H  38.06300 3.91200 33.32700
H  35.18800 0.39700 34.95700
H  33.54300 0.89600 34.66200
H  34.71100 0.74400 37.03800
H  33.14600 1.48100 36.57800
H  40.43100 -0.26600 32.46600
H  41.74900 0.77200 31.77200
H  41.67500 -0.96400 31.39500
H  43.15900 -0.04700 27.92700
H  42.56100 -1.08100 29.41700
H  42.51500 0.64500 29.37800
H  36.79000 -0.34500 25.28900
H  34.33200 1.55000 24.92000
H  37.64000 2.37700 25.18100
H  36.56400 2.07600 23.75800
H  37.90700 1.00200 24.08600
H  33.54300 -0.85600 26.12200
H  34.94900 -1.30500 25.02900
H  33.17100 -1.42500 23.30600
H  32.90100 0.24200 23.47200
H  31.94900 -0.74400 24.38800
H  29.98500 3.97300 28.50100
H  29.46400 2.22800 28.47100
H  30.45700 2.76200 27.25700
H  31.90400 2.15500 33.48700
H  31.02700 6.14300 35.29800
H  32.78100 5.86800 35.54800
H  31.53800 5.12500 36.59700

