158

Mg 7.98100 3.66500 27.96900
C  9.47500 2.24400 30.74700
C  6.33000 5.82100 29.81900
C  6.56900 4.74300 25.09800
C  9.19900 0.89000 26.11600
N  7.81000 3.95600 30.05300
C  8.62500 3.35400 31.03000
C  8.32000 4.00600 32.42900
C  7.16500 4.99500 32.11900
C  7.03500 4.85900 30.58800
C  5.80400 4.76500 32.89800
C  9.61900 4.61800 33.06700
C  10.20600 4.12400 34.34200
H  10.53400 5.13100 35.48600
N  6.67900 5.13600 27.53800
C  6.24400 6.07800 28.41800
C  5.59400 7.19700 27.76400
C  5.66100 6.87400 26.38700
C  6.34400 5.54500 26.29600
C  5.00800 8.42500 28.56500
C  5.16600 7.66000 25.20700
O  5.22000 7.20200 24.05200
C  4.28200 8.81400 25.33800
N  7.87700 2.88000 25.95400
C  7.18000 3.56600 24.96500
C  7.48800 2.95800 23.63300
C  8.31100 1.73400 23.94700
C  8.49400 1.83800 25.45800
C  6.25900 2.65900 22.71100
C  9.61500 1.62600 23.13900
C  9.48500 0.65600 22.01900
N  9.18700 1.89200 28.28000
C  9.56300 0.85200 27.51600
C  10.33500 -0.11200 28.21100
C  10.37900 0.43500 29.50300
C  9.73100 1.64600 29.47300
C  10.87300 -1.41200 27.73300
C  10.88700 0.23700 30.88600
O  11.58600 -0.65000 31.41900
C  10.32400 1.47200 31.76100
C  9.67500 0.92100 32.95400
O  8.59300 0.42600 33.06300
O  10.63000 0.90700 33.95100
C  10.33600 0.37300 35.27800
H  5.99200 6.58200 30.52500
H  6.19400 5.13100 24.14900
H  9.77300 0.10300 25.62300
H  7.97900 3.20700 33.08800
H  7.37300 6.05100 32.29400
H  4.93200 4.64900 32.25400
H  5.58000 5.72200 33.36900
H  5.84700 4.01700 33.69000
H  9.49300 5.69000 33.22200
H  10.38000 4.45400 32.30400
H  11.15300 3.67000 34.04800
H  9.42500 3.48400 34.75300
H  3.93400 8.26600 28.66200
H  5.37600 9.30700 28.04200
H  5.37900 8.39500 29.58900
H  4.15400 9.29500 24.36900
H  4.81600 9.54900 25.94200
H  3.31300 8.44900 25.67700
H  8.02900 3.80300 23.20700
H  7.66700 0.87000 23.78500
H  6.21200 1.59600 22.47500
H  6.37800 3.24000 21.79700
H  5.33900 2.98400 23.19700
H  10.36500 1.33900 23.87600
H  9.97000 2.57700 22.74300
H  10.08300 0.98600 21.17000
H  8.45300 0.43600 21.74400
H  9.83400 -0.24000 22.53100
H  11.88300 -1.53000 28.12500
H  10.84800 -1.66200 26.67200
H  10.27400 -2.18000 28.22400
H  11.11800 2.14500 32.08400
H  9.84800 1.19000 35.81000
H  11.28100 -0.05200 35.61800
H  9.54700 -0.37700 35.33100
Mg -12.12600 17.03300 42.14500
C  -8.95100 15.49300 41.78300
C  -10.80000 19.74900 40.59500
C  -15.22200 18.21700 41.89200
C  -13.36800 13.88500 43.17800
N  -10.08500 17.51800 41.25200
C  -8.88800 16.79800 41.25500
C  -7.68400 17.59500 40.53800
C  -8.38500 19.04200 40.52000
C  -9.81000 18.81100 40.82400
C  -7.86400 20.25000 41.44800
C  -7.18600 16.96800 39.20100
C  -5.75400 16.55300 39.17100
H  -5.52900 15.32700 38.20200
N  -12.90100 18.81300 41.43000
C  -12.19400 19.86500 40.85300
C  -13.01900 21.01100 40.72100
C  -14.34300 20.55500 41.14800
C  -14.22600 19.10200 41.43900
C  -12.53800 22.36000 40.27000
C  -15.57000 21.44300 41.33700
O  -15.39700 22.65200 41.08200
C  -16.90400 20.95600 41.80600
N  -14.04200 16.17600 42.48600
C  -15.16100 16.91700 42.38500
C  -16.39300 16.06000 42.66100
C  -15.75800 14.69400 43.08600
C  -14.26000 14.95700 42.92400
C  -17.54800 16.65600 43.60300
C  -16.39500 13.50900 42.40700
C  -15.85200 13.03200 41.03600
N  -11.33700 15.03500 42.62400
C  -11.98400 13.89800 43.07700
C  -10.96900 12.86500 43.23400
C  -9.82400 13.39600 42.76000
C  -10.08400 14.70700 42.32300
C  -11.24900 11.46000 43.80100
C  -8.41000 13.10500 42.49800
O  -7.75600 12.11600 42.71400
C  -7.83100 14.43000 41.80600
C  -6.51600 14.64800 42.51800
O  -6.41100 14.96600 43.71400
O  -5.56500 14.10900 41.70700
C  -4.24400 13.93600 42.37200
H  -10.23000 20.61000 40.23900
H  -16.20300 18.69600 41.91000
H  -13.87300 12.93900 43.38600
H  -6.85900 17.78100 41.22500
H  -8.27100 19.32400 39.47300
H  -8.59200 20.70000 42.12300
H  -7.43800 21.04500 40.83600
H  -6.96900 19.84700 41.92200
H  -7.34100 17.79200 38.50400
H  -7.82900 16.14300 38.89300
H  -5.46800 16.35700 40.20400
H  -5.03800 17.23500 38.71000
H  -12.85400 22.55300 39.24500
H  -11.45800 22.47200 40.36300
H  -12.84100 23.13200 40.97700
H  -17.58500 21.80800 41.80800
H  -16.76400 20.55500 42.80900
H  -17.24900 20.18500 41.11800
H  -16.78300 15.92300 41.65200
H  -15.87300 14.68300 44.17000
H  -17.21000 17.65200 43.88900
H  -17.67900 16.10900 44.53600
H  -18.51500 16.55700 43.11000
H  -17.41400 13.83500 42.19600
H  -16.46200 12.62200 43.03700
H  -16.57500 12.98600 40.22200
H  -15.41100 12.04000 41.13400
H  -15.08000 13.69200 40.64000
H  -11.27800 10.60100 43.13100
H  -12.08200 11.50900 44.50200
H  -10.49500 11.06300 44.48000
H  -7.62300 14.16400 40.76900
H  -3.53800 13.74400 41.56300
H  -4.34400 13.09800 43.06100
H  -4.02300 14.88300 42.86500

