158

Mg 16.97300 -0.89500 27.45400
C  16.11600 1.17200 30.16300
C  18.74300 -2.95700 29.75700
C  18.36400 -2.58900 24.95300
C  15.29800 1.23100 25.28300
N  17.46800 -0.75700 29.68100
C  16.95200 0.16800 30.58100
C  17.38300 -0.25500 32.07200
C  18.34300 -1.42400 31.71700
C  18.05200 -1.80600 30.27200
C  19.80000 -1.03600 31.85700
C  16.25200 -0.59000 33.06300
C  16.32000 -0.21500 34.53200
H  17.72500 0.21500 34.99800
N  18.39400 -2.49300 27.37200
C  18.94600 -3.21600 28.36400
C  19.70800 -4.28100 27.78500
C  19.63400 -4.23700 26.34600
C  18.83300 -3.04100 26.13700
C  20.38500 -5.33700 28.68100
C  20.15700 -5.14600 25.23300
O  20.05600 -4.96000 24.01700
C  20.77700 -6.39600 25.65000
N  16.86500 -0.75200 25.48000
C  17.56900 -1.53800 24.57700
C  17.22200 -1.20700 23.11200
C  16.21900 -0.05900 23.25900
C  16.11000 0.17500 24.75600
C  18.52800 -0.82600 22.42600
C  14.86700 -0.31700 22.54400
C  13.75100 -1.01000 23.35800
N  15.81200 0.78600 27.67300
C  15.24400 1.58600 26.70000
C  14.48200 2.63400 27.34600
C  14.82800 2.53400 28.72400
C  15.69800 1.45600 28.82100
C  13.68500 3.69400 26.58200
C  14.60200 3.13200 30.05600
O  14.01500 4.15000 30.37500
C  15.45900 2.22300 31.07400
C  16.48600 3.10000 31.75500
O  17.53600 3.57100 31.25100
O  16.06200 3.45900 33.02300
C  16.68200 4.59300 33.70400
H  19.24300 -3.57500 30.50600
H  18.62500 -3.12800 24.03900
H  14.66900 1.83300 24.62300
H  17.94400 0.63900 32.34300
H  18.07300 -2.25300 32.37000
H  19.85300 -0.01100 32.22300
H  20.37900 -1.01400 30.93400
H  20.28700 -1.68000 32.58900
H  16.21800 -1.67700 33.13500
H  15.33100 -0.29800 32.55700
H  15.96000 -1.03300 35.15700
H  15.63300 0.62300 34.65100
H  19.58200 -5.91500 29.13900
H  20.87800 -4.79500 29.48800
H  21.13200 -5.93200 28.15500
H  21.77900 -6.30300 26.06800
H  20.76600 -7.16800 24.88000
H  20.03000 -6.72500 26.37300
H  16.75100 -2.03000 22.57600
H  16.55300 0.85900 22.77600
H  18.51400 0.18900 22.02700
H  18.75700 -1.47500 21.58100
H  19.41600 -0.86000 23.05600
H  14.95800 -0.82400 21.58300
H  14.41400 0.60500 22.17900
H  12.91300 -1.38500 22.77000
H  13.32700 -0.19800 23.94900
H  14.17900 -1.79200 23.98400
H  14.25000 4.14100 25.76400
H  13.34800 4.53200 27.19200
H  12.81200 3.33300 26.03900
H  14.84400 1.74400 31.83600
H  17.74700 4.61400 33.47200
H  16.59300 4.55800 34.79000
H  16.19500 5.52700 33.42400
Mg -5.95500 25.05700 25.77100
C  -4.61900 26.82500 28.57700
C  -7.60100 22.99100 28.00800
C  -6.73400 23.23100 23.28100
C  -3.80200 26.95600 23.71700
N  -5.98100 24.89000 28.00000
C  -5.43300 25.77400 28.92300
C  -5.83300 25.40300 30.38000
C  -6.66200 24.00700 30.17100
C  -6.78400 23.99800 28.59000
C  -5.83400 22.74100 30.65300
C  -6.64900 26.55400 31.09600
C  -6.37900 26.70300 32.65000
H  -6.10500 25.55300 33.57400
N  -7.13400 23.37700 25.61600
C  -7.77900 22.68200 26.59700
C  -8.58300 21.63300 25.95700
C  -8.29600 21.68600 24.59900
C  -7.33700 22.76700 24.43000
C  -9.46500 20.77700 26.82700
C  -8.90800 20.84000 23.43000
O  -8.55000 21.01100 22.32100
C  -10.00700 19.81300 23.70600
N  -5.21400 25.04800 23.78900
C  -5.87600 24.24700 22.93300
C  -5.53200 24.56700 21.47700
C  -4.56200 25.72400 21.56900
C  -4.56100 26.02600 23.09600
C  -4.96900 23.34100 20.68900
C  -4.84400 26.91900 20.58200
C  -3.61800 27.64700 20.03700
N  -4.58900 26.64400 26.08300
C  -3.82800 27.30100 25.12900
C  -3.03500 28.30900 25.73300
C  -3.31500 28.25800 27.07600
C  -4.23800 27.16700 27.22700
C  -1.96800 29.17400 25.01400
C  -3.00600 28.70500 28.43700
O  -2.34800 29.66700 28.79200
C  -3.74900 27.75900 29.49300
C  -2.67900 26.92200 30.16700
O  -1.72400 26.47400 29.54200
O  -2.86400 26.97200 31.54300
C  -1.81800 26.22400 32.28100
H  -8.12200 22.47300 28.81600
H  -7.06100 22.70400 22.38200
H  -3.17800 27.45700 22.97500
H  -4.90700 25.27700 30.94000
H  -7.61600 24.21900 30.65400
H  -6.44900 22.10100 31.28600
H  -4.94900 22.92900 31.26000
H  -5.69100 22.07700 29.80000
H  -7.73600 26.47800 31.12400
H  -6.38600 27.43100 30.50500
H  -7.08100 27.33300 33.19500
H  -5.42400 27.22700 32.65600
H  -9.36600 19.71300 26.61000
H  -10.52200 21.02800 26.73800
H  -9.22400 20.82700 27.88900
H  -9.81100 19.16800 24.56300
H  -9.97700 19.11200 22.87100
H  -10.96700 20.32800 23.71400
H  -6.50100 24.83100 21.05400
H  -3.55700 25.31700 21.45700
H  -4.89000 22.46200 21.32800
H  -3.91700 23.50200 20.45300
H  -5.50200 23.18700 19.75000
H  -5.49400 27.62900 21.09200
H  -5.51500 26.57100 19.79700
H  -3.55700 28.68700 20.35800
H  -3.52500 27.59700 18.95300
H  -2.71200 27.24600 20.49000
H  -1.12100 29.49000 25.62300
H  -2.44500 29.97600 24.45100
H  -1.58300 28.54400 24.21200
H  -4.33900 28.30000 30.23300
H  -1.40600 26.84500 33.07700
H  -0.92800 25.96300 31.70800
H  -2.27000 25.38900 32.81600

