158

Mg 25.46100 1.00400 30.04100
C  27.73700 1.11100 32.88400
C  22.90600 1.69000 32.17600
C  23.34200 0.48800 27.54300
C  28.09300 0.15900 27.97100
N  25.39800 1.47300 32.27500
C  26.37800 1.48200 33.20300
C  25.81200 1.84800 34.64600
C  24.25900 1.88000 34.40400
C  24.18300 1.60900 32.86600
C  23.38500 0.97100 35.28800
C  26.33000 3.17200 35.29300
C  27.19600 3.17500 36.51000
H  26.97400 4.17500 37.65300
N  23.45200 1.08400 29.91000
C  22.56800 1.37500 30.90200
C  21.20400 1.25000 30.42400
C  21.31600 0.85900 29.04100
C  22.74700 0.73800 28.81000
C  20.05100 1.72700 31.36600
C  20.18100 0.80400 28.01800
O  20.42200 0.60000 26.81600
C  18.69500 0.95900 28.47400
N  25.64800 0.46400 28.05600
C  24.66400 0.42400 27.20000
C  25.18500 0.31500 25.72500
C  26.72600 0.18100 25.84600
C  26.84900 0.30200 27.39500
C  24.47200 -0.74600 24.83200
C  27.74200 1.22900 25.15800
C  27.74100 2.68500 25.60300
N  27.50200 0.70200 30.30300
C  28.43800 0.38500 29.36700
C  29.79000 0.50100 29.96800
C  29.54800 0.70800 31.33700
C  28.15700 0.80400 31.49500
C  31.04700 0.25600 29.19900
C  30.15900 0.88400 32.62400
O  31.36400 0.92600 32.85600
C  29.00100 1.14000 33.71400
C  28.93200 0.15700 34.81700
O  28.27900 -0.90000 34.80100
O  29.74900 0.65200 35.86600
C  29.64700 0.03100 37.21500
H  22.10800 1.96100 32.87000
H  22.60200 0.40000 26.74500
H  29.02000 -0.20900 27.52600
H  25.92100 1.01400 35.34000
H  23.81300 2.87400 34.44800
H  22.58100 1.53100 35.76500
H  23.95900 0.48600 36.07800
H  22.90200 0.23200 34.65000
H  25.48300 3.83400 35.47600
H  26.87300 3.67700 34.49400
H  28.21200 3.31400 36.14100
H  27.15200 2.15700 36.89700
H  19.22300 1.02600 31.26600
H  19.74200 2.68700 30.95200
H  20.25600 1.73600 32.43700
H  18.07800 1.11200 27.58800
H  18.80400 1.88200 29.04400
H  18.33900 0.07200 28.99800
H  24.92300 1.27100 25.27100
H  27.10600 -0.83400 25.73200
H  25.09800 -1.63700 24.88000
H  24.31400 -0.42800 23.80100
H  23.45100 -0.87300 25.19200
H  27.45900 1.17700 24.10700
H  28.75300 0.84300 25.29000
H  27.16900 2.89700 26.50700
H  27.45400 3.33100 24.77300
H  28.77500 2.91400 25.86000
H  31.19400 -0.82200 29.12100
H  31.90500 0.59700 29.77800
H  31.12400 0.51000 28.14200
H  29.19900 2.11200 34.16600
H  30.60300 -0.12600 37.71500
H  29.29400 -0.99300 37.09500
H  28.89900 0.49600 37.85800
Mg 41.06900 9.57600 29.31400
C  42.93500 10.84300 31.88400
C  38.91400 8.32900 31.62500
C  39.33100 8.36300 26.71000
C  43.50700 10.85100 27.04300
N  41.09600 9.37200 31.55600
C  41.81400 10.22900 32.40500
C  41.15700 10.21300 33.78200
C  40.04600 9.15000 33.69400
C  40.03900 8.84900 32.22900
C  40.40100 7.88400 34.60600
C  40.71500 11.61700 34.35400
C  40.07400 11.70500 35.65200
H  40.58200 12.68300 36.73300
N  39.43500 8.46100 29.17300
C  38.60900 8.03200 30.27500
C  37.42500 7.33800 29.69500
C  37.57100 7.35100 28.28100
C  38.79500 8.07900 27.98700
C  36.27500 6.74200 30.49400
C  36.60600 6.76600 27.19900
O  36.75000 6.81100 25.97700
C  35.40100 6.03100 27.64200
N  41.37100 9.60100 27.20000
C  40.44500 9.06300 26.34700
C  40.88600 9.29300 24.91400
C  42.15800 10.06200 25.01800
C  42.36500 10.25300 26.52300
C  41.05000 7.93300 24.18500
C  42.11600 11.45000 24.32500
C  41.31700 12.56600 24.98700
N  42.79900 10.65900 29.38100
C  43.71700 11.01500 28.46700
C  44.80600 11.77000 29.02600
C  44.47000 11.72300 30.33100
C  43.30500 11.02300 30.54500
C  45.85400 12.47100 28.35200
C  44.89700 12.17900 31.64000
O  45.87500 12.86000 31.90100
C  43.83200 11.76100 32.63700
C  44.32800 11.10500 33.93500
O  44.92900 10.05600 33.95900
O  44.07700 11.88100 35.07000
C  44.49600 11.44900 36.42200
H  38.15000 8.00800 32.33600
H  38.85700 7.98700 25.80100
H  44.15500 11.23300 26.25200
H  41.98000 9.99100 34.46000
H  39.06800 9.53600 33.98000
H  40.26300 7.01500 33.96400
H  39.71900 7.77100 35.44900
H  41.44600 7.87000 34.91600
H  39.98000 12.00800 33.65100
H  41.60900 12.23800 34.41100
H  40.12800 10.69400 36.05700
H  39.02200 11.84000 35.39900
H  35.26400 7.12900 30.36800
H  36.56900 6.91400 31.52900
H  36.18200 5.67100 30.31300
H  35.71300 5.11700 28.14600
H  34.85500 5.77200 26.73500
H  34.69600 6.62300 28.22700
H  40.20000 9.89900 24.32200
H  43.05400 9.59300 24.61200
H  40.62000 7.07700 24.70600
H  42.12200 7.73300 24.17400
H  40.62100 7.91500 23.18400
H  41.71700 11.43900 23.31100
H  43.18300 11.64800 24.22400
H  42.03600 13.24200 25.44900
H  40.55600 12.19500 25.67300
H  40.75200 13.11100 24.23200
H  45.54700 12.67300 27.32600
H  46.84600 12.05400 28.52700
H  45.97700 13.40000 28.90900
H  43.15000 12.59400 32.81100
H  44.27800 10.45000 36.80100
H  43.99400 12.16800 37.06900
H  45.57700 11.54600 36.51800

