158

Mg 0.44000 7.93900 25.98400
C  1.41600 9.85000 28.80600
C  0.53200 5.12400 27.92000
C  -0.14100 6.19000 23.25900
C  0.47300 10.98700 24.06300
N  0.82600 7.56900 28.08100
C  1.19400 8.46800 29.01800
C  1.34000 7.80800 30.45100
C  1.48600 6.22600 29.98600
C  0.90200 6.31300 28.59700
C  2.83400 5.52000 30.25300
C  0.24800 8.15900 31.47300
C  0.45300 8.04200 33.02800
H  1.70700 7.32500 33.44500
N  0.32400 5.85100 25.59600
C  0.32800 4.89600 26.55500
C  0.18500 3.64600 25.87700
C  -0.08500 3.90000 24.42200
C  0.02900 5.33600 24.38100
C  0.17300 2.32500 26.58600
C  -0.44600 2.97900 23.28600
O  -0.74400 3.35000 22.13600
C  -0.48900 1.51600 23.49300
N  0.27300 8.60600 23.94000
C  -0.11300 7.62800 23.03500
C  -0.51500 8.29300 21.73700
C  -0.50200 9.80800 22.03200
C  0.01600 9.88000 23.49400
C  0.23300 7.74900 20.41800
C  -1.87300 10.66500 21.88100
C  -2.04100 11.79100 20.81700
N  0.98400 10.00500 26.24400
C  0.90500 11.05000 25.39800
C  1.29300 12.30800 26.09500
C  1.52000 11.82100 27.42400
C  1.26500 10.45100 27.47100
C  1.42200 13.72000 25.60700
C  1.86700 12.27000 28.72700
O  2.07200 13.40400 29.12800
C  1.59100 11.04500 29.71700
C  2.79600 10.88700 30.64600
O  3.90900 10.50800 30.30400
O  2.40900 11.23700 31.88800
C  3.26800 11.05200 33.03500
H  0.59000 4.16600 28.44300
H  -0.49400 5.60400 22.40800
H  0.45000 11.88700 23.44400
H  2.28900 8.16200 30.85200
H  0.91500 5.61000 30.68100
H  3.47500 6.26500 30.72400
H  3.21600 5.23700 29.27200
H  2.72600 4.66400 30.91900
H  -0.62300 7.52600 31.30200
H  -0.05300 9.20400 31.39500
H  -0.42500 7.48200 33.34900
H  0.37600 9.04600 33.44500
H  -0.22100 1.47200 26.03500
H  -0.44100 2.44400 27.47800
H  1.15000 2.17900 27.04800
H  -1.41900 1.28000 24.01000
H  0.27800 0.98000 24.05300
H  -0.51600 1.00500 22.53000
H  -1.54300 7.93200 21.75000
H  0.25200 10.11500 21.30700
H  0.55200 8.51200 19.70700
H  -0.50700 7.05800 20.01300
H  1.06000 7.10000 20.70300
H  -2.24500 11.06500 22.82400
H  -2.62100 9.95000 21.53700
H  -2.78100 11.57900 20.04600
H  -1.04400 11.98900 20.42400
H  -2.26300 12.66700 21.42800
H  2.32100 13.83100 25.00200
H  1.36500 14.43100 26.43200
H  0.58500 13.89800 24.93200
H  0.72900 11.35700 30.30600
H  2.64000 10.70500 33.85600
H  3.79500 11.93700 33.39200
H  3.95000 10.24500 32.76700
Mg 9.78800 48.15400 26.61200
C  7.87000 48.34800 29.57800
C  12.38600 49.57600 28.34100
C  11.31200 48.23600 23.76400
C  6.63200 47.52900 24.80100
N  9.93300 48.96400 28.71500
C  9.17400 48.77900 29.83700
C  9.87600 49.27800 31.07200
C  11.14100 49.98300 30.56100
C  11.21000 49.46200 29.11700
C  10.99500 51.60600 30.55200
C  10.27800 48.21700 32.11200
C  9.70700 48.34100 33.55400
H  9.89500 46.95100 34.31200
N  11.60400 48.70800 26.11000
C  12.59400 49.26100 26.96800
C  13.84100 49.52400 26.13000
C  13.55500 49.10800 24.79300
C  12.11400 48.70100 24.83200
C  15.17200 50.05500 26.77500
C  14.39800 49.09700 23.51000
O  13.98600 48.62000 22.43200
C  15.83200 49.48500 23.59200
N  9.05800 47.70700 24.61200
C  10.04000 47.76700 23.63600
C  9.47500 47.33600 22.23100
C  7.92200 47.27200 22.57100
C  7.81600 47.43200 24.03800
C  9.84100 48.40000 21.15600
C  7.14700 46.02800 21.99500
C  6.66100 46.17600 20.58600
N  7.63400 47.91600 27.01300
C  6.50100 47.67000 26.17900
C  5.33300 47.54900 27.05600
C  5.82400 47.67400 28.38300
C  7.20700 48.01300 28.30800
C  3.94000 47.28400 26.55700
C  5.44400 47.63400 29.72900
O  4.34000 47.33500 30.24000
C  6.76000 47.96600 30.56200
C  7.05500 46.71700 31.22300
O  7.39900 45.74100 30.58400
O  7.10500 46.67200 32.57100
C  7.31600 45.40500 33.13400
H  13.22400 50.05500 28.85200
H  11.81700 48.15800 22.79900
H  5.72600 47.47800 24.19500
H  9.16900 49.92500 31.59100
H  12.09900 49.56600 30.87200
H  11.20500 51.97300 29.54700
H  11.72300 51.99800 31.26300
H  9.96400 51.93600 30.67800
H  11.35700 48.07800 32.17300
H  9.92800 47.28100 31.67500
H  8.64500 48.54900 33.42300
H  10.25900 49.14900 34.03500
H  15.02500 50.86900 27.48400
H  15.78400 50.55600 26.02400
H  15.90300 49.31200 27.09300
H  15.88500 50.56700 23.71500
H  16.43700 49.27200 22.71000
H  16.25900 49.10900 24.52100
H  9.90600 46.36700 21.98100
H  7.50000 48.13600 22.05900
H  10.22000 49.32100 21.59900
H  8.99500 48.55000 20.48600
H  10.70700 48.03800 20.60200
H  6.23000 45.77800 22.52900
H  7.83800 45.18600 21.99200
H  7.21900 47.01500 20.17000
H  5.58700 46.32600 20.46900
H  6.84000 45.27200 20.00400
H  3.87800 46.30300 26.08600
H  3.60300 48.11600 25.93800
H  3.29100 47.38500 27.42700
H  6.63600 48.70300 31.35600
H  6.57500 44.74100 32.68900
H  7.20400 45.48400 34.21500
H  8.32700 45.04600 32.94000

