158

Mg 26.21100 50.49600 26.19900
C  23.92500 51.68700 28.60000
C  28.45700 49.74900 28.76600
C  28.44300 49.65700 23.92400
C  24.08300 51.67800 23.70200
N  26.18400 50.83000 28.35900
C  25.09700 51.10000 29.13000
C  25.43100 50.81300 30.57900
C  27.00300 50.62400 30.66200
C  27.28800 50.40800 29.14600
C  27.86500 51.72900 31.21700
C  24.63000 49.69100 31.30900
C  24.00000 50.12500 32.67000
H  25.05700 50.58400 33.71500
N  28.10900 49.65000 26.33400
C  28.86900 49.40300 27.45800
C  30.07600 48.82700 27.06200
C  30.17300 48.89500 25.62800
C  28.86000 49.37400 25.19100
C  31.27500 48.42500 27.94700
C  31.32400 48.66800 24.71000
O  31.24600 48.74200 23.46500
C  32.78400 48.35500 25.18600
N  26.27100 50.65200 24.11100
C  27.29200 50.32500 23.37700
C  26.99800 50.36700 21.83200
C  25.47400 50.80800 21.80800
C  25.22800 51.05600 23.31800
C  27.90300 51.28500 20.98300
C  24.37300 49.84100 21.23500
C  23.79700 48.73500 21.99700
N  24.33100 51.58300 26.08800
C  23.62500 52.00500 25.02600
C  22.39800 52.61000 25.50000
C  22.44400 52.55300 26.87000
C  23.65100 51.89800 27.23300
C  21.39700 53.39300 24.58700
C  21.76200 52.89900 28.19300
O  20.66700 53.45200 28.32200
C  22.68400 52.25700 29.32300
C  23.12700 53.30000 30.22700
O  23.96300 54.19400 29.93700
O  22.48900 53.13200 31.47800
C  22.92500 54.00900 32.58500
H  29.05100 49.29500 29.56200
H  29.11300 49.30800 23.13500
H  23.49100 52.08800 22.88100
H  25.20500 51.71100 31.15400
H  27.19900 49.66600 31.14400
H  27.26900 52.64100 31.25500
H  28.75500 51.78900 30.59100
H  28.12900 51.52900 32.25500
H  25.11900 48.71800 31.35800
H  23.85700 49.41700 30.59200
H  23.60000 49.16300 32.98900
H  23.23700 50.90200 32.61500
H  30.99600 48.33600 28.99700
H  32.04100 49.19800 27.88300
H  31.70900 47.43900 27.77900
H  33.00200 49.06200 25.98700
H  33.48000 48.41300 24.34900
H  32.85600 47.32700 25.54100
H  27.06800 49.38400 21.36600
H  25.33900 51.85100 21.52300
H  28.75200 50.81100 20.49000
H  28.31000 52.03500 21.66100
H  27.45900 51.91400 20.21100
H  24.87000 49.34500 20.40000
H  23.63600 50.40900 20.66800
H  24.08500 48.68200 23.04600
H  24.06900 47.77100 21.56700
H  22.72600 48.90500 21.88500
H  21.41800 53.11900 23.53300
H  21.59500 54.46500 24.55800
H  20.44600 53.08700 25.02300
H  22.25000 51.49300 29.96800
H  23.00400 55.02100 32.18800
H  23.88000 53.71500 33.02200
H  22.25100 54.01700 33.44200
Mg -0.72600 34.58700 26.73500
C  -2.58600 32.86900 29.28900
C  0.26100 36.78000 29.24100
C  0.41000 36.62400 24.41600
C  -2.48100 32.64500 24.42800
N  -0.98700 34.62800 28.98500
C  -1.74800 33.83500 29.77100
C  -1.57600 34.06900 31.23100
C  -0.74900 35.41200 31.29700
C  -0.36200 35.59200 29.81100
C  -1.31800 36.61200 31.97000
C  -0.79400 32.87200 31.97100
C  -1.29900 32.49500 33.28200
H  -0.19400 32.25400 34.43000
N  0.32000 36.42700 26.77300
C  0.64700 37.11100 27.90200
C  1.45300 38.30200 27.46300
C  1.46800 38.32400 26.06500
C  0.77600 37.05200 25.71500
C  2.03000 39.19400 28.54000
C  2.05200 39.37500 25.04700
O  2.10800 39.22800 23.88200
C  2.50400 40.60000 25.63300
N  -1.33000 34.83400 24.65800
C  -0.50900 35.66400 23.91600
C  -0.64200 35.35300 22.38400
C  -1.19300 33.88900 22.51600
C  -1.76500 33.75200 23.95600
C  -1.49000 36.31900 21.58600
C  -0.24700 32.69000 22.08600
C  0.73500 32.07600 23.17400
N  -2.23900 33.17600 26.76000
C  -2.76400 32.39800 25.75700
C  -3.56900 31.31100 26.26300
C  -3.55900 31.51900 27.66100
C  -2.72400 32.61300 27.90700
C  -4.43900 30.28400 25.56000
C  -4.13200 31.01200 28.86300
O  -4.93000 30.15500 29.11000
C  -3.43100 31.84600 30.01600
C  -4.55400 32.37200 30.79400
O  -5.18000 33.40200 30.54100
O  -4.85300 31.50000 31.84900
C  -5.77500 32.06100 32.90800
H  0.58600 37.50800 29.98700
H  0.84400 37.15700 23.56800
H  -2.81300 32.02400 23.59300
H  -2.50600 34.23700 31.77400
H  0.18000 35.34400 31.86300
H  -2.04400 36.41000 32.75700
H  -1.79800 37.34100 31.31600
H  -0.48500 37.09000 32.48600
H  0.25600 33.13700 32.09400
H  -0.75600 31.96500 31.36800
H  -1.68500 31.49500 33.08600
H  -2.05300 33.18600 33.65800
H  2.54100 40.08600 28.17700
H  2.74500 38.68000 29.18300
H  1.23600 39.70800 29.08200
H  3.47800 40.39300 26.07700
H  1.87800 41.07700 26.38700
H  2.59300 41.29700 24.80000
H  0.38300 35.48600 22.03600
H  -2.02900 33.78300 21.82500
H  -1.92800 37.06600 22.24900
H  -2.32900 35.77900 21.14800
H  -1.00900 36.83900 20.75700
H  0.28100 33.20500 21.28300
H  -0.78300 31.87700 21.59700
H  0.47800 32.48600 24.15100
H  1.79200 32.26800 22.99000
H  0.63300 30.99400 23.26100
H  -5.45000 30.67100 25.68500
H  -4.36300 29.29200 26.00500
H  -4.20700 30.28800 24.49500
H  -2.98200 31.13000 30.70500
H  -6.64900 32.60400 32.54700
H  -5.09700 32.68000 33.49400
H  -6.06600 31.23900 33.56200

