158

Mg 8.73500 3.41000 28.21700
C  9.94900 1.86800 31.10200
C  7.03500 5.61600 30.03200
C  7.26100 4.39100 25.30600
C  10.01300 0.54600 26.37300
N  8.66100 3.78200 30.37200
C  9.17700 3.06400 31.37500
C  8.81600 3.56200 32.77700
C  7.61900 4.57900 32.37700
C  7.81900 4.74900 30.87100
C  6.08200 4.18600 32.76300
C  10.03100 4.29700 33.53500
C  10.41600 3.82100 35.07100
H  9.26700 3.70600 36.03100
N  7.43700 4.84300 27.69900
C  6.88000 5.71700 28.62700
C  6.06600 6.74100 27.93100
C  6.07200 6.37900 26.56200
C  6.98100 5.15400 26.46900
C  5.31400 7.79700 28.74200
C  5.39700 7.08000 25.43900
O  5.40600 6.71500 24.28800
C  4.71000 8.32900 25.71100
N  8.46700 2.46900 26.10400
C  8.00000 3.26200 25.13200
C  8.49200 2.70000 23.72900
C  9.29800 1.36200 24.10900
C  9.18800 1.40700 25.63500
C  7.47500 2.74200 22.58300
C  10.73400 1.22400 23.46500
C  11.08100 -0.19800 23.01900
N  9.93200 1.66300 28.62700
C  10.35800 0.60200 27.77300
C  11.14900 -0.34800 28.52600
C  11.02500 0.08300 29.88900
C  10.21100 1.28300 29.83300
C  11.84000 -1.52400 28.00400
C  11.30300 -0.23900 31.27900
O  12.01600 -1.06800 31.80500
C  10.52800 0.84900 32.10200
C  9.49900 0.17700 32.89600
O  8.65000 -0.61300 32.47700
O  9.72200 0.41000 34.21700
C  8.91300 -0.24500 35.28900
H  6.47300 6.27400 30.69800
H  6.83900 4.83000 24.40000
H  10.52500 -0.27600 25.86700
H  8.43200 2.77500 33.42500
H  7.75700 5.55600 32.83900
H  5.62500 4.72700 33.59100
H  6.14200 3.12100 32.98900
H  5.33600 4.26300 31.97200
H  9.80800 5.36100 33.61300
H  10.92900 4.06800 32.96100
H  11.03500 4.63800 35.44300
H  11.03500 2.92300 35.06000
H  5.81200 8.73200 28.48400
H  5.37200 7.76400 29.83000
H  4.28300 7.69400 28.40200
H  5.41000 9.01700 26.18500
H  3.84800 8.15500 26.35400
H  4.32900 8.76300 24.78700
H  9.34400 3.35500 23.55000
H  8.69800 0.51100 23.78700
H  6.56400 3.12200 23.04500
H  7.33700 1.78700 22.07700
H  7.69400 3.57100 21.91000
H  11.56400 1.52200 24.10600
H  10.81000 1.91300 22.62300
H  12.01300 -0.06100 22.47100
H  10.23900 -0.50200 22.39700
H  11.15200 -0.85400 23.88600
H  12.69300 -1.20100 27.40600
H  11.20300 -2.24000 27.48400
H  12.30600 -1.96000 28.88700
H  11.25900 1.32600 32.75500
H  9.47300 -1.00400 35.83500
H  8.00100 -0.69300 34.89400
H  8.51400 0.50500 35.97200
Mg 31.76100 57.88100 40.22900
C  28.98600 55.82100 39.28900
C  33.76600 55.32800 39.59300
C  34.22900 60.15600 40.39600
C  29.41700 60.54900 40.36800
N  31.40300 55.87600 39.49200
C  30.23200 55.17600 39.39700
C  30.54500 53.70900 38.96300
C  31.97600 53.53700 39.40800
C  32.40700 54.98900 39.46100
C  32.06700 52.84400 40.82100
C  30.21700 53.49200 37.43600
C  29.26100 52.39000 37.18600
H  28.65600 52.19900 35.73700
N  33.80500 57.73600 40.00900
C  34.43500 56.55300 39.73900
C  35.79600 56.83000 39.79200
C  35.95500 58.23500 39.98800
C  34.61200 58.79500 40.08600
C  36.77300 55.71900 39.69900
C  37.36400 58.90700 39.94400
O  38.37800 58.23300 39.97100
C  37.56900 60.33700 39.99900
N  31.86900 60.10800 40.36600
C  32.97300 60.71500 40.60000
C  32.72000 62.20000 41.08000
C  31.22000 62.38700 40.76700
C  30.80700 60.91500 40.40900
C  33.17600 62.39400 42.54400
C  30.84600 63.31400 39.58400
C  30.72800 62.69300 38.16200
N  29.62000 58.19300 40.08300
C  28.88600 59.33200 40.11700
C  27.50400 58.99500 39.74300
C  27.48000 57.62100 39.39200
C  28.81200 57.16300 39.63000
C  26.36600 59.92500 39.65700
C  26.66500 56.50600 38.97600
O  25.47800 56.43700 38.62400
C  27.61500 55.21000 38.99700
C  27.15900 54.34500 40.07400
O  27.73300 54.07600 41.05000
O  25.92000 53.88100 39.87300
C  25.17200 53.09300 40.85200
H  34.35700 54.43000 39.78500
H  35.08200 60.83200 40.47600
H  28.65900 61.33300 40.31700
H  29.84600 53.12000 39.55600
H  32.61100 53.00400 38.70000
H  32.67300 51.94100 40.74400
H  31.09700 52.45500 41.13200
H  32.37900 53.46700 41.66000
H  31.16900 53.27200 36.95300
H  29.82300 54.40400 36.98600
H  28.39400 52.50400 37.83700
H  29.78500 51.52100 37.58400
H  37.09600 55.55200 38.67200
H  36.25700 54.76500 39.81100
H  37.65400 55.69900 40.34100
H  37.37000 60.59700 41.03800
H  36.86800 60.82800 39.32300
H  38.60700 60.43100 39.68000
H  33.20000 62.86000 40.35700
H  30.60500 62.70700 41.60800
H  33.44200 63.44400 42.66000
H  34.01900 61.76700 42.83600
H  32.32800 62.21300 43.20600
H  31.53000 64.15900 39.50500
H  29.82700 63.66100 39.75600
H  29.76000 62.19200 38.15800
H  31.55500 62.00200 37.99600
H  30.66900 63.58400 37.53800
H  26.63000 60.62100 38.86100
H  26.17200 60.39100 40.62300
H  25.48900 59.35700 39.34500
H  27.56600 54.66900 38.05100
H  25.76900 52.20800 41.06800
H  24.16100 52.92700 40.47900
H  24.91200 53.62100 41.76900

