158

Mg 8.56300 3.52100 28.09900
C  10.30400 1.95200 30.84000
C  6.57700 5.04500 30.13100
C  7.26900 4.69700 25.35900
C  10.66100 1.40300 25.93000
N  8.32800 3.24700 30.22100
C  9.24400 2.81600 31.14100
C  8.85200 3.26600 32.52200
C  7.54700 4.08700 32.30100
C  7.48500 4.16000 30.75200
C  6.25600 3.72600 33.09700
C  10.03900 3.98800 33.35100
C  9.58500 4.96000 34.44500
H  10.20500 4.86700 35.76900
N  7.17500 4.80000 27.82600
C  6.42300 5.32400 28.78500
C  5.45500 6.27700 28.17800
C  5.55900 6.08700 26.76000
C  6.70300 5.16900 26.56400
C  4.49800 7.11100 28.95100
C  4.78600 6.65500 25.73200
O  5.00800 6.37400 24.55700
C  3.70300 7.68900 25.94800
N  9.01500 3.15900 25.93900
C  8.37700 3.90900 25.03400
C  8.79800 3.59300 23.54700
C  10.01900 2.65200 23.77700
C  9.88900 2.37800 25.35100
C  7.65500 3.14700 22.56000
C  11.36400 3.29600 23.42600
C  11.89400 4.34800 24.38500
N  10.14900 1.97700 28.24500
C  10.79800 1.19600 27.30100
C  11.71700 0.41000 28.00500
C  11.61300 0.70000 29.39000
C  10.57900 1.58600 29.46300
C  12.66000 -0.45600 27.32400
C  12.11500 0.45500 30.72400
O  12.96100 -0.29600 31.08800
C  11.21300 1.24600 31.72200
C  10.59300 0.33800 32.73500
O  9.59000 -0.28800 32.43900
O  11.16800 0.53400 34.02300
C  10.37200 -0.05000 35.10100
H  5.95400 5.59900 30.83700
H  6.94500 4.92300 24.34100
H  11.19300 0.67800 25.30900
H  8.65800 2.37900 33.12600
H  7.61300 5.13900 32.57900
H  6.48800 2.70700 33.40800
H  5.36900 3.69400 32.46400
H  6.18500 4.47000 33.89100
H  10.40600 4.58200 32.51400
H  10.77200 3.21800 33.59600
H  8.49900 5.01900 34.51100
H  9.87700 5.95100 34.09900
H  3.44000 6.89000 28.81600
H  4.73800 8.15100 28.73400
H  4.77100 7.09000 30.00600
H  3.32600 8.00400 24.97500
H  4.10700 8.55600 26.47100
H  2.90400 7.22600 26.52700
H  9.13100 4.56700 23.18700
H  9.87200 1.68500 23.29600
H  6.68600 3.36600 23.00700
H  7.74100 2.11200 22.22700
H  7.71300 3.77700 21.67300
H  11.26400 3.65500 22.40100
H  12.05700 2.45500 23.38900
H  11.24800 4.39600 25.26100
H  11.98800 5.31700 23.89600
H  12.88000 4.06500 24.75400
H  13.29700 0.08600 26.62600
H  12.27600 -1.32900 26.79700
H  13.37800 -0.65600 28.11900
H  11.90900 1.87600 32.27600
H  9.78900 0.74900 35.55800
H  11.06700 -0.33300 35.89300
H  9.81100 -0.92500 34.77400
Mg -2.66600 34.87500 26.90100
C  -4.32700 33.14200 29.52900
C  -1.81200 37.30000 29.02700
C  -1.20100 36.39000 24.24800
C  -4.26900 32.66900 24.64700
N  -3.09400 35.25800 29.07500
C  -3.67200 34.30500 29.94900
C  -3.33700 34.77400 31.34000
C  -2.74600 36.20200 31.21100
C  -2.51700 36.31900 29.69100
C  -3.73300 37.39300 31.60700
C  -2.47400 33.76200 32.07900
C  -3.27400 33.06400 33.26800
H  -2.28100 32.99000 34.59100
N  -1.57400 36.57200 26.66400
C  -1.36000 37.48200 27.70600
C  -0.50900 38.53800 27.17100
C  -0.41100 38.36500 25.74100
C  -1.13900 37.05100 25.50600
C  0.14400 39.63100 28.00800
C  0.21000 39.27000 24.67700
O  0.11500 39.01100 23.50000
C  1.00000 40.46000 25.02500
N  -2.81100 34.63200 24.77400
C  -2.02100 35.32100 23.87700
C  -2.09900 34.73900 22.47800
C  -2.84800 33.36400 22.73800
C  -3.37100 33.55100 24.16200
C  -2.77400 35.76600 21.53000
C  -2.13800 31.96200 22.73000
C  -0.93900 31.65800 23.66200
N  -3.97300 33.21100 27.01300
C  -4.57900 32.47700 26.02900
C  -5.22100 31.38600 26.55400
C  -5.26700 31.56100 27.93700
C  -4.46000 32.75000 28.15700
C  -5.98400 30.33800 25.69700
C  -5.67000 31.13600 29.29800
O  -6.34700 30.21900 29.72600
C  -5.02800 32.10700 30.34200
C  -6.11700 32.66500 31.19300
O  -6.75000 33.71600 30.98400
O  -6.26300 31.89900 32.37200
C  -7.41700 32.29200 33.22600
H  -1.30700 38.01400 29.68000
H  -0.53600 36.73100 23.45200
H  -4.60700 31.87800 23.97500
H  -4.32300 35.01100 31.74000
H  -1.81900 36.37700 31.75800
H  -4.14600 37.91500 30.74400
H  -3.20000 38.16300 32.16400
H  -4.47700 37.08200 32.34100
H  -1.61000 34.28100 32.49500
H  -2.16200 32.92600 31.45300
H  -3.57100 32.07900 32.90900
H  -4.17500 33.65300 33.43500
H  0.11100 39.36800 29.06500
H  -0.39400 40.54700 27.76700
H  1.20800 39.70700 27.78300
H  1.79100 40.01800 25.63000
H  0.27500 40.97100 25.65900
H  1.41300 40.94900 24.14300
H  -1.07400 34.59600 22.13900
H  -3.71700 33.22600 22.09400
H  -2.82700 36.77100 21.94800
H  -3.80600 35.47600 21.33500
H  -2.21300 35.87400 20.60100
H  -1.70400 31.76200 21.75000
H  -2.85800 31.14500 22.77100
H  -1.35800 30.87600 24.29600
H  -0.68800 32.59100 24.16600
H  -0.07700 31.22700 23.15300
H  -5.54400 30.20400 24.70900
H  -7.03600 30.61700 25.63500
H  -5.92900 29.36300 26.18100
H  -4.27700 31.61800 30.96100
H  -8.25800 32.68400 32.65300
H  -7.15400 33.17800 33.80400
H  -7.64600 31.50600 33.94500

