158

Mg 9.33300 4.07500 28.04000
C  10.25700 2.18100 30.94900
C  7.02100 5.75800 29.96900
C  8.19200 5.53100 25.22900
C  10.85700 1.59500 26.09900
N  8.60300 3.84100 30.18600
C  9.40100 3.26400 31.18200
C  8.87800 3.61600 32.56600
C  7.82100 4.75600 32.26200
C  7.84500 4.79600 30.71900
C  6.44500 4.59800 32.81300
C  9.97000 3.78000 33.62300
C  9.77300 4.84800 34.69500
H  10.00700 4.49300 36.15000
N  7.92100 5.52400 27.67100
C  7.05000 6.06000 28.56800
C  6.27800 7.10900 27.95700
C  6.70500 7.22600 26.54300
C  7.62600 6.04800 26.40300
C  5.29300 7.98500 28.70600
C  6.30300 8.14300 25.48300
O  6.67200 8.11100 24.31800
C  5.31200 9.32800 25.76200
N  9.61000 3.74300 25.92800
C  9.04200 4.50100 25.01900
C  9.49000 4.05300 23.63100
C  10.35600 2.79100 23.89300
C  10.24200 2.67100 25.40100
C  8.37400 3.94300 22.51400
C  11.77400 2.91400 23.31500
C  12.35800 1.80600 22.35100
N  10.45300 2.31400 28.36900
C  10.97900 1.37900 27.49100
C  11.55900 0.31400 28.23100
C  11.45700 0.66300 29.53800
C  10.67100 1.83200 29.61900
C  12.23900 -0.87300 27.58200
C  11.78100 0.25100 30.86300
O  12.50200 -0.64600 31.28800
C  11.04700 1.23000 31.86000
C  10.15500 0.43300 32.68600
O  8.98500 0.05700 32.47100
O  10.65700 0.27400 33.95700
C  9.66000 -0.23100 34.95600
H  6.35200 6.37200 30.57500
H  7.81200 5.91500 24.28000
H  11.33600 0.96400 25.34700
H  8.35300 2.74000 32.94900
H  8.24800 5.72400 32.52500
H  5.61500 5.01300 32.24000
H  6.53100 5.04500 33.80400
H  6.17500 3.54500 32.88600
H  10.89000 3.90800 33.05200
H  10.13200 2.85900 34.18400
H  8.70300 5.05000 34.74300
H  10.37600 5.72300 34.45500
H  4.94200 7.61200 29.66900
H  4.43800 7.99400 28.03000
H  5.63200 9.01300 28.83200
H  5.63200 10.12500 25.09100
H  5.46800 9.70300 26.77400
H  4.25800 9.08500 25.62700
H  10.20400 4.74900 23.19200
H  9.90600 1.90100 23.45400
H  7.42500 4.34800 22.86400
H  8.26200 2.89100 22.25000
H  8.76300 4.51200 21.67000
H  12.51700 3.04400 24.10300
H  11.83300 3.81900 22.71000
H  12.12300 2.18000 21.35500
H  11.87800 0.83200 22.44300
H  13.44300 1.84500 22.44700
H  13.16200 -0.45000 27.18500
H  11.57400 -1.37800 26.88100
H  12.41200 -1.71100 28.25700
H  11.69200 1.69300 32.60600
H  9.00900 0.61500 35.17900
H  10.18400 -0.53700 35.86100
H  9.02500 -1.07800 34.69500
Mg 48.51900 34.62500 26.32500
C  46.47200 33.55800 28.95400
C  49.07800 37.49500 28.13000
C  50.04500 35.99900 23.67600
C  47.42400 32.06600 24.30800
N  47.77300 35.46300 28.34800
C  47.10000 34.76800 29.35200
C  47.42400 35.44500 30.73700
C  47.83700 36.86900 30.24600
C  48.36500 36.53700 28.81500
C  46.69900 37.99500 30.13500
C  48.53500 34.64700 31.52400
C  48.38800 34.42200 33.07200
H  47.42300 35.50200 33.71100
N  49.49300 36.42800 26.00000
C  49.67500 37.43500 26.89000
C  50.46600 38.53300 26.30200
C  50.73800 38.11300 24.99600
C  50.00500 36.84000 24.85400
C  50.77900 39.80400 27.09500
C  51.52000 38.81900 23.95900
O  51.39900 38.64300 22.77200
C  52.30800 40.00800 24.36900
N  48.85700 34.00400 24.35600
C  49.46200 34.70000 23.42100
C  49.44100 34.05200 22.06300
C  48.82200 32.62300 22.37600
C  48.40100 32.90600 23.77300
C  48.75500 34.92400 21.01100
C  49.76800 31.36700 22.20900
C  49.39200 30.33300 21.15700
N  47.24000 33.09100 26.54900
C  46.91000 32.08100 25.65600
C  45.96800 31.21600 26.32600
C  45.80900 31.74300 27.59600
C  46.50100 32.95000 27.68100
C  45.41800 29.89700 25.68600
C  45.10500 31.49200 28.86700
O  44.32900 30.58400 29.22300
C  45.58700 32.58600 29.85500
C  46.35000 31.87500 30.87100
O  47.44900 31.42100 30.69300
O  45.63500 31.81200 32.02600
C  46.32700 30.98700 33.01300
H  49.33900 38.38200 28.71200
H  50.46800 36.46800 22.78600
H  47.15000 31.16200 23.76000
H  46.47900 35.50400 31.27600
H  48.59500 37.33300 30.87600
H  46.27200 38.10400 29.13800
H  47.12600 38.95600 30.42300
H  46.02000 37.68800 30.93100
H  49.50300 35.05400 31.23200
H  48.52600 33.63500 31.11900
H  49.35700 34.57200 33.55000
H  48.01300 33.43100 33.32800
H  51.76700 39.71800 27.54600
H  50.07900 40.02300 27.90200
H  50.63200 40.66600 26.44500
H  51.66800 40.88500 24.46600
H  53.10300 40.13300 23.63400
H  52.69500 39.76200 25.35900
H  50.48800 33.92100 21.78900
H  47.92500 32.49500 21.77100
H  48.02100 34.36100 20.43500
H  49.30000 35.55800 20.31200
H  48.21500 35.67700 21.58500
H  49.78200 30.89200 23.19000
H  50.78000 31.71300 21.99600
H  50.22300 30.47700 20.46700
H  48.44700 30.51100 20.64300
H  49.46800 29.32700 21.56900
H  44.86200 29.43200 26.50000
H  46.30100 29.27700 25.53400
H  44.80300 30.01300 24.79300
H  44.79900 33.09500 30.41000
H  45.81200 31.05600 33.97100
H  47.34700 31.29300 33.24400
H  46.29100 29.94000 32.71200

