158

Mg 9.96100 48.14300 25.52100
C  7.66900 48.29500 28.09300
C  12.33000 49.63400 27.69000
C  12.24400 48.15100 22.92100
C  7.41900 47.37000 23.36600
N  10.01100 48.77700 27.71900
C  8.93800 48.67000 28.55700
C  9.40600 49.17700 29.97300
C  10.90100 49.69900 29.85800
C  11.14000 49.35000 28.34000
C  11.18400 51.20200 30.21800
C  9.22700 48.05000 31.05500
C  10.08200 48.00500 32.37900
H  9.48600 47.99200 33.74000
N  12.00100 48.67500 25.34600
C  12.77400 49.15400 26.36700
C  14.15100 49.33600 25.87200
C  14.08000 48.88700 24.51600
C  12.74800 48.53300 24.18000
C  15.26900 49.97700 26.61200
C  15.25200 48.86100 23.47000
O  15.05900 48.49100 22.30100
C  16.64500 49.25400 23.90400
N  9.88500 47.59900 23.44900
C  10.89900 47.73600 22.58500
C  10.49300 47.43900 21.15100
C  8.93900 47.28900 21.26800
C  8.69800 47.39500 22.81200
C  10.81100 48.58900 20.11000
C  8.56900 45.92000 20.73100
C  9.10200 44.75900 21.55400
N  7.97200 47.86000 25.58700
C  7.01900 47.48200 24.65600
C  5.72700 47.30200 25.29900
C  5.96500 47.64400 26.61600
C  7.26600 47.99500 26.76000
C  4.40300 46.99700 24.61100
C  5.28800 47.66500 27.88900
O  4.12200 47.43200 28.22100
C  6.42700 48.08000 28.91600
C  6.45200 46.86800 29.79600
O  7.10500 45.86400 29.60600
O  5.75200 47.06300 30.98900
C  6.05200 46.13500 32.10500
H  12.95900 50.27500 28.31100
H  12.89300 48.01100 22.05400
H  6.66300 47.16300 22.60500
H  8.77500 50.04300 30.17600
H  11.59000 49.03900 30.38500
H  10.45000 51.52400 30.95700
H  11.21500 51.81400 29.31700
H  12.14300 51.29600 30.72800
H  9.36100 47.12400 30.49600
H  8.21500 48.18000 31.44000
H  10.85000 48.77400 32.46200
H  10.51300 47.00600 32.30500
H  15.07800 49.94500 27.68500
H  15.40000 50.97700 26.19900
H  16.22600 49.47000 26.48500
H  16.72400 50.21700 24.40800
H  17.28100 49.37300 23.02700
H  16.95800 48.45200 24.57300
H  10.95800 46.49700 20.85800
H  8.38800 48.07000 20.74500
H  11.23300 49.49400 20.54700
H  9.90800 49.02600 19.68400
H  11.60200 48.31200 19.41300
H  9.10200 45.82200 19.78600
H  7.48500 45.83400 20.65000
H  9.70700 44.10600 20.92400
H  8.26000 44.14800 21.87900
H  9.73600 44.94600 22.42000
H  4.28600 45.91600 24.53100
H  4.48700 47.37900 23.59400
H  3.56400 47.43500 25.15100
H  5.99700 48.97600 29.36200
H  5.99000 45.16400 31.61300
H  5.34500 46.16900 32.93400
H  7.08100 46.32400 32.41100
Mg -10.57600 39.94300 39.81100
C  -9.59400 36.83700 39.00400
C  -7.62200 41.23600 38.76600
C  -11.91600 43.06100 39.99100
C  -13.86700 38.61700 40.11300
N  -8.83000 39.14600 38.99000
C  -8.62200 37.77900 38.76500
C  -7.24700 37.56900 38.13500
C  -6.48400 38.93900 38.48900
C  -7.71200 39.82500 38.82800
C  -5.45700 38.84400 39.66300
C  -7.48800 37.48200 36.54100
C  -6.98800 36.15800 35.89100
H  -8.00100 35.62200 34.77400
N  -9.87000 41.87500 39.50800
C  -8.58400 42.19800 39.10400
C  -8.43600 43.66100 39.13700
C  -9.68400 44.22900 39.45000
C  -10.56200 43.04900 39.72200
C  -7.00600 44.29000 38.71000
C  -9.90400 45.66900 39.48300
O  -9.01700 46.50800 39.32800
C  -11.34300 46.33400 39.64900
N  -12.70200 40.70600 39.82500
C  -12.94300 42.09300 40.01800
C  -14.48000 42.40100 40.23500
C  -15.06800 40.92600 40.24000
C  -13.76800 40.01400 40.08200
C  -14.80000 43.25300 41.49500
C  -16.29200 40.50200 39.31000
C  -17.48100 39.83000 40.02300
N  -11.50200 38.08300 39.90200
C  -12.81800 37.74600 40.05400
C  -12.96900 36.35400 39.78600
C  -11.68000 35.91400 39.42900
C  -10.86000 37.03500 39.51400
C  -14.21100 35.54800 39.68300
C  -10.88000 34.77300 38.93000
O  -11.29600 33.64200 38.71900
C  -9.47700 35.29900 38.74800
C  -8.45000 34.40900 39.49700
O  -8.47400 34.23900 40.72800
O  -7.48500 33.87900 38.65200
C  -6.40400 33.16800 39.35200
H  -6.66500 41.66500 38.46400
H  -12.31900 44.06300 40.15000
H  -14.85600 38.16000 40.18200
H  -6.71600 36.65500 38.40100
H  -6.02600 39.37700 37.60200
H  -5.27100 37.79000 39.86700
H  -6.05500 39.23900 40.48500
H  -4.53400 39.34700 39.37400
H  -7.09800 38.33400 35.98300
H  -8.54600 37.60000 36.30700
H  -6.86100 35.40000 36.66500
H  -5.96700 36.22300 35.51400
H  -6.90100 45.26000 39.19600
H  -6.82600 44.25500 37.63500
H  -6.27900 43.70700 39.27600
H  -11.32100 47.42300 39.63300
H  -11.73700 46.01600 40.61400
H  -11.91500 45.99200 38.78600
H  -14.76400 43.00600 39.37400
H  -15.28200 40.62500 41.26500
H  -13.88800 43.69800 41.89200
H  -15.26700 42.64800 42.27200
H  -15.43100 44.10300 41.23600
H  -16.07100 39.91800 38.41700
H  -16.73600 41.46300 39.05000
H  -18.04000 39.09700 39.44200
H  -18.24800 40.53800 40.33800
H  -17.08700 39.43100 40.95700
H  -13.96200 34.48700 39.66100
H  -14.86500 35.68700 38.82200
H  -14.79200 35.73300 40.58700
H  -9.11900 35.20300 37.72300
H  -6.67500 32.24700 39.86900
H  -5.89100 33.87300 40.00600
H  -5.63400 32.77200 38.69000

