158

Mg 26.74900 50.43900 26.73000
C  25.07500 51.73700 29.51700
C  29.37800 49.69800 28.97000
C  28.42100 49.26100 24.16200
C  24.25000 51.60000 24.64200
N  27.17000 50.82500 28.94600
C  26.29900 51.26900 29.83700
C  26.79600 50.88500 31.21500
C  28.33300 50.63900 31.04400
C  28.30300 50.42600 29.53100
C  29.10000 51.81600 31.63100
C  25.95900 49.70800 31.81200
C  25.09300 50.03100 33.04200
H  25.88400 50.04700 34.34400
N  28.57500 49.55200 26.54800
C  29.42300 49.23400 27.60900
C  30.54700 48.57300 27.07400
C  30.43900 48.54400 25.64100
C  29.13800 49.12500 25.36500
C  31.69300 48.00400 27.92100
C  31.36900 47.89000 24.59500
O  31.10300 47.85100 23.41100
C  32.62600 47.21800 24.97700
N  26.44900 50.58600 24.60000
C  27.20800 49.77200 23.81200
C  26.60600 49.57700 22.43200
C  25.19300 50.28700 22.62000
C  25.24900 50.79200 24.07100
C  27.48700 50.19200 21.23600
C  23.98900 49.37200 22.40100
C  22.95600 49.78200 21.34300
N  25.14500 51.61600 26.93100
C  24.15600 51.87300 26.04200
C  22.96100 52.51700 26.69000
C  23.30400 52.44800 28.03400
C  24.67100 51.87500 28.15100
C  21.68200 52.97600 26.01000
C  22.76200 52.68600 29.34000
O  21.67000 53.11700 29.71500
C  23.96300 52.23700 30.37400
C  24.45000 53.32800 31.26300
O  25.22800 54.20500 30.92900
O  23.86400 53.24500 32.45500
C  23.94300 54.36100 33.36800
H  30.11300 49.31800 29.68300
H  28.93000 48.75300 23.34000
H  23.35900 51.87400 24.07200
H  26.70100 51.73600 31.88800
H  28.57700 49.74500 31.61700
H  28.63900 51.96800 32.60700
H  28.82800 52.69600 31.04900
H  30.18800 51.76300 31.60200
H  26.56500 48.84900 32.10100
H  25.35000 49.27200 31.01900
H  24.43000 49.20900 33.31000
H  24.41100 50.87800 32.96800
H  32.59900 48.57800 27.72600
H  31.91000 46.95000 27.75100
H  31.47300 47.95700 28.98700
H  33.28800 47.82000 25.59900
H  33.16000 47.01300 24.04900
H  32.35400 46.28000 25.46200
H  26.54000 48.50600 22.24000
H  25.14000 51.17500 21.99000
H  27.18500 51.19000 20.91700
H  27.42700 49.51300 20.38600
H  28.50200 50.38400 21.58500
H  23.42700 49.37600 23.33500
H  24.28000 48.33200 22.25900
H  23.38200 50.61200 20.77800
H  21.94900 50.04800 21.66400
H  22.96100 48.89800 20.70500
H  21.86300 53.92400 25.50300
H  20.82100 53.05600 26.67300
H  21.36400 52.27400 25.23900
H  23.70000 51.36300 30.97000
H  23.98400 53.99200 34.39300
H  23.07300 55.00300 33.22400
H  24.76800 54.99900 33.05100
Mg -10.91900 16.66400 40.50700
C  -7.44200 16.53000 40.52500
C  -10.66700 20.07600 39.91700
C  -14.34300 16.89000 39.92000
C  -10.99700 13.26800 40.09500
N  -9.30900 18.08900 40.38200
C  -7.96700 17.84900 40.39800
C  -7.12900 19.08500 40.16400
C  -8.16300 20.22200 40.54000
C  -9.46900 19.42600 40.22300
C  -8.10000 20.75800 42.08300
C  -6.63300 19.08900 38.70100
C  -5.08700 19.00800 38.43900
H  -4.68200 18.23000 37.21800
N  -12.33500 18.35300 40.03500
C  -12.06500 19.65600 39.86600
C  -13.22400 20.50300 39.68600
C  -14.31900 19.58700 39.91400
C  -13.71900 18.19300 39.95200
C  -13.09200 22.02100 39.35900
C  -15.76600 19.97600 39.88900
O  -15.93700 21.20100 39.84900
C  -16.96300 19.07300 40.01300
N  -12.43900 15.30300 40.12900
C  -13.72800 15.59000 39.91400
C  -14.59600 14.38500 39.76800
C  -13.49900 13.22400 39.67300
C  -12.23700 13.97100 40.01700
C  -15.71400 14.26800 40.84900
C  -13.44000 12.62400 38.23100
C  -12.70300 11.19000 38.10900
N  -9.56000 15.16700 40.56100
C  -9.74000 13.79500 40.33800
C  -8.40100 13.11900 40.23400
C  -7.52400 14.18200 40.28500
C  -8.23200 15.34200 40.48700
C  -8.13300 11.69600 40.00300
C  -6.09600 14.46700 40.24500
O  -5.11300 13.70300 40.04500
C  -6.03100 15.96700 40.55800
C  -5.22600 16.08600 41.81400
O  -5.34800 15.39500 42.83500
O  -4.36700 17.21000 41.66300
C  -3.58300 17.56900 42.88000
H  -10.52100 21.14300 39.73500
H  -15.43500 16.89200 39.93600
H  -11.05200 12.20000 39.87500
H  -6.24800 19.26600 40.78000
H  -8.02900 21.08300 39.88600
H  -8.93700 20.35500 42.65300
H  -7.98300 21.83800 42.16700
H  -7.15000 20.50400 42.55300
H  -6.99700 20.01600 38.25800
H  -7.01200 18.24900 38.11900
H  -4.61300 18.57200 39.31800
H  -4.61900 19.97900 38.27800
H  -13.12700 22.03600 38.27000
H  -12.13000 22.46700 39.61400
H  -13.80700 22.70200 39.82200
H  -17.82300 19.71900 40.18800
H  -16.87200 18.36600 40.83700
H  -16.94600 18.62100 39.02100
H  -15.11900 14.40800 38.81200
H  -13.57400 12.50200 40.48600
H  -15.93000 13.20000 40.79800
H  -16.62600 14.72900 40.46800
H  -15.28800 14.45600 41.83400
H  -12.84100 13.33500 37.66100
H  -14.41600 12.46500 37.77300
H  -12.94600 10.76700 39.08300
H  -11.65700 11.22500 37.80400
H  -13.20300 10.44600 37.48900
H  -8.25100 11.10100 40.90900
H  -7.09200 11.55300 39.71400
H  -8.72000 11.15500 39.26000
H  -5.37900 16.27700 39.74100
H  -2.72100 18.03300 42.39900
H  -3.22800 16.68400 43.40800
H  -3.92400 18.31300 43.59900

