158

Mg 26.81500 -1.28800 29.39800
C  28.70000 -1.13500 32.24900
C  23.91800 -1.19500 31.29300
C  25.14500 -1.29500 26.48200
C  29.79800 -1.81400 27.53400
N  26.46600 -1.17800 31.53800
C  27.33200 -1.05700 32.57700
C  26.60400 -0.87800 34.00200
C  25.11900 -0.87400 33.56000
C  25.12700 -1.07600 32.00800
C  24.29400 -1.89700 34.40800
C  27.08900 0.33600 34.95500
C  26.65900 0.01900 36.41800
H  27.12900 0.91800 37.58400
N  24.88500 -1.25100 28.97800
C  23.78400 -1.32200 29.88400
C  22.63900 -1.39400 29.17100
C  22.93600 -1.29800 27.76700
C  24.38400 -1.20400 27.65800
C  21.32100 -1.67700 29.84400
C  22.01600 -1.32200 26.54500
O  22.39300 -1.01500 25.43200
C  20.46900 -1.66000 26.73700
N  27.41300 -1.56500 27.25500
C  26.52700 -1.42000 26.25600
C  27.25700 -1.45200 24.87600
C  28.70900 -1.35700 25.27200
C  28.71300 -1.55500 26.76800
C  26.83600 -2.61800 23.89600
C  29.35200 0.01100 25.03700
C  28.64100 1.29700 25.60700
N  28.78900 -1.65400 29.83600
C  29.86000 -1.87100 28.96600
C  31.08400 -1.89100 29.71400
C  30.67900 -1.58700 31.02400
C  29.29400 -1.44300 30.99000
C  32.51800 -2.03300 29.20600
C  31.09700 -1.34800 32.40700
O  32.22800 -1.42900 32.81300
C  29.85800 -0.92700 33.21700
C  29.78800 -1.84800 34.39900
O  29.52800 -3.05600 34.25200
O  30.10700 -1.13300 35.51600
C  30.23000 -1.93000 36.72700
H  23.01400 -1.01600 31.87800
H  24.65500 -1.26300 25.50600
H  30.68800 -1.91400 26.91000
H  26.79400 -1.77400 34.59200
H  24.68500 0.09000 33.82600
H  24.00300 -2.58400 33.61300
H  23.37600 -1.46700 34.80800
H  24.83600 -2.46000 35.16900
H  26.38700 1.16400 34.85200
H  28.14600 0.60000 34.92400
H  26.93500 -0.99800 36.69700
H  25.58000 0.17800 36.40600
H  20.66000 -0.91200 29.43600
H  21.33000 -1.59900 30.93200
H  21.02300 -2.66300 29.49000
H  20.07100 -2.03200 25.79300
H  20.03800 -0.74100 27.13400
H  20.23300 -2.47700 27.41900
H  26.96800 -0.55900 24.32100
H  29.31600 -2.20700 24.96200
H  26.08300 -3.23700 24.38300
H  27.70400 -3.24100 23.68100
H  26.37400 -2.20300 23.00100
H  29.49300 0.09400 23.96000
H  30.39600 0.00400 25.35400
H  29.40000 1.71200 26.27000
H  27.81800 0.96200 26.23900
H  28.32600 1.97200 24.81200
H  32.87100 -2.99900 29.56700
H  33.14500 -1.22800 29.58800
H  32.64800 -1.86400 28.13700
H  30.07500 0.12300 33.41500
H  30.08800 -3.00300 36.60400
H  29.48800 -1.57400 37.44100
H  31.27500 -1.80000 37.00900
Mg 7.07400 54.22500 40.81200
C  6.66300 50.63600 40.62400
C  10.26100 53.76300 39.79800
C  7.19800 57.43000 40.18500
C  3.63900 54.31400 41.59600
N  8.21500 52.46500 40.31700
C  7.86600 51.12700 40.21300
C  9.08000 50.30000 39.84700
C  10.31000 51.26600 40.05200
C  9.55700 52.58700 40.14400
C  11.11500 50.96300 41.35300
C  8.89200 49.74500 38.41000
C  8.45800 50.84200 37.29300
H  7.18200 50.55000 36.54700
N  8.57200 55.49400 40.02100
C  9.83100 55.09600 39.65700
C  10.52500 56.33200 39.28700
C  9.66700 57.41300 39.33300
C  8.42300 56.82000 39.86400
C  11.95100 56.32300 38.76000
C  9.88600 58.85900 38.90200
O  11.03300 59.21700 38.65000
C  8.85700 59.94600 38.93400
N  5.55800 55.58600 40.60600
C  5.93600 56.91600 40.49000
C  4.65800 57.74100 40.53200
C  3.60300 56.81700 41.03500
C  4.28900 55.46000 41.11200
C  4.73700 59.09200 41.41600
C  2.37700 56.82600 40.13000
C  1.07900 57.31700 40.86800
N  5.51700 52.81000 41.35200
C  4.21600 53.04100 41.75000
C  3.67500 51.77000 42.17100
C  4.57400 50.80200 41.72100
C  5.64700 51.47100 41.18800
C  2.28900 51.38600 42.68100
C  4.76700 49.37200 41.61600
O  4.15000 48.38500 41.89400
C  6.18300 49.26000 40.76300
C  5.87600 48.48300 39.50000
O  5.21000 48.86600 38.53200
O  6.52700 47.25200 39.56900
C  6.36500 46.47400 38.30400
H  11.33000 53.59500 39.65200
H  7.22000 58.51000 40.03000
H  2.59700 54.48400 41.87400
H  9.18100 49.42200 40.48400
H  10.97600 51.18500 39.19200
H  10.49700 50.46900 42.10200
H  11.50700 51.87800 41.79800
H  11.91800 50.24200 41.19900
H  8.34800 48.80400 38.33000
H  9.94200 49.45600 38.35800
H  9.27900 50.72900 36.58500
H  8.47200 51.87100 37.65400
H  12.47100 57.03200 39.40400
H  11.93800 56.65500 37.72200
H  12.44500 55.35800 38.87800
H  7.97300 59.76500 38.32300
H  9.29300 60.77300 38.37300
H  8.70500 60.36300 39.93000
H  4.34300 57.99400 39.51900
H  3.35400 56.87000 42.09500
H  5.51600 59.01800 42.17400
H  3.79500 59.20400 41.95400
H  4.94900 59.95600 40.78600
H  2.11300 55.86300 39.69300
H  2.52200 57.48600 39.27400
H  0.67000 58.21400 40.40400
H  1.14400 57.54600 41.93200
H  0.29700 56.58000 40.68600
H  1.66500 52.19500 43.06100
H  2.52900 50.74700 43.53100
H  1.86000 50.70400 41.94800
H  6.87000 48.63500 41.33400
H  7.01700 45.60200 38.35600
H  6.64900 46.97500 37.37800
H  5.31100 46.20800 38.22800

