158

Mg 48.22500 15.09500 28.42300
C  45.79100 15.07800 30.97600
C  50.12700 17.21600 30.30500
C  50.21300 15.44400 25.72600
C  45.88200 13.53100 26.29900
N  47.94800 16.13000 30.38600
C  46.99400 15.80800 31.35100
C  47.30500 16.45800 32.72500
C  48.54800 17.38800 32.32100
C  48.94200 16.89200 30.91400
C  48.17100 18.87400 32.44500
C  47.70800 15.26300 33.66000
C  47.19300 15.33300 35.08500
H  47.21300 16.65700 35.84600
N  49.92800 16.11800 28.10700
C  50.63500 16.81100 29.01400
C  51.92300 17.17900 28.40300
C  52.05200 16.58700 27.12200
C  50.69200 16.04100 26.94600
C  52.92600 18.06100 29.17500
C  53.23200 16.47200 26.16600
O  53.21800 15.73200 25.16400
C  54.54800 17.04600 26.55300
N  47.92700 14.86300 26.25100
C  48.97400 14.94800 25.39600
C  48.70600 14.26600 24.04800
C  47.39900 13.61700 24.32200
C  47.05600 14.00600 25.72900
C  48.79100 15.21600 22.82400
C  47.28700 12.12200 23.86400
C  47.78300 11.11800 24.90500
N  46.30500 14.29100 28.59700
C  45.52300 13.67200 27.68600
C  44.29200 13.22500 28.32100
C  44.40300 13.72700 29.66500
C  45.61300 14.39500 29.77300
C  43.37400 12.23300 27.75300
C  43.72700 13.71700 30.94700
O  42.66800 13.16000 31.26800
C  44.59300 14.60800 31.87900
C  43.79800 15.64200 32.48700
O  43.22000 16.60200 31.98100
O  43.63100 15.38000 33.79700
C  42.69000 16.21400 34.60300
H  50.83100 17.79000 30.91000
H  50.70400 15.39100 24.75200
H  45.22500 13.04500 25.57500
H  46.64600 17.19200 33.19000
H  49.38400 17.28700 33.01300
H  48.67100 19.44900 31.66500
H  48.64900 19.20300 33.36800
H  47.11700 19.14300 32.38200
H  48.77400 15.03800 33.64500
H  47.30500 14.37000 33.18200
H  47.92200 14.74100 35.63900
H  46.23900 14.80600 35.06300
H  53.61800 17.35800 29.63800
H  52.37800 18.65800 29.90400
H  53.44100 18.71800 28.47400
H  54.94300 16.74200 27.52200
H  54.43400 18.13000 26.56800
H  55.28700 16.75000 25.80900
H  49.45300 13.52400 23.76700
H  46.68500 14.13900 23.68500
H  49.80700 15.19100 22.43000
H  48.53600 16.26200 22.99700
H  48.19400 14.85300 21.98700
H  47.82100 11.95200 22.92900
H  46.22700 11.93500 23.69100
H  46.85200 10.79200 25.37000
H  48.54400 11.40400 25.63100
H  48.22400 10.32800 24.29800
H  42.42000 12.46400 28.22900
H  43.77500 11.27500 28.08400
H  43.29100 12.35700 26.67400
H  45.05500 13.95700 32.62100
H  43.34300 17.06500 34.79400
H  42.34700 15.84900 35.57200
H  41.80500 16.52900 34.05000
Mg 35.46700 48.84100 24.85700
C  35.57800 47.04200 27.80400
C  34.36000 51.45400 26.64700
C  35.16000 50.40900 21.99300
C  36.23600 45.89100 23.10000
N  35.14800 49.21900 26.94700
C  35.24200 48.41100 27.96200
C  34.91200 49.06000 29.31200
C  34.24400 50.39600 28.91600
C  34.62300 50.37800 27.40800
C  32.74900 50.67800 29.08800
C  36.28100 49.16900 30.09500
C  36.14200 48.96600 31.62600
H  34.71000 48.86100 32.19800
N  34.85000 50.67800 24.36400
C  34.36700 51.58700 25.29600
C  33.93100 52.76100 24.50900
C  34.19300 52.50400 23.15900
C  34.73000 51.15800 23.12100
C  33.32600 53.98600 25.11900
C  33.85300 53.34800 21.95000
O  34.13800 52.97200 20.83600
C  33.08600 54.72900 22.08500
N  35.64400 48.16100 22.80400
C  35.42600 49.07400 21.81200
C  35.43500 48.39500 20.43200
C  36.03800 46.99600 20.78500
C  35.95500 47.00500 22.36000
C  33.93000 48.38200 19.96900
C  37.42800 46.83900 20.16900
C  38.59100 47.58800 20.81800
N  35.85400 46.83200 25.32700
C  36.13000 45.76200 24.53400
C  36.33800 44.58600 25.36100
C  36.16500 45.04600 26.65100
C  35.89200 46.42800 26.56600
C  36.79200 43.29800 25.01400
C  36.26300 44.75000 28.06800
O  36.57800 43.69100 28.62900
C  35.77700 45.96100 28.90300
C  34.56500 45.55400 29.65200
O  33.40700 45.64000 29.25600
O  34.87800 45.12500 30.91600
C  33.69000 44.51200 31.56000
H  34.08500 52.38000 27.15700
H  34.99900 50.89500 21.02800
H  36.64800 45.07900 22.49700
H  34.13200 48.42800 29.73600
H  34.72000 51.16400 29.52700
H  32.24900 49.81100 29.52000
H  32.14300 50.82500 28.19400
H  32.57500 51.48400 29.80100
H  36.65600 50.17300 29.89600
H  37.02200 48.48100 29.68800
H  36.76700 49.77400 32.00600
H  36.68300 48.04200 31.83000
H  33.33900 53.86500 26.20200
H  32.30300 54.16600 24.79000
H  34.02500 54.79600 24.90700
H  32.06200 54.51400 22.39000
H  32.96100 55.16100 21.09300
H  33.70400 55.35700 22.72700
H  36.06900 48.94900 19.74000
H  35.44000 46.20700 20.33000
H  33.35300 47.49200 20.21900
H  33.88100 48.52700 18.89000
H  33.34000 49.09300 20.54700
H  37.35200 46.94100 19.08600
H  37.61600 45.76800 20.22900
H  38.26600 48.34200 21.53600
H  39.20200 48.13800 20.10200
H  39.26900 46.98500 21.42100
H  36.02200 42.65700 24.58500
H  37.19800 42.83900 25.91500
H  37.62600 43.56300 24.36400
H  36.60700 46.11600 29.59200
H  32.97400 43.93100 30.97800
H  33.06800 45.34000 31.89900
H  33.96100 44.13200 32.54500

