158

Mg -1.63200 17.21900 26.67300
C  -2.07800 14.83600 29.07200
C  -2.42300 19.60800 28.85900
C  -1.47200 19.37900 24.11400
C  -1.87800 14.62200 24.18100
N  -1.86400 17.18900 28.78800
C  -1.94200 16.11400 29.57700
C  -2.10600 16.57900 31.06400
C  -2.73500 18.04600 30.90700
C  -2.39100 18.31900 29.38900
C  -4.19600 18.34300 31.23900
C  -0.68400 16.63200 31.67000
C  -0.52400 17.22800 33.10400
H  -0.29900 16.30200 34.32500
N  -1.77500 19.21800 26.49000
C  -1.96300 20.06600 27.62200
C  -1.94900 21.49500 27.18000
C  -1.74000 21.44700 25.72600
C  -1.62500 19.97900 25.35700
C  -2.37900 22.63500 28.07300
C  -1.79000 22.55700 24.73100
O  -1.68000 22.40900 23.51700
C  -1.89600 23.90200 25.30500
N  -1.59400 16.99700 24.52800
C  -1.51600 18.08900 23.69400
C  -1.60700 17.68800 22.25300
C  -1.46400 16.16100 22.25000
C  -1.64900 15.92500 23.72700
C  -2.88800 18.20900 21.54200
C  -0.12500 15.64800 21.55300
C  1.07400 15.36200 22.52100
N  -1.87900 15.13400 26.58600
C  -2.02900 14.21800 25.51800
C  -2.20400 12.89300 26.01000
C  -2.21900 13.10400 27.41600
C  -2.03500 14.49200 27.69600
C  -2.09200 11.73700 25.23200
C  -2.24800 12.46900 28.72500
O  -2.30100 11.27400 29.03200
C  -2.41300 13.58900 29.81300
C  -1.53700 13.37800 30.98000
O  -0.39500 13.05700 31.06300
O  -2.38700 13.55000 32.05700
C  -1.86200 13.46800 33.44100
H  -2.64200 20.34800 29.63200
H  -1.34000 20.12600 23.32700
H  -1.93600 13.82200 23.44000
H  -2.78800 15.87600 31.54200
H  -2.21300 18.74600 31.56000
H  -4.13300 19.23500 31.86200
H  -4.61700 17.46100 31.72100
H  -4.77200 18.61600 30.35400
H  0.03700 17.06700 30.97900
H  -0.28300 15.63900 31.87300
H  -1.47900 17.74300 33.20800
H  0.25600 17.99000 33.11300
H  -2.76500 22.29500 29.03500
H  -3.21900 23.04600 27.51400
H  -1.47100 23.22400 28.20100
H  -1.74800 24.61100 24.49000
H  -1.02900 23.94100 25.96300
H  -2.88800 24.05400 25.73200
H  -0.82000 18.19700 21.69600
H  -2.34100 15.61800 21.89800
H  -3.59100 17.37900 21.48400
H  -2.63700 18.40500 20.49900
H  -3.29600 19.10000 22.02000
H  0.24700 16.45700 20.92400
H  -0.34300 14.82900 20.86900
H  0.77700 15.27800 23.56600
H  1.79500 16.17800 22.47500
H  1.63500 14.49400 22.17700
H  -2.95800 11.54100 24.60000
H  -2.07900 10.93300 25.96700
H  -1.13000 11.77300 24.72200
H  -3.47100 13.68200 30.05900
H  -2.40200 14.16600 34.08100
H  -0.80800 13.74400 33.48200
H  -1.89500 12.43500 33.78700
Mg -12.07700 16.03700 42.31000
C  -8.71400 16.53700 42.50600
C  -12.60600 19.26000 41.79600
C  -15.29900 15.18700 41.16400
C  -11.43900 12.44800 42.33600
N  -10.70500 17.66800 41.71900
C  -9.41100 17.70700 42.15300
C  -8.89200 19.12500 42.21500
C  -10.23800 19.95100 42.38400
C  -11.23100 18.90400 41.88500
C  -10.56400 20.28400 43.84800
C  -8.12600 19.61100 40.93200
C  -6.66900 19.93700 41.16000
H  -5.68600 19.14400 40.20600
N  -13.70100 17.10900 41.54100
C  -13.71700 18.40400 41.52200
C  -15.03100 18.94400 41.19100
C  -15.83100 17.81000 40.87500
C  -14.96000 16.59000 41.21300
C  -15.43300 20.43600 41.10300
C  -17.26500 17.88200 40.44700
O  -17.83400 18.99900 40.29500
C  -18.02100 16.63300 40.25700
N  -13.20000 14.14100 41.66000
C  -14.47700 14.10200 41.25400
C  -15.00100 12.65300 41.08000
C  -13.73100 11.82400 41.31700
C  -12.73500 12.82100 41.91700
C  -16.27800 12.36500 41.89500
C  -13.24100 11.23000 39.93200
C  -13.38700 9.69300 39.80900
N  -10.42200 14.68400 42.34900
C  -10.33500 13.28600 42.50300
C  -8.96000 12.92900 42.65200
C  -8.29600 14.16500 42.76700
C  -9.22100 15.22400 42.49900
C  -8.31300 11.66400 42.99300
C  -6.98200 14.72300 43.04000
O  -5.98300 14.17200 43.37000
C  -7.20500 16.32000 42.88100
C  -6.89100 17.01400 44.22600
O  -7.39800 16.78300 45.31800
O  -5.89800 17.96200 44.02400
C  -5.20200 18.47500 45.21000
H  -12.69300 20.34300 41.91100
H  -16.29600 14.91800 40.80600
H  -11.35800 11.37800 42.53800
H  -8.35000 19.26200 43.15100
H  -10.15900 20.90100 41.85600
H  -9.61000 20.38400 44.36600
H  -11.21200 19.55000 44.32600
H  -10.95000 21.30200 43.79800
H  -8.65800 20.47000 40.52200
H  -8.35300 18.89900 40.13800
H  -6.43400 19.55400 42.15300
H  -6.53400 21.01800 41.12400
H  -16.35400 20.64300 41.64700
H  -15.60900 20.71200 40.06300
H  -14.62600 21.10700 41.39700
H  -19.01500 16.94500 39.93700
H  -18.00900 16.12300 41.22000
H  -17.50200 16.05900 39.48900
H  -15.45300 12.70800 40.09000
H  -13.91400 11.00300 42.01000
H  -17.07800 11.98800 41.25700
H  -16.60400 13.15000 42.57700
H  -16.06300 11.50300 42.52600
H  -12.18600 11.50200 39.90600
H  -13.84900 11.59600 39.10400
H  -12.41300 9.20600 39.84500
H  -13.82400 9.50300 38.82800
H  -14.03500 9.15800 40.50400
H  -8.38000 11.42900 44.05500
H  -7.23300 11.64900 42.85000
H  -8.86600 10.91600 42.42500
H  -6.55800 16.76500 42.12400
H  -5.51500 19.51000 45.34800
H  -4.14300 18.39200 44.96300
H  -5.34800 17.85300 46.09200

