158

Mg 2.08700 -1.87300 45.25100
C  5.38800 -0.69200 44.96200
C  0.98900 0.99600 43.43000
C  -0.86000 -3.41100 44.65000
C  3.26000 -4.83900 46.69400
N  3.08100 -0.03300 44.32000
C  4.51000 0.24200 44.35900
C  4.77700 1.70800 43.90700
C  3.30700 2.16500 43.38500
C  2.38000 0.93500 43.75700
C  2.74500 3.51900 43.92300
C  5.92500 1.74900 42.82900
C  6.06600 0.59400 41.88900
H  7.01500 0.73800 40.68600
N  0.29100 -1.25200 44.17300
C  -0.02400 -0.05000 43.62200
C  -1.36700 -0.14500 43.11200
C  -1.98500 -1.27700 43.66200
C  -0.83200 -2.06300 44.17800
C  -2.07100 0.96800 42.40300
C  -3.48200 -1.71900 43.67900
O  -4.32900 -0.97500 43.23400
C  -4.11500 -2.91300 44.43200
N  1.27500 -3.93400 45.51300
C  -0.01500 -4.24500 45.25700
C  -0.31900 -5.60700 46.00800
C  0.97500 -6.08400 46.54600
C  1.94500 -4.91200 46.25900
C  -1.39700 -5.38200 47.11000
C  1.53200 -7.40100 45.95300
C  2.18000 -8.42500 46.95500
N  3.94000 -2.63500 45.74200
C  4.31200 -3.88800 46.33400
C  5.70300 -3.92900 46.53100
C  6.13600 -2.68600 46.07900
C  5.01100 -1.94800 45.56900
C  6.54400 -5.00500 47.23300
C  7.29700 -1.83200 46.03500
O  8.46800 -2.02300 46.41000
C  6.86900 -0.54000 45.30800
C  7.16900 0.62400 46.16400
O  6.80700 0.77500 47.32400
O  7.90600 1.54900 45.46100
C  7.94700 2.84200 46.18200
H  0.62000 1.88100 42.90700
H  -1.81900 -3.93200 44.60300
H  3.65800 -5.68700 47.25500
H  5.10100 2.32800 44.74300
H  3.35300 2.27400 42.30200
H  3.60200 3.96200 44.43100
H  2.01200 3.32400 44.70600
H  2.30400 4.18500 43.18100
H  6.83600 1.96200 43.38800
H  5.90600 2.63000 42.18700
H  5.06600 0.45400 41.47900
H  6.31100 -0.37100 42.33300
H  -2.37800 0.55200 41.44300
H  -1.35800 1.75800 42.16700
H  -2.87000 1.51300 42.90700
H  -3.74200 -3.79700 43.91500
H  -5.19300 -2.87100 44.27500
H  -3.85400 -2.97800 45.48800
H  -0.79100 -6.24900 45.26400
H  0.99600 -6.16900 47.63200
H  -1.07000 -5.74400 48.08400
H  -2.33900 -5.86100 46.84300
H  -1.65300 -4.32900 47.22500
H  2.40600 -7.13100 45.36100
H  0.77500 -7.89900 45.34600
H  3.22900 -8.55200 46.68600
H  1.71800 -9.39700 47.12600
H  2.23200 -8.00300 47.95900
H  6.30200 -4.98200 48.29500
H  7.54700 -4.67000 46.97000
H  6.31700 -5.99700 46.84100
H  7.53500 -0.58100 44.44600
H  8.29300 3.54000 45.42000
H  8.67200 2.73000 46.98800
H  6.94900 3.08700 46.54600
Mg 47.92400 25.70800 28.58800
C  48.86800 27.80600 31.13500
C  46.65300 23.55900 31.02400
C  47.41900 23.46400 26.23000
C  49.58300 27.84300 26.33600
N  47.74300 25.71000 30.76500
C  48.11600 26.77600 31.57200
C  47.85300 26.46700 33.02700
C  47.22600 25.00800 32.92100
C  47.25900 24.69300 31.49100
C  47.81100 23.86600 33.81200
C  46.81100 27.47600 33.66700
C  47.16600 27.92100 35.02100
H  46.06700 27.77600 36.11300
N  47.01000 23.82000 28.61700
C  46.58700 23.13100 29.69800
C  45.86200 21.96400 29.21500
C  45.94000 22.01400 27.80100
C  46.83900 23.13900 27.49200
C  45.21500 21.00700 30.06700
C  45.32300 21.11300 26.62900
O  45.36100 21.41700 25.40800
C  44.53200 19.95400 27.09000
N  48.76500 25.55100 26.64900
C  48.23000 24.52600 25.86300
C  48.50000 24.75900 24.32200
C  49.05500 26.17700 24.34700
C  49.11000 26.63000 25.86600
C  49.38100 23.57200 23.83100
C  48.26600 27.08100 23.37700
C  48.75200 27.20500 21.94900
N  49.08200 27.48300 28.63500
C  49.61600 28.28100 27.67000
C  50.09700 29.47000 28.26200
C  49.94800 29.30400 29.66400
C  49.26400 28.09300 29.78700
C  50.62300 30.66700 27.52600
C  50.16000 29.90500 30.95300
O  50.75900 30.93300 31.15000
C  49.43400 28.97500 32.00600
C  50.36900 28.54000 32.96500
O  51.25000 27.74200 32.76900
O  50.33300 29.30500 34.13400
C  51.35100 29.31500 35.15900
H  46.28800 22.90400 31.81800
H  47.19600 22.84000 25.36200
H  49.89300 28.53200 25.54700
H  48.78500 26.56000 33.58500
H  46.19500 25.02500 33.27700
H  48.47700 24.31500 34.54900
H  48.28200 23.05400 33.25700
H  46.96100 23.35900 34.27000
H  45.79000 27.11100 33.78200
H  46.72500 28.39800 33.09300
H  47.32300 29.00000 34.99700
H  48.02400 27.41000 35.45900
H  45.72300 20.04600 29.99000
H  44.19600 20.94200 29.68600
H  45.17200 21.28100 31.12100
H  44.16300 19.33000 26.27700
H  43.79200 20.51700 27.65900
H  45.12800 19.30800 27.73500
H  47.49500 24.74700 23.90100
H  50.04700 26.21000 23.89500
H  49.61800 22.94100 24.68800
H  50.31000 23.80000 23.30700
H  48.83400 22.87000 23.20200
H  48.19000 28.06700 23.83500
H  47.21600 26.79000 23.40100
H  49.43800 26.39400 21.70400
H  49.22000 28.16700 21.74100
H  47.88800 27.08000 21.29700
H  51.68900 30.69700 27.75300
H  50.19200 31.51400 28.06000
H  50.46100 30.62300 26.44900
H  48.71600 29.56900 32.57100
H  51.89200 30.21300 34.86000
H  51.98200 28.43000 35.24500
H  50.88700 29.58600 36.10700

