158

Mg 9.16200 3.33100 27.97200
C  10.60700 1.71600 30.79200
C  7.70300 5.51700 30.05600
C  7.67100 4.50800 25.38200
C  10.41400 0.61500 25.91800
N  9.04800 3.43300 30.20100
C  9.87200 2.83400 31.13500
C  9.76000 3.59800 32.52200
C  8.73100 4.69200 32.24700
C  8.48700 4.54500 30.75100
C  7.35100 4.50800 32.97100
C  11.19100 4.09300 33.11100
C  11.59000 3.68400 34.58800
H  10.51500 3.88500 35.66700
N  7.88500 4.83300 27.76300
C  7.39400 5.63900 28.70000
C  6.61500 6.63400 28.09100
C  6.56500 6.41900 26.63200
C  7.42600 5.24200 26.49500
C  5.98300 7.75100 28.95400
C  6.00200 7.26100 25.57300
O  5.94400 6.93000 24.38200
C  5.41100 8.62700 25.93800
N  9.10300 2.65900 25.89600
C  8.37900 3.36700 25.07700
C  8.39500 2.71200 23.64500
C  9.36800 1.51700 23.82000
C  9.67100 1.57100 25.29000
C  6.98700 2.35000 23.09700
C  10.62000 1.78100 22.92600
C  11.08800 0.43000 22.31600
N  10.23000 1.52800 28.22200
C  10.70800 0.60500 27.30100
C  11.51700 -0.37800 28.04000
C  11.49100 0.08600 29.35400
C  10.68800 1.19600 29.46500
C  12.17200 -1.54300 27.47900
C  12.00500 -0.21800 30.67100
O  12.75300 -1.10800 30.94600
C  11.46500 0.88300 31.73500
C  10.58700 0.17300 32.73700
O  9.60600 -0.45100 32.41200
O  10.87700 0.55300 34.07700
C  10.05100 -0.14900 35.11400
H  7.22400 6.21400 30.74800
H  7.22000 4.94000 24.48600
H  10.89400 -0.16200 25.32000
H  9.41000 2.88900 33.27200
H  9.21100 5.66200 32.36900
H  7.40800 4.02100 33.94400
H  6.77800 3.85800 32.31000
H  6.87700 5.49000 32.99400
H  11.37600 5.16200 33.00700
H  11.91900 3.62000 32.45100
H  12.28300 4.47500 34.87700
H  11.97800 2.67500 34.73000
H  6.47000 8.68300 28.66600
H  6.16500 7.64700 30.02400
H  4.91300 7.91400 28.82500
H  6.31500 9.08800 26.33700
H  4.60700 8.44800 26.65100
H  4.97500 9.19100 25.11300
H  8.67800 3.45500 22.90000
H  8.82600 0.61500 23.53600
H  6.68200 1.30300 23.10000
H  6.97000 2.59100 22.03500
H  6.16000 2.92500 23.51500
H  11.51200 2.05700 23.48900
H  10.51200 2.50500 22.11900
H  10.80800 0.44000 21.26200
H  10.65100 -0.46900 22.75100
H  12.17200 0.35000 22.39200
H  13.03400 -1.85500 28.06700
H  12.53600 -1.24100 26.49700
H  11.36000 -2.26000 27.35300
H  12.30900 1.43600 32.14800
H  9.31600 0.52200 35.55900
H  10.80900 -0.43200 35.84400
H  9.62100 -1.05000 34.67600
Mg 40.25800 41.40000 27.37900
C  39.38300 43.64400 29.96500
C  41.53000 39.28800 29.76400
C  41.32500 39.33900 24.90800
C  39.63700 43.94400 25.03300
N  40.37900 41.41100 29.72600
C  39.75100 42.34100 30.46500
C  39.83400 41.90600 31.98400
C  40.79000 40.70300 31.89800
C  40.98900 40.42900 30.40400
C  42.20100 41.01100 32.59400
C  38.34700 41.83300 32.48000
C  37.95500 42.63200 33.76200
H  38.99600 42.58600 34.91500
N  41.22400 39.49200 27.33800
C  41.75500 38.83500 28.44000
C  42.25800 37.58200 27.97800
C  42.10200 37.46500 26.53200
C  41.51500 38.76300 26.21900
C  42.97000 36.58100 28.87000
C  42.55900 36.39900 25.62100
O  42.60100 36.64400 24.43700
C  43.02700 35.00300 26.09900
N  40.58900 41.66300 25.37400
C  40.90500 40.63700 24.54500
C  40.83600 41.07200 23.10800
C  39.95200 42.32900 23.15300
C  40.11800 42.69900 24.62300
C  42.13700 41.38300 22.32100
C  38.43100 42.07400 22.78400
C  37.69000 40.78400 23.12100
N  39.75700 43.41200 27.40700
C  39.58000 44.33200 26.37500
C  39.07600 45.57000 26.90400
C  38.99500 45.37600 28.30200
C  39.36000 43.94600 28.53300
C  38.75500 46.74400 26.08800
C  38.65600 45.87600 29.60200
O  38.21300 47.04200 29.76500
C  38.94600 44.92900 30.72000
C  39.99300 45.52800 31.68000
O  41.20000 45.37300 31.58900
O  39.33600 46.17000 32.73300
C  40.09400 46.89000 33.75400
H  41.79000 38.49600 30.46900
H  41.71300 38.83300 24.02100
H  39.60100 44.64900 24.20000
H  40.25700 42.75100 32.52700
H  40.22100 39.88400 32.33900
H  42.82700 41.61300 31.93600
H  42.64700 40.01600 32.57300
H  42.08700 41.45700 33.58200
H  38.02300 40.82400 32.73700
H  37.67100 42.12000 31.67400
H  36.99400 42.21400 34.06200
H  37.72100 43.60500 33.33000
H  43.10700 36.86200 29.91400
H  43.99800 36.38100 28.56800
H  42.53200 35.58400 28.82200
H  43.44500 34.48900 25.23300
H  42.19800 34.43500 26.52100
H  43.82100 35.12200 26.83600
H  40.30300 40.24400 22.64100
H  40.26900 43.09900 22.44900
H  42.25500 42.43800 22.07400
H  42.19300 40.93100 21.33000
H  42.94800 40.99300 22.93600
H  38.32000 42.40200 21.75000
H  38.00100 42.91100 23.33400
H  37.21300 40.47400 22.19200
H  36.96500 40.96900 23.91400
H  38.37900 39.99900 23.43400
H  38.98200 47.59200 26.73500
H  37.68800 46.87800 25.90700
H  39.42500 46.71500 25.23000
H  37.97700 44.76000 31.18900
H  40.79400 47.64100 33.38800
H  40.74000 46.18100 34.27200
H  39.49600 47.35100 34.54000

