158

Mg 53.40600 24.07600 44.29800
C  50.85000 26.03300 43.23600
C  51.95300 21.41200 42.59800
C  56.42500 22.28900 44.29100
C  55.22000 26.92400 45.22500
N  51.70000 23.85600 42.84900
C  50.77100 24.80400 42.66100
C  49.61100 24.19700 41.79100
C  49.76000 22.67300 42.05800
C  51.20800 22.61300 42.53500
C  48.81200 21.96500 43.09500
C  49.58700 24.69900 40.34000
C  48.20700 25.08600 39.73200
H  47.53800 23.77400 39.10400
N  54.01200 22.10500 43.62200
C  53.27700 21.18400 42.99300
C  53.99700 19.92900 42.89700
C  55.22500 20.09300 43.53500
C  55.26200 21.58000 43.89100
C  53.49500 18.70300 42.22600
C  56.22300 18.98800 43.73700
O  56.12600 17.87000 43.26200
C  57.50600 19.21500 44.60500
N  55.55400 24.50400 44.81600
C  56.63000 23.60400 44.62500
C  57.98100 24.36700 44.72300
C  57.53800 25.78200 45.14300
C  55.98600 25.78000 45.10400
C  59.07300 23.72500 45.49800
C  58.16600 26.95700 44.29500
C  58.82200 28.10200 45.04500
N  53.11100 26.05700 44.34700
C  53.82200 27.09800 44.83900
C  52.96400 28.28500 44.95600
C  51.80800 27.96400 44.31200
C  51.94300 26.60200 43.90200
C  53.25200 29.53000 45.64100
C  50.43000 28.36900 44.03300
O  49.82000 29.37700 44.22200
C  49.79500 27.07000 43.24100
C  49.37200 27.61300 42.02200
O  50.03400 28.00000 41.04000
O  47.99800 27.83200 42.21800
C  47.19000 28.34300 41.08300
H  51.41800 20.49200 42.35500
H  57.37300 21.74700 44.29000
H  55.75600 27.84500 45.46200
H  48.68400 24.63700 42.16000
H  49.85300 21.99800 41.20700
H  49.15200 22.05300 44.12700
H  48.54000 20.97100 42.74200
H  47.90300 22.55300 42.96900
H  49.87700 23.81100 39.77800
H  50.24000 25.55600 40.17400
H  48.24400 25.95500 39.07500
H  47.51200 25.36400 40.52400
H  54.15100 18.33100 41.43900
H  52.59900 18.86000 41.62600
H  53.18200 17.91300 42.90800
H  58.04800 18.32000 44.91000
H  57.07800 19.68900 45.48900
H  58.22600 19.77200 44.00600
H  58.32000 24.41000 43.68800
H  57.82700 25.92100 46.18400
H  58.74300 22.80500 45.97900
H  59.53700 24.43400 46.18400
H  59.92900 23.44900 44.88300
H  57.50100 27.37500 43.53900
H  58.97300 26.54000 43.69300
H  58.50400 28.00400 46.08300
H  58.60700 29.10400 44.67300
H  59.91200 28.08400 45.06300
H  53.47700 30.27600 44.87900
H  54.13300 29.40300 46.27000
H  52.40900 29.94200 46.19500
H  48.94200 26.76400 43.84600
H  47.72500 28.37600 40.13400
H  46.75000 29.33100 41.21700
H  46.46300 27.53100 41.05200
Mg -0.91700 33.52400 26.67100
C  -2.48500 31.97900 29.52200
C  0.68900 35.45300 28.80500
C  -0.14100 35.31500 24.03500
C  -2.78800 31.31900 24.63000
N  -0.96700 33.65100 28.95100
C  -1.57400 32.97400 29.91500
C  -1.08200 33.18500 31.30100
C  -0.06800 34.40000 31.12100
C  -0.05300 34.57000 29.53000
C  -0.30000 35.71600 31.98900
C  -0.43700 31.93800 31.98200
C  -1.06100 31.55700 33.38100
H  -0.26000 32.09100 34.66500
N  0.12400 35.21400 26.50800
C  0.76700 35.85800 27.46300
C  1.53500 36.92500 26.91500
C  1.23300 36.91700 25.53600
C  0.37100 35.75400 25.31300
C  2.37600 37.83900 27.77000
C  1.71400 37.80000 24.43300
O  1.36400 37.73000 23.24600
C  2.66000 38.84600 24.84400
N  -1.65800 33.49800 24.55800
C  -0.99900 34.26800 23.66800
C  -1.47500 33.91500 22.27600
C  -2.09500 32.51500 22.46900
C  -2.22300 32.41000 23.96200
C  -2.42100 34.92800 21.67900
C  -1.23600 31.27300 21.95000
C  0.22200 31.07100 22.30500
N  -2.32700 31.95400 26.97700
C  -2.94700 31.14800 26.02900
C  -3.75200 30.24500 26.72400
C  -3.68400 30.54300 28.09400
C  -2.73800 31.58000 28.23300
C  -4.77400 29.29400 26.10200
C  -4.19900 30.28800 29.46400
O  -5.00900 29.49600 29.82800
C  -3.34800 31.14800 30.46500
C  -4.33200 31.91400 31.22800
O  -5.07200 32.82300 30.75900
O  -4.29400 31.62700 32.52900
C  -5.23900 32.43400 33.28800
H  1.46500 35.89600 29.43200
H  0.08700 35.82100 23.09500
H  -3.07900 30.52900 23.93400
H  -1.94000 33.49500 31.89900
H  0.98400 34.14100 31.24600
H  -0.66800 36.46600 31.29000
H  0.68600 36.03900 32.32400
H  -0.90500 35.53000 32.87700
H  0.60600 32.17500 32.19100
H  -0.50400 31.10600 31.28000
H  -1.04300 30.47500 33.50800
H  -2.04400 32.00700 33.52000
H  3.44700 37.67300 27.88600
H  2.03600 37.82300 28.80600
H  2.02100 38.80900 27.42200
H  2.94500 39.43000 23.96900
H  3.58800 38.35300 25.13400
H  2.20100 39.52600 25.56200
H  -0.65100 33.81200 21.57100
H  -3.06800 32.47600 21.97800
H  -1.94000 35.83300 21.30700
H  -3.12500 35.18100 22.47300
H  -3.03300 34.49000 20.89100
H  -1.25600 31.44100 20.87300
H  -1.80100 30.36500 22.16300
H  0.47600 31.90200 22.96300
H  0.84100 31.22700 21.42200
H  0.30800 30.13600 22.85900
H  -4.82400 29.33000 25.01300
H  -5.81600 29.48800 26.35300
H  -4.59200 28.29800 26.50600
H  -2.80000 30.44800 31.09600
H  -6.27000 32.08300 33.23500
H  -5.20200 33.49800 33.05400
H  -5.05800 32.34600 34.35900

