158

Mg 48.21100 45.53700 43.17100
C  44.78200 45.35800 41.94900
C  48.23900 42.11500 42.67900
C  51.44000 45.80800 43.52600
C  47.85100 49.02500 42.96000
N  46.67600 43.88800 42.22700
C  45.31700 44.07300 42.04500
C  44.53500 42.70800 41.79500
C  45.66000 41.74100 42.28400
C  46.92100 42.62200 42.44200
C  45.19000 41.07400 43.58700
C  44.11900 42.58400 40.29600
C  45.21200 42.64400 39.15900
H  45.01100 43.64900 38.03200
N  49.68900 44.13000 43.04600
C  49.48300 42.80400 42.93200
C  50.78900 42.19400 43.12600
C  51.73300 43.16800 43.41400
C  51.01000 44.43400 43.41700
C  51.04100 40.65200 43.01200
C  53.19900 42.94100 43.52800
O  53.65000 41.84400 43.32900
C  54.08500 44.03400 43.91800
N  49.46100 47.14900 43.23700
C  50.79900 47.01800 43.48600
C  51.48200 48.35700 43.27500
C  50.32200 49.38300 43.24200
C  49.12600 48.45400 43.11400
C  52.69500 48.73000 44.18200
C  50.41700 50.48400 42.11000
C  50.25200 51.92900 42.52400
N  46.60700 46.95800 42.78800
C  46.60400 48.36000 42.81700
C  45.25400 48.87800 42.47100
C  44.54600 47.69300 42.09500
C  45.44600 46.56000 42.24000
C  44.81300 50.28700 42.26600
C  43.27800 47.29900 41.54700
O  42.25700 47.86800 41.18400
C  43.36900 45.74600 41.39900
C  42.22700 45.11500 42.16600
O  41.35000 44.43300 41.66900
O  42.55200 45.15600 43.52500
C  41.56700 44.36200 44.35000
H  48.30900 41.03200 42.80200
H  52.51700 45.94900 43.41600
H  47.67000 50.09400 43.09600
H  43.63200 42.74200 42.40500
H  45.83900 40.89400 41.62100
H  44.17400 41.37900 43.83800
H  45.86000 41.24100 44.43000
H  45.11000 39.98900 43.51600
H  43.31300 43.28100 40.06700
H  43.67000 41.59500 40.20300
H  45.27600 41.62400 38.78100
H  46.20300 42.69700 39.61000
H  51.41900 40.20600 43.93200
H  51.76600 40.45800 42.22200
H  50.09900 40.15900 42.77200
H  55.08000 43.82600 44.31100
H  53.47300 44.52500 44.67500
H  54.19200 44.60700 42.99700
H  51.82200 48.28100 42.24200
H  50.30900 49.96400 44.16400
H  52.57900 49.68400 44.69800
H  53.57100 48.87000 43.54800
H  52.92100 48.01700 44.97500
H  49.62700 50.34200 41.37200
H  51.40600 50.43300 41.65400
H  49.77100 51.91600 43.50300
H  49.59600 52.36800 41.77200
H  51.19000 52.48300 42.55200
H  43.74800 50.32300 42.04000
H  45.51100 50.64900 41.51000
H  44.90700 50.81800 43.21300
H  43.14300 45.60400 40.34200
H  40.51100 44.42500 44.08600
H  41.71500 44.45400 45.42600
H  41.95700 43.35800 44.18800
Mg 30.38600 58.09700 39.32100
C  27.46100 56.24600 38.64000
C  32.27100 55.44600 38.11600
C  33.14100 60.08000 39.46200
C  28.37700 60.87900 40.12000
N  29.89900 56.01800 38.41000
C  28.62700 55.48200 38.27900
C  28.74500 54.10300 37.67900
C  30.29700 53.88300 37.66700
C  30.88200 55.19600 38.08000
C  30.76800 52.73800 38.63800
C  27.89300 53.87300 36.39300
C  28.27900 54.88700 35.16800
H  27.66400 54.56100 33.86100
N  32.43700 57.70700 39.07600
C  32.96800 56.61500 38.46500
C  34.42600 56.75700 38.48100
C  34.70200 58.15700 38.75500
C  33.41600 58.69700 39.17100
C  35.38200 55.69000 37.98200
C  36.11400 58.83300 38.55200
O  37.07100 58.15600 38.12200
C  36.33700 60.24200 38.78400
N  30.67500 60.19800 39.70300
C  31.92100 60.74500 39.79100
C  31.87700 62.18100 40.33200
C  30.38200 62.26700 40.90900
C  29.71700 61.02500 40.21100
C  32.92400 62.69900 41.32000
C  29.78600 63.68300 40.60200
C  28.71500 64.05000 41.62500
N  28.35800 58.57700 39.35300
C  27.68400 59.73400 39.75000
C  26.23400 59.46400 39.64900
C  26.17600 58.06300 39.30000
C  27.42000 57.57700 39.11000
C  25.11300 60.53200 39.86300
C  25.17600 57.02100 38.96900
O  23.93100 57.03700 38.93600
C  25.96400 55.83300 38.46700
C  25.67000 54.65700 39.28200
O  26.15500 54.30900 40.31800
O  24.62900 54.03000 38.66500
C  23.98300 52.98600 39.45100
H  32.88100 54.70900 37.58900
H  33.98300 60.77500 39.46100
H  27.83300 61.72600 40.54300
H  28.27400 53.39800 38.36300
H  30.55900 53.57600 36.65400
H  30.06700 51.91000 38.53700
H  30.87400 53.04100 39.68000
H  31.71500 52.34600 38.26800
H  26.85700 54.11900 36.62900
H  28.00100 52.85700 36.01200
H  29.36900 54.87600 35.14200
H  28.07100 55.89800 35.51700
H  35.45800 55.71300 36.89500
H  35.00800 54.70000 38.24200
H  36.36300 55.80400 38.44500
H  36.24100 60.37900 39.86100
H  35.48500 60.69400 38.27600
H  37.25400 60.71200 38.42800
H  32.02400 62.82100 39.46200
H  30.50700 62.18500 41.98800
H  33.71400 61.95300 41.22400
H  32.61500 62.70700 42.36500
H  33.37300 63.65100 41.04000
H  29.39000 63.51100 39.60200
H  30.53200 64.47400 40.53000
H  28.95400 65.05800 41.96400
H  28.87200 63.39800 42.48500
H  27.75400 64.04300 41.11100
H  24.40000 60.29100 39.07500
H  25.52400 61.53900 39.78100
H  24.67000 60.31000 40.83400
H  25.68500 55.60300 37.43900
H  24.74000 52.20600 39.53600
H  23.09600 52.57200 38.97100
H  23.65300 53.41600 40.39600

