158

Mg 44.96300 4.29400 47.12900
C  43.36500 7.42600 46.71500
C  41.87400 2.77300 46.50000
C  46.57800 1.44500 46.64600
C  48.01800 6.03800 46.90700
N  42.90400 5.05800 46.53800
C  42.40200 6.36300 46.63100
C  40.91300 6.43500 46.44300
C  40.55000 4.92100 46.43900
C  41.87800 4.16100 46.48700
C  39.47200 4.43800 47.51500
C  40.48400 7.24200 45.12500
C  41.30400 7.02000 43.83300
H  40.52200 6.84300 42.54900
N  44.32100 2.33900 46.79000
C  43.01200 1.86900 46.63300
C  43.00000 0.43600 46.48400
C  44.35300 0.02400 46.48400
C  45.13300 1.32300 46.69900
C  41.81800 -0.42600 46.19400
C  44.96300 -1.44900 46.38100
O  44.19300 -2.34800 46.21400
C  46.42900 -1.77800 46.46600
N  47.07200 3.83300 46.54800
C  47.44100 2.53300 46.59100
C  48.97600 2.37500 46.60500
C  49.42000 3.90200 46.51700
C  48.11900 4.67100 46.61800
C  49.35100 1.60300 47.91700
C  50.44300 4.46600 45.51300
C  51.81000 4.89500 46.09500
N  45.68100 6.33500 47.02600
C  46.90200 6.83600 47.07300
C  46.79800 8.33900 47.05700
C  45.44500 8.58300 47.00000
C  44.83300 7.33800 46.88100
C  47.93600 9.27300 47.11400
C  44.35700 9.68700 46.93100
O  44.44500 10.86800 46.89200
C  43.02300 8.91100 46.73900
C  42.00500 9.28200 47.79700
O  41.97000 8.81000 48.86700
O  41.16700 10.23100 47.28100
C  39.94300 10.32500 48.15500
H  40.85300 2.39400 46.43200
H  47.24700 0.58700 46.55600
H  48.99400 6.51800 47.00400
H  40.47100 6.82800 47.35900
H  40.11300 4.59400 45.49600
H  38.56200 4.27900 46.93700
H  39.27000 5.23100 48.23500
H  39.74300 3.48300 47.96600
H  40.40800 8.30800 45.33600
H  39.45400 6.92600 44.95800
H  41.87600 6.10900 44.00600
H  42.01300 7.83600 43.69500
H  40.90600 0.12200 46.43200
H  41.84200 -1.38200 46.71700
H  41.81500 -0.64800 45.12700
H  46.95000 -1.50300 47.38400
H  46.89400 -1.30800 45.60000
H  46.72800 -2.82200 46.36800
H  49.35700 1.83000 45.74200
H  49.81800 4.08700 47.51500
H  49.64800 0.59900 47.61100
H  48.52500 1.46800 48.61600
H  50.18100 2.12700 48.39000
H  49.86500 5.16000 44.90300
H  50.85800 3.71300 44.84400
H  52.17600 5.78000 45.57500
H  52.57100 4.11500 46.08100
H  51.72100 5.21700 47.13300
H  48.34900 9.33700 46.10700
H  48.76500 8.88100 47.70300
H  47.73800 10.23400 47.59100
H  42.64500 9.34100 45.81200
H  39.17500 10.85700 47.59400
H  40.28500 11.03700 48.90600
H  39.59400 9.37400 48.55600
Mg 26.60700 49.78800 26.32400
C  24.57000 51.00700 28.88200
C  28.57000 48.44500 28.59800
C  28.55600 48.94100 23.83400
C  24.48800 51.51300 24.14000
N  26.57000 49.80000 28.54400
C  25.58800 50.24300 29.37700
C  25.84800 49.84700 30.85300
C  27.27200 49.14700 30.81400
C  27.49400 49.08900 29.22900
C  28.31700 50.01200 31.58600
C  24.67200 49.08800 31.51100
C  24.33100 49.52500 32.95800
H  25.27900 50.00300 34.02400
N  28.36200 48.79000 26.21800
C  29.06200 48.33200 27.27800
C  30.28500 47.72700 26.84400
C  30.29300 47.87400 25.43800
C  29.07100 48.63600 25.07600
C  31.27500 47.03200 27.67400
C  31.30900 47.49600 24.38000
O  31.18500 47.79800 23.20500
C  32.69500 46.90300 24.89200
N  26.57600 50.28000 24.29000
C  27.48500 49.75500 23.45600
C  27.00500 49.88600 22.00800
C  25.83400 50.96800 22.10700
C  25.55000 50.82200 23.58100
C  28.07600 50.24900 21.01400
C  24.55500 50.56200 21.27400
C  23.77700 49.20500 21.74000
N  24.90300 50.99100 26.44700
C  24.16600 51.64200 25.43800
C  23.07700 52.38200 26.02200
C  23.19500 52.12600 27.40100
C  24.37400 51.33700 27.59600
C  22.07400 53.11700 25.31400
C  22.65600 52.32900 28.66100
O  21.71900 53.00400 29.01400
C  23.51700 51.66100 29.75800
C  24.05400 52.71100 30.67600
O  25.12500 53.28100 30.68100
O  23.07600 52.93800 31.56000
C  23.66800 53.58500 32.76800
H  29.28300 47.94000 29.25300
H  28.94200 48.46800 22.92800
H  23.85400 52.04000 23.42400
H  25.98400 50.79600 31.37100
H  27.23400 48.12800 31.19800
H  29.04800 49.28000 31.93100
H  27.93200 50.53600 32.46100
H  28.70100 50.81600 30.95700
H  24.82900 48.01300 31.60100
H  23.75200 49.03800 30.92900
H  23.99300 48.62600 33.47300
H  23.48200 50.20800 32.92800
H  31.29200 45.95300 27.52200
H  31.07200 47.21400 28.72900
H  32.26900 47.47900 27.65600
H  32.61200 45.96000 25.43200
H  33.12300 47.70100 25.50000
H  33.43200 46.67000 24.12400
H  26.73500 48.88100 21.68400
H  26.15100 52.01000 22.15600
H  28.96900 50.60200 21.53000
H  27.75900 51.04400 20.33900
H  28.33000 49.42400 20.34800
H  24.76500 50.57100 20.20400
H  23.86100 51.39700 21.37100
H  22.92500 49.43400 22.38100
H  24.29800 48.57500 22.46100
H  23.56900 48.43600 20.99700
H  21.44600 53.54000 26.09800
H  21.44800 52.35200 24.85400
H  22.34100 53.83500 24.53800
H  22.77300 51.07700 30.30000
H  24.51300 53.03100 33.17600
H  22.92000 53.65500 33.55700
H  23.98700 54.59500 32.50600

