158

Mg 48.33400 25.07700 30.01200
C  49.27000 27.32100 32.35100
C  46.65900 23.27600 32.69200
C  47.53200 22.46700 27.97200
C  50.22500 26.35200 27.54300
N  47.94900 25.26200 32.23900
C  48.41800 26.33300 32.95900
C  48.09200 26.18500 34.48700
C  47.33100 24.79300 34.53200
C  47.30100 24.41500 33.08600
C  47.98600 23.75600 35.49200
C  47.21600 27.37100 34.92600
C  47.40300 27.77500 36.41400
H  46.20100 27.65500 37.42900
N  47.09000 23.24200 30.28200
C  46.47700 22.71400 31.42500
C  45.83900 21.41900 31.04200
C  45.94500 21.25100 29.63300
C  46.85200 22.36900 29.21200
C  44.91800 20.62200 32.00600
C  45.29400 20.26600 28.65500
O  45.45500 20.28800 27.45800
C  44.36100 19.28000 29.17800
N  48.75700 24.51800 27.95000
C  48.38000 23.40700 27.35400
C  48.85100 23.23800 25.90600
C  49.81300 24.48400 25.86200
C  49.52000 25.21600 27.13000
C  49.53200 21.86000 25.48700
C  49.70100 25.42500 24.60000
C  50.97600 25.45400 23.85600
N  49.59700 26.52300 29.93200
C  50.24900 27.04300 28.81500
C  50.87000 28.28500 29.33400
C  50.54800 28.41000 30.67300
C  49.72400 27.31200 30.98300
C  51.69500 29.23600 28.40700
C  50.75100 29.23600 31.83900
O  51.41000 30.28100 32.05500
C  50.09100 28.43000 33.00400
C  51.13100 28.00000 34.01400
O  51.99800 27.25200 33.79400
O  51.05400 28.68400 35.15900
C  52.09700 28.59500 36.22000
H  46.14100 22.68100 33.44700
H  47.31900 21.59600 27.35000
H  50.92900 26.84300 26.86800
H  49.04600 26.09500 35.00800
H  46.30200 24.86600 34.88500
H  48.50800 22.95000 34.97800
H  47.23200 23.25600 36.09900
H  48.66000 24.32100 36.13700
H  46.21100 26.96100 34.82600
H  47.26800 28.25400 34.29000
H  47.74900 28.80500 36.32200
H  48.26300 27.23400 36.81000
H  43.90900 20.82900 31.64900
H  44.98800 21.06000 33.00100
H  45.02700 19.53800 32.04700
H  43.46000 19.82400 29.46000
H  44.70000 18.74000 30.06200
H  44.11100 18.43900 28.53100
H  48.01300 23.38400 25.22400
H  50.85100 24.17000 25.75900
H  50.58400 22.07300 25.67700
H  49.51300 21.50600 24.45600
H  49.28800 21.05800 26.18300
H  49.40000 26.45900 24.77100
H  48.95200 24.94800 23.96800
H  51.79500 25.89700 24.42200
H  50.73700 26.03800 22.96700
H  51.35400 24.50400 23.47700
H  51.12300 29.95900 27.82600
H  52.24400 28.64500 27.67400
H  52.36500 29.78100 29.07100
H  49.47100 29.14900 33.54000
H  51.68300 28.02900 37.05400
H  52.34200 29.60300 36.55300
H  53.05000 28.17600 35.89500
Mg 10.55700 46.77300 25.51400
C  8.39900 47.22700 28.11100
C  13.13500 47.80300 27.47400
C  12.55000 46.35400 22.87800
C  7.83300 46.09500 23.38500
N  10.67400 47.70400 27.49100
C  9.77700 47.48000 28.44900
C  10.36400 47.67000 29.81100
C  11.81100 48.27000 29.50300
C  11.86100 47.87200 28.05000
C  11.86800 49.78300 29.75400
C  10.37400 46.27200 30.62900
C  11.29300 45.93100 31.78200
H  10.60100 45.12100 32.84500
N  12.53200 46.97400 25.21800
C  13.49100 47.36400 26.13100
C  14.87000 47.15100 25.65900
C  14.70400 46.60900 24.38400
C  13.17500 46.59900 24.09500
C  16.09000 47.64200 26.38000
C  15.69800 46.27900 23.33700
O  15.42500 45.82100 22.21300
C  17.17600 46.36000 23.69500
N  10.20500 46.45200 23.32200
C  11.23800 46.26100 22.46100
C  10.84000 46.05700 21.04900
C  9.29500 45.92100 21.22000
C  9.03200 46.18200 22.72600
C  11.26200 47.21700 20.24300
C  8.78400 44.54900 20.69300
C  8.23200 44.60100 19.23000
N  8.50200 46.72400 25.66600
C  7.48300 46.34600 24.73400
C  6.22300 46.35000 25.39500
C  6.52700 46.63000 26.75700
C  7.90700 46.87200 26.85800
C  4.84800 46.19300 24.88500
C  5.96700 46.69500 28.04400
O  4.78500 46.54900 28.45600
C  7.17000 46.95900 28.96000
C  7.27100 45.64400 29.78200
O  7.90800 44.66900 29.38400
O  6.59400 45.76300 31.00300
C  6.68000 44.49800 31.85400
H  14.01200 48.05200 28.07500
H  13.25400 46.40900 22.04500
H  6.88200 46.01400 22.85300
H  9.70000 48.44000 30.20300
H  12.57200 47.68200 30.01700
H  10.87400 50.22200 29.67700
H  12.41600 50.29300 28.96200
H  12.16700 50.03000 30.77300
H  10.36700 45.33800 30.06800
H  9.37100 46.37800 31.04300
H  11.67000 46.83900 32.25300
H  12.23400 45.47100 31.48100
H  16.00500 47.49300 27.45700
H  16.06800 48.71700 26.20000
H  17.04400 47.23300 26.04800
H  17.94600 46.15800 22.95100
H  17.28300 45.57900 24.44800
H  17.30800 47.40100 23.99100
H  11.23200 45.12600 20.63900
H  8.77500 46.71100 20.67800
H  12.15400 46.97000 19.66800
H  11.59500 48.08900 20.80600
H  10.46300 47.39500 19.52300
H  7.93400 44.11900 21.22200
H  9.50600 43.74300 20.82700
H  7.87400 45.60500 19.00100
H  7.43500 43.87500 19.06500
H  8.96600 44.27200 18.49500
H  4.90900 46.58400 23.86900
H  4.03600 46.76400 25.33600
H  4.53900 45.14900 24.83200
H  7.01300 47.63000 29.80500
H  7.63600 43.99700 31.70000
H  5.93900 43.73200 31.62500
H  6.50900 44.64800 32.92000

