158

Mg 1.68300 -1.39800 44.18100
C  5.05900 -0.94300 43.24300
C  0.92200 1.03800 41.88000
C  -1.40000 -2.42700 44.40800
C  2.81500 -4.16000 46.12800
N  2.87600 -0.14300 42.60700
C  4.21200 -0.07100 42.45700
C  4.65000 0.90200 41.37300
C  3.27200 1.70000 41.10300
C  2.24700 0.84900 41.92000
C  3.30500 3.22500 41.27100
C  5.39200 0.28100 40.10400
C  6.87700 0.62000 40.11000
H  7.48600 0.91400 38.72200
N  -0.03100 -0.72600 43.33400
C  -0.16600 0.28300 42.43200
C  -1.57900 0.53700 42.31900
C  -2.27900 -0.30900 43.13200
C  -1.22100 -1.26700 43.66300
C  -2.11700 1.50300 41.23100
C  -3.82700 -0.29800 43.34200
O  -4.51100 0.41000 42.62100
C  -4.45400 -1.19800 44.29900
N  0.84200 -3.32300 44.85400
C  -0.45900 -3.37800 45.07100
C  -0.84200 -4.60800 45.68100
C  0.52900 -5.24700 46.32500
C  1.49700 -4.21300 45.66100
C  -1.94800 -4.52300 46.75500
C  0.87400 -6.68100 45.75900
C  1.00000 -7.72500 46.92900
N  3.52900 -2.37000 44.61200
C  3.77500 -3.39400 45.52100
C  5.20400 -3.67100 45.53400
C  5.75500 -2.61300 44.72300
C  4.69000 -1.95500 44.15800
C  5.92200 -4.87100 46.12600
C  6.94200 -2.08000 44.21700
O  8.09800 -2.50100 44.35400
C  6.55400 -0.89300 43.26900
C  7.04800 0.32300 43.91800
O  6.76900 0.71300 45.04100
O  7.85200 1.02100 42.98300
C  8.25000 2.38300 43.32700
H  0.68100 1.98300 41.38900
H  -2.43500 -2.66600 44.66000
H  3.24600 -4.93300 46.76800
H  5.32600 1.65600 41.77800
H  3.01200 1.56300 40.05400
H  2.70300 3.56100 42.11600
H  2.98700 3.68100 40.33300
H  4.29900 3.50600 41.61800
H  4.94800 0.79100 39.24900
H  5.29000 -0.80400 40.10200
H  7.53100 -0.15900 40.50200
H  7.02100 1.53600 40.68300
H  -2.66700 0.93500 40.48000
H  -1.34600 2.10500 40.74900
H  -2.71200 2.25600 41.74700
H  -5.43600 -0.85400 44.62400
H  -3.87900 -1.32200 45.21700
H  -4.53100 -2.14000 43.75700
H  -1.17400 -5.26000 44.87400
H  0.47000 -5.34000 47.41000
H  -1.63800 -4.65300 47.79200
H  -2.79800 -5.19600 46.64800
H  -2.41300 -3.54400 46.64100
H  1.84800 -6.54300 45.29100
H  0.15700 -6.94300 44.98200
H  2.04400 -8.03600 46.94000
H  0.42700 -8.60600 46.63900
H  0.61800 -7.30800 47.86100
H  5.87800 -5.54200 45.26800
H  5.27500 -5.18900 46.94300
H  6.94300 -4.75700 46.49200
H  7.00000 -1.00900 42.28100
H  7.39900 3.01700 43.07700
H  9.07800 2.68100 42.68400
H  8.55700 2.58000 44.35400
Mg 8.51100 3.36700 27.77700
C  9.91000 1.80700 30.51900
C  7.09900 5.62400 29.64700
C  6.85600 4.44400 24.95800
C  9.88400 0.75700 25.73100
N  8.54200 3.72500 29.88400
C  9.07100 2.89300 30.85300
C  9.06500 3.55700 32.28500
C  7.93400 4.71100 31.97300
C  7.88500 4.73600 30.40500
C  6.54800 4.40000 32.57700
C  10.43600 4.18800 32.70400
C  10.76100 3.89300 34.21600
H  11.28800 4.97900 35.12900
N  7.15400 4.86800 27.34600
C  6.73400 5.77000 28.28700
C  5.75600 6.67500 27.73900
C  5.64700 6.32900 26.34600
C  6.56200 5.20600 26.14000
C  5.05000 7.82800 28.40500
C  4.81600 6.87400 25.20900
O  4.76300 6.43500 24.03300
C  3.85200 8.09200 25.49200
N  8.34200 2.69800 25.65700
C  7.57600 3.30800 24.73400
C  7.81900 2.70700 23.29100
C  8.95500 1.66800 23.52700
C  9.08200 1.69700 25.05400
C  6.64000 2.22800 22.42500
C  10.30700 1.91300 22.85700
C  11.12300 0.75900 22.24300
N  9.77600 1.64100 28.00300
C  10.22100 0.67900 27.13200
C  11.02400 -0.32200 27.80700
C  11.03300 0.11400 29.13000
C  10.21900 1.28300 29.20000
C  11.68400 -1.53000 27.23600
C  11.45900 -0.20000 30.51100
O  12.21600 -1.05300 30.99300
C  10.77900 0.92000 31.45500
C  10.01100 0.23300 32.59200
O  8.97900 -0.36300 32.36300
O  10.51100 0.38800 33.90500
C  9.76300 -0.26200 35.01600
H  6.51800 6.26100 30.31700
H  6.47500 4.85700 24.02200
H  10.41400 0.05200 25.08600
H  8.70300 2.76800 32.94400
H  8.27200 5.66600 32.37500
H  6.68200 3.61600 33.32200
H  5.84800 4.18400 31.77000
H  6.16800 5.27900 33.09700
H  10.45500 5.22900 32.38100
H  11.23800 3.75400 32.10600
H  11.53800 3.13100 34.27700
H  9.86800 3.45800 34.66400
H  5.36000 8.70100 27.83100
H  5.22000 7.95100 29.47500
H  3.96600 7.77900 28.30000
H  3.15100 7.93300 26.31100
H  3.29800 8.25400 24.56700
H  4.49700 8.91800 25.79100
H  8.20800 3.43100 22.57600
H  8.58800 0.64800 23.41400
H  5.77700 2.18800 23.09100
H  6.88000 1.25800 21.99000
H  6.28500 2.86700 21.61700
H  10.94000 2.31200 23.64900
H  10.15100 2.78000 22.21600
H  10.59300 -0.14500 22.54100
H  12.09600 0.80700 22.73400
H  11.06400 0.69800 21.15700
H  11.30000 -1.75600 26.24100
H  11.42000 -2.39500 27.84400
H  12.72900 -1.22200 27.22400
H  11.49800 1.49900 32.03500
H  8.75900 -0.61500 34.78100
H  9.64900 0.39400 35.87800
H  10.37000 -1.10900 35.33700

