158

Mg 44.45800 4.02700 46.45800
C  42.46400 6.83800 46.50300
C  41.52400 2.01200 46.45100
C  46.36100 1.36100 45.98900
C  47.23500 6.13300 46.05400
N  42.27400 4.38000 46.23200
C  41.77100 5.66200 46.22300
C  40.19800 5.53400 46.21200
C  39.92200 4.00200 46.49700
C  41.28900 3.39400 46.31600
C  39.17900 3.68000 47.90400
C  39.45000 6.03800 44.86200
C  39.85400 5.43400 43.47800
H  39.84400 6.33100 42.26100
N  44.03600 1.92100 46.10100
C  42.75600 1.35000 46.21100
C  42.97100 -0.11000 46.21900
C  44.37700 -0.30100 45.89700
C  44.98900 1.03500 46.02400
C  41.95700 -1.15900 46.52700
C  45.05000 -1.60100 45.56000
O  44.29600 -2.60400 45.62300
C  46.51400 -1.78100 45.34500
N  46.46000 3.81300 45.83300
C  47.02400 2.58100 45.86500
C  48.55800 2.71100 45.86200
C  48.83300 4.29000 45.87000
C  47.43000 4.82100 45.87000
C  49.28800 1.91000 47.03200
C  49.64800 4.83800 44.62200
C  50.89300 3.99800 44.35800
N  44.83700 6.05900 46.35000
C  46.01800 6.79500 46.19900
C  45.68400 8.23200 46.39200
C  44.28700 8.26200 46.49400
C  43.82300 6.93600 46.44000
C  46.74900 9.34000 46.37500
C  43.12800 9.15000 46.59200
O  43.13200 10.36100 46.53100
C  41.87500 8.24700 46.61000
C  41.18500 8.48600 47.87800
O  41.41800 7.88900 48.93000
O  40.42700 9.57900 47.79800
C  39.72600 10.16200 48.97300
H  40.72600 1.29000 46.63700
H  47.07900 0.53900 45.97100
H  48.08200 6.82200 46.08600
H  39.77000 6.16300 46.99200
H  39.30900 3.58000 45.70100
H  39.00300 4.65800 48.35300
H  39.85700 2.95600 48.35600
H  38.22600 3.16200 47.79300
H  39.50900 7.11400 44.70000
H  38.41000 5.78900 45.06900
H  39.09100 4.68000 43.28600
H  40.84300 4.97600 43.46800
H  41.45500 -1.46700 45.61000
H  41.25000 -0.72500 47.23300
H  42.44000 -2.05800 46.91100
H  47.17900 -1.52700 46.17000
H  46.68500 -1.03500 44.56900
H  46.70900 -2.79500 44.99700
H  48.90800 2.25000 44.93800
H  49.29900 4.61500 46.80000
H  48.52200 1.59000 47.73900
H  49.90500 2.56900 47.64200
H  49.83700 1.05900 46.62900
H  49.86300 5.87800 44.86500
H  49.00700 4.89400 43.74200
H  51.04200 3.25500 45.14100
H  51.75200 4.66200 44.45000
H  51.00700 3.62900 43.33900
H  47.66600 9.04500 46.88500
H  46.31900 10.15900 46.95100
H  47.08500 9.58900 45.36800
H  41.20500 8.47600 45.78200
H  38.67600 10.10800 48.68600
H  40.02400 11.19300 49.16400
H  39.85300 9.59700 49.89600
Mg 49.01100 44.60200 43.15700
C  45.67100 45.41300 42.06900
C  48.60400 41.62200 41.35900
C  52.34400 44.27200 43.10300
C  49.26500 47.82100 44.37400
N  47.43200 43.75000 41.75300
C  46.13300 44.27200 41.50900
C  45.31500 43.31000 40.66400
C  46.05300 42.03100 40.78900
C  47.49000 42.45100 41.27500
C  45.33900 41.00400 41.70700
C  45.25000 43.87800 39.20700
C  43.98200 43.67300 38.41400
H  44.03900 42.79000 37.15700
N  50.30500 43.14100 42.41900
C  49.91600 41.96000 41.80000
C  51.12100 41.23600 41.47200
C  52.21500 41.89700 42.10300
C  51.61600 43.17800 42.53800
C  51.04800 39.88700 40.67400
C  53.60300 41.42900 42.15500
O  53.89200 40.35600 41.64000
C  54.64800 42.12400 42.87800
N  50.57900 45.90700 43.58600
C  51.90000 45.45900 43.54300
C  52.89700 46.52300 44.09600
C  51.87400 47.59200 44.69600
C  50.45100 47.10500 44.21400
C  53.99600 46.12000 45.09100
C  52.24800 49.16700 44.48300
C  52.61500 50.02500 45.65300
N  47.67900 46.22900 43.43000
C  47.95000 47.46800 43.95800
C  46.66500 48.23000 44.02100
C  45.82400 47.46000 43.29900
C  46.46000 46.24500 42.90300
C  46.43500 49.57800 44.66300
C  44.50100 47.45100 42.72500
O  43.58700 48.28700 42.62400
C  44.39300 46.08200 41.90200
C  43.15500 45.28600 42.34900
O  42.24100 44.87900 41.63400
O  43.18200 45.08900 43.68300
C  42.04100 44.45100 44.33900
H  48.43600 40.60900 40.98600
H  53.43200 44.31600 43.02100
H  49.35300 48.78600 44.87700
H  44.31300 43.24700 41.09000
H  46.22000 41.56600 39.81700
H  44.51800 41.49900 42.22600
H  45.96400 40.55700 42.47900
H  44.91200 40.16000 41.16400
H  46.01800 43.38500 38.61100
H  45.46600 44.94600 39.17500
H  43.58900 44.62500 38.05500
H  43.23400 43.22900 39.07100
H  51.82000 39.84300 39.90500
H  50.04900 39.66900 40.29600
H  51.14900 39.07700 41.39500
H  54.88300 42.94300 42.20000
H  55.42300 41.43200 43.20900
H  54.30800 42.64800 43.77100
H  53.29100 47.05400 43.22900
H  51.73900 47.41800 45.76300
H  53.97100 46.74300 45.98500
H  54.93800 46.27300 44.56600
H  53.95400 45.05700 45.32900
H  51.33200 49.69200 44.21300
H  52.93000 49.32300 43.64700
H  51.92900 50.84400 45.86700
H  53.61900 50.38100 45.42000
H  52.62000 49.42600 46.56400
H  47.32600 50.17000 44.87500
H  46.11700 49.48400 45.70100
H  45.67500 50.15000 44.13100
H  44.18900 46.23500 40.84200
H  41.73100 44.98400 45.23800
H  42.19000 43.40400 44.60400
H  41.14100 44.56700 43.73500

