158

Mg -0.65500 43.80600 25.66400
C  1.88900 43.44700 28.06800
C  -3.00700 42.96500 28.21600
C  -2.93100 43.71000 23.42600
C  1.86300 44.30000 23.27500
N  -0.59200 43.37000 27.92300
C  0.61900 43.28700 28.64000
C  0.32000 43.05600 30.10100
C  -1.25000 42.67400 30.16000
C  -1.64500 42.98100 28.64400
C  -1.57600 41.17000 30.50200
C  0.65300 44.34000 30.87200
C  0.77900 44.32800 32.42800
H  0.81000 42.97800 33.16600
N  -2.70800 43.47300 25.85700
C  -3.50500 43.29900 26.96700
C  -4.89000 43.33500 26.53300
C  -4.82700 43.45700 25.05100
C  -3.47100 43.50600 24.71900
C  -6.08200 43.16000 27.41300
C  -5.97600 43.46400 24.04000
O  -5.91600 43.65400 22.84700
C  -7.41400 43.20700 24.61300
N  -0.45200 43.83100 23.61500
C  -1.62300 43.85700 22.89400
C  -1.39800 44.17700 21.41000
C  0.14400 44.42700 21.39100
C  0.54500 44.19800 22.83900
C  -1.89700 42.97400 20.55500
C  0.51500 45.77000 20.85400
C  0.19100 47.00200 21.71400
N  1.47100 43.96400 25.67300
C  2.35200 44.16900 24.61700
C  3.73400 44.17300 25.06700
C  3.63300 43.86300 26.45300
C  2.22600 43.76800 26.73300
C  4.90900 44.31600 24.18500
C  4.37500 43.59300 27.63200
O  5.54800 43.57500 27.89300
C  3.25700 43.39200 28.71200
C  3.51600 42.09500 29.47300
O  3.17700 41.01900 29.05200
O  4.09700 42.25700 30.71900
C  4.31500 41.01400 31.48000
H  -3.77100 42.77500 28.97300
H  -3.70200 43.88400 22.67300
H  2.68800 44.50000 22.58800
H  0.83300 42.15100 30.42700
H  -1.82400 43.35400 30.78800
H  -2.38100 41.21100 31.23600
H  -0.71500 40.57200 30.80100
H  -2.03400 40.64200 29.66600
H  -0.08900 45.10500 30.64700
H  1.53300 44.80800 30.43000
H  -0.01100 44.95900 32.83500
H  1.65300 44.83800 32.83100
H  -6.73700 42.32800 27.15500
H  -6.72900 44.03700 27.36400
H  -5.79600 43.05100 28.45900
H  -7.77200 43.90400 25.37100
H  -7.46200 42.16400 24.92600
H  -8.00200 43.32100 23.70300
H  -1.96000 45.04400 21.06300
H  0.63600 43.64400 20.81400
H  -2.04200 42.15700 21.26200
H  -1.14000 42.75600 19.80100
H  -2.84900 43.12300 20.04600
H  0.10200 45.91400 19.85600
H  1.60300 45.76200 20.78700
H  -0.21700 47.75300 21.03700
H  1.15100 47.42200 22.01500
H  -0.41100 46.78500 22.59700
H  4.89400 45.18800 23.53100
H  4.97500 43.46000 23.51400
H  5.83400 44.30800 24.76100
H  3.33500 44.24600 29.38500
H  5.33900 40.70900 31.26600
H  3.57300 40.24800 31.25300
H  4.30200 41.12800 32.56400
Mg -8.55700 17.99100 42.81100
C  -5.11500 17.52100 42.63700
C  -8.08200 21.34800 42.12900
C  -11.83100 18.26200 42.33300
C  -8.89000 14.41800 42.81100
N  -6.81000 19.32200 42.41800
C  -5.46800 18.89900 42.46400
C  -4.45600 20.03500 42.23100
C  -5.40400 21.26000 42.38200
C  -6.88000 20.63800 42.20300
C  -5.23400 22.22300 43.59600
C  -3.65200 19.95200 40.93100
C  -4.30500 19.23300 39.68300
H  -3.91900 19.86400 38.33500
N  -9.80200 19.60800 42.33900
C  -9.42600 20.92000 42.12800
C  -10.58700 21.71000 41.88100
C  -11.74800 20.86900 41.91600
C  -11.14900 19.48900 42.17100
C  -10.54300 23.20400 41.53500
C  -13.21100 21.25700 41.76500
O  -13.49500 22.46200 41.78000
C  -14.30200 20.30400 41.84600
N  -10.08700 16.46200 42.37200
C  -11.33300 16.92500 42.45500
C  -12.34100 15.74500 42.84100
C  -11.53400 14.47800 42.76300
C  -10.08600 15.17900 42.66900
C  -13.07500 15.97500 44.15500
C  -11.81200 13.45400 41.62500
C  -12.24500 12.01700 42.03700
N  -7.29400 16.19000 42.87000
C  -7.57600 14.88700 42.91000
C  -6.34800 14.17900 42.91700
C  -5.31300 15.18200 42.90800
C  -5.96400 16.35600 42.81600
C  -6.24500 12.65200 42.80500
C  -3.87300 15.39600 42.94700
O  -2.96400 14.61500 43.03800
C  -3.74800 16.94700 42.77900
C  -3.09200 17.31600 44.04500
O  -1.92400 17.76600 44.04700
O  -3.96300 17.23300 45.14100
C  -3.35100 17.44200 46.43900
H  -7.99800 22.42900 41.99500
H  -12.91500 18.32200 42.45300
H  -8.97100 13.33700 42.94200
H  -3.77800 19.81900 43.05600
H  -5.35000 21.99700 41.58100
H  -4.37000 21.81200 44.11800
H  -6.14300 22.18300 44.19600
H  -5.01800 23.23900 43.26400
H  -2.75300 19.39700 41.20000
H  -3.24400 20.93500 40.69400
H  -5.38100 19.40500 39.71100
H  -4.21600 18.14600 39.68600
H  -10.25700 23.51500 40.53100
H  -9.93300 23.77200 42.23800
H  -11.48200 23.69800 41.78800
H  -14.40600 19.84200 42.82700
H  -13.98100 19.53300 41.14500
H  -15.17200 20.85600 41.48900
H  -13.12800 15.77300 42.08700
H  -11.60000 13.94300 43.71000
H  -12.60900 16.79600 44.70000
H  -13.17100 15.03700 44.70100
H  -14.15000 16.04400 43.99200
H  -10.96200 13.34200 40.95200
H  -12.63700 13.90200 41.07200
H  -11.75400 11.17800 41.54400
H  -13.25500 11.77900 41.70500
H  -12.18200 11.90000 43.11900
H  -7.24700 12.23100 42.88100
H  -5.55400 12.27900 43.56100
H  -5.84600 12.42800 41.81600
H  -2.99300 17.19500 42.03200
H  -3.54600 16.59400 47.09500
H  -3.69300 18.39500 46.84000
H  -2.26900 17.57000 46.48200

