158

Mg 35.52300 1.29300 29.64700
C  33.31500 1.95800 32.29700
C  38.14700 1.12400 31.86200
C  37.68300 0.52400 27.06700
C  32.88600 1.34000 27.42800
N  35.64600 1.60500 31.78700
C  34.64500 1.86100 32.69200
C  35.17400 1.86800 34.04700
C  36.68400 1.94400 33.88000
C  36.89400 1.43200 32.41500
C  37.41700 3.31200 34.06700
C  34.74700 0.55100 34.81000
C  34.19400 0.71100 36.28200
H  34.80900 1.77400 37.16600
N  37.58900 0.92700 29.46800
C  38.44000 0.77500 30.58900
C  39.78800 0.38900 30.11100
C  39.77700 0.35900 28.70400
C  38.30000 0.53900 28.35600
C  41.00300 0.07000 31.03600
C  40.85100 0.00800 27.60700
O  40.73300 0.32000 26.45200
C  42.14700 -0.47900 28.03900
N  35.31600 0.94100 27.52100
C  36.39500 0.66500 26.66200
C  35.94300 0.65100 25.21100
C  34.41500 0.76300 25.36300
C  34.16300 1.07100 26.83100
C  36.70100 1.54100 24.16200
C  33.53500 -0.47000 24.82800
C  32.20100 -0.14500 24.05800
N  33.59000 1.74000 29.78600
C  32.66200 1.82300 28.73000
C  31.36800 2.15100 29.27800
C  31.53200 2.06900 30.66300
C  32.90900 1.87300 30.95400
C  30.20100 2.49900 28.45400
C  30.87200 2.16900 31.95100
O  29.68500 2.33600 32.08200
C  31.94200 2.12700 33.00400
C  31.81300 3.37800 33.80500
O  32.20100 4.48700 33.40300
O  31.27500 3.10800 35.03500
C  31.18500 4.29800 35.89600
H  38.97100 1.11900 32.57800
H  38.35000 0.38000 26.21500
H  32.04200 1.30000 26.73700
H  34.77800 2.72700 34.58800
H  37.19000 1.22700 34.52600
H  37.61100 3.68300 33.06000
H  38.30200 3.01700 34.63100
H  36.83100 3.97200 34.70700
H  35.51300 -0.21500 34.92600
H  33.91200 0.27300 34.16700
H  34.32900 -0.23800 36.80000
H  33.16600 1.07000 36.23300
H  40.73800 -0.13900 32.07200
H  41.80900 0.79700 30.94400
H  41.39100 -0.85400 30.60700
H  42.43000 0.17400 28.86500
H  42.85700 -0.35100 27.22200
H  42.09600 -1.51300 28.38000
H  36.16200 -0.32800 24.78500
H  34.03800 1.63200 24.82500
H  35.88300 1.92900 23.55500
H  37.48800 1.03300 23.60400
H  37.18000 2.32200 24.75100
H  33.30700 -1.08800 25.69700
H  34.20100 -0.94200 24.10500
H  32.49000 -0.03800 23.01300
H  31.91300 0.89600 24.19800
H  31.38400 -0.86400 24.11700
H  29.87800 3.46100 28.85300
H  29.52700 1.65100 28.57200
H  30.50800 2.60700 27.41400
H  31.57200 1.34100 33.66200
H  32.16200 4.76200 36.03300
H  30.90900 4.10700 36.93300
H  30.46900 4.93300 35.37400
Mg 47.09500 34.86800 28.28700
C  45.27200 32.94500 30.56300
C  47.43700 37.27800 30.73600
C  48.41300 37.05500 25.97200
C  46.20300 32.69100 25.70700
N  46.49400 34.95900 30.45100
C  45.75600 34.09100 31.17100
C  45.83300 34.60400 32.62300
C  46.02900 36.17100 32.46700
C  46.68400 36.16700 31.13600
C  44.63000 36.93600 32.46000
C  47.12400 34.02400 33.37500
C  47.01300 34.02300 34.94900
H  46.07600 35.03900 35.63400
N  47.91100 36.86100 28.32700
C  47.97400 37.68400 29.44400
C  48.76700 38.83300 29.12600
C  49.05000 38.79500 27.75100
C  48.52900 37.49400 27.26400
C  49.10600 39.89300 30.09900
C  49.70000 39.83500 26.91100
O  50.03300 39.57700 25.75600
C  50.06900 41.22200 27.35200
N  47.20700 34.86300 26.19100
C  47.76100 35.90000 25.48200
C  47.57200 35.71500 24.06200
C  47.05500 34.23500 23.90700
C  46.83500 33.87100 25.38400
C  46.60100 36.83800 23.48000
C  48.00200 33.23400 23.14600
C  49.32200 33.00300 23.80800
N  46.10100 33.11900 28.15300
C  45.83600 32.32900 27.03100
C  44.99000 31.23300 27.47800
C  44.75300 31.42600 28.86800
C  45.44300 32.63000 29.20300
C  44.31100 30.12000 26.63000
C  44.08800 30.94300 30.04000
O  43.31500 29.99000 30.26600
C  44.27100 31.96100 31.11500
C  44.37900 31.51100 32.53400
O  45.09500 30.60600 32.88900
O  43.35800 32.05100 33.27000
C  43.08200 31.63200 34.58100
H  47.55200 37.97600 31.56800
H  48.94500 37.65100 25.22700
H  45.93400 32.05400 24.86300
H  44.91900 34.26900 33.11300
H  46.77300 36.50800 33.18900
H  44.58700 37.51900 31.54100
H  44.71400 37.62600 33.30000
H  43.86500 36.16300 32.54100
H  47.98800 34.66100 33.18300
H  47.30900 33.01200 33.01500
H  48.01800 34.27400 35.28600
H  46.84700 33.02900 35.36400
H  48.36700 40.69300 30.06300
H  50.07800 40.35700 29.93500
H  49.15400 39.51600 31.12100
H  49.32200 41.60000 28.05000
H  50.18200 42.03300 26.63200
H  51.00500 41.17100 27.90700
H  48.47000 35.89600 23.47100
H  46.04600 34.18300 23.49800
H  46.24200 37.42400 24.32600
H  45.64500 36.52000 23.06500
H  47.02300 37.54300 22.76400
H  48.21700 33.62700 22.15200
H  47.45200 32.29600 23.08100
H  49.67500 33.85200 24.39400
H  50.06400 32.88700 23.01800
H  49.27200 32.14700 24.48100
H  43.38300 30.57900 26.28800
H  44.05500 29.25100 27.23600
H  44.94800 29.95500 25.76000
H  43.27100 32.39200 31.12900
H  43.63000 30.73600 34.87600
H  42.03700 31.50100 34.86300
H  43.29000 32.45000 35.27000

