158

Mg 47.21900 25.09500 29.00800
C  47.98500 27.43600 31.48900
C  46.05800 22.90900 31.47900
C  46.45900 22.87700 26.57800
C  48.64500 27.15800 26.68100
N  47.14900 25.16800 31.25200
C  47.26700 26.32900 31.99700
C  46.71200 26.18600 33.42700
C  46.25300 24.64100 33.42400
C  46.46900 24.20600 31.93100
C  47.04100 23.73100 34.46800
C  45.51500 27.23000 33.68100
C  45.47800 27.99600 35.01600
H  45.05700 27.07200 36.20800
N  46.26500 23.23600 29.01500
C  45.95500 22.45700 30.12700
C  45.43400 21.16400 29.69100
C  45.50100 21.17900 28.26400
C  46.02600 22.49800 27.85000
C  44.79000 20.16900 30.63100
C  45.02400 20.14200 27.26700
O  45.04400 20.37900 26.04100
C  44.59900 18.81300 27.72000
N  47.53600 25.02300 26.91600
C  47.08800 24.02000 26.12200
C  47.56300 24.17700 24.73000
C  47.92400 25.70200 24.68300
C  48.07900 25.99100 26.16800
C  48.58200 23.14900 24.16900
C  46.81000 26.57700 23.96900
C  47.31800 27.96200 23.68500
N  48.26700 26.77400 29.08200
C  48.80500 27.52900 28.00800
C  49.37400 28.70600 28.50600
C  49.03700 28.74500 29.88600
C  48.39700 27.53800 30.17000
C  49.93700 29.81500 27.76300
C  49.05400 29.55200 31.12400
O  49.46800 30.70300 31.26100
C  48.47200 28.63000 32.24100
C  49.52700 28.58000 33.29800
O  50.25100 27.65900 33.61400
O  49.50300 29.73700 34.04000
C  50.15800 29.53100 35.34900
H  45.66900 22.24900 32.25700
H  46.51900 22.07400 25.84100
H  49.17600 27.83500 26.00900
H  47.48800 26.27900 34.18600
H  45.18400 24.55000 33.61600
H  47.95800 23.34200 34.02700
H  46.48200 22.82600 34.70800
H  47.26400 24.27800 35.38400
H  44.61300 26.62200 33.60800
H  45.54500 27.97300 32.88400
H  44.73900 28.79200 34.92900
H  46.48700 28.37700 35.17400
H  43.71000 20.05100 30.53900
H  44.91800 20.46500 31.67200
H  45.36100 19.27900 30.36800
H  45.17400 18.32000 28.50300
H  44.64500 18.18600 26.83000
H  43.60400 19.03000 28.10800
H  46.65600 24.06400 24.13600
H  48.88500 25.84800 24.18900
H  49.00500 22.46700 24.90500
H  49.38700 23.70800 23.69000
H  48.17700 22.47600 23.41300
H  45.90100 26.66900 24.56300
H  46.49800 26.09100 23.04400
H  46.64600 28.27500 22.88500
H  48.33500 27.91800 23.29700
H  47.30000 28.65500 24.52600
H  50.77700 29.57100 27.11300
H  50.26600 30.61700 28.42400
H  49.10800 30.05600 27.09700
H  47.70800 29.25000 32.70900
H  50.12800 30.42700 35.96800
H  51.23600 29.48200 35.19500
H  49.82700 28.75700 36.04100
Mg -11.15000 16.11900 42.06900
C  -8.27000 14.18200 41.44300
C  -9.75000 18.63500 40.25900
C  -14.24100 17.62600 41.75500
C  -12.68900 13.18000 43.27200
N  -9.25300 16.36500 41.07600
C  -8.15800 15.48000 40.97900
C  -6.94400 16.14200 40.44900
C  -7.44300 17.60600 40.07600
C  -8.91000 17.56800 40.57300
C  -6.59300 18.75200 40.67700
C  -6.31400 15.44600 39.22900
C  -4.83500 15.05000 39.24800
H  -3.85800 15.57800 38.14000
N  -11.87900 17.99000 41.38000
C  -11.06900 18.87900 40.66100
C  -11.82000 20.10700 40.52100
C  -13.19200 19.82500 40.89000
C  -13.13100 18.40800 41.37100
C  -11.26600 21.43100 39.95300
C  -14.28200 20.87500 40.93600
O  -14.12000 22.02500 40.59600
C  -15.61400 20.42500 41.52500
N  -13.21200 15.41500 42.30400
C  -14.27800 16.26500 42.25900
C  -15.56900 15.58800 42.69000
C  -15.10400 14.18300 43.08200
C  -13.59600 14.21200 42.88100
C  -16.45200 16.44200 43.63100
C  -15.82300 13.04100 42.36500
C  -16.27800 11.80100 43.26400
N  -10.58700 14.15700 42.38100
C  -11.32200 13.03100 42.97700
C  -10.45100 11.87000 43.09700
C  -9.24200 12.32900 42.51500
C  -9.39900 13.66700 42.05800
C  -10.97000 10.60500 43.77100
C  -7.86700 11.89600 42.08000
O  -7.31200 10.81000 42.21200
C  -7.18400 13.16000 41.61900
C  -6.18900 13.68500 42.65500
O  -6.49300 14.31100 43.69500
O  -4.89500 13.44900 42.25000
C  -3.78200 13.85900 43.23900
H  -9.29500 19.51100 39.79200
H  -15.26700 17.91300 41.51300
H  -13.12900 12.29100 43.72800
H  -6.19600 16.14100 41.24200
H  -7.47400 17.76000 38.99700
H  -6.30500 19.54800 39.98900
H  -5.77400 18.22600 41.16700
H  -7.18200 19.13800 41.50900
H  -6.45400 15.92900 38.26200
H  -6.94600 14.58700 39.00500
H  -4.82700 13.96600 39.13300
H  -4.41300 15.19000 40.24300
H  -11.82700 21.78000 39.08600
H  -10.25000 21.26300 39.59500
H  -11.30700 22.16300 40.75900
H  -16.26200 21.30000 41.58900
H  -15.44200 19.94900 42.49100
H  -16.14200 19.67700 40.93500
H  -16.12700 15.46700 41.76100
H  -15.17400 13.94200 44.14300
H  -17.27400 16.89200 43.07500
H  -15.80700 17.17000 44.12400
H  -16.90800 15.80800 44.39200
H  -15.29500 12.61400 41.51300
H  -16.75400 13.38500 41.91600
H  -16.32500 10.82600 42.77900
H  -17.29900 12.01700 43.57800
H  -15.61700 11.77300 44.13000
H  -10.10500 10.29400 44.35600
H  -11.27700 9.84000 43.05800
H  -11.69600 10.97900 44.49300
H  -6.64600 12.99200 40.68600
H  -3.49000 14.84200 42.87100
H  -2.96600 13.13600 43.21400
H  -4.05000 13.96700 44.28900

