158

Mg 47.59800 16.49300 28.77900
C  45.45200 16.28300 31.67000
C  49.81500 18.26400 30.86900
C  49.31200 17.49700 26.07200
C  45.11300 15.06800 26.90500
N  47.50900 17.29000 30.99500
C  46.62100 17.02700 31.98900
C  47.15800 17.46300 33.33500
C  48.45200 18.22000 32.93300
C  48.62100 17.83900 31.49500
C  48.37300 19.74400 33.17700
C  47.43300 16.31400 34.30300
C  46.87700 16.45400 35.70700
H  46.78900 17.83100 36.32900
N  49.40600 17.59500 28.50600
C  50.16600 18.21300 29.48800
C  51.45100 18.62600 28.97700
C  51.33900 18.45300 27.53100
C  49.96200 17.82000 27.30600
C  52.63500 19.13500 29.74000
C  52.36500 18.75000 26.43200
O  52.27800 18.53600 25.24400
C  53.63300 19.32800 26.99400
N  47.41200 16.06500 26.83400
C  48.09000 16.80700 25.88700
C  47.50200 16.55000 24.50700
C  46.33400 15.61100 24.73400
C  46.22600 15.60900 26.25700
C  47.41700 17.80500 23.58700
C  46.45100 14.16500 24.06600
C  47.17700 13.12300 25.01200
N  45.77000 15.64500 29.21700
C  44.90100 15.08000 28.32000
C  43.75800 14.69900 29.06600
C  44.03600 15.02000 30.42800
C  45.19000 15.71400 30.44000
C  42.42500 14.22700 28.48600
C  43.31800 15.04300 31.71800
O  42.25000 14.60300 32.15400
C  44.39700 15.79400 32.62400
C  43.69400 16.87200 33.26100
O  43.75500 18.00300 32.83400
O  42.88700 16.39600 34.28300
C  42.02400 17.35000 34.99800
H  50.52400 18.69300 31.57900
H  49.92800 17.87000 25.25100
H  44.27600 14.78900 26.26200
H  46.40600 18.16100 33.70400
H  49.31600 17.88700 33.50800
H  49.27800 20.22600 33.54700
H  47.69400 20.06800 33.96600
H  48.06800 20.24600 32.25900
H  48.47300 15.98900 34.31100
H  46.90200 15.46300 33.87500
H  47.38900 15.72800 36.33900
H  45.84600 16.10800 35.62600
H  53.57800 18.59000 29.70200
H  52.38700 18.96700 30.78800
H  52.71400 20.22000 29.81200
H  53.43400 20.20600 27.60700
H  54.26100 19.58800 26.14100
H  54.18900 18.54300 27.50600
H  48.22300 15.88900 24.02600
H  45.43000 16.08300 24.35000
H  47.99500 17.71000 22.66800
H  47.74900 18.75500 24.00400
H  46.38100 17.91100 23.26400
H  47.14600 14.20300 23.22700
H  45.52100 13.72500 23.70700
H  46.48800 12.62800 25.69600
H  47.90800 13.63100 25.64200
H  47.68800 12.46300 24.31000
H  42.32800 13.16500 28.26500
H  42.24100 14.86800 27.62400
H  41.63700 14.45300 29.20500
H  44.82800 15.15500 33.39500
H  41.91800 16.84400 35.95800
H  41.04900 17.64000 34.60500
H  42.61400 18.25400 35.15100
Mg -11.98500 38.37700 41.66300
C  -9.89800 35.69800 40.54700
C  -9.70300 40.52400 39.93200
C  -14.10800 41.01900 42.18800
C  -14.28600 36.12900 42.88700
N  -10.07700 38.07900 40.40800
C  -9.40800 36.89800 40.09800
C  -8.08300 37.10200 39.44900
C  -7.93600 38.65900 39.50500
C  -9.30900 39.12800 39.89100
C  -6.81600 39.21500 40.40600
C  -7.98400 36.55500 37.98300
C  -6.79700 35.56400 37.74800
H  -5.68100 36.02100 36.78100
N  -11.92200 40.48400 41.13700
C  -10.93200 41.14000 40.44500
C  -11.20600 42.57300 40.44300
C  -12.39800 42.77500 41.17700
C  -12.89800 41.40900 41.51700
C  -10.19800 43.60800 40.01200
C  -12.93900 44.17900 41.53000
O  -12.51600 45.23900 41.03100
C  -14.12100 44.31500 42.38600
N  -13.92700 38.49400 42.30300
C  -14.60500 39.74500 42.46700
C  -16.07300 39.44900 42.89200
C  -16.15600 37.88400 43.07400
C  -14.76800 37.44400 42.61300
C  -16.59100 40.23900 44.11900
C  -17.21400 37.15600 42.16200
C  -18.63300 37.05900 42.66600
N  -12.10600 36.29500 41.82900
C  -13.05900 35.49800 42.47000
C  -12.58800 34.13400 42.51900
C  -11.42200 34.18400 41.66600
C  -11.10900 35.46900 41.36400
C  -13.23600 32.92500 43.10700
C  -10.42200 33.29600 41.04600
O  -10.32000 32.08900 40.97100
C  -9.42100 34.23000 40.29500
C  -8.00100 34.00600 40.87800
O  -7.48200 34.55500 41.84500
O  -7.29600 32.99400 40.18500
C  -5.93000 32.64800 40.50000
H  -8.90000 41.18500 39.60100
H  -14.79800 41.85700 42.30100
H  -14.99100 35.44100 43.35900
H  -7.46400 36.52500 40.13700
H  -7.72900 39.06300 38.51400
H  -7.06500 39.18200 41.46700
H  -6.51200 40.21600 40.10000
H  -5.97700 38.51800 40.38600
H  -7.81300 37.39300 37.30800
H  -8.86700 35.93300 37.83300
H  -7.11800 34.64700 37.25300
H  -6.37700 35.32700 38.72600
H  -9.23900 43.26000 40.39600
H  -10.32700 44.61600 40.40700
H  -10.12100 43.73200 38.93200
H  -15.10600 44.37000 41.92100
H  -14.05900 45.31000 42.82600
H  -14.06200 43.50500 43.11400
H  -16.64000 39.80600 42.03200
H  -16.35300 37.53300 44.08700
H  -17.13500 41.14000 43.83600
H  -15.76500 40.36400 44.81900
H  -17.27600 39.48600 44.51000
H  -16.87400 36.12300 42.09700
H  -17.26500 37.57100 41.15600
H  -18.99100 37.99200 43.10100
H  -18.94100 36.17700 43.22800
H  -19.34100 36.89600 41.85300
H  -12.68900 32.45000 43.92200
H  -13.43600 32.23400 42.28800
H  -14.17000 33.27800 43.54400
H  -9.29600 33.91200 39.26000
H  -5.27200 33.50100 40.33200
H  -5.67400 31.73000 39.97000
H  -5.81200 32.27600 41.51800

