158

Mg -0.19800 6.67800 26.95600
C  0.91100 9.12000 29.15700
C  -0.81600 4.51300 29.48000
C  -1.23000 4.56200 24.58900
C  1.19500 8.67700 24.28500
N  0.20300 6.74300 29.10600
C  0.48600 7.88500 29.82600
C  0.47900 7.67200 31.30400
C  0.33200 6.12100 31.34900
C  -0.18400 5.74900 29.92000
C  1.56000 5.20600 31.70100
C  -0.69900 8.46200 32.04600
C  -0.70000 8.55200 33.66600
H  0.56700 8.19800 34.35000
N  -0.87300 4.76200 27.03900
C  -1.26800 4.07800 28.16700
C  -1.99400 2.83700 27.80600
C  -2.05900 2.83300 26.37800
C  -1.35900 4.09300 25.91900
C  -2.59000 1.92800 28.95800
C  -2.82400 1.85600 25.56100
O  -2.90000 1.96900 24.36700
C  -3.56100 0.63000 26.16400
N  0.12400 6.53500 24.79900
C  -0.56500 5.60700 24.07700
C  -0.66500 6.07100 22.59500
C  0.25300 7.24300 22.47800
C  0.61800 7.48800 23.91200
C  -0.46800 4.94300 21.61500
C  -0.45000 8.45400 21.78700
C  0.42400 9.40400 20.91800
N  0.78200 8.56100 26.71300
C  1.24400 9.27400 25.57300
C  1.66700 10.61200 26.04600
C  1.54800 10.60600 27.40900
C  1.11000 9.33300 27.74400
C  2.08300 11.70200 25.15100
C  1.62000 11.45900 28.59500
O  1.94000 12.62600 28.69400
C  1.17600 10.53700 29.79400
C  2.29500 10.40800 30.78400
O  3.39300 9.93500 30.55100
O  1.96000 10.87100 32.04100
C  3.02400 10.89600 33.05200
H  -1.04300 3.76400 30.24100
H  -1.55200 3.84900 23.82600
H  1.35200 9.41000 23.49100
H  1.40700 8.04300 31.73900
H  -0.50400 5.86600 32.00100
H  1.59900 4.34300 31.03700
H  1.34800 4.78100 32.68200
H  2.51200 5.73600 31.73200
H  -1.58600 7.88400 31.78900
H  -0.79500 9.46600 31.63300
H  -1.45400 7.83600 33.99300
H  -0.93600 9.54200 34.05600
H  -2.11400 0.94900 29.00100
H  -3.67700 1.84900 28.91200
H  -2.40800 2.29200 29.96900
H  -2.79800 -0.01900 26.59300
H  -3.92300 0.12900 25.26600
H  -4.39800 0.74500 26.85300
H  -1.73300 6.23600 22.45200
H  1.11100 7.01100 21.84600
H  -1.22400 4.16800 21.48600
H  0.50400 4.48000 21.78500
H  -0.35100 5.43400 20.64900
H  -0.73300 9.00400 22.68400
H  -1.36500 8.13200 21.29000
H  1.26100 8.79700 20.57200
H  0.60500 10.31600 21.48800
H  -0.21000 9.64800 20.06600
H  3.10400 12.02200 25.35900
H  1.48400 12.59500 25.32500
H  2.07200 11.37400 24.11100
H  0.32000 10.92100 30.34900
H  3.81500 11.51800 32.63300
H  3.38900 9.96700 33.49000
H  2.57800 11.58800 33.76600
Mg 54.25100 23.20000 44.33100
C  51.98900 25.77400 43.43400
C  51.73700 20.85600 43.54700
C  56.59200 20.90400 44.40300
C  56.64200 25.72100 44.81100
N  52.08200 23.23100 43.47500
C  51.49900 24.44900 43.25300
C  50.10400 24.09800 42.60300
C  49.82100 22.60100 43.05100
C  51.26700 22.21200 43.37700
C  48.90500 22.31100 44.22800
C  50.09600 24.26400 41.05700
C  48.81300 24.88500 40.44400
H  48.31800 24.11300 39.14500
N  54.21500 21.20700 43.93500
C  53.07000 20.42200 43.73100
C  53.51000 19.01900 43.86100
C  54.91800 19.04100 44.04800
C  55.31800 20.44600 44.10600
C  52.60500 17.84600 43.56700
C  55.76400 17.81100 44.15400
O  55.22200 16.70400 44.05500
C  57.26700 17.81700 44.60800
N  56.43000 23.32900 44.28900
C  57.05000 22.21300 44.56400
C  58.53000 22.50600 44.72300
C  58.55200 24.05900 44.92000
C  57.17300 24.43500 44.65600
C  59.18700 21.71100 45.88500
C  59.64200 24.75900 44.03200
C  60.57800 25.71500 44.84900
N  54.36100 25.31200 44.28900
C  55.32200 26.20600 44.61600
C  54.82400 27.58700 44.55700
C  53.48500 27.47400 44.14700
C  53.28100 26.07300 43.91300
C  55.58000 28.79300 44.94100
C  52.27300 28.17300 43.84700
O  52.03400 29.37600 43.84900
C  51.27100 27.14500 43.22700
C  51.20400 27.55600 41.78300
O  52.14100 27.34500 40.99700
O  50.02300 28.12500 41.48700
C  49.74400 28.56200 40.13500
H  50.94000 20.12700 43.38300
H  57.50000 20.29700 44.42300
H  57.32800 26.48100 45.19100
H  49.36200 24.78400 43.01300
H  49.52400 21.95700 42.22300
H  48.31000 21.41800 44.03800
H  48.21400 23.15100 44.29800
H  49.49500 22.24900 45.14200
H  50.27400 23.30900 40.56200
H  50.96100 24.91300 40.91800
H  48.98900 25.91500 40.13600
H  47.98900 24.96700 41.15200
H  52.76600 16.88600 44.05700
H  52.68100 17.58600 42.51100
H  51.61000 18.18700 43.85300
H  57.81000 18.32300 43.80900
H  57.70200 16.82100 44.52200
H  57.36900 18.28000 45.58900
H  58.98500 22.22900 43.77200
H  58.71700 24.22900 45.98400
H  59.45900 20.71200 45.54500
H  58.40000 21.55000 46.62200
H  60.02000 22.21400 46.37600
H  59.13400 25.33800 43.26100
H  60.25800 23.93900 43.66400
H  60.41000 26.77700 44.66600
H  61.62000 25.44200 44.68200
H  60.39400 25.57900 45.91500
H  56.50100 28.99500 44.39500
H  55.70900 28.76100 46.02300
H  54.90100 29.62300 44.74700
H  50.28100 27.17700 43.68200
H  48.89400 28.02800 39.71000
H  50.59000 28.66400 39.45500
H  49.28700 29.55000 40.19000

