158

Mg 1.60000 -1.60300 43.94000
C  5.08400 -1.09000 43.76800
C  1.14900 1.37600 42.20300
C  -1.62500 -2.39100 43.51100
C  2.24600 -4.79500 45.15500
N  2.93300 0.05200 43.24300
C  4.33100 0.05200 43.20700
C  4.89200 1.29500 42.58100
C  3.54000 2.11200 42.32600
C  2.43200 1.06700 42.58300
C  3.38300 3.40700 43.11400
C  5.77400 0.88600 41.39700
C  5.24400 0.04300 40.27200
H  5.67800 0.36000 38.85800
N  -0.05600 -0.61600 42.99900
C  -0.00900 0.59400 42.26700
C  -1.38000 0.88900 41.81200
C  -2.19400 -0.13100 42.28000
C  -1.29500 -1.15600 42.95400
C  -1.77100 2.24100 41.14000
C  -3.74500 -0.00600 42.25300
O  -4.25400 1.04700 41.81700
C  -4.67000 -1.01700 42.93300
N  0.49100 -3.38800 44.20200
C  -0.82900 -3.33200 44.09000
C  -1.50600 -4.66200 44.56500
C  -0.25700 -5.39300 45.19800
C  0.92200 -4.48300 44.83100
C  -2.73300 -4.44000 45.61800
C  -0.01500 -6.91200 44.80600
C  0.03300 -7.76900 46.12000
N  3.29800 -2.72500 44.53300
C  3.41900 -4.02300 44.95600
C  4.77100 -4.27900 45.36600
C  5.49600 -3.15200 44.89400
C  4.53600 -2.28200 44.31200
C  5.32700 -5.50000 46.00400
C  6.76400 -2.54800 44.80900
O  7.86300 -2.99600 45.15100
C  6.53600 -1.19600 44.08400
C  7.01600 -0.11300 44.96000
O  6.58300 0.18200 46.04000
O  8.04100 0.55000 44.25400
C  8.39600 1.87600 44.72900
H  1.13000 2.31700 41.65000
H  -2.66000 -2.73700 43.52800
H  2.57500 -5.79200 45.45500
H  5.50900 1.82800 43.30400
H  3.56800 2.31500 41.25500
H  4.31800 3.91200 43.35700
H  2.83900 3.16800 44.02800
H  2.79000 4.12200 42.54400
H  6.73600 0.53400 41.77100
H  5.98600 1.82700 40.88900
H  4.15800 0.10200 40.34900
H  5.60400 -0.94600 40.55400
H  -2.13600 2.98500 41.84700
H  -2.49700 2.14200 40.33300
H  -0.85800 2.64600 40.70200
H  -5.64400 -0.81800 42.48600
H  -4.64200 -0.75500 43.99000
H  -4.29000 -2.02900 42.79100
H  -1.83700 -5.23000 43.69500
H  -0.27900 -5.31700 46.28600
H  -2.56300 -5.02300 46.52300
H  -3.72500 -4.62800 45.20800
H  -2.73300 -3.37700 45.86100
H  0.89700 -7.06600 44.22900
H  -0.85200 -7.25200 44.19600
H  -0.79400 -8.47800 46.10700
H  -0.05000 -7.14700 47.01100
H  0.96500 -8.33000 46.05400
H  4.53000 -6.17400 46.31500
H  5.89500 -5.33800 46.92100
H  6.01600 -5.94800 45.28800
H  7.22200 -1.30500 43.24400
H  9.08300 1.98200 45.56800
H  7.51200 2.47100 44.95800
H  8.98000 2.45100 44.01000
Mg 16.72200 -2.61900 29.02800
C  15.57700 -0.27400 31.33400
C  18.95800 -3.75600 31.38700
C  18.17500 -4.51200 26.66100
C  14.74000 -1.11200 26.55900
N  17.11800 -2.09700 31.10800
C  16.49300 -1.18200 31.85000
C  16.86400 -1.34400 33.32300
C  18.08600 -2.35800 33.35000
C  18.04200 -2.79300 31.86600
C  19.46600 -1.92600 33.85200
C  15.77400 -1.81500 34.26700
C  15.44500 -0.88600 35.42200
H  16.52100 -0.28900 36.39400
N  18.33600 -3.98600 29.06700
C  19.09500 -4.35700 30.12400
C  20.07700 -5.35000 29.67200
C  19.88300 -5.52700 28.25900
C  18.73200 -4.67700 27.96600
C  20.97100 -6.13500 30.64000
C  20.77700 -6.33100 27.37300
O  20.55700 -6.47000 26.19200
C  21.99800 -7.07500 27.85600
N  16.67000 -2.73100 26.90100
C  17.23700 -3.69900 26.11200
C  16.66400 -3.72700 24.72400
C  15.73700 -2.45000 24.68100
C  15.66700 -2.14700 26.18400
C  17.78600 -3.52300 23.71300
C  14.30800 -2.75000 24.07900
C  13.70600 -1.70400 23.10000
N  15.43800 -1.08600 28.93800
C  14.72500 -0.53000 27.85600
C  13.98300 0.57100 28.33000
C  14.27200 0.71100 29.66600
C  15.17700 -0.27000 30.00300
C  12.95300 1.44900 27.55500
C  13.98600 1.53500 30.85700
O  13.33000 2.56400 30.94100
C  14.73300 0.76400 32.00400
C  15.39300 1.90400 32.84500
O  16.58600 2.10600 32.92300
O  14.48600 2.52800 33.61600
C  15.03800 3.39500 34.69300
H  19.68200 -4.09200 32.13200
H  18.53300 -5.27800 25.96900
H  14.14800 -0.66600 25.75700
H  17.18700 -0.38600 33.73200
H  17.80100 -3.16200 34.02800
H  19.45700 -1.01400 34.45000
H  20.06500 -1.68400 32.97400
H  19.88700 -2.74800 34.43100
H  15.77600 -2.83400 34.65500
H  14.90200 -1.69000 33.62400
H  14.69700 -1.32500 36.08200
H  14.88200 -0.01900 35.07600
H  20.88300 -7.20600 30.45700
H  20.80800 -5.76000 31.65000
H  22.00000 -5.83900 30.43600
H  22.55800 -7.30400 26.94900
H  21.62400 -8.02400 28.23900
H  22.58300 -6.48600 28.56300
H  16.04300 -4.58000 24.45200
H  16.32300 -1.65500 24.21800
H  18.14600 -4.48800 23.35300
H  18.60500 -2.95900 24.15900
H  17.30200 -2.99200 22.89400
H  13.63700 -2.84200 24.93400
H  14.21000 -3.72400 23.60100
H  13.03200 -1.13100 23.73600
H  13.18700 -2.20800 22.28500
H  14.34600 -0.95300 22.63500
H  12.13100 0.84200 27.17700
H  13.46400 1.98200 26.75300
H  12.69100 2.19000 28.31000
H  14.04800 0.26300 32.68800
H  15.09500 4.46300 34.48200
H  16.06400 3.17800 34.98800
H  14.31700 3.27200 35.50100

