158

Mg 17.60100 51.46300 26.70400
C  19.62500 49.91800 29.20400
C  15.26100 52.29900 28.93000
C  15.89900 52.54500 24.04600
C  20.22300 50.25900 24.37900
N  17.40500 50.97700 28.83100
C  18.39400 50.50400 29.69500
C  18.02300 50.82400 31.21100
C  16.49800 51.34600 31.03400
C  16.34800 51.58700 29.45700
C  15.32000 50.38100 31.59400
C  18.96400 51.89600 31.80300
C  19.35500 51.71000 33.26600
H  18.55200 50.79300 34.22000
N  15.82200 52.18300 26.53700
C  14.96000 52.52500 27.58600
C  13.74500 53.02900 26.98900
C  13.91600 53.24300 25.57800
C  15.24500 52.67000 25.32600
C  12.45300 53.23400 27.80300
C  12.94700 53.86800 24.50800
O  13.30500 54.03300 23.32800
C  11.59200 54.25700 24.86400
N  17.99000 51.32500 24.51700
C  17.14800 51.96400 23.68600
C  17.58000 51.93700 22.24700
C  19.07100 51.37900 22.39400
C  19.09300 50.95500 23.85600
C  16.66400 51.06500 21.30600
C  20.14000 52.51800 22.16700
C  21.50500 52.06300 21.62200
N  19.51700 50.29700 26.69300
C  20.38800 49.89000 25.75200
C  21.48400 49.12100 26.29900
C  21.24000 49.13900 27.65600
C  20.04500 49.84600 27.86600
C  22.73100 48.69500 25.48500
C  21.69100 48.75200 28.99100
O  22.65100 48.02800 29.31200
C  20.70200 49.31700 30.01300
C  20.20200 48.25900 30.84700
O  19.68100 47.26700 30.37400
O  20.51900 48.45700 32.19500
C  20.33400 47.24600 33.11300
H  14.52800 52.63100 29.66900
H  15.29200 52.80800 23.17800
H  20.99900 49.92700 23.68600
H  17.97100 49.86300 31.72400
H  16.37200 52.31200 31.52200
H  14.63000 50.98300 32.18600
H  15.73200 49.57300 32.20000
H  14.81100 49.97500 30.72000
H  18.45500 52.85900 31.76500
H  19.90200 52.12800 31.29900
H  19.40000 52.64600 33.82200
H  20.37300 51.32300 33.24700
H  11.66600 52.68500 27.28600
H  12.26100 54.30200 27.90900
H  12.59500 52.78700 28.78700
H  11.14800 54.98600 24.18600
H  11.36800 54.76600 25.80100
H  10.93700 53.38800 24.92800
H  17.53800 52.94100 21.82300
H  19.27500 50.46300 21.83900
H  15.73700 50.86300 21.84200
H  17.16300 50.12900 21.05300
H  16.33700 51.53100 20.37700
H  20.48400 52.73200 23.17900
H  19.83400 53.42900 21.65200
H  21.67200 52.76100 20.80100
H  21.44900 50.99700 21.40400
H  22.33400 52.24200 22.30800
H  23.01400 49.46400 24.76600
H  22.56400 47.71800 25.03300
H  23.51400 48.67500 26.24300
H  21.21100 50.02900 30.66200
H  20.89700 47.33900 34.04200
H  20.48200 46.24800 32.69900
H  19.29100 47.35000 33.41300
Mg -5.42000 24.68700 25.96300
C  -4.09400 26.08100 28.84100
C  -7.17500 22.41700 27.96400
C  -6.43900 23.21500 23.30500
C  -3.39100 26.77200 24.12300
N  -5.63600 24.42100 28.17700
C  -5.01600 25.13500 29.14900
C  -5.55600 24.78700 30.55900
C  -6.32000 23.41200 30.26300
C  -6.36500 23.36900 28.70000
C  -5.67700 22.10500 30.86300
C  -6.48200 25.81600 31.24300
C  -6.21200 26.12500 32.72800
H  -7.19400 25.41400 33.69100
N  -6.70300 23.20000 25.68200
C  -7.39100 22.43200 26.57400
C  -8.39400 21.72000 25.94200
C  -8.24000 21.92400 24.55400
C  -7.03500 22.79500 24.45700
C  -9.44100 20.93700 26.60600
C  -9.01200 21.35500 23.40000
O  -8.59200 21.40000 22.22400
C  -10.33600 20.54600 23.54000
N  -4.76500 24.79300 24.01400
C  -5.41900 24.10800 23.09500
C  -4.89700 24.48500 21.72400
C  -4.09100 25.72500 21.96800
C  -4.05500 25.79700 23.44300
C  -4.20800 23.37500 20.91600
C  -4.41900 27.05200 21.14300
C  -3.24000 27.85100 20.56400
N  -3.89100 26.10700 26.34200
C  -3.24900 26.99300 25.51900
C  -2.30500 27.86600 26.22900
C  -2.70000 27.57200 27.57700
C  -3.65500 26.51700 27.59200
C  -1.27300 28.87600 25.65700
C  -2.51800 28.07000 28.96400
O  -1.82800 28.98200 29.41100
C  -3.40600 27.13300 29.84300
C  -2.53800 26.49200 30.92800
O  -1.68400 25.64600 30.77100
O  -2.79800 27.18900 32.10200
C  -1.79600 26.91600 33.15800
H  -7.64500 21.65400 28.58700
H  -6.70800 22.65600 22.40600
H  -2.81400 27.43600 23.47700
H  -4.65200 24.53900 31.11500
H  -7.38700 23.55600 30.43400
H  -6.46400 21.52000 31.33900
H  -4.98900 22.39100 31.65900
H  -5.06900 21.51700 30.17600
H  -7.49600 25.42700 31.14500
H  -6.44600 26.74900 30.68000
H  -6.28700 27.19700 32.90900
H  -5.23000 25.73500 32.99800
H  -10.41900 21.14800 26.17400
H  -9.43300 21.10900 27.68300
H  -9.27900 19.87100 26.44100
H  -10.78900 20.37400 22.56300
H  -11.00600 21.28300 23.98200
H  -10.27000 19.62500 24.11800
H  -5.80500 24.68800 21.15500
H  -3.08200 25.41300 21.70000
H  -4.45700 22.40500 21.34700
H  -3.12500 23.49100 20.94700
H  -4.48200 23.41900 19.86100
H  -5.15300 27.71200 21.60400
H  -5.06100 26.59800 20.38900
H  -3.53900 27.97200 19.52200
H  -2.34000 27.23600 20.55600
H  -2.98700 28.82700 20.97800
H  -0.63400 29.18100 26.48600
H  -1.79000 29.80800 25.43100
H  -0.71200 28.44100 24.83000
H  -4.06300 27.80700 30.39200
H  -2.10900 26.08200 33.78500
H  -1.94900 27.77200 33.81600
H  -0.77400 26.78800 32.80100

