158

Mg 48.92000 34.77000 26.51100
C  46.99900 33.37900 29.14600
C  48.99700 37.74400 28.36600
C  50.28700 36.27300 23.84800
C  48.21300 31.89700 24.61400
N  48.30400 35.36800 28.57600
C  47.58100 34.64500 29.49600
C  47.55000 35.32200 30.87000
C  47.77500 36.82600 30.38600
C  48.39900 36.67400 28.99100
C  46.59900 37.82300 30.57500
C  48.65600 34.70000 31.85900
C  48.17300 34.58800 33.34700
H  46.95800 35.45800 33.74100
N  49.70900 36.69000 26.20400
C  49.65100 37.77500 27.11100
C  50.31100 38.90000 26.50600
C  50.73900 38.49100 25.20800
C  50.28600 37.05000 25.02900
C  50.35200 40.24700 27.19300
C  51.52700 39.23400 24.15100
O  51.97400 38.64500 23.19100
C  51.85700 40.71700 24.23000
N  49.27600 34.05800 24.54400
C  49.78200 34.96200 23.60400
C  49.94700 34.19000 22.30100
C  49.68500 32.69100 22.65000
C  49.01800 32.86400 24.00100
C  49.10000 34.58500 21.07000
C  50.99800 31.72200 22.65300
C  51.08700 30.62100 21.52400
N  47.71800 33.01700 26.66700
C  47.53000 31.94000 25.87800
C  46.72500 30.94500 26.53000
C  46.55600 31.44200 27.85000
C  47.09500 32.71800 27.86200
C  46.23200 29.60600 25.96000
C  45.77700 31.21100 29.15300
O  45.07300 30.27800 29.50100
C  46.04300 32.54000 29.97100
C  46.33700 32.14400 31.38200
O  47.43000 31.79400 31.84400
O  45.12500 32.09500 32.04000
C  45.29200 31.42000 33.35500
H  48.99400 38.64000 28.99000
H  50.64600 36.72100 22.91900
H  47.99500 31.02600 23.99300
H  46.51400 35.24500 31.20000
H  48.62100 37.22100 30.94900
H  45.78600 37.51000 31.23000
H  46.34600 38.05400 29.54000
H  46.87400 38.78000 31.01800
H  49.55700 35.31400 31.88400
H  48.99100 33.79600 31.35000
H  48.94200 34.81700 34.08500
H  47.92400 33.54100 33.52000
H  51.40700 40.43100 27.39100
H  49.88400 40.35000 28.17200
H  49.99300 41.04200 26.53900
H  52.20400 40.99100 25.22700
H  51.11600 41.32400 23.71100
H  52.72300 40.78800 23.57200
H  51.00100 34.33000 22.06100
H  49.06600 32.13500 21.94700
H  49.72700 35.14400 20.37500
H  48.31200 35.23400 21.45200
H  48.53800 33.78100 20.59500
H  51.04600 31.35100 23.67700
H  51.88600 32.33400 22.49900
H  51.94900 30.76000 20.87100
H  50.29900 30.61600 20.77200
H  51.22700 29.62200 21.93600
H  47.09900 28.94500 25.99900
H  45.81900 29.79500 24.97000
H  45.54600 29.09900 26.63900
H  45.14300 33.15500 29.99600
H  45.54300 30.37500 33.17100
H  44.30000 31.56000 33.78500
H  45.96900 32.01700 33.96600
Mg 9.04200 48.14300 26.00400
C  7.38200 48.33800 29.08300
C  11.84700 49.61100 27.43700
C  10.67000 47.95800 22.98500
C  6.04700 47.63000 24.41300
N  9.56400 48.87800 27.99500
C  8.76400 48.69900 29.15300
C  9.53200 49.02500 30.39400
C  10.85300 49.66700 29.83300
C  10.75700 49.43800 28.27800
C  10.92400 51.18200 30.30400
C  9.80700 47.82500 31.34200
C  9.19300 47.95000 32.79200
H  9.45700 46.79300 33.77500
N  11.01700 48.66200 25.35800
C  12.01900 49.22800 26.11300
C  13.28700 49.21200 25.36400
C  12.92500 48.66500 24.09000
C  11.50100 48.43500 24.01800
C  14.70900 49.49300 26.04400
C  13.87700 48.38700 22.92700
O  13.54100 47.91800 21.83300
C  15.25300 48.71100 23.11900
N  8.38000 48.04300 24.02400
C  9.28900 47.80600 22.96800
C  8.54700 47.52500 21.59800
C  7.05600 47.53400 22.06500
C  7.15200 47.70500 23.58800
C  8.92800 48.51200 20.46300
C  6.31600 46.25900 21.56600
C  6.29300 45.05000 22.48500
N  7.03700 48.02200 26.58100
C  5.91300 47.74500 25.85100
C  4.79100 47.67300 26.76300
C  5.30100 47.92800 28.02900
C  6.69100 48.10800 27.84000
C  3.48000 47.28700 26.23400
C  4.97600 48.20000 29.44600
O  3.88500 48.27200 29.94600
C  6.35400 48.21800 30.21100
C  6.45600 46.87100 30.87400
O  7.11600 45.90400 30.51200
O  5.78000 46.90600 32.12000
C  5.69100 45.60400 32.78100
H  12.69900 50.12500 27.88600
H  11.12400 47.71600 22.02100
H  5.07000 47.49600 23.94500
H  8.96800 49.76400 30.96300
H  11.74000 49.12900 30.16800
H  11.42400 51.27300 31.26800
H  9.93300 51.54500 30.57600
H  11.35100 51.77900 29.49700
H  10.86600 47.65800 31.54100
H  9.42600 46.89500 30.91800
H  8.12900 48.17000 32.88500
H  9.76300 48.83300 33.07900
H  14.49300 49.79100 27.07000
H  15.34400 50.21600 25.53200
H  15.23700 48.55500 26.21300
H  15.67600 48.16800 23.96400
H  15.28100 49.80100 23.13100
H  15.78200 48.25700 22.28100
H  8.83000 46.57400 21.14900
H  6.47700 48.30500 21.55700
H  9.52000 49.36500 20.79600
H  8.04100 48.83900 19.92100
H  9.60900 48.06200 19.74000
H  6.65700 45.93100 20.58400
H  5.27100 46.48500 21.35600
H  6.64600 44.17000 21.94800
H  5.35700 44.81000 22.99000
H  6.95900 45.28800 23.31500
H  3.24500 48.09700 25.54400
H  2.70000 47.23700 26.99300
H  3.44500 46.35800 25.66400
H  6.47900 49.04400 30.91200
H  4.99900 44.91900 32.29100
H  5.50800 45.82200 33.83300
H  6.71500 45.23000 32.77800

