158

Mg 55.01500 25.01300 45.59000
C  52.23000 26.81300 44.50400
C  53.99600 22.36400 43.71100
C  58.02800 23.50500 46.14200
C  56.27200 27.92700 46.99000
N  53.45300 24.73400 44.02900
C  52.34900 25.57500 43.74500
C  51.53500 24.87200 42.59800
C  51.84900 23.36600 42.75700
C  53.21600 23.46700 43.51300
C  50.87800 22.56200 43.66400
C  51.85900 25.45900 41.19800
C  50.68100 25.82100 40.33500
H  51.13200 26.28000 38.93400
N  55.86300 23.15400 45.00300
C  55.22700 22.18800 44.35100
C  56.05900 21.04600 44.17900
C  57.21900 21.26500 45.00300
C  57.07800 22.69500 45.43600
C  55.64300 19.69100 43.51400
C  58.21900 20.16500 45.35700
O  58.25200 19.01900 44.88200
C  59.21600 20.47100 46.39900
N  56.95800 25.62900 46.20000
C  57.98500 24.79600 46.48600
C  59.06200 25.49000 47.24700
C  58.64300 27.01600 47.22500
C  57.16300 26.82800 46.84300
C  59.29900 24.98400 48.71600
C  59.28800 28.00400 46.14500
C  59.62500 29.47800 46.56800
N  54.36500 26.97900 45.83400
C  54.94500 28.00700 46.52800
C  53.98500 29.08600 46.62600
C  52.88900 28.62300 45.87100
C  53.17700 27.36900 45.37400
C  54.14300 30.22000 47.53600
C  51.54000 28.94700 45.38600
O  50.89000 29.95200 45.54000
C  50.99600 27.75300 44.52600
C  50.39900 28.21500 43.25400
O  50.98900 28.57900 42.25500
O  49.01600 28.01200 43.37600
C  48.16500 28.45000 42.29400
H  53.55000 21.45700 43.29700
H  59.03100 23.12100 46.33800
H  56.78300 28.79200 47.41600
H  50.46900 25.02700 42.76200
H  51.97100 22.81900 41.82200
H  49.90900 22.96900 43.95100
H  51.33300 22.09900 44.54000
H  50.63300 21.66600 43.09300
H  52.49400 24.75000 40.66700
H  52.41900 26.39400 41.20100
H  50.19300 26.69400 40.76900
H  50.08500 24.90900 40.30000
H  54.71800 19.64100 42.94000
H  55.48800 19.03200 44.36900
H  56.57400 19.34000 43.06900
H  58.74900 20.90500 47.28300
H  59.86900 21.17600 45.88400
H  59.82200 19.62400 46.72100
H  59.97000 25.29600 46.67600
H  58.75500 27.47200 48.20900
H  60.16600 24.32600 48.65800
H  58.45300 24.34700 48.97200
H  59.50400 25.73300 49.48100
H  58.63400 28.07700 45.27600
H  60.22200 27.57900 45.77800
H  60.71100 29.53600 46.64500
H  59.26800 29.71300 47.57100
H  59.34300 30.08700 45.70900
H  54.50800 31.04500 46.92500
H  54.87000 30.06600 48.33400
H  53.17100 30.49500 47.94600
H  50.34800 27.05000 45.04900
H  47.14500 28.55400 42.66300
H  48.31400 27.76300 41.46100
H  48.38500 29.47400 41.99200
Mg 0.79100 42.79400 26.79000
C  2.90600 42.69400 29.61600
C  -1.83200 42.12900 29.09700
C  -1.24700 42.45100 24.21100
C  3.47900 43.37400 24.84000
N  0.62200 42.50700 29.07100
C  1.60800 42.66500 30.05300
C  1.09500 42.60900 31.48100
C  -0.39200 42.22600 31.22300
C  -0.55400 42.27200 29.64600
C  -0.95500 40.90300 31.82300
C  1.41200 43.88900 32.20300
C  1.36400 43.77200 33.74400
H  1.03800 42.49600 34.53000
N  -1.23400 42.19000 26.62000
C  -2.14800 42.13700 27.66800
C  -3.45100 41.86400 27.13700
C  -3.33400 41.90900 25.66100
C  -1.91800 42.18600 25.43500
C  -4.75300 41.72400 27.96000
C  -4.37800 41.64600 24.56100
O  -4.10000 41.44400 23.34400
C  -5.89600 41.39800 24.94600
N  1.07500 42.82900 24.76600
C  0.03700 42.79800 23.85800
C  0.58200 42.88200 22.38200
C  2.14100 43.21300 22.61800
C  2.25300 43.12500 24.14000
C  0.26100 41.61300 21.53900
C  2.70600 44.51200 21.94700
C  2.37800 45.91200 22.64900
N  2.74800 43.05000 27.10400
C  3.74500 43.25900 26.21900
C  5.05000 43.30200 26.87400
C  4.77100 42.97900 28.19000
C  3.36700 42.83600 28.27100
C  6.32500 43.67600 26.23200
C  5.39800 42.82300 29.49100
O  6.58200 42.87200 29.80100
C  4.15900 42.67600 30.52800
C  4.24300 41.46600 31.40600
O  4.12600 40.32000 31.01200
O  4.57400 41.83900 32.68400
C  4.79700 40.68500 33.52700
H  -2.65300 42.05500 29.81400
H  -1.96400 42.62900 23.40600
H  4.33800 43.67200 24.23600
H  1.44300 41.70600 31.98300
H  -0.96000 43.09100 31.56700
H  -1.30100 40.29700 30.98600
H  -1.82700 41.20700 32.40300
H  -0.22600 40.33500 32.40100
H  0.58700 44.56200 31.97200
H  2.36400 44.29000 31.85600
H  0.91600 44.67000 34.17000
H  2.39600 44.07100 33.93200
H  -5.43400 40.97100 27.56300
H  -5.14400 42.73900 28.04000
H  -4.46700 41.40700 28.96300
H  -5.96900 40.39400 25.36500
H  -6.42300 41.41700 23.99300
H  -6.42500 42.17000 25.50500
H  0.11500 43.70800 21.84600
H  2.60000 42.34600 22.14200
H  -0.14400 40.79700 22.13700
H  1.22700 41.37300 21.09300
H  -0.61300 41.79500 20.91500
H  2.32200 44.56800 20.92800
H  3.75500 44.21600 21.97200
H  3.37300 46.24700 22.94100
H  1.81300 45.73600 23.56400
H  1.81800 46.58200 21.99600
H  6.24400 44.55900 25.59900
H  6.73800 42.84300 25.66400
H  6.89900 43.95300 27.11700
H  4.08800 43.50700 31.23000
H  5.81200 40.32300 33.36300
H  4.07500 39.87200 33.44700
H  4.89200 41.02800 34.55800

