158

Mg 0.51000 -1.62700 43.16200
C  3.75600 -0.97000 42.22500
C  -0.42900 1.27400 41.45700
C  -2.74700 -2.54900 43.31900
C  1.51400 -4.74800 44.36700
N  1.54600 -0.00500 41.94600
C  2.92600 0.00800 41.75600
C  3.30900 1.20900 40.93600
C  2.01900 2.01200 40.87100
C  0.95500 1.09600 41.52600
C  2.14100 3.44100 41.44100
C  3.91600 0.75500 39.56100
C  5.17700 1.42400 39.11800
H  5.70400 1.21300 37.69700
N  -1.32800 -0.73900 42.55000
C  -1.50600 0.44100 41.86600
C  -2.91500 0.74100 41.74900
C  -3.62600 -0.30600 42.35600
C  -2.57400 -1.32900 42.69300
C  -3.38800 2.10000 41.23400
C  -5.17200 -0.33300 42.55800
O  -5.87900 0.58800 42.21300
C  -5.87400 -1.43800 43.23800
N  -0.40300 -3.39000 43.51600
C  -1.72700 -3.52900 43.65900
C  -2.19900 -4.88200 44.05200
C  -0.87600 -5.59200 44.40600
C  0.17900 -4.50300 44.10100
C  -3.29700 -5.05900 45.22900
C  -0.66900 -6.94900 43.72800
C  0.04000 -8.06300 44.60100
N  2.31600 -2.58500 43.43700
C  2.59000 -3.88600 43.97600
C  4.06200 -4.11300 43.90000
C  4.57600 -2.96300 43.22500
C  3.41200 -2.10800 42.94700
C  4.86600 -5.30400 44.28800
C  5.71700 -2.34600 42.76300
O  6.91300 -2.67000 42.81500
C  5.26400 -1.05400 42.08700
C  6.15100 -0.02400 42.67400
O  7.24300 0.29200 42.25900
O  5.52200 0.60600 43.71600
C  6.25300 1.57000 44.48400
H  -0.67800 2.19400 40.92600
H  -3.75600 -2.89400 43.55000
H  1.78700 -5.75600 44.68500
H  4.10400 1.73400 41.46600
H  1.81500 2.24000 39.82500
H  1.45200 3.36300 42.28100
H  1.67800 4.15700 40.76100
H  3.16400 3.68500 41.72600
H  3.20700 1.08300 38.80000
H  3.83700 -0.32500 39.43800
H  5.91900 1.21300 39.88800
H  4.95800 2.48300 39.25400
H  -4.46500 2.20500 41.10800
H  -2.94300 2.39200 40.28200
H  -3.15800 2.82000 42.02000
H  -6.92600 -1.24500 43.44400
H  -5.38000 -1.60000 44.19700
H  -5.91400 -2.40500 42.73700
H  -2.63700 -5.46500 43.24200
H  -0.85400 -5.74200 45.48500
H  -4.12500 -5.70200 44.93000
H  -3.49900 -4.04600 45.57600
H  -2.95500 -5.58000 46.12400
H  -0.18400 -6.79600 42.76400
H  -1.65800 -7.40000 43.64200
H  0.96200 -8.41400 44.13800
H  -0.61100 -8.85700 44.96700
H  0.45800 -7.54800 45.46500
H  5.05300 -5.95000 43.42900
H  4.18600 -5.88000 44.91600
H  5.73000 -5.01400 44.88600
H  5.61500 -1.20000 41.06500
H  6.86100 1.13400 45.27700
H  5.48200 2.18000 44.95600
H  6.69900 2.40000 43.93600
Mg 35.77100 2.07200 29.95000
C  33.46200 2.92100 32.39600
C  38.32500 2.33100 32.26800
C  37.96700 1.51400 27.57400
C  33.15600 2.27400 27.50200
N  35.81800 2.60100 31.98400
C  34.79800 2.78700 32.86200
C  35.28000 2.98300 34.36700
C  36.86200 3.19800 34.17200
C  36.98500 2.65300 32.71300
C  37.40600 4.60600 34.23500
C  34.91000 1.74100 35.23700
C  34.37800 2.12000 36.63400
H  34.93200 3.30900 37.51400
N  37.83100 1.87500 29.95600
C  38.68000 2.00800 30.98300
C  40.02900 1.54100 30.52700
C  39.93500 1.36500 29.09600
C  38.53800 1.62600 28.81300
C  41.17000 1.33700 31.54000
C  40.99400 1.03500 28.04900
O  40.73400 0.81600 26.88900
C  42.45400 1.03600 28.48400
N  35.56600 1.86800 27.90400
C  36.65900 1.68600 27.14600
C  36.33400 1.71600 25.63000
C  34.82000 1.74400 25.63600
C  34.42200 1.93400 27.14700
C  36.97900 2.86300 24.83000
C  34.11900 0.59800 24.89000
C  33.39200 -0.54000 25.76300
N  33.73400 2.46100 29.91700
C  32.82500 2.52000 28.84400
C  31.54900 2.93700 29.34800
C  31.74200 2.96300 30.75500
C  33.10600 2.79300 31.04400
C  30.28400 3.04800 28.61500
C  31.07000 3.31800 31.95300
O  29.86700 3.44900 32.23700
C  32.16600 3.30500 33.10200
C  32.11000 4.60800 33.76800
O  32.66400 5.64900 33.43700
O  31.40500 4.45300 34.90600
C  31.38400 5.56700 35.87300
H  39.04300 2.52800 33.06600
H  38.56200 1.47700 26.65900
H  32.35300 2.41200 26.77500
H  34.79400 3.90200 34.69600
H  37.40800 2.55600 34.86400
H  38.08000 4.83600 33.41000
H  38.05600 4.69900 35.10400
H  36.65900 5.39800 34.29400
H  35.76400 1.07100 35.33100
H  34.12400 1.28600 34.63300
H  34.50800 1.22600 37.24300
H  33.31000 2.33900 36.61400
H  41.92200 2.09300 31.31200
H  41.52000 0.33900 31.27900
H  40.99200 1.35100 32.61600
H  43.12800 0.98900 27.62800
H  42.51700 0.23700 29.22200
H  42.67900 1.97300 28.99300
H  36.77200 0.79300 25.25000
H  34.53200 2.71300 25.22800
H  36.92800 3.87300 25.23600
H  36.57600 3.05900 23.83600
H  38.06100 2.74000 24.86500
H  34.86500 -0.02400 24.39700
H  33.49600 1.00800 24.09500
H  32.42800 -0.87300 25.37800
H  33.14300 -0.26800 26.78800
H  34.01000 -1.42800 25.89600
H  30.23900 3.81100 27.83900
H  29.40100 3.22200 29.22900
H  29.94200 2.17400 28.06000
H  31.77800 2.56800 33.80500
H  30.81600 6.36400 35.39400
H  32.42600 5.81600 36.07500
H  30.84200 5.29900 36.78000

