158

Mg -2.19100 17.42800 26.10100
C  -2.54500 15.48900 28.92900
C  -3.26100 20.13100 27.94000
C  -2.36900 19.24400 23.24400
C  -1.90500 14.49600 24.19800
N  -2.72800 17.77100 28.24300
C  -2.83200 16.79700 29.20700
C  -3.22100 17.34400 30.59000
C  -3.72600 18.80200 30.13000
C  -3.27800 18.94500 28.67000
C  -5.29100 18.99100 30.28800
C  -2.02300 17.53600 31.59200
C  -2.47000 18.22600 32.88100
H  -2.40200 17.30300 34.20700
N  -2.42500 19.49800 25.68500
C  -2.76900 20.44700 26.58700
C  -2.53700 21.69800 25.89400
C  -2.39200 21.45600 24.52400
C  -2.48500 19.99600 24.45600
C  -2.77700 23.05400 26.54700
C  -2.09500 22.39700 23.32300
O  -2.09000 22.09300 22.13900
C  -1.70100 23.82100 23.62200
N  -2.10200 16.92100 23.98000
C  -2.21200 17.86800 22.98800
C  -2.23100 17.25700 21.58800
C  -2.06600 15.68400 21.97200
C  -1.97000 15.69000 23.45400
C  -3.42200 17.59100 20.63500
C  -0.90100 15.02400 21.27900
C  0.40600 14.96700 21.91800
N  -2.31800 15.47600 26.47000
C  -2.02700 14.40600 25.56800
C  -2.10800 13.19300 26.31900
C  -2.27100 13.51700 27.68200
C  -2.37600 14.93200 27.68200
C  -1.92400 11.74900 25.81900
C  -2.38900 12.99500 29.01300
O  -2.37500 11.87700 29.46500
C  -2.49300 14.25600 29.91600
C  -1.24100 14.21400 30.70000
O  -0.19900 14.62800 30.19000
O  -1.45000 13.86800 32.02000
C  -0.29400 13.98100 32.92100
H  -3.35900 21.01700 28.57100
H  -2.19500 19.82000 22.33300
H  -1.83500 13.56000 23.64000
H  -3.97800 16.66900 30.99000
H  -3.41100 19.70400 30.65600
H  -5.73600 19.36700 29.36700
H  -5.49200 19.60000 31.17000
H  -5.93600 18.12300 30.43100
H  -1.34800 18.18100 31.03000
H  -1.38200 16.67900 31.80100
H  -3.51500 18.53300 32.84100
H  -2.00700 19.21100 32.92600
H  -3.16700 23.05000 27.56500
H  -3.53500 23.60200 25.98800
H  -1.82900 23.59300 26.53300
H  -1.02500 23.83800 24.47700
H  -2.67900 24.25800 23.82200
H  -1.17600 24.26300 22.77500
H  -1.27700 17.58500 21.17500
H  -2.98700 15.16100 21.71400
H  -3.92100 18.44600 21.09200
H  -4.13700 16.77100 20.70300
H  -3.13000 17.73700 19.59500
H  -0.64000 15.49200 20.32900
H  -1.11900 13.96900 21.11100
H  0.57000 13.96500 22.31500
H  0.44000 15.71900 22.70600
H  1.24000 15.20500 21.25800
H  -2.88300 11.23600 25.89800
H  -1.20500 11.27200 26.48500
H  -1.58900 11.60300 24.79200
H  -3.32100 14.31600 30.62200
H  0.24200 14.89900 32.67600
H  0.31500 13.07900 32.86600
H  -0.63300 14.01100 33.95600
Mg 8.86100 3.81000 28.48000
C  10.30900 2.10700 31.24600
C  7.37600 5.88000 30.44800
C  7.55900 5.18600 25.63000
C  9.92300 0.88300 26.48300
N  8.92000 3.96000 30.64200
C  9.57800 3.26200 31.57800
C  9.22500 3.84700 32.96400
C  8.30700 5.09000 32.59700
C  8.22500 4.97600 31.10000
C  6.93700 5.09000 33.34900
C  10.47900 4.16500 33.84800
C  10.37800 5.42000 34.89700
H  10.94500 5.21100 36.26300
N  7.67900 5.38500 28.08200
C  7.05900 6.09900 29.10700
C  6.42500 7.18800 28.47600
C  6.41100 6.99200 27.06100
C  7.27900 5.83300 26.86600
C  5.81700 8.38200 29.27800
C  5.66500 7.76100 25.96900
O  5.75600 7.51900 24.75100
C  4.77200 8.87500 26.29200
N  8.77700 3.07900 26.35300
C  8.22200 3.86000 25.40300
C  8.05500 3.05700 24.10700
C  9.00000 1.78800 24.37600
C  9.26400 1.92500 25.86300
C  6.65200 2.61300 23.61700
C  10.30100 1.67600 23.44700
C  10.61200 0.37200 22.66800
N  9.98200 2.00200 28.72200
C  10.36500 0.95900 27.85900
C  11.16800 0.00400 28.52800
C  11.31000 0.45300 29.81700
C  10.53900 1.66100 29.92300
C  11.83600 -1.21500 27.90300
C  11.86100 0.20200 31.16000
O  12.66500 -0.61500 31.61400
C  11.14000 1.20800 32.11900
C  10.27700 0.32400 32.96500
O  9.38100 -0.37400 32.53200
O  10.53900 0.40000 34.27900
C  9.61500 -0.22700 35.21400
H  6.93300 6.62800 31.10900
H  7.23200 5.67200 24.70800
H  10.07900 -0.01700 25.88500
H  8.62200 3.04700 33.39300
H  8.81700 6.03700 32.77100
H  6.02900 4.94300 32.76400
H  6.73700 6.03300 33.85700
H  6.87700 4.40100 34.19100
H  11.38200 4.36900 33.27100
H  10.76000 3.25900 34.38500
H  9.32400 5.69400 34.93000
H  10.97900 6.23200 34.48800
H  4.75400 8.18900 29.42400
H  5.95500 9.34600 28.78800
H  6.03400 8.47700 30.34200
H  4.33500 8.86700 27.29000
H  3.98800 8.75800 25.54300
H  5.33600 9.79200 26.12300
H  8.54200 3.62700 23.31600
H  8.43000 0.86800 24.24900
H  6.00700 3.32600 24.13100
H  6.38000 1.64600 24.04000
H  6.81400 2.85100 22.56600
H  11.20200 1.88000 24.02600
H  10.40000 2.46000 22.69500
H  9.91800 -0.36400 23.07400
H  11.61400 0.06100 22.96400
H  10.51300 0.58000 21.60300
H  11.23900 -1.59200 27.07200
H  11.89500 -1.94700 28.70900
H  12.84700 -0.90100 27.64400
H  11.80900 1.84500 32.69700
H  9.55400 0.29500 36.16900
H  9.91700 -1.22200 35.54000
H  8.56900 -0.22700 34.91000

