158

Mg 36.61800 1.18600 29.77100
C  34.17800 2.26200 32.12900
C  38.96600 1.50000 32.23700
C  38.82500 0.74300 27.32400
C  34.05400 1.15700 27.35600
N  36.47900 1.79200 31.97300
C  35.42500 2.19400 32.71400
C  35.79600 2.29200 34.16400
C  37.39600 2.40000 34.13800
C  37.64600 1.86200 32.69700
C  38.05700 3.84100 34.39200
C  35.21000 1.13100 35.00200
C  34.76200 1.54300 36.38300
H  35.18900 2.89900 36.95100
N  38.63200 1.25200 29.80500
C  39.42200 1.29700 30.89700
C  40.81600 0.97300 30.43800
C  40.80400 0.80000 28.97700
C  39.37500 0.95500 28.66800
C  41.98100 0.81000 31.46100
C  41.91000 0.50800 28.06200
O  41.78800 0.35100 26.86100
C  43.33500 0.32300 28.66500
N  36.51500 0.88200 27.68300
C  37.53600 0.76100 26.84800
C  37.14900 0.60000 25.37200
C  35.63300 0.63000 25.48200
C  35.37500 0.85300 26.96000
C  37.63900 1.69400 24.44600
C  34.86800 -0.66700 25.00000
C  34.34800 -0.64800 23.52900
N  34.52100 1.46600 29.77400
C  33.64100 1.46400 28.70100
C  32.28300 1.85900 29.13700
C  32.50900 2.14600 30.47700
C  33.88900 1.93200 30.80400
C  31.04600 2.06100 28.31400
C  31.90400 2.76300 31.65600
O  30.78500 3.25200 31.78400
C  32.91200 2.70900 32.81500
C  32.92900 4.04800 33.46900
O  33.60800 4.99200 33.08000
O  32.08500 4.00700 34.55600
C  31.91400 5.29100 35.23500
H  39.67200 1.42200 33.06600
H  39.57900 0.59100 26.54900
H  33.24400 1.31300 26.64100
H  35.37400 3.28000 34.34600
H  37.87000 1.76200 34.88500
H  38.83300 3.70500 35.14500
H  37.36700 4.62800 34.69700
H  38.51000 4.16700 33.45600
H  35.95700 0.34600 35.11800
H  34.43600 0.65400 34.40000
H  35.03100 0.83200 37.16500
H  33.69900 1.73600 36.24500
H  42.42400 -0.17200 31.29700
H  41.73800 1.02500 32.50100
H  42.57300 1.66500 31.13200
H  43.60900 1.13000 29.34500
H  43.98100 0.49400 27.80500
H  43.47100 -0.66400 29.10800
H  37.61200 -0.33500 25.05500
H  35.27600 1.51100 24.94800
H  38.46600 1.45000 23.78000
H  37.85600 2.67400 24.87100
H  36.92300 1.90100 23.65100
H  34.02500 -0.94500 25.63300
H  35.64100 -1.42500 25.12700
H  33.28900 -0.39200 23.54800
H  34.47600 -1.58100 22.98000
H  34.95200 0.08300 22.99200
H  30.15900 1.58300 28.73000
H  31.16600 1.77500 27.26900
H  30.95200 3.14600 28.30300
H  32.50300 1.96900 33.50300
H  31.39300 5.92100 34.51400
H  32.82900 5.82000 35.50200
H  31.33800 5.10900 36.14300
Mg 48.28100 44.83100 43.49000
C  44.82600 45.30200 42.36000
C  48.10600 41.69900 41.90300
C  51.64800 44.66800 43.60000
C  48.28700 48.24800 44.36400
N  46.54900 43.63000 42.19600
C  45.25700 44.02400 41.94300
C  44.60200 42.89400 41.13600
C  45.53300 41.65300 41.45200
C  46.80200 42.32500 41.94700
C  45.00500 40.46400 42.37900
C  44.31900 43.31300 39.63500
C  43.58400 42.34300 38.74400
H  44.28700 41.66300 37.57600
N  49.76800 43.35700 42.89600
C  49.44600 42.17700 42.22600
C  50.67200 41.46800 42.08200
C  51.70800 42.27000 42.56700
C  51.07700 43.47000 43.04500
C  50.70100 39.96400 41.44400
C  53.19300 41.97400 42.63100
O  53.57500 40.98200 42.14000
C  54.13500 42.89900 43.17800
N  49.80400 46.32600 43.81300
C  51.10800 45.97000 43.91400
C  51.93400 47.16000 44.41600
C  50.84900 48.24100 44.90300
C  49.53300 47.61900 44.25200
C  52.91300 46.79400 45.53800
C  51.19600 49.65100 44.50700
C  51.48200 50.71900 45.54500
N  46.85000 46.41000 43.49400
C  46.99400 47.67300 43.97800
C  45.73000 48.45900 43.82500
C  44.85300 47.57400 43.22600
C  45.59500 46.33200 43.02200
C  45.47700 49.91500 44.32400
C  43.49900 47.34700 42.74400
O  42.47900 48.07800 42.69700
C  43.44300 45.90300 42.06500
C  42.17900 45.13300 42.43200
O  41.20200 44.91100 41.70100
O  42.24900 44.93400 43.78600
C  41.06300 44.48200 44.51100
H  48.06900 40.63600 41.65400
H  52.72300 44.62600 43.78500
H  48.28400 49.27000 44.74800
H  43.66000 42.62600 41.61500
H  45.87000 41.28200 40.48400
H  43.95400 40.52000 42.66400
H  45.66600 40.38700 43.24200
H  45.25700 39.49700 41.94300
H  45.29500 43.58500 39.23600
H  43.76600 44.25100 39.68100
H  42.70600 42.80900 38.29500
H  43.12000 41.60300 39.39500
H  49.86400 39.65400 40.81900
H  50.91600 39.19200 42.18300
H  51.51900 39.75900 40.75300
H  55.13600 42.48100 43.06400
H  53.89300 42.95900 44.23900
H  54.19200 43.83000 42.61400
H  52.42800 47.59700 43.54800
H  50.68100 48.09600 45.97000
H  53.90500 46.48400 45.20900
H  52.51100 45.95600 46.10700
H  53.10300 47.56500 46.28500
H  50.35300 50.01000 43.91500
H  52.12300 49.64200 43.93400
H  51.45400 50.27500 46.54000
H  50.67900 51.45200 45.46900
H  52.44500 51.14600 45.26200
H  46.21500 50.27400 45.04200
H  44.47300 49.84600 44.74300
H  45.30800 50.57900 43.47600
H  43.30300 46.21200 41.03000
H  40.37100 45.28400 44.76800
H  41.36300 43.91600 45.39300
H  40.48700 43.77700 43.91200

