158

Mg 40.80700 9.54600 29.83100
C  42.37500 10.19100 32.95000
C  38.23800 7.81700 31.76100
C  39.38900 8.62800 27.06700
C  43.48200 10.92600 28.19200
N  40.37900 9.18800 32.09400
C  41.09500 9.69000 33.13300
C  40.35400 9.60700 34.46600
C  39.23700 8.55800 34.07300
C  39.25400 8.49700 32.49700
C  39.52300 7.17600 34.57000
C  39.80400 10.99000 34.89700
C  39.48700 11.00400 36.35300
H  40.43500 11.77800 37.26600
N  38.98200 8.47600 29.43900
C  38.09500 7.81200 30.30500
C  36.97400 7.35700 29.57100
C  37.15000 7.67300 28.17600
C  38.57000 8.27000 28.14600
C  35.79000 6.58000 30.16000
C  36.24200 7.43500 26.87500
O  36.64800 7.74000 25.76700
C  34.83000 6.85400 27.03700
N  41.31700 9.74300 27.99500
C  40.58900 9.27500 26.96300
C  41.30000 9.25400 25.60100
C  42.48900 10.21000 25.93200
C  42.46900 10.35200 27.48700
C  41.78900 7.85100 25.11500
C  42.37200 11.62600 25.26800
C  40.96800 12.30500 25.27700
N  42.69000 10.28700 30.42600
C  43.69000 10.79900 29.59600
C  44.73900 11.38700 30.41800
C  44.20000 11.20600 31.79500
C  42.94800 10.55500 31.72400
C  45.97300 12.18800 30.05000
C  44.46600 11.57800 33.14300
O  45.39700 12.22400 33.59400
C  43.35000 10.91200 33.99600
C  44.09800 9.91500 34.84500
O  44.39300 8.81500 34.54100
O  44.52100 10.50500 36.03200
C  45.10300 9.58400 37.02300
H  37.45200 7.31000 32.32500
H  38.95700 8.25800 26.13500
H  44.38000 11.32900 27.72000
H  41.06200 9.24500 35.21300
H  38.22800 8.86900 34.34400
H  40.26100 6.72400 33.90800
H  38.60400 6.58900 34.56600
H  39.89800 7.30100 35.58600
H  38.92000 11.22300 34.30300
H  40.58100 11.73700 34.73000
H  39.44200 9.99500 36.76300
H  38.48400 11.38000 36.55600
H  36.03800 5.55400 29.88800
H  34.83000 6.90100 29.75600
H  35.72800 6.70100 31.24100
H  34.21400 6.90100 26.13900
H  34.39800 7.46100 27.83300
H  35.02700 5.83200 27.36200
H  40.68300 9.72400 24.83600
H  43.39100 9.65900 25.66600
H  42.82300 7.61800 25.37100
H  41.59600 7.78400 24.04400
H  41.11100 7.10300 25.52500
H  42.78700 11.66400 24.26100
H  43.07100 12.27400 25.79500
H  40.54100 12.29000 24.27400
H  41.16400 13.34900 25.52200
H  40.23100 11.98600 26.01400
H  46.67700 11.57800 29.48400
H  46.36900 12.36000 31.05100
H  45.60600 13.03400 29.47000
H  42.88500 11.70300 34.58500
H  44.66100 8.58800 36.99000
H  44.94600 10.03700 38.00200
H  46.18000 9.43000 36.96300
Mg 1.12700 41.92800 24.61300
C  3.02600 41.91000 27.70100
C  -1.56800 41.02500 26.33100
C  -0.28600 41.64500 21.70700
C  4.33200 42.17100 22.99900
N  0.84600 41.43900 26.78000
C  1.63500 41.66800 27.83200
C  0.83600 41.48200 29.13700
C  -0.59600 40.94600 28.68700
C  -0.47400 41.16200 27.15900
C  -0.96100 39.48600 29.10200
C  0.78600 42.84400 29.95400
C  1.29000 42.78100 31.46800
H  0.23800 42.39100 32.59900
N  -0.70600 41.55500 24.06900
C  -1.72100 41.25400 24.96000
C  -2.96900 41.10800 24.10500
C  -2.58700 41.22500 22.76000
C  -1.12800 41.42600 22.80400
C  -4.35100 40.91400 24.70700
C  -3.47300 41.22500 21.50100
O  -2.98200 41.37900 20.42300
C  -5.02800 40.94600 21.62100
N  1.95400 41.83100 22.69800
C  1.07400 41.94700 21.68000
C  1.81400 42.12300 20.31800
C  3.18100 42.53100 20.78300
C  3.14300 42.20500 22.25700
C  1.95300 40.85100 19.36400
C  3.66500 43.96100 20.47400
C  5.14200 44.26000 19.93600
N  3.25500 41.97100 25.20300
C  4.37000 42.05000 24.40300
C  5.55900 42.25100 25.23400
C  5.11500 42.23600 26.53100
C  3.68500 42.02500 26.44800
C  6.96800 42.40200 24.75200
C  5.37200 42.27400 28.04000
O  6.45800 42.45100 28.63000
C  4.04000 42.02000 28.77000
C  4.24300 40.77800 29.60600
O  4.02100 39.61900 29.28300
O  4.78000 41.21200 30.73800
C  5.02700 40.06500 31.63800
H  -2.53100 40.95200 26.84100
H  -0.83800 41.98400 20.82800
H  5.25400 42.54400 22.54600
H  1.35000 40.74700 29.75600
H  -1.42900 41.52700 29.08300
H  -0.23500 39.20900 29.86600
H  -0.72200 38.95100 28.18300
H  -1.98800 39.33400 29.43500
H  -0.28200 43.06200 29.96600
H  1.32600 43.68600 29.52000
H  1.59300 43.78500 31.76500
H  2.14300 42.10500 31.51700
H  -4.14100 40.97800 25.77500
H  -4.70000 39.89100 24.56400
H  -5.04400 41.64500 24.29000
H  -5.32500 40.14900 22.30300
H  -5.31000 40.79900 20.57800
H  -5.39400 41.92300 21.93600
H  1.35800 42.92400 19.73600
H  3.93000 41.93800 20.25900
H  1.21700 40.11000 19.67800
H  2.93500 40.38000 19.41700
H  1.67700 41.28200 18.40200
H  3.69500 44.49400 21.42400
H  2.90000 44.50700 19.92200
H  5.68400 44.42800 20.86700
H  5.24000 45.09600 19.24300
H  5.46900 43.31700 19.50000
H  7.13400 42.00300 23.75200
H  7.55800 41.86100 25.49200
H  7.34500 43.42300 24.82600
H  3.96500 42.96300 29.31100
H  5.56800 40.49200 32.48300
H  5.76400 39.37000 31.23500
H  4.14200 39.49200 31.91300

