158

Mg -0.00400 7.73800 26.54500
C  1.00900 9.86500 28.98200
C  -0.27300 5.17100 28.78300
C  -0.91500 5.63200 24.01800
C  0.68100 10.32900 24.19500
N  0.47900 7.57600 28.69900
C  0.66300 8.60000 29.52800
C  0.59700 8.13200 30.96400
C  0.58100 6.54600 30.88500
C  0.31100 6.38400 29.35400
C  1.84500 5.73700 31.37700
C  -0.65800 8.76500 31.61400
C  -0.73400 8.80900 33.17100
H  0.53000 8.52800 34.03700
N  -0.63400 5.71400 26.43400
C  -0.74000 4.83700 27.46300
C  -1.37300 3.58200 27.02800
C  -1.59300 3.80100 25.66200
C  -1.02900 5.09200 25.28600
C  -1.55400 2.31300 27.88800
C  -2.24000 2.75600 24.62800
O  -2.28400 2.90100 23.37400
C  -2.87600 1.46100 25.14500
N  -0.05400 7.87000 24.38600
C  -0.44900 6.87400 23.54400
C  -0.35100 7.28400 22.06800
C  0.27900 8.70600 22.11500
C  0.33800 9.01400 23.61000
C  0.29600 6.33600 21.04400
C  -0.47400 9.79100 21.41100
C  -1.87600 10.06700 21.95700
N  0.92800 9.64600 26.51300
C  0.95600 10.61400 25.52800
C  1.36900 11.90300 26.05900
C  1.47800 11.64000 27.45700
C  1.20500 10.26500 27.60900
C  1.84900 13.19500 25.38700
C  1.77400 12.25500 28.77100
O  2.13200 13.41000 29.17100
C  1.46500 11.09600 29.74300
C  2.63000 10.82900 30.53300
O  3.59800 10.12100 30.27400
O  2.48200 11.63600 31.61100
C  3.46900 11.34700 32.63200
H  -0.45900 4.35900 29.48900
H  -1.35700 5.05700 23.20100
H  0.64600 11.22300 23.56900
H  1.41500 8.54500 31.55400
H  -0.37700 6.23300 31.30200
H  1.49600 4.87900 31.95200
H  2.46400 6.43900 31.93700
H  2.32900 5.30600 30.50100
H  -1.50700 8.23900 31.17700
H  -0.80400 9.74600 31.16400
H  -1.51500 8.12000 33.49100
H  -1.04800 9.83000 33.38900
H  -1.00200 2.48700 28.81200
H  -1.08700 1.47900 27.36500
H  -2.58600 2.06400 28.13500
H  -3.22000 0.93600 24.25400
H  -3.78000 1.82600 25.63200
H  -2.18000 0.78300 25.63900
H  -1.36400 7.35900 21.67200
H  1.32300 8.85400 21.83900
H  0.79300 6.96700 20.30800
H  -0.50900 5.79000 20.55200
H  0.95200 5.62300 21.54300
H  -0.78500 9.44700 20.42500
H  0.06300 10.73900 21.37400
H  -2.59700 10.08000 21.14000
H  -1.85700 11.13000 22.19700
H  -2.21100 9.39900 22.75100
H  0.99800 13.62800 24.86200
H  2.52900 12.86100 24.60400
H  2.37800 13.83200 26.09700
H  0.60600 11.35500 30.36100
H  4.47600 11.46100 32.23100
H  3.46600 10.34200 33.05400
H  3.35500 12.01400 33.48700
Mg 24.12900 -6.35100 46.16600
C  26.66300 -4.29900 44.51600
C  21.99200 -5.14800 43.85400
C  22.47300 -8.97700 46.59200
C  26.90200 -7.70300 48.01600
N  24.36900 -4.86900 44.33500
C  25.44600 -4.18300 43.90800
C  25.04200 -3.13000 42.96000
C  23.46900 -3.27600 42.79300
C  23.22400 -4.42600 43.79100
C  22.64400 -1.98100 43.12600
C  25.85100 -3.14600 41.58600
C  26.11600 -1.77500 41.00000
H  25.53700 -1.56300 39.68200
N  22.32100 -6.88800 45.47100
C  21.60100 -6.28200 44.53100
C  20.28700 -6.87500 44.37200
C  20.39800 -8.08300 45.24000
C  21.76500 -8.03600 45.81000
C  19.19400 -6.30500 43.45100
C  19.23500 -9.08800 45.37400
O  18.21300 -8.88500 44.76500
C  19.34900 -10.18600 46.41000
N  24.63700 -8.04900 47.20600
C  23.71700 -9.00500 47.20900
C  24.29000 -10.27400 48.06000
C  25.68500 -9.83600 48.60400
C  25.73300 -8.46400 47.98000
C  23.26600 -10.89900 49.13200
C  26.86200 -10.80600 48.22000
C  27.71700 -11.21900 49.39900
N  26.26500 -5.92500 46.44800
C  27.21600 -6.57300 47.25400
C  28.54500 -5.96400 47.15000
C  28.33900 -5.09800 46.07400
C  26.94800 -5.05900 45.70100
C  29.86100 -6.26300 47.95500
C  28.98600 -4.14600 45.25300
O  30.16800 -3.91800 45.21200
C  27.96600 -3.54600 44.29100
C  27.76100 -2.12100 44.57000
O  27.19400 -1.74400 45.55700
O  28.10300 -1.30900 43.53800
C  27.74800 0.06400 43.54500
H  21.28200 -4.72200 43.14300
H  21.98500 -9.95200 46.64500
H  27.71700 -8.20500 48.54200
H  25.30500 -2.19100 43.44600
H  23.25700 -3.78100 41.85000
H  22.40700 -1.47800 42.18800
H  23.21300 -1.32500 43.78600
H  21.74400 -2.39900 43.57600
H  25.37000 -3.78400 40.84500
H  26.84800 -3.58500 41.63800
H  27.19800 -1.65900 40.94300
H  25.68700 -0.93700 41.55000
H  18.43400 -7.05200 43.22500
H  19.71600 -6.09600 42.51700
H  18.70900 -5.39900 43.81400
H  18.38700 -10.45800 46.84600
H  19.93800 -9.78800 47.23700
H  19.87200 -10.98000 45.87800
H  24.53900 -10.91600 47.21600
H  25.65700 -9.77800 49.69200
H  23.32000 -11.98100 49.00800
H  22.29600 -10.40900 49.03700
H  23.65700 -10.70300 50.13000
H  27.60400 -10.30500 47.59800
H  26.38400 -11.70800 47.83600
H  28.75500 -11.06800 49.10200
H  27.56200 -12.25900 49.68500
H  27.45200 -10.63200 50.27700
H  30.35600 -7.21400 47.75500
H  29.56200 -6.32700 49.00100
H  30.37800 -5.30900 47.85400
H  28.36800 -3.56600 43.27800
H  27.24100 0.37600 44.45800
H  27.11500 0.19000 42.66600
H  28.64600 0.67600 43.45600

