158

Mg 0.68200 -0.57500 44.02100
C  4.12100 -0.44500 43.24300
C  0.23600 2.45800 42.31800
C  -2.50400 -1.25200 43.75800
C  1.33400 -3.84800 45.15500
N  1.96700 0.80000 43.02700
C  3.31900 0.70400 42.86000
C  3.87600 1.91100 42.02800
C  2.70000 2.94400 42.32000
C  1.55900 2.04500 42.62400
C  2.95300 4.10600 43.38600
C  4.10900 1.53400 40.50700
C  5.51900 1.85200 40.02500
H  5.59500 1.95200 38.46200
N  -0.92500 0.53600 43.31600
C  -0.93000 1.70900 42.58000
C  -2.27600 2.08400 42.29100
C  -3.12800 0.95500 42.59700
C  -2.11700 -0.00100 43.24100
C  -2.69700 3.33400 41.68600
C  -4.58900 0.86200 42.22100
O  -5.04200 1.68900 41.49300
C  -5.46800 -0.28600 42.55900
N  -0.48300 -2.43700 44.26000
C  -1.80500 -2.35700 44.21800
C  -2.37500 -3.67600 44.63200
C  -1.15300 -4.41500 45.39900
C  0.01900 -3.57200 44.84100
C  -3.66600 -3.57100 45.45000
C  -1.08300 -6.00100 44.93600
C  -0.75200 -6.92800 46.10300
N  2.37000 -1.89100 44.25800
C  2.47900 -3.11400 44.81300
C  3.83300 -3.54600 44.79200
C  4.54800 -2.51800 44.20600
C  3.61100 -1.54900 43.90200
C  4.42900 -4.95200 45.14000
C  5.86100 -2.10000 43.78900
O  7.00700 -2.55000 43.98500
C  5.60000 -0.64500 43.16100
C  6.36400 0.41500 43.80300
O  6.05200 1.03600 44.80400
O  7.53900 0.56700 43.21100
C  8.44400 1.64100 43.66900
H  0.09300 3.50800 42.05200
H  -3.56400 -1.47900 43.89100
H  1.52900 -4.81600 45.62200
H  4.73500 2.43900 42.44200
H  2.48200 3.47900 41.39600
H  3.22100 5.08000 42.97600
H  3.90100 3.85500 43.86100
H  2.18900 4.22900 44.15400
H  3.49600 2.10400 39.80900
H  3.91900 0.48300 40.28700
H  6.32000 1.21100 40.39400
H  5.83000 2.85800 40.30700
H  -2.87300 3.29900 40.61100
H  -1.97300 4.11700 41.91000
H  -3.57600 3.72700 42.19700
H  -6.47900 -0.05600 42.22300
H  -5.54800 -0.35400 43.64400
H  -5.13700 -1.23100 42.13000
H  -2.57600 -4.11500 43.65500
H  -1.17600 -4.28300 46.48100
H  -3.68300 -2.71000 46.11900
H  -3.81400 -4.44600 46.08400
H  -4.54500 -3.53000 44.80700
H  -0.18300 -6.14600 44.33900
H  -1.99800 -6.35100 44.45700
H  -1.64700 -7.40900 46.49700
H  -0.43800 -6.42400 47.01700
H  -0.05000 -7.71900 45.84000
H  3.52900 -5.56500 45.08700
H  4.77600 -5.03000 46.17000
H  5.33500 -5.17800 44.57800
H  5.84200 -0.67500 42.09900
H  7.87400 2.48400 44.06000
H  9.14400 1.89400 42.87300
H  9.02900 1.34800 44.54100
Mg 24.67300 -6.87300 47.11700
C  27.54200 -4.73900 46.02800
C  22.97900 -5.34600 44.45800
C  22.62400 -9.36200 47.44500
C  27.22000 -8.65300 48.90000
N  25.25200 -5.26600 45.38000
C  26.41100 -4.60100 45.23500
C  26.22300 -3.52200 44.18500
C  24.71900 -3.49300 43.80800
C  24.24400 -4.79700 44.54400
C  23.96100 -2.12500 44.20700
C  27.16100 -3.86300 42.99100
C  28.16500 -2.65600 42.67000
H  27.82200 -1.91500 41.34900
N  22.90200 -7.21400 46.20800
C  22.33200 -6.45000 45.23300
C  21.06600 -7.06900 44.85000
C  20.97600 -8.27800 45.59200
C  22.21000 -8.32600 46.44400
C  20.09400 -6.51500 43.73900
C  19.84900 -9.30700 45.38400
O  18.82000 -9.08500 44.74800
C  20.00800 -10.61800 46.01900
N  24.91400 -8.80300 47.94200
C  23.91000 -9.65100 47.98200
C  24.22000 -10.87200 48.93300
C  25.68400 -10.59400 49.36800
C  25.96300 -9.29200 48.67100
C  23.07400 -11.13700 50.00000
C  26.72400 -11.70500 48.96900
C  27.68700 -12.15600 50.07700
N  26.82200 -6.68000 47.60100
C  27.65900 -7.44300 48.35300
C  29.01000 -6.90500 48.44300
C  28.96600 -5.78500 47.58700
C  27.65900 -5.77500 46.99200
C  30.15000 -7.48200 49.22600
C  29.74100 -4.64000 47.14900
O  30.83300 -4.19100 47.52500
C  28.73600 -3.83800 46.09100
C  28.41600 -2.47200 46.66800
O  27.89000 -2.20500 47.78100
O  28.90500 -1.49300 45.82100
C  28.56500 -0.13700 46.16800
H  22.37200 -4.70900 43.81200
H  21.88500 -10.11800 47.71800
H  27.83400 -9.30400 49.52600
H  26.46000 -2.53800 44.59100
H  24.56000 -3.60000 42.73500
H  23.37800 -1.68900 43.39600
H  24.65500 -1.31600 44.43600
H  23.25100 -2.33500 45.00700
H  26.60700 -4.10900 42.08500
H  27.69900 -4.78100 43.22700
H  29.22800 -2.85400 42.81000
H  27.91800 -1.88300 43.39700
H  19.08400 -6.33800 44.11000
H  19.99700 -7.08700 42.81700
H  20.44300 -5.56400 43.33500
H  19.73500 -10.36300 47.04300
H  20.98700 -11.03100 45.77400
H  19.24000 -11.29000 45.63700
H  24.20400 -11.64300 48.16300
H  25.60800 -10.36000 50.43000
H  22.44900 -10.27500 50.23500
H  23.56800 -11.63700 50.83300
H  22.42800 -11.82900 49.46000
H  27.40400 -11.23600 48.25800
H  26.28100 -12.54300 48.43200
H  27.66100 -13.24500 50.07000
H  27.30800 -11.86300 51.05600
H  28.68900 -11.72900 50.05200
H  30.81400 -6.72600 49.64500
H  30.88800 -8.03200 48.64200
H  29.85900 -8.10300 50.07400
H  29.24400 -3.72500 45.13400
H  27.91800 0.32000 45.42000
H  29.43100 0.51500 46.28300
H  28.11600 -0.05400 47.15800

