158

Mg -2.19100 17.42800 26.10100
C  -2.54500 15.48900 28.92900
C  -3.26100 20.13100 27.94000
C  -2.36900 19.24400 23.24400
C  -1.90500 14.49600 24.19800
N  -2.72800 17.77100 28.24300
C  -2.83200 16.79700 29.20700
C  -3.22100 17.34400 30.59000
C  -3.72600 18.80200 30.13000
C  -3.27800 18.94500 28.67000
C  -5.29100 18.99100 30.28800
C  -2.02300 17.53600 31.59200
C  -2.47000 18.22600 32.88100
H  -2.40200 17.30300 34.20700
N  -2.42500 19.49800 25.68500
C  -2.76900 20.44700 26.58700
C  -2.53700 21.69800 25.89400
C  -2.39200 21.45600 24.52400
C  -2.48500 19.99600 24.45600
C  -2.77700 23.05400 26.54700
C  -2.09500 22.39700 23.32300
O  -2.09000 22.09300 22.13900
C  -1.70100 23.82100 23.62200
N  -2.10200 16.92100 23.98000
C  -2.21200 17.86800 22.98800
C  -2.23100 17.25700 21.58800
C  -2.06600 15.68400 21.97200
C  -1.97000 15.69000 23.45400
C  -3.42200 17.59100 20.63500
C  -0.90100 15.02400 21.27900
C  0.40600 14.96700 21.91800
N  -2.31800 15.47600 26.47000
C  -2.02700 14.40600 25.56800
C  -2.10800 13.19300 26.31900
C  -2.27100 13.51700 27.68200
C  -2.37600 14.93200 27.68200
C  -1.92400 11.74900 25.81900
C  -2.38900 12.99500 29.01300
O  -2.37500 11.87700 29.46500
C  -2.49300 14.25600 29.91600
C  -1.24100 14.21400 30.70000
O  -0.19900 14.62800 30.19000
O  -1.45000 13.86800 32.02000
C  -0.29400 13.98100 32.92100
H  -3.35900 21.01700 28.57100
H  -2.19500 19.82000 22.33300
H  -1.83500 13.56000 23.64000
H  -3.97800 16.66900 30.99000
H  -3.41100 19.70400 30.65600
H  -5.73600 19.36700 29.36700
H  -5.49200 19.60000 31.17000
H  -5.93600 18.12300 30.43100
H  -1.34800 18.18100 31.03000
H  -1.38200 16.67900 31.80100
H  -3.51500 18.53300 32.84100
H  -2.00700 19.21100 32.92600
H  -3.16700 23.05000 27.56500
H  -3.53500 23.60200 25.98800
H  -1.82900 23.59300 26.53300
H  -1.02500 23.83800 24.47700
H  -2.67900 24.25800 23.82200
H  -1.17600 24.26300 22.77500
H  -1.27700 17.58500 21.17500
H  -2.98700 15.16100 21.71400
H  -3.92100 18.44600 21.09200
H  -4.13700 16.77100 20.70300
H  -3.13000 17.73700 19.59500
H  -0.64000 15.49200 20.32900
H  -1.11900 13.96900 21.11100
H  0.57000 13.96500 22.31500
H  0.44000 15.71900 22.70600
H  1.24000 15.20500 21.25800
H  -2.88300 11.23600 25.89800
H  -1.20500 11.27200 26.48500
H  -1.58900 11.60300 24.79200
H  -3.32100 14.31600 30.62200
H  0.24200 14.89900 32.67600
H  0.31500 13.07900 32.86600
H  -0.63300 14.01100 33.95600
Mg -11.25800 18.45500 43.08500
C  -7.75600 18.69300 43.93700
C  -11.50800 21.81100 42.86700
C  -14.28000 18.02500 41.83000
C  -10.72100 14.91700 43.09200
N  -9.75600 19.95900 43.36600
C  -8.43700 19.87100 43.65600
C  -7.76300 21.21800 43.37000
C  -9.01800 22.22900 43.48900
C  -10.20000 21.32000 43.16100
C  -9.17900 23.08000 44.78700
C  -7.20600 21.14100 41.89600
C  -5.72100 21.32800 41.83600
H  -5.14600 21.99200 40.62900
N  -12.73600 19.74900 42.42100
C  -12.70100 21.11200 42.40500
C  -13.82000 21.68500 41.80100
C  -14.71500 20.54000 41.44800
C  -13.97600 19.38100 41.97500
C  -13.95600 23.14900 41.58600
C  -16.10700 20.70200 40.90300
O  -16.50700 21.78700 40.55200
C  -16.96500 19.55800 40.58900
N  -12.32300 16.75800 42.50200
C  -13.59600 16.83400 41.98300
C  -14.20400 15.47500 41.75300
C  -13.13700 14.43600 42.26800
C  -11.96800 15.38500 42.61000
C  -15.68000 15.32500 42.24400
C  -12.74700 13.32600 41.17400
C  -12.58000 11.84500 41.69900
N  -9.63800 16.95100 43.57700
C  -9.60500 15.61600 43.52300
C  -8.27000 15.14800 43.83700
C  -7.49400 16.27000 44.08600
C  -8.41100 17.38100 43.93800
C  -7.83200 13.69600 43.83200
C  -6.17900 16.83100 44.41400
O  -5.13500 16.26000 44.79000
C  -6.32800 18.35700 44.35500
C  -5.91400 18.87000 45.71900
O  -6.55700 18.76800 46.71500
O  -4.57200 19.27300 45.73000
C  -4.07600 20.03200 46.86100
H  -11.48200 22.90200 42.91100
H  -15.26300 17.74400 41.44600
H  -10.51000 13.87800 42.83000
H  -7.10700 21.36000 44.22900
H  -8.83100 22.94300 42.68700
H  -9.49400 24.06900 44.45300
H  -8.19800 23.15900 45.25700
H  -9.90400 22.62000 45.45800
H  -7.66100 21.85800 41.21200
H  -7.42900 20.19300 41.40700
H  -5.25400 20.37300 42.07700
H  -5.44700 21.91500 42.71300
H  -14.36900 23.40600 40.61000
H  -12.95400 23.56900 41.50100
H  -14.55600 23.59300 42.38000
H  -16.60000 18.96300 39.75100
H  -17.92600 19.89800 40.20300
H  -17.16900 18.91400 41.44400
H  -14.16600 15.36900 40.66900
H  -13.46600 13.92600 43.17400
H  -15.96100 16.16900 42.87400
H  -15.75800 14.36300 42.74900
H  -16.33400 15.23900 41.37700
H  -11.83200 13.66800 40.69000
H  -13.48900 13.33900 40.37500
H  -12.46700 11.09000 40.92100
H  -13.53900 11.48500 42.07200
H  -11.84900 11.87400 42.50600
H  -8.05600 13.27600 42.85100
H  -8.27600 13.12700 44.64900
H  -6.74600 13.61700 43.88600
H  -5.55000 18.56500 43.62000
H  -4.28700 21.09400 46.73200
H  -3.01000 20.06500 47.08800
H  -4.67300 19.79100 47.74000

