158

Mg 35.65800 1.20800 30.25700
C  33.44900 2.42700 32.71100
C  38.07200 1.31300 32.72800
C  37.78700 0.12200 27.98300
C  33.15600 1.59000 27.79000
N  35.68500 1.77500 32.43500
C  34.71200 2.20800 33.21500
C  35.11000 2.28000 34.68500
C  36.63300 1.98400 34.63200
C  36.84000 1.70900 33.15100
C  37.55700 3.16600 35.21300
C  34.39500 1.18000 35.51100
C  34.02700 1.48600 36.96900
H  34.80600 2.60300 37.62900
N  37.55200 0.68500 30.37400
C  38.39300 0.79000 31.47400
C  39.73200 0.41300 31.11900
C  39.68200 0.10000 29.68500
C  38.28200 0.24800 29.26400
C  40.89600 0.35200 32.09200
C  40.89500 -0.22000 28.76100
O  40.80800 -0.56500 27.60700
C  42.34600 -0.07700 29.27500
N  35.58100 1.05500 28.09100
C  36.55000 0.47700 27.42000
C  36.17900 0.34400 25.88900
C  34.71000 0.83400 25.86800
C  34.40100 1.24100 27.26700
C  37.09700 1.18000 24.96700
C  33.64200 -0.21500 25.23600
C  33.10800 0.24700 23.86800
N  33.69900 1.92800 30.13100
C  32.77600 1.98600 29.10600
C  31.46300 2.48500 29.61500
C  31.79100 2.71300 31.01100
C  33.09000 2.31500 31.29600
C  30.23000 2.71700 28.92600
C  31.18100 3.20300 32.21300
O  30.12300 3.74100 32.38300
C  32.14100 2.94700 33.39000
C  32.22900 4.24400 34.10500
O  32.52600 5.32000 33.66400
O  31.66800 4.01600 35.35300
C  31.26000 5.19000 36.11200
H  38.75000 1.24500 33.58100
H  38.51400 -0.08900 27.19500
H  32.30100 1.48900 27.11800
H  35.02700 3.24900 35.17600
H  36.89800 1.04000 35.10800
H  36.99500 3.79700 35.90300
H  37.87200 3.94000 34.51300
H  38.51700 2.88500 35.64500
H  34.92000 0.22600 35.47700
H  33.41700 0.96300 35.08200
H  34.26700 0.65200 37.62900
H  32.94800 1.62200 37.03500
H  41.37200 1.32300 31.95100
H  41.57500 -0.45400 31.81400
H  40.60700 0.26300 33.13900
H  43.04200 -0.01500 28.43800
H  42.60300 -0.89800 29.94500
H  42.45100 0.79400 29.92200
H  36.24800 -0.71900 25.65600
H  34.72600 1.74100 25.26400
H  37.77500 0.58100 24.36000
H  37.63100 1.89100 25.59900
H  36.60200 1.68100 24.13500
H  32.74100 -0.29700 25.84500
H  34.09400 -1.20600 25.18800
H  33.65600 1.09700 23.46100
H  32.06200 0.53900 23.96900
H  33.04800 -0.51900 23.09500
H  30.39000 3.13300 27.93100
H  29.65600 3.48200 29.44800
H  29.69800 1.79300 28.69800
H  31.70400 2.19500 34.04700
H  32.08100 5.48800 36.76400
H  30.44500 4.74800 36.68400
H  30.95300 6.05500 35.52400
Mg 48.19300 46.01400 43.27200
C  45.02100 44.46100 43.58900
C  49.52200 42.79700 42.85700
C  51.01300 47.40100 42.45600
C  46.44700 49.09700 42.91700
N  47.36800 43.82100 43.31700
C  46.07200 43.49800 43.56700
C  45.91400 41.95200 43.49600
C  47.36700 41.45900 43.13000
C  48.18400 42.70700 43.20500
C  47.88400 40.31900 44.10400
C  44.81000 41.37800 42.55000
C  44.78600 41.83100 41.13700
H  45.14700 40.79100 40.07200
N  50.04200 45.18900 42.75700
C  50.38700 43.89000 42.64600
C  51.81000 43.83900 42.32800
C  52.29500 45.18500 42.24100
C  51.06600 45.98600 42.45900
C  52.56200 42.54000 42.20700
C  53.67000 45.58600 41.88200
O  54.52200 44.73100 41.93900
C  54.03500 46.97200 41.51500
N  48.57900 47.95300 42.44500
C  49.90700 48.29600 42.43100
C  50.11600 49.83100 42.56200
C  48.60500 50.35400 42.52100
C  47.76200 49.07200 42.58300
C  50.91100 50.19200 43.86800
C  48.05200 51.32000 41.41900
C  47.93700 52.78600 41.90900
N  46.15700 46.70500 43.28200
C  45.64900 47.93700 43.18200
C  44.26100 47.86500 43.42000
C  43.91600 46.54700 43.55100
C  45.14200 45.84600 43.45000
C  43.37100 49.05000 43.46200
C  42.90800 45.56300 43.84100
O  41.71000 45.75700 44.03100
C  43.53600 44.18800 43.89700
C  43.28700 43.78100 45.28700
O  43.54700 44.43500 46.31900
O  43.02300 42.43800 45.27000
C  43.23700 41.83700 46.58400
H  49.98700 41.83900 42.61600
H  51.93800 47.98100 42.41000
H  45.89200 50.03700 42.94600
H  45.70900 41.64400 44.52100
H  47.27800 41.12200 42.09700
H  46.99600 39.72600 44.31800
H  48.24500 40.76400 45.03100
H  48.73400 39.75900 43.71300
H  43.84100 41.41700 43.04800
H  44.82600 40.29400 42.43000
H  45.43800 42.69800 41.03300
H  43.78700 42.21700 40.93500
H  52.93700 42.39700 41.19300
H  52.08700 41.63500 42.58500
H  53.45900 42.58100 42.82400
H  53.26800 47.37600 40.85400
H  55.01300 47.02300 41.03600
H  54.24500 47.55700 42.41000
H  50.62900 50.13000 41.64800
H  48.40600 50.90500 43.44000
H  50.63400 51.10600 44.39500
H  51.94900 50.34300 43.57100
H  50.86100 49.36600 44.57700
H  47.18100 50.90200 40.91400
H  48.73700 51.22100 40.57700
H  48.02500 53.24400 40.92400
H  48.75900 53.03200 42.58200
H  46.99700 52.85800 42.45700
H  42.33600 48.70800 43.49100
H  43.57000 49.57600 42.52800
H  43.66900 49.71500 44.27200
H  43.01600 43.51000 43.22100
H  44.25700 41.65200 46.92000
H  42.87100 40.81100 46.54900
H  42.74100 42.40700 47.36900

