158

Mg -1.67200 18.06600 27.53300
C  -2.24400 15.82700 30.06500
C  -2.21200 20.66400 29.55500
C  -1.37500 20.05800 24.81700
C  -1.89000 15.28400 25.22300
N  -2.06300 18.21200 29.64200
C  -2.24300 17.18300 30.52400
C  -2.57000 17.66600 31.94500
C  -2.90700 19.19000 31.69100
C  -2.32500 19.39800 30.22800
C  -4.43400 19.63500 31.89200
C  -1.44500 17.45900 32.94200
C  -1.90100 16.92000 34.24800
H  -0.87200 16.81500 35.38600
N  -1.73500 20.08100 27.20600
C  -1.94100 20.99700 28.22600
C  -1.74200 22.36900 27.74300
C  -1.58100 22.27100 26.34700
C  -1.56300 20.73800 26.08100
C  -1.78500 23.58300 28.58400
C  -1.31900 23.30900 25.34700
O  -1.41100 23.13900 24.11500
C  -0.87700 24.53700 25.84100
N  -1.63200 17.70100 25.32100
C  -1.44100 18.71400 24.42100
C  -1.56700 18.33900 22.96500
C  -1.86600 16.78000 23.08800
C  -1.82400 16.52800 24.60800
C  -2.81200 19.04800 22.30300
C  -0.89900 16.00000 22.15200
C  0.63500 15.97200 22.55900
N  -1.89300 16.02200 27.58100
C  -1.94100 15.01900 26.61300
C  -2.06500 13.68200 27.20900
C  -2.16700 13.97000 28.58000
C  -2.10000 15.38600 28.72200
C  -1.97500 12.40000 26.53100
C  -2.33900 13.35900 29.86600
O  -2.52700 12.18600 30.10100
C  -2.39600 14.52600 30.87900
C  -1.09400 14.29100 31.65900
O  0.05600 14.42100 31.24900
O  -1.37500 13.81300 32.86400
C  -0.23700 13.68300 33.75500
H  -2.30000 21.33400 30.41300
H  -1.20300 20.72500 23.96900
H  -1.96900 14.49000 24.47700
H  -3.48600 17.18800 32.29000
H  -2.32600 19.68400 32.46900
H  -4.79900 20.08100 30.96700
H  -4.49200 20.38200 32.68400
H  -5.10300 18.81300 32.14800
H  -0.95300 18.41600 33.11600
H  -0.62500 16.81700 32.62100
H  -2.45900 15.98700 34.16600
H  -2.63400 17.59700 34.68800
H  -2.25300 23.42300 29.55600
H  -2.13000 24.49900 28.10400
H  -0.75200 23.78400 28.86700
H  -1.67600 25.27400 25.92300
H  -0.35700 25.10900 25.07200
H  -0.23300 24.41600 26.71200
H  -0.65100 18.61300 22.44100
H  -2.85900 16.44600 22.78700
H  -2.82100 18.62600 21.29900
H  -2.68600 20.12800 22.21900
H  -3.73700 18.88300 22.85500
H  -1.00800 16.44400 21.16200
H  -1.31500 14.99500 22.23300
H  0.84600 16.40600 23.53600
H  1.14700 16.65200 21.87800
H  1.17900 15.04600 22.37400
H  -1.20600 11.75900 26.96200
H  -1.65200 12.45900 25.49100
H  -2.98000 12.02800 26.72900
H  -3.28300 14.38200 31.49500
H  0.31300 14.62300 33.81700
H  0.40000 12.89500 33.35200
H  -0.57400 13.33200 34.73000
Mg -0.13800 44.30600 26.41900
C  2.25500 44.38500 29.10400
C  -2.50400 43.33000 28.73200
C  -2.07900 43.13900 23.88300
C  2.44700 44.74300 24.20100
N  -0.07900 43.87800 28.69700
C  0.98300 44.07400 29.55000
C  0.44800 44.03100 30.96400
C  -0.99200 43.39200 30.83800
C  -1.23200 43.60000 29.31600
C  -1.04800 41.87500 31.27300
C  0.47200 45.36400 31.80600
C  1.02200 45.10400 33.26800
H  0.52200 43.88000 34.07900
N  -2.09300 43.59600 26.30700
C  -2.87800 43.22900 27.35400
C  -4.20800 42.87200 26.83600
C  -4.11700 42.84000 25.42900
C  -2.75200 43.22700 25.14500
C  -5.41000 42.50400 27.69800
C  -5.15100 42.34700 24.35000
O  -4.86400 42.27700 23.18100
C  -6.57700 42.01700 24.77500
N  0.07300 43.91800 24.37800
C  -0.79600 43.41200 23.55700
C  -0.13900 43.11300 22.17100
C  1.06200 44.12700 22.13800
C  1.22400 44.29000 23.66500
C  0.27000 41.61100 21.96800
C  0.82600 45.40800 21.34300
C  1.70300 45.73000 20.11400
N  1.93400 44.50100 26.55200
C  2.84700 44.69200 25.54700
C  4.22200 44.90300 26.10300
C  3.95700 44.75300 27.48700
C  2.59600 44.52300 27.75300
C  5.49200 45.16400 25.36600
C  4.69400 44.76000 28.81900
O  5.88700 44.84700 29.07100
C  3.54800 44.54200 29.86000
C  4.01900 43.26200 30.60900
O  4.49600 42.27800 30.15600
O  3.84300 43.49600 31.95800
C  4.09800 42.30000 32.85700
H  -3.18600 42.99700 29.51800
H  -2.62400 42.83800 22.98600
H  3.16400 44.98100 23.41200
H  1.09600 43.31100 31.46400
H  -1.74800 43.94300 31.39700
H  -0.11400 41.55300 31.73200
H  -1.45300 41.29200 30.44600
H  -1.86300 41.84400 31.99600
H  -0.54000 45.75700 31.90000
H  1.00800 46.20600 31.36700
H  0.76300 46.02500 33.78900
H  2.10300 45.24600 33.25800
H  -6.24800 43.20100 27.69100
H  -5.15200 42.34800 28.74500
H  -5.87900 41.60300 27.30100
H  -7.17600 41.87000 23.87600
H  -7.03900 42.72700 25.46100
H  -6.42800 41.03700 25.22700
H  -0.88500 43.30800 21.40100
H  1.94700 43.62700 21.74300
H  0.08900 40.93800 22.80700
H  1.32300 41.47100 21.72200
H  -0.39900 41.20000 21.21300
H  0.87700 46.31900 21.93900
H  -0.18800 45.37700 20.94400
H  1.01500 45.61200 19.27700
H  2.59200 45.10000 20.11900
H  2.15500 46.71800 20.02400
H  5.37800 46.06800 24.76800
H  5.82400 44.28400 24.81600
H  6.23700 45.28200 26.15400
H  3.52100 45.30800 30.63400
H  3.49100 41.42600 32.62100
H  3.75700 42.51400 33.87000
H  5.18700 42.27500 32.88900

