158

Mg 48.06100 15.06300 27.78100
C  46.08300 15.18400 30.69100
C  50.27300 17.31500 29.39400
C  49.95500 15.16700 25.05300
C  45.62000 13.14000 26.20800
N  48.20200 16.14100 29.79400
C  47.25100 15.94400 30.85000
C  47.84800 16.65300 32.12600
C  48.97600 17.57900 31.59800
C  49.17600 17.00700 30.19900
C  48.61300 19.11500 31.50200
C  48.31500 15.54200 33.22600
C  48.01300 15.88700 34.66800
H  49.03900 15.40000 35.70100
N  49.86200 16.17300 27.22100
C  50.61900 16.99800 28.08100
C  51.86800 17.44800 27.36300
C  51.77400 16.72700 26.07600
C  50.45700 16.07100 26.01600
C  52.86500 18.29700 28.01900
C  52.80900 16.69700 25.03900
O  52.64000 16.12000 23.95200
C  54.14500 17.35100 25.31400
N  47.77000 14.48100 25.92100
C  48.74000 14.51600 24.95400
C  48.50500 13.45300 23.81700
C  47.13800 12.79100 24.19800
C  46.83800 13.46300 25.54800
C  48.53100 14.09600 22.34700
C  47.19300 11.27700 24.43000
C  48.07800 10.47600 23.35400
N  46.15100 14.39600 28.22400
C  45.26700 13.60300 27.52600
C  44.08000 13.39200 28.28000
C  44.35800 13.98900 29.49000
C  45.66300 14.54900 29.48400
C  42.82600 12.70000 27.79300
C  43.77100 14.15100 30.81400
O  42.74000 13.77100 31.30200
C  44.92000 14.93800 31.69500
C  44.33900 16.18100 32.29300
O  43.84200 17.12200 31.67200
O  44.40800 16.04800 33.66200
C  44.07800 17.23000 34.46000
H  50.92200 18.08100 29.82400
H  50.61800 15.05000 24.19300
H  45.13400 12.37600 25.59700
H  47.11100 17.29200 32.61300
H  49.86800 17.47600 32.21600
H  48.64600 19.46200 30.47000
H  49.37100 19.78300 31.91100
H  47.74200 19.40000 32.09300
H  49.37700 15.40500 33.02200
H  47.87800 14.58800 32.93500
H  47.09000 15.43000 35.02400
H  47.85200 16.94900 34.84800
H  53.62500 17.78700 28.61100
H  52.36100 18.94600 28.73500
H  53.44800 18.96100 27.38100
H  54.89900 16.99200 24.61400
H  54.45700 17.05900 26.31700
H  54.08800 18.41900 25.10100
H  49.29800 12.71300 23.92400
H  46.46600 13.05700 23.38300
H  48.72500 13.29500 21.63400
H  49.33700 14.82100 22.23200
H  47.59000 14.62000 22.18000
H  46.19000 10.85600 24.35900
H  47.46800 10.88800 25.41000
H  48.57800 11.08900 22.60500
H  47.37200 9.84500 22.81400
H  48.78000 9.80700 23.85100
H  42.13300 12.43400 28.59200
H  43.11400 11.85700 27.16600
H  42.35000 13.41500 27.12200
H  45.08200 14.21500 32.49500
H  44.34200 18.18700 34.01000
H  44.63500 17.12900 35.39200
H  42.99700 17.12600 34.55700
Mg 46.16400 44.93000 43.81500
C  42.73600 44.70800 43.17500
C  46.45400 41.54300 43.14200
C  49.51700 45.29200 43.52100
C  45.89700 48.48900 43.74700
N  44.76300 43.38900 43.08700
C  43.37300 43.46800 42.94500
C  42.79600 42.11400 42.75700
C  43.97600 41.15400 43.04200
C  45.13600 42.07300 43.19400
C  43.71600 40.31200 44.33500
C  41.95500 41.88800 41.37600
C  42.31900 42.61500 40.06900
H  42.48800 41.80200 38.84700
N  47.78900 43.55200 43.40200
C  47.69100 42.19900 43.10300
C  48.94700 41.59300 42.96200
C  49.88000 42.62800 43.15200
C  49.11300 43.88800 43.38800
C  49.18400 40.12600 42.65700
C  51.33200 42.48600 42.98400
O  51.84000 41.46200 42.63000
C  52.18600 43.73800 43.16700
N  47.55200 46.60100 43.93100
C  48.85900 46.45200 43.74100
C  49.66800 47.76900 43.70300
C  48.51300 48.82500 43.80200
C  47.23100 47.94600 43.73300
C  50.83500 47.81100 44.72300
C  48.43200 50.00700 42.73000
C  48.34700 51.42800 43.29500
N  44.67300 46.29800 43.75600
C  44.70300 47.75900 43.72700
C  43.28400 48.20900 43.85000
C  42.58200 47.03100 43.63500
C  43.43400 45.92400 43.55000
C  42.84300 49.65200 43.85600
C  41.16300 46.59600 43.43300
O  40.19000 47.28000 43.30200
C  41.22500 45.03800 43.18000
C  40.42500 44.26500 44.23900
O  39.45000 43.58700 44.06300
O  41.21300 44.33700 45.36000
C  40.95900 43.27800 46.34800
H  46.55000 40.46700 42.98500
H  50.56500 45.52000 43.31300
H  45.78300 49.57400 43.78100
H  42.13400 42.16400 43.62200
H  44.23800 40.49200 42.21700
H  44.13900 39.31700 44.47000
H  42.63300 40.28800 44.45600
H  44.14500 40.85300 45.17900
H  40.87900 41.91200 41.54400
H  41.91400 40.81100 41.21400
H  43.30200 43.08300 40.11100
H  41.59700 43.40600 39.86500
H  50.19400 39.72500 42.57300
H  48.51000 39.58200 41.99600
H  49.13600 39.78600 43.69200
H  52.06900 44.17600 44.15800
H  52.02600 44.37500 42.29700
H  53.20900 43.37300 43.07800
H  50.18600 47.82700 42.74600
H  48.56100 49.27300 44.79400
H  50.61600 48.69800 45.31800
H  51.72100 47.79000 44.08800
H  50.86200 46.87700 45.28600
H  47.58300 49.79600 42.08000
H  49.40500 49.89600 42.25100
H  49.18700 52.00700 42.90900
H  48.41800 51.37400 44.38100
H  47.39800 51.89800 43.03500
H  41.77500 49.69800 43.64600
H  43.39000 50.31700 43.18700
H  42.99400 49.99100 44.88100
H  40.79500 44.76400 42.21700
H  40.09700 42.63700 46.16100
H  40.81000 43.67500 47.35200
H  41.80800 42.61900 46.53000

