158

Mg 43.73700 4.23100 47.22900
C  41.76200 7.10300 46.71600
C  40.88300 2.25800 46.53100
C  45.81900 1.57600 46.86000
C  46.56200 6.28000 46.64300
N  41.57300 4.63800 46.57900
C  41.01600 5.92200 46.64800
C  39.48300 5.75200 46.40900
C  39.21600 4.23600 46.59200
C  40.63900 3.64500 46.51400
C  38.59300 3.98600 48.02500
C  38.85800 6.36900 45.12900
C  39.71800 6.36300 43.81900
H  39.50800 7.48800 42.80400
N  43.36500 2.23100 46.99600
C  42.08300 1.63100 46.72200
C  42.34700 0.14700 46.63200
C  43.70300 -0.10600 46.65200
C  44.41200 1.25700 46.83000
C  41.19600 -0.77000 46.45800
C  44.33900 -1.46500 46.51300
O  43.56400 -2.45600 46.35600
C  45.75100 -1.66700 46.53900
N  45.94900 3.92500 46.84200
C  46.51900 2.78400 46.81800
C  48.09500 2.90300 46.66700
C  48.31900 4.42900 46.37300
C  46.88600 4.92800 46.62700
C  48.83200 2.39400 47.91900
C  48.93700 4.77000 44.99500
C  50.39600 5.14200 44.99100
N  44.16000 6.33300 47.04400
C  45.33300 6.98200 46.90100
C  45.08400 8.34300 47.04400
C  43.68700 8.48600 46.90600
C  43.16100 7.21700 46.91800
C  46.11300 9.40800 46.97400
C  42.58600 9.36500 46.77100
O  42.58700 10.55500 46.89000
C  41.30600 8.51600 46.45300
C  40.12500 8.86700 47.26400
O  39.84800 8.44100 48.36200
O  39.32800 9.72500 46.60800
C  38.11700 10.10500 47.25700
H  40.04100 1.59600 46.31500
H  46.47200 0.70800 46.75400
H  47.41700 6.90300 46.37300
H  39.09400 6.30900 47.26200
H  38.58800 3.82400 45.80100
H  39.15600 4.69100 48.63700
H  38.81500 2.97100 48.35300
H  37.54400 4.28300 48.06200
H  38.43100 7.35700 45.30200
H  37.98000 5.80500 44.81200
H  39.57300 5.39500 43.34100
H  40.76800 6.44700 44.10000
H  40.90400 -0.88100 45.41300
H  40.23300 -0.38200 46.79200
H  41.36200 -1.74700 46.91200
H  46.22300 -1.35200 47.47000
H  46.06300 -1.14700 45.63400
H  46.01400 -2.68300 46.24400
H  48.41900 2.21700 45.88400
H  48.99500 4.97800 47.02900
H  49.91700 2.44900 47.82500
H  48.66300 1.32200 48.02200
H  48.51700 2.85300 48.85600
H  48.29600 5.57900 44.64400
H  48.76200 3.87400 44.40000
H  50.85700 4.79500 44.06700
H  50.89500 4.74100 45.87300
H  50.51800 6.22500 45.01000
H  46.88400 9.09000 47.67600
H  45.57500 10.32200 47.22200
H  46.59000 9.43400 45.99400
H  40.92100 8.64100 45.44100
H  37.64500 9.29500 47.81300
H  37.41800 10.37400 46.46600
H  38.38100 10.98700 47.84000
Mg 43.17700 42.46300 25.75700
C  42.39400 44.85500 28.26600
C  44.46500 40.49600 28.24900
C  44.35600 40.39300 23.48800
C  42.21400 44.81100 23.37000
N  43.48000 42.76500 27.94700
C  42.94200 43.72700 28.80600
C  43.19000 43.43900 30.36800
C  44.11400 42.10100 30.27900
C  44.03500 41.76500 28.67500
C  45.50700 42.35100 30.90100
C  41.86800 43.39900 31.16600
C  41.49200 42.32900 32.26100
H  40.86000 42.89300 33.46400
N  44.09500 40.59800 25.83800
C  44.47600 39.93800 27.00500
C  44.86800 38.56900 26.63200
C  44.70600 38.53900 25.20900
C  44.42800 39.85900 24.80500
C  45.30800 37.50400 27.67300
C  44.95400 37.38100 24.22800
O  44.86000 37.46100 22.99900
C  45.18100 36.05000 24.80900
N  43.27700 42.59500 23.74800
C  43.84400 41.57300 23.00700
C  43.76100 41.91000 21.51400
C  42.73000 43.11900 21.49500
C  42.75100 43.56200 22.95000
C  45.09600 42.31500 20.88000
C  41.34000 42.74100 20.91800
C  40.36400 42.08200 21.89200
N  42.48400 44.42600 25.78300
C  42.14500 45.26500 24.74100
C  41.69700 46.52400 25.29400
C  41.78500 46.39800 26.65800
C  42.23600 45.08800 26.88600
C  41.25700 47.68700 24.47300
C  41.54300 47.10000 27.87000
O  41.31800 48.26300 28.10400
C  41.84700 46.12600 28.95100
C  42.88200 46.67800 29.90400
O  44.10800 46.59100 29.69300
O  42.38000 47.16600 31.08900
C  43.36400 47.33000 32.15400
H  44.89500 39.90000 29.05600
H  44.74300 39.72900 22.71200
H  41.91000 45.58400 22.66100
H  43.80200 44.24500 30.77300
H  43.73300 41.21600 30.78800
H  45.71800 43.40900 31.05700
H  46.23500 41.82300 30.28600
H  45.72600 41.89600 31.86700
H  41.00800 43.38300 30.49700
H  41.79200 44.42100 31.53600
H  42.37300 41.74400 32.52600
H  40.85800 41.55700 31.82500
H  45.26800 37.89500 28.69000
H  46.31500 37.17700 27.41500
H  44.66000 36.64700 27.86000
H  45.55400 35.37700 24.03800
H  44.28800 35.69500 25.32500
H  46.04800 36.17600 25.45800
H  43.42100 40.98800 21.04200
H  43.11600 43.99600 20.97500
H  45.73600 42.58700 21.71900
H  44.88800 43.25400 20.36600
H  45.52500 41.51700 20.27300
H  41.54700 42.13000 20.04000
H  41.02100 43.73300 20.60100
H  40.22000 41.10400 21.43200
H  39.42200 42.62800 21.84600
H  40.60100 42.05600 22.95600
H  40.16900 47.67400 24.40800
H  41.60900 47.51500 23.45600
H  41.66300 48.65800 24.75900
H  40.87300 46.03300 29.43000
H  44.04300 46.47800 32.18100
H  42.82800 47.43700 33.09700
H  43.79000 48.33100 32.08300

