158

Mg 47.48400 24.03500 28.21000
C  48.45600 26.32600 30.64900
C  46.65700 21.88200 30.56900
C  46.86800 21.90100 25.67100
C  48.89800 26.35000 25.73600
N  47.82300 24.13500 30.39900
C  47.87700 25.19800 31.21600
C  47.60700 24.85600 32.68700
C  47.10600 23.38200 32.54900
C  47.18800 23.10900 31.03300
C  47.72300 22.36300 33.48700
C  46.55700 25.72300 33.43600
C  47.11600 26.59500 34.59400
H  46.12900 26.82200 35.80100
N  46.87400 22.11400 28.15000
C  46.56700 21.34700 29.25700
C  46.10700 20.10300 28.80200
C  46.23300 20.15500 27.31400
C  46.76300 21.42600 26.98300
C  45.43900 19.07800 29.63900
C  45.84800 19.08200 26.37000
O  46.07600 19.12600 25.17100
C  45.23300 17.81100 26.93400
N  47.95000 24.09400 26.00500
C  47.32700 23.15000 25.19200
C  47.51700 23.47100 23.66300
C  48.10500 24.92500 23.68800
C  48.34100 25.16300 25.23300
C  48.45000 22.47500 22.92200
C  47.10600 25.97200 23.19300
C  47.62700 27.16400 22.38400
N  48.45300 25.96800 28.14000
C  48.97000 26.75700 27.10700
C  49.52600 28.03600 27.66500
C  49.25100 27.95100 29.06000
C  48.71100 26.62700 29.30900
C  49.95200 29.14600 26.87700
C  49.34400 28.67000 30.31900
O  49.75100 29.81800 30.55700
C  48.81100 27.63600 31.39200
C  49.86700 27.45800 32.40100
O  50.59500 26.45700 32.44300
O  49.90500 28.48300 33.29900
C  50.39600 28.10300 34.56000
H  46.23100 21.34200 31.41700
H  46.84600 21.23700 24.80500
H  49.14800 27.02500 24.91500
H  48.61000 24.77100 33.10600
H  46.02700 23.30700 32.69000
H  48.23200 21.60600 32.89000
H  47.00800 21.83700 34.12000
H  48.40800 22.89600 34.14700
H  45.81400 25.10100 33.93400
H  46.01700 26.35800 32.73300
H  47.42900 27.57600 34.23500
H  47.97400 26.14100 35.08900
H  45.49700 19.45300 30.66100
H  46.08600 18.20800 29.53200
H  44.40100 18.78000 29.49300
H  45.75100 17.30500 27.74900
H  45.28300 17.06900 26.13800
H  44.21400 17.96700 27.28800
H  46.51800 23.40800 23.23100
H  49.04000 25.02100 23.13700
H  49.14800 21.96200 23.58300
H  48.95600 22.97200 22.09400
H  47.85400 21.65400 22.52300
H  46.49500 26.30000 24.03400
H  46.44300 25.51400 22.45800
H  47.54500 27.02200 21.30600
H  48.68000 27.25400 22.65000
H  47.19000 28.14600 22.56100
H  49.09600 29.38700 26.24700
H  50.75800 28.86200 26.20000
H  50.20800 29.99900 27.50600
H  47.97500 28.09000 31.92400
H  51.40200 27.69100 34.47300
H  49.68200 27.44800 35.05900
H  50.44700 28.98400 35.19900
Mg 48.47400 33.63100 26.72600
C  46.48500 32.23400 29.35400
C  48.80600 36.46400 28.63600
C  50.01000 34.94600 24.17600
C  47.48400 30.90100 24.73500
N  47.69500 34.24000 28.75300
C  47.10100 33.42900 29.71300
C  47.19200 34.14200 31.08500
C  47.57000 35.62400 30.67900
C  48.10300 35.42600 29.22700
C  46.35800 36.63700 30.75600
C  48.33200 33.52500 31.97100
C  48.15800 33.63900 33.56700
H  47.07900 34.46800 34.30600
N  49.26400 35.44100 26.36700
C  49.40400 36.42000 27.29200
C  50.17500 37.49000 26.70300
C  50.61300 37.03400 25.38000
C  49.98800 35.77000 25.25300
C  50.44300 38.77300 27.57700
C  51.35100 37.80500 24.29900
O  51.64000 37.27700 23.17600
C  51.84300 39.10700 24.52300
N  48.41200 33.18400 24.65600
C  49.30900 33.82600 23.88900
C  49.58500 33.10000 22.59100
C  48.86200 31.76300 22.83700
C  48.21500 31.92300 24.15600
C  49.11000 33.80200 21.31800
C  49.90100 30.54300 22.74600
C  49.93500 29.93200 21.37500
N  47.28000 31.96000 26.94400
C  46.97900 30.89500 26.04800
C  46.12700 29.82300 26.72100
C  45.90900 30.38800 27.99400
C  46.65200 31.65100 28.09600
C  45.58200 28.62800 26.09400
C  45.26100 30.11900 29.30600
O  44.64400 29.16800 29.71100
C  45.46400 31.42900 30.21700
C  45.93600 31.06500 31.63900
O  46.99800 30.60100 31.93700
O  44.93200 31.35500 32.55600
C  45.14200 30.64900 33.81300
H  48.98200 37.30300 29.31200
H  50.80600 35.08400 23.44200
H  47.42500 29.98200 24.14800
H  46.31300 34.15700 31.72900
H  48.35200 36.06800 31.29600
H  46.69600 37.55500 31.23700
H  45.54900 36.27200 31.38900
H  45.95800 36.87500 29.77100
H  49.35100 33.82900 31.73600
H  48.36400 32.46900 31.70300
H  49.17100 33.97800 33.78600
H  48.17100 32.62000 33.95200
H  49.57400 39.02100 28.18600
H  50.74800 39.64300 26.99600
H  51.29400 38.62100 28.24100
H  51.04600 39.78800 24.82300
H  52.23100 39.52300 23.59400
H  52.48800 38.96100 25.39000
H  50.67100 33.00700 22.62500
H  48.07900 31.45900 22.14200
H  48.04300 33.69600 21.12200
H  49.53000 33.56200 20.34100
H  49.19400 34.88100 21.44500
H  49.70300 29.72000 23.43300
H  50.93800 30.82500 22.92700
H  50.85400 30.25400 20.88600
H  49.06700 30.15500 20.75500
H  50.07800 28.85200 21.42900
H  46.34600 28.29900 25.38900
H  44.67200 28.92500 25.57300
H  45.30600 27.79700 26.74400
H  44.50700 31.94700 30.27300
H  45.87400 31.19000 34.41200
H  45.44700 29.62000 33.62500
H  44.19100 30.72200 34.34100

