158

Mg 41.20700 8.45800 29.82300
C  43.20600 9.57900 32.49900
C  39.17500 6.84500 32.27200
C  39.30200 7.32700 27.34300
C  43.63800 9.54800 27.60100
N  41.14500 8.33400 32.09600
C  42.00400 8.97300 32.95200
C  41.68000 8.60900 34.38000
C  40.66900 7.51400 34.23700
C  40.32400 7.57100 32.76500
C  41.01500 6.05600 34.70100
C  41.20000 9.87600 35.16000
C  41.83900 10.05100 36.56100
H  41.87700 11.48800 37.11700
N  39.41500 7.35200 29.76900
C  38.71000 6.86100 30.90400
C  37.48800 6.30400 30.36800
C  37.43300 6.51800 28.92000
C  38.72400 7.13800 28.59200
C  36.44500 5.65500 31.21600
C  36.44700 6.25000 27.89300
O  36.49500 6.58500 26.71800
C  35.17400 5.50400 28.30500
N  41.63400 8.13800 27.76900
C  40.59900 7.85100 26.96800
C  40.90300 8.11100 25.54900
C  42.40200 8.55200 25.56200
C  42.55700 8.89700 27.03700
C  40.56100 6.98700 24.49200
C  42.62700 9.76600 24.57700
C  41.96400 11.11000 24.89900
N  43.00500 9.46400 29.95300
C  43.90700 9.83600 28.98900
C  45.17000 10.33200 29.57800
C  44.86800 10.32900 30.95800
C  43.52000 9.77600 31.12900
C  46.41500 10.71100 28.82600
C  45.38800 10.72500 32.29200
O  46.43800 11.28700 32.52400
C  44.33300 10.30000 33.32400
C  45.02400 9.26700 34.13600
O  45.56000 8.24600 33.72800
O  45.14300 9.73000 35.45800
C  46.23000 9.18700 36.27700
H  38.42900 6.58200 33.02500
H  38.77600 6.90600 26.48400
H  44.50800 9.89400 27.04100
H  42.58300 8.26400 34.88300
H  39.78400 7.79500 34.80800
H  40.41000 5.93000 35.59900
H  42.02000 6.08500 35.12400
H  40.80700 5.23600 34.01400
H  40.14200 9.92400 35.41700
H  41.47000 10.78500 34.62300
H  42.84000 9.62300 36.51700
H  41.24500 9.42700 37.22800
H  36.79800 5.56400 32.24400
H  36.04000 4.71400 30.84500
H  35.53900 6.26200 31.23000
H  35.28200 4.43200 28.47200
H  34.61700 5.41600 27.37200
H  34.66400 6.00600 29.12700
H  40.16200 8.85300 25.25100
H  42.99300 7.64700 25.41800
H  39.52900 7.03300 24.14200
H  40.74500 6.05000 25.01800
H  41.31200 7.02200 23.70300
H  42.22100 9.39000 23.63800
H  43.71400 9.81600 24.50200
H  42.74800 11.86700 24.86100
H  41.49800 11.15800 25.88300
H  41.16800 11.23400 24.16500
H  46.71600 9.95300 28.10200
H  47.31800 10.97500 29.37700
H  46.22500 11.58700 28.20600
H  43.89800 11.04300 33.99200
H  46.90000 10.00100 36.55500
H  46.82100 8.44300 35.74400
H  46.00800 8.71700 37.23500
Mg -10.25100 39.87000 39.45200
C  -9.26000 36.48800 38.54600
C  -7.13000 40.89300 38.23600
C  -11.49300 43.02400 39.17400
C  -13.42400 38.66900 39.92000
N  -8.41500 38.76600 38.46700
C  -8.26200 37.43600 38.22800
C  -6.90500 37.21200 37.55000
C  -6.10800 38.54200 37.79000
C  -7.24300 39.44000 38.28500
C  -4.79600 38.49600 38.65600
C  -7.02600 36.68900 36.11300
C  -7.42200 37.74200 35.01100
H  -8.53000 37.61400 34.02900
N  -9.38800 41.73900 38.88700
C  -8.08700 41.85500 38.48900
C  -7.93600 43.32100 38.29500
C  -9.08700 44.01200 38.79600
C  -10.09300 42.94800 38.97000
C  -6.69100 43.93400 37.74200
C  -9.32500 45.52900 38.91800
O  -8.42500 46.33700 38.67000
C  -10.69800 46.18100 39.30400
N  -12.16000 40.67500 39.37000
C  -12.47200 42.03800 39.41700
C  -13.95100 42.38300 39.73500
C  -14.41300 40.92900 40.09700
C  -13.32200 40.01200 39.71200
C  -14.22900 43.49000 40.79400
C  -15.80600 40.56400 39.39700
C  -15.83700 39.96900 37.98000
N  -11.14500 37.92400 39.51100
C  -12.43900 37.66300 39.76400
C  -12.63100 36.27400 39.83700
C  -11.40100 35.72500 39.34400
C  -10.51700 36.82700 39.13500
C  -13.85400 35.59400 40.34300
C  -10.74800 34.52400 38.97300
O  -11.01100 33.34300 38.98900
C  -9.33700 35.00900 38.45200
C  -8.28900 34.28100 39.17700
O  -8.09100 34.34100 40.35700
O  -7.50700 33.59900 38.26300
C  -6.29800 33.01300 38.70800
H  -6.12300 41.19600 37.94100
H  -11.90100 44.03400 39.24800
H  -14.40100 38.25700 40.18200
H  -6.39900 36.50400 38.20600
H  -5.80200 39.02900 36.86400
H  -4.67300 37.47700 39.02100
H  -4.82700 39.11400 39.55400
H  -3.91100 38.73300 38.06600
H  -7.63900 35.78800 36.08200
H  -6.03900 36.33600 35.81200
H  -6.54700 37.67000 34.36500
H  -7.47500 38.72800 35.47200
H  -5.91100 43.95600 38.50400
H  -6.88000 44.96400 37.44200
H  -6.35000 43.27300 36.94500
H  -11.08900 45.60300 40.14100
H  -11.33900 45.92900 38.45900
H  -10.60200 47.26200 39.40800
H  -14.49400 42.66900 38.83500
H  -14.63500 41.00100 41.16200
H  -13.18300 43.64600 41.05900
H  -14.89000 43.26000 41.63000
H  -14.69400 44.29600 40.22600
H  -16.32900 41.51900 39.35400
H  -16.29700 39.93300 40.13800
H  -15.92700 38.88200 37.96900
H  -14.86500 40.11600 37.51000
H  -16.59700 40.45900 37.37200
H  -13.72000 34.56300 40.67000
H  -14.58700 35.64500 39.53800
H  -14.21400 36.21900 41.16000
H  -9.25100 34.70900 37.40800
H  -6.48100 32.00400 39.07600
H  -5.72600 33.60000 39.42700
H  -5.68900 33.12700 37.81200

