158

Mg -0.21500 7.84700 25.77200
C  0.42400 9.36100 28.76500
C  -0.96300 4.89500 27.25200
C  -0.75000 6.45900 22.71400
C  0.81400 10.86100 24.28100
N  -0.14200 7.22500 27.71000
C  0.01900 8.01000 28.85200
C  -0.37500 7.21700 30.11500
C  -0.46100 5.73400 29.62000
C  -0.51100 5.92200 28.09800
C  0.69400 4.72400 30.02400
C  -1.64500 7.73100 30.92500
C  -1.51100 7.77500 32.48200
H  -0.63400 6.75000 33.17100
N  -0.72400 5.90100 25.10100
C  -1.02600 4.84000 25.87700
C  -1.47000 3.72300 25.04300
C  -1.37300 4.15900 23.69000
C  -0.90000 5.53900 23.79400
C  -1.97800 2.39500 25.58500
C  -1.51300 3.45700 22.36300
O  -1.20500 3.89100 21.24500
C  -2.14400 2.07800 22.40100
N  0.19300 8.54500 23.77800
C  -0.34900 7.81200 22.69200
C  0.07400 8.51000 21.37400
C  0.28300 9.97000 21.89100
C  0.54500 9.76600 23.38400
C  1.35400 7.85900 20.71500
C  -0.87100 11.00900 21.65100
C  -2.36000 10.59200 21.39700
N  0.53800 9.72800 26.32900
C  0.81300 10.88900 25.62900
C  1.00500 12.01400 26.49200
C  0.99900 11.45800 27.77300
C  0.63400 10.06300 27.61100
C  1.28800 13.40100 26.04100
C  1.15800 11.66700 29.19700
O  1.58700 12.69900 29.69600
C  0.55900 10.34200 29.92900
C  1.55800 9.92200 30.95500
O  2.55500 9.23300 30.74100
O  1.17200 10.42500 32.19000
C  2.13300 10.36400 33.32400
H  -1.29500 3.99200 27.76900
H  -1.04200 6.10100 21.72400
H  0.92700 11.78700 23.71300
H  0.50800 7.25300 30.75300
H  -1.36200 5.26700 30.01700
H  1.47300 5.30800 30.51300
H  1.09800 4.37000 29.07600
H  0.34100 3.83900 30.55300
H  -2.52500 7.16100 30.62800
H  -1.93900 8.73100 30.60400
H  -2.53400 7.60600 32.81900
H  -1.09600 8.77000 32.64400
H  -3.00200 2.29600 25.22500
H  -1.94000 2.43600 26.67300
H  -1.40100 1.50500 25.33500
H  -3.13200 2.16700 22.85300
H  -1.52900 1.46500 23.06100
H  -2.11700 1.50700 21.47400
H  -0.81300 8.39500 20.75100
H  1.23900 10.30100 21.48500
H  1.87100 7.29500 21.49100
H  2.00700 8.56300 20.19900
H  1.05900 7.18600 19.91000
H  -0.59300 11.70100 20.85700
H  -1.05100 11.53400 22.58900
H  -2.85100 10.73200 22.36000
H  -2.46300 9.54900 21.09700
H  -2.76100 11.24800 20.62400
H  1.72500 13.78100 26.96400
H  0.38500 13.92900 25.73300
H  2.03900 13.31200 25.25700
H  -0.30000 10.67800 30.51100
H  2.40500 11.38900 33.57400
H  3.05500 9.85600 33.04000
H  1.71600 9.87800 34.20600
Mg 44.09600 5.27200 47.05300
C  42.07500 8.17200 46.73900
C  41.33600 3.31400 46.45600
C  45.99400 2.57300 46.54000
C  46.83600 7.34400 46.95100
N  41.91600 5.73400 46.75600
C  41.34700 6.91400 46.51300
C  39.90900 6.74700 45.98500
C  39.62200 5.19300 46.34200
C  41.00900 4.67900 46.49900
C  38.60100 4.86900 47.56100
C  39.71200 7.04500 44.41200
C  39.08500 8.40300 44.00300
H  39.70500 9.19800 42.87300
N  43.69200 3.19300 46.60400
C  42.50000 2.57000 46.43700
C  42.63400 1.19800 46.16900
C  44.02200 0.91100 46.20000
C  44.67400 2.23100 46.45400
C  41.48300 0.29400 45.87000
C  44.65800 -0.53400 46.01300
O  43.93000 -1.53000 45.77400
C  46.10500 -0.71800 45.77400
N  46.09400 4.98200 46.95500
C  46.65800 3.79400 46.79000
C  48.17500 3.84200 46.71100
C  48.53100 5.34200 46.66000
C  47.09200 5.95400 46.92200
C  48.80400 2.96300 47.84200
C  49.03200 5.92100 45.28100
C  50.29400 5.31900 44.66100
N  44.45800 7.35000 46.99000
C  45.63800 8.01300 46.97500
C  45.36100 9.42400 46.95300
C  43.96200 9.54900 46.91000
C  43.45100 8.24400 46.92800
C  46.36400 10.57600 46.88800
C  42.84200 10.49000 46.84300
O  42.80700 11.71100 46.81000
C  41.58800 9.60900 46.66400
C  40.61500 9.94400 47.72800
O  40.65500 9.46600 48.86000
O  39.67000 10.86300 47.30700
C  38.58600 11.17500 48.13900
H  40.44400 2.69000 46.37500
H  46.68200 1.82200 46.14600
H  47.66400 8.05600 46.97600
H  39.24600 7.45200 46.48600
H  39.20100 4.74300 45.44300
H  38.16900 3.91800 47.25200
H  37.76800 5.51400 47.84200
H  39.21800 4.86700 48.46000
H  39.15500 6.18700 44.03600
H  40.67900 6.95500 43.91700
H  39.04900 8.99200 44.92000
H  38.01600 8.22400 43.89200
H  40.48300 0.70200 46.01900
H  41.63800 -0.56500 46.52200
H  41.73200 -0.13900 44.90100
H  46.38000 0.08100 45.08600
H  46.30000 -1.73500 45.43400
H  46.65600 -0.69700 46.71400
H  48.49600 3.36500 45.78600
H  49.11400 5.56200 47.55400
H  49.54300 3.53700 48.40200
H  49.23600 2.00100 47.56600
H  48.10200 2.78500 48.65600
H  49.37300 6.93700 45.48100
H  48.16700 5.86600 44.62000
H  50.28400 4.91700 43.64800
H  50.64600 4.57400 45.37500
H  51.16100 5.98000 44.66200
H  46.38800 11.05800 45.91000
H  47.33600 10.22800 47.23800
H  45.90700 11.24200 47.61900
H  41.20000 9.72000 45.65200
H  37.67100 10.91700 47.60600
H  38.46500 12.23400 48.36900
H  38.43100 10.47800 48.96200

