158

Mg 48.18100 23.96700 28.06200
C  49.09800 26.39600 30.60000
C  47.46300 21.88100 30.64200
C  47.57400 21.75200 25.78500
C  49.29300 26.28900 25.65300
N  48.29900 24.20600 30.41600
C  48.58900 25.24100 31.19400
C  48.47400 24.95300 32.69200
C  48.10000 23.39900 32.62500
C  47.93300 23.11600 31.16600
C  49.12700 22.42800 33.27000
C  47.43700 25.90900 33.39000
C  46.56800 25.47600 34.59100
H  46.54200 26.38100 35.82700
N  47.54500 22.01100 28.18000
C  47.30600 21.30000 29.32300
C  46.82900 20.01900 28.93400
C  46.74500 20.02700 27.52200
C  47.29100 21.27000 27.08600
C  46.47900 18.94900 29.94500
C  46.29700 19.01700 26.53100
O  46.39000 19.06700 25.32100
C  45.61200 17.80000 27.06300
N  48.68900 23.84500 26.08200
C  48.18600 22.85700 25.28900
C  48.35500 23.14300 23.78900
C  49.07300 24.52400 23.77100
C  48.98700 24.94100 25.27900
C  49.20500 22.03600 23.09200
C  48.37000 25.50300 22.83900
C  49.21600 25.59800 21.45800
N  48.90700 25.98600 28.05600
C  49.31100 26.80000 26.94600
C  49.67000 28.14100 27.44000
C  49.69400 27.96700 28.84600
C  49.14000 26.67000 29.19400
C  50.18200 29.23700 26.66600
C  50.00200 28.70100 30.04700
O  50.43600 29.78800 30.14700
C  49.49200 27.76200 31.19900
C  50.57200 27.77200 32.25000
O  51.67000 27.27900 32.18600
O  50.16200 28.68900 33.17900
C  50.86100 28.66500 34.46500
H  47.20500 21.18300 31.44200
H  47.30900 21.08900 24.95800
H  49.65800 26.86700 24.80200
H  49.48400 25.07600 33.08100
H  47.11600 23.19200 33.04500
H  49.57800 21.72800 32.56700
H  48.53100 21.82500 33.95500
H  49.80300 23.04500 33.86100
H  46.83600 26.49100 32.69300
H  47.93500 26.78600 33.80300
H  46.91700 24.55200 35.05200
H  45.53100 25.27900 34.31800
H  45.47200 18.55700 29.80800
H  46.59200 19.29800 30.97100
H  47.08600 18.05300 29.81800
H  46.23800 17.18600 27.71100
H  45.26000 17.07300 26.33100
H  44.79000 18.20400 27.65400
H  47.35800 23.04100 23.35900
H  50.10600 24.30500 23.50100
H  49.77300 21.40900 23.77900
H  49.87500 22.44200 22.33400
H  48.51000 21.36600 22.58500
H  48.35900 26.47900 23.32300
H  47.34900 25.17900 22.63500
H  48.66900 25.01300 20.71900
H  50.25700 25.28100 21.51100
H  49.22400 26.66300 21.22400
H  49.48900 30.06000 26.84400
H  50.27200 28.97500 25.61200
H  51.11600 29.50000 27.16300
H  48.66800 28.32600 31.63800
H  51.90900 28.36500 34.45800
H  50.23300 28.25400 35.25600
H  50.84600 29.73900 34.65000
Mg 16.71200 51.86700 26.38400
C  18.45700 50.39100 29.14500
C  14.18100 52.74800 28.57400
C  15.08700 53.07000 23.78200
C  19.16600 50.48500 24.30300
N  16.33700 51.44400 28.61300
C  17.28100 51.01500 29.49200
C  16.91400 51.37400 30.90500
C  15.41100 51.78100 30.73700
C  15.24200 52.03800 29.21900
C  14.42300 50.67700 31.22300
C  17.87300 52.43400 31.50800
C  18.18300 52.25800 33.05800
H  17.08000 51.69600 33.88800
N  14.83200 52.73400 26.15700
C  13.96600 53.06700 27.15500
C  12.87600 53.84100 26.61000
C  13.10100 53.95400 25.26600
C  14.35200 53.22300 24.92700
C  11.76800 54.33600 27.47600
C  12.25700 54.61400 24.15800
O  12.71000 54.79900 23.04100
C  10.85500 55.21200 24.57100
N  16.99000 51.67400 24.27500
C  16.22800 52.35200 23.40600
C  16.85700 52.35700 21.93500
C  18.19600 51.58900 22.16700
C  18.09900 51.18600 23.61700
C  16.13400 51.50800 20.84800
C  19.47900 52.28300 21.81600
C  20.61800 51.46200 21.19700
N  18.43000 50.70000 26.56500
C  19.38600 50.21600 25.65600
C  20.41000 49.42400 26.25100
C  20.09000 49.56000 27.66300
C  18.88100 50.26800 27.75900
C  21.54300 48.73500 25.51600
C  20.53300 49.20600 28.98100
O  21.50800 48.54900 29.32200
C  19.60000 49.86100 30.01900
C  19.21000 48.81500 30.98700
O  18.51400 47.84400 30.80400
O  19.69300 49.20200 32.22000
C  19.32600 48.43700 33.38900
H  13.39900 53.20500 29.18400
H  14.62300 53.46100 22.87400
H  20.05800 50.15300 23.76700
H  17.08600 50.48900 31.51800
H  15.29500 52.75300 31.21600
H  13.47200 51.07700 31.57300
H  14.89500 50.08600 32.00800
H  14.24200 50.02800 30.36600
H  17.35300 53.39100 31.47400
H  18.73400 52.51900 30.84500
H  18.33700 53.25700 33.46700
H  19.16800 51.79400 33.10200
H  10.91200 53.70400 27.23900
H  11.53900 55.34000 27.11800
H  12.00300 54.31500 28.54000
H  10.20300 55.34400 23.70800
H  10.94300 56.11900 25.17000
H  10.26100 54.48200 25.12000
H  16.97700 53.39900 21.63600
H  18.27600 50.62800 21.65900
H  15.63200 50.59800 21.17700
H  16.80700 51.28400 20.02100
H  15.36400 52.08100 20.33200
H  19.81300 52.70100 22.76500
H  19.35100 53.14400 21.15900
H  20.32500 50.50200 20.77100
H  21.30200 51.29100 22.02800
H  21.13400 52.10600 20.48600
H  21.41300 47.66400 25.35900
H  22.41000 49.04100 26.10100
H  21.65700 49.09700 24.49400
H  20.07600 50.68000 30.55700
H  18.23700 48.42700 33.33800
H  19.63400 48.87900 34.33600
H  19.57200 47.38000 33.28400

