158

Mg 9.68100 47.75800 25.78900
C  7.71500 48.11500 28.48100
C  12.40000 49.09600 27.69000
C  11.84800 47.51000 23.20100
C  6.99800 47.54500 23.62500
N  10.01000 48.67500 27.80400
C  9.04500 48.51900 28.78100
C  9.50800 49.06400 30.16500
C  10.97400 49.58700 29.81200
C  11.13600 49.13500 28.32800
C  11.15100 51.13800 29.97800
C  9.21500 48.15300 31.44600
C  9.77800 48.58200 32.72800
H  8.96600 48.29400 33.98100
N  11.82900 48.13000 25.57000
C  12.72400 48.62900 26.42300
C  14.09600 48.36400 26.00000
C  13.94300 47.78900 24.69900
C  12.51100 47.78500 24.39600
C  15.35000 48.61500 26.79100
C  14.97300 47.30900 23.77000
O  14.69400 46.91300 22.69200
C  16.37700 47.44200 24.13200
N  9.49500 47.46500 23.75500
C  10.56600 47.50800 22.90900
C  10.06100 47.30000 21.45200
C  8.49200 47.22400 21.64300
C  8.27700 47.45100 23.09500
C  10.48800 48.36000 20.42600
C  7.86000 45.82200 21.12400
C  7.45900 45.74000 19.63500
N  7.70900 47.78500 25.96900
C  6.70300 47.62500 25.06400
C  5.43700 47.57800 25.77900
C  5.77500 47.61600 27.11000
C  7.17100 47.89100 27.17400
C  4.11600 47.26800 25.16800
C  5.22900 47.54400 28.51400
O  4.15400 47.44000 29.02800
C  6.54700 47.86300 29.40100
C  6.72200 46.65900 30.30900
O  7.59900 45.76700 30.12400
O  5.89800 46.71400 31.37500
C  6.08100 45.64200 32.41200
H  13.10400 49.59500 28.36000
H  12.43200 47.49300 22.27800
H  6.23400 47.38300 22.86100
H  8.90100 49.95800 30.31000
H  11.60800 49.00500 30.48100
H  11.90000 51.36900 30.73600
H  10.28300 51.75100 30.22000
H  11.53000 51.42200 28.99600
H  9.26200 47.08300 31.24600
H  8.18900 48.44200 31.67300
H  9.87600 49.66200 32.61600
H  10.74900 48.09200 32.79800
H  15.38400 48.97800 27.81800
H  15.90400 49.35100 26.20900
H  15.89500 47.67100 26.80900
H  16.51300 46.81800 25.01600
H  16.58100 48.47400 24.41900
H  17.07300 47.13500 23.35200
H  10.45100 46.30400 21.24300
H  8.09800 48.10800 21.14000
H  9.70000 48.59600 19.71100
H  11.41000 48.03900 19.94100
H  10.77600 49.30800 20.88000
H  7.01300 45.60100 21.77300
H  8.61100 45.05700 21.32200
H  7.79800 46.69100 19.22300
H  6.37500 45.62100 19.62100
H  7.97900 44.87100 19.23200
H  3.72300 48.10700 24.59400
H  3.46200 47.15500 26.03300
H  4.23400 46.35300 24.58700
H  6.30800 48.70800 30.04500
H  6.49300 46.11200 33.30500
H  6.73700 44.81200 32.15000
H  5.11400 45.14500 32.48400
Mg -1.92000 35.04300 26.80500
C  -3.73800 33.24900 29.44900
C  -0.22100 36.80000 29.18800
C  -0.81200 37.12900 24.43800
C  -3.93000 33.41100 24.55600
N  -2.04100 35.08100 29.03900
C  -2.74900 34.27800 29.90600
C  -2.34300 34.59500 31.32000
C  -1.42700 35.81500 31.22300
C  -1.21000 35.94500 29.72500
C  -1.91100 37.07500 31.96800
C  -1.60900 33.33700 31.99600
C  -2.36700 32.71900 33.19300
H  -1.53100 32.28000 34.44400
N  -0.58600 36.63100 26.77900
C  0.02000 37.19100 27.85900
C  0.95500 38.21600 27.43200
C  0.82700 38.29500 26.07800
C  -0.26800 37.41700 25.71800
C  1.80300 38.98600 28.43100
C  1.50500 39.18700 25.16000
O  1.33400 39.34300 23.96800
C  2.59400 40.04800 25.78700
N  -2.31500 35.27100 24.78200
C  -1.74200 36.22400 23.98500
C  -2.21300 36.15100 22.55500
C  -3.10700 34.88700 22.51100
C  -3.18700 34.49600 24.05500
C  -2.94400 37.42300 22.07200
C  -2.61400 33.71300 21.66900
C  -1.18200 33.32200 21.96500
N  -3.50100 33.60000 26.88800
C  -4.13100 32.98700 25.90800
C  -4.97200 31.91700 26.45000
C  -4.87100 32.00400 27.85000
C  -3.98800 33.01000 28.08700
C  -5.67700 30.95900 25.55500
C  -5.34300 31.46300 29.16900
O  -6.16100 30.59900 29.42300
C  -4.65000 32.36400 30.29000
C  -5.72200 33.08300 30.95600
O  -6.25900 34.07200 30.58600
O  -6.12200 32.40900 32.07200
C  -7.13600 33.12400 32.84800
H  0.33400 37.30500 29.98200
H  -0.37700 37.65700 23.58600
H  -4.43200 32.71400 23.88300
H  -3.21200 34.87100 31.91700
H  -0.40200 35.56400 31.49500
H  -2.62800 36.78100 32.73400
H  -2.53600 37.63000 31.26800
H  -1.17600 37.77100 32.37300
H  -0.55100 33.39900 32.25100
H  -1.53200 32.63000 31.17000
H  -2.81900 31.79700 32.82800
H  -3.21100 33.32900 33.51300
H  2.86800 38.97200 28.19900
H  1.89800 38.41800 29.35700
H  1.51200 40.02600 28.57600
H  2.20800 40.63700 26.61800
H  3.06100 40.69700 25.04700
H  3.46300 39.52100 26.18300
H  -1.31400 36.08100 21.94300
H  -4.15800 35.04000 22.26500
H  -2.87200 38.12800 22.90000
H  -4.00500 37.25800 21.88100
H  -2.41300 37.79700 21.19700
H  -2.68300 33.97600 20.61400
H  -3.28500 32.88000 21.88000
H  -1.00300 32.29800 22.29200
H  -0.87300 34.00300 22.75800
H  -0.62600 33.55600 21.05700
H  -5.94100 30.02500 26.05200
H  -4.99000 30.81500 24.72100
H  -6.56000 31.48000 25.18500
H  -4.05000 31.70300 30.91600
H  -6.77300 33.89400 33.52900
H  -7.64500 32.35900 33.43600
H  -7.93200 33.49600 32.20500

