158

Mg 31.44000 58.44500 40.60700
C  28.51300 56.73800 39.39700
C  33.36100 55.85400 39.47400
C  34.23500 60.26300 41.33100
C  29.35700 61.22500 41.04900
N  31.00300 56.61000 39.56500
C  29.74000 56.08800 39.08700
C  29.88700 54.79300 38.41300
C  31.33800 54.33400 38.85800
C  31.94900 55.63500 39.42000
C  31.31800 53.18700 39.85800
C  29.67800 55.07500 36.86700
C  28.60300 54.18200 36.27800
H  27.63400 54.77200 35.22800
N  33.45500 58.08700 40.48000
C  34.05900 56.93800 40.07700
C  35.47000 57.05700 40.19800
C  35.76800 58.33700 40.73000
C  34.44800 58.96600 40.91500
C  36.40100 55.92900 39.69300
C  37.14400 58.87300 41.09500
O  38.11000 58.16900 40.98600
C  37.36600 60.15500 41.73100
N  31.75400 60.50600 41.10400
C  33.00100 60.94400 41.43500
C  32.86300 62.48000 41.47700
C  31.32000 62.79100 41.74600
C  30.76800 61.38600 41.34700
C  33.60500 63.11500 42.72300
C  30.74600 63.89500 40.87800
C  29.62400 64.87500 41.43000
N  29.37400 58.83800 40.38500
C  28.67000 60.03900 40.62700
C  27.28300 59.83300 40.26500
C  27.11300 58.49200 39.92600
C  28.45500 57.96700 39.95200
C  26.15200 60.92800 40.22500
C  26.25300 57.52400 39.48000
O  25.03000 57.55400 39.35200
C  27.13300 56.24500 39.02400
C  26.63600 55.13100 39.90400
O  27.05600 54.90500 41.03700
O  25.59000 54.41300 39.31900
C  24.71100 53.49200 40.08300
H  33.88200 54.89400 39.46200
H  35.06200 60.91900 41.61200
H  28.60800 62.00500 41.20100
H  29.28200 53.98000 38.81400
H  31.97600 54.03500 38.02600
H  30.44300 53.29100 40.49800
H  32.18200 53.04500 40.50700
H  31.28200 52.31400 39.20600
H  30.61800 54.94200 36.33200
H  29.38300 56.11900 36.76400
H  27.99100 53.63100 36.99200
H  29.12500 53.36000 35.78600
H  36.28500 56.05700 38.61700
H  36.09000 54.91800 39.95600
H  37.47200 55.94500 39.89500
H  38.36200 60.15200 42.17500
H  36.68600 60.28700 42.57200
H  37.35900 60.99000 41.03000
H  33.09400 62.86200 40.48300
H  31.01800 62.99400 42.77300
H  34.43600 63.73700 42.39000
H  34.09400 62.36300 43.34200
H  33.07800 63.74400 43.44100
H  30.56500 63.46400 39.89400
H  31.54100 64.60900 40.65700
H  28.70800 64.65400 40.88200
H  30.13800 65.82700 41.29300
H  29.47400 64.67800 42.49100
H  25.87100 61.18400 41.24600
H  25.31200 60.39300 39.78000
H  26.41300 61.79300 39.61500
H  26.96600 56.08100 37.96000
H  24.98500 52.44900 39.92800
H  23.68000 53.52700 39.73300
H  24.73400 53.71900 41.14900
Mg 27.10300 51.41900 27.02700
C  24.89500 52.49000 29.34700
C  29.19200 50.30600 29.57000
C  29.27100 50.43000 24.67900
C  25.14100 52.96600 24.53100
N  26.96400 51.36600 29.22200
C  25.93000 51.79200 29.99900
C  26.21600 51.63200 31.50800
C  27.67800 51.06700 31.46100
C  27.99300 50.87700 29.97400
C  28.78200 51.87400 32.18800
C  25.19800 50.62800 32.18300
C  24.44300 51.14600 33.43800
H  25.26400 51.26900 34.77900
N  29.01000 50.54700 27.11300
C  29.64300 50.06000 28.19000
C  30.85300 49.42300 27.77500
C  30.85800 49.35500 26.38600
C  29.60900 50.10200 25.97500
C  31.89600 48.95500 28.81800
C  31.84900 48.70700 25.48400
O  31.66700 48.61900 24.24900
C  33.14800 48.28900 25.98700
N  27.22000 51.68500 24.93700
C  28.20800 51.16100 24.14000
C  27.88300 51.25500 22.66800
C  26.63400 52.21100 22.62200
C  26.36400 52.40300 24.09300
C  29.10600 51.87800 21.93500
C  25.41100 51.67700 21.81800
C  24.79100 50.38900 22.43100
N  25.27100 52.46900 26.89900
C  24.55100 53.00000 25.79000
C  23.34900 53.53800 26.27600
C  23.40800 53.39100 27.68100
C  24.63700 52.74500 27.98700
C  22.29200 54.27700 25.58000
C  22.71700 53.65700 29.00700
O  21.70300 54.25400 29.23100
C  23.66900 52.98100 30.08300
C  24.07900 53.98100 31.07500
O  25.04500 54.66500 31.02100
O  23.16300 54.02100 32.06500
C  23.47700 54.93800 33.22500
H  29.94600 50.08400 30.32700
H  29.88300 50.05900 23.85400
H  24.62400 53.55300 23.76900
H  26.20100 52.58900 32.02900
H  27.72000 50.04900 31.84600
H  29.30600 52.43100 31.41100
H  29.53100 51.20500 32.61200
H  28.33300 52.57700 32.89100
H  25.64500 49.68400 32.49400
H  24.41900 50.48600 31.43300
H  23.56300 50.54600 33.66700
H  24.00300 52.12100 33.22600
H  32.49500 49.83500 29.05100
H  32.52700 48.12000 28.51100
H  31.40700 48.64400 29.74100
H  33.88200 48.32400 25.18100
H  33.13400 47.27000 26.37300
H  33.45600 48.99200 26.76100
H  27.59200 50.26400 22.32100
H  26.90600 53.20000 22.25400
H  29.75500 52.23400 22.73500
H  28.80500 52.68600 21.26800
H  29.53400 51.04200 21.38300
H  25.73900 51.36500 20.82700
H  24.64000 52.44400 21.73800
H  23.70400 50.43800 22.36800
H  25.12800 50.18900 23.44800
H  25.13500 49.48200 21.93200
H  22.05500 53.82700 24.61600
H  22.54800 55.31900 25.39200
H  21.50000 54.28000 26.32900
H  23.08000 52.25200 30.64000
H  24.34100 54.57200 33.78100
H  22.58600 55.14600 33.81800
H  23.72000 55.92000 32.82100

