158

Mg 23.97700 -5.60800 46.51900
C  25.99000 -3.16100 44.78000
C  21.41300 -4.84800 44.39100
C  22.69700 -8.46800 47.35200
C  27.12700 -6.67900 48.02300
N  23.63300 -3.95300 45.05400
C  24.60800 -3.20100 44.39200
C  23.96100 -2.33500 43.27500
C  22.44600 -2.82500 43.29200
C  22.47900 -3.96600 44.28000
C  21.41900 -1.68900 43.58900
C  24.58100 -2.61900 41.82300
C  25.01200 -1.43500 41.01500
H  24.82100 -1.42400 39.56600
N  22.21900 -6.48200 46.10200
C  21.29800 -5.99200 45.22400
C  20.19600 -6.83900 45.12500
C  20.48200 -7.93200 45.98500
C  21.80800 -7.63000 46.61400
C  18.93500 -6.55300 44.31500
C  19.42600 -8.97800 46.36300
O  18.30700 -9.02200 45.75500
C  19.65400 -9.96400 47.50900
N  24.81300 -7.32300 47.61100
C  23.99500 -8.33700 47.84700
C  24.69100 -9.44200 48.76800
C  26.05200 -8.72800 49.07300
C  26.03700 -7.51000 48.12700
C  23.87700 -9.90700 50.04800
C  27.31300 -9.64300 48.91000
C  28.28300 -9.88600 50.11200
N  26.10200 -4.95100 46.58800
C  27.21900 -5.50800 47.21200
C  28.43100 -4.82800 46.76000
C  27.98900 -3.90500 45.84400
C  26.59000 -4.01600 45.75500
C  29.82900 -5.09300 47.26800
C  28.41800 -2.86300 44.92500
O  29.52100 -2.40800 44.79100
C  27.12300 -2.35100 44.21800
C  27.00500 -0.93700 44.63600
O  26.53100 -0.62400 45.72800
O  27.36300 -0.11800 43.60400
C  27.27000 1.33800 43.95800
H  20.66000 -4.53500 43.66500
H  22.33400 -9.47500 47.56400
H  28.11500 -6.98500 48.37400
H  23.97000 -1.26000 43.45500
H  22.03400 -3.11600 42.32600
H  20.72300 -2.07600 44.33400
H  20.78300 -1.44000 42.73900
H  21.88000 -0.79300 44.00600
H  23.95300 -3.27300 41.21700
H  25.49700 -3.19400 41.96100
H  26.06600 -1.34200 41.27700
H  24.45100 -0.61100 41.45500
H  19.00100 -6.96600 43.30800
H  18.77400 -5.48900 44.14500
H  18.02400 -6.98000 44.73300
H  18.75800 -10.42800 47.92100
H  20.08600 -9.36600 48.31100
H  20.32300 -10.76100 47.18500
H  24.89600 -10.29800 48.12500
H  26.11400 -8.29200 50.07000
H  22.88000 -9.46700 50.03600
H  24.48300 -9.65200 50.91800
H  23.87600 -10.99400 49.96900
H  27.91000 -9.28500 48.07200
H  26.87900 -10.60200 48.62500
H  29.29900 -9.58300 49.85600
H  28.50800 -10.94600 50.22500
H  27.99000 -9.35800 51.02000
H  30.57900 -4.33100 47.05700
H  30.23700 -5.98700 46.79600
H  29.78600 -5.22800 48.34900
H  27.40800 -2.50600 43.17800
H  27.55100 1.45200 45.00500
H  26.24000 1.68800 44.03300
H  27.74800 1.96900 43.20900
Mg -1.64700 34.11600 26.83000
C  -3.39300 32.32900 29.29200
C  -0.48900 36.08400 29.38200
C  0.11200 35.90300 24.49500
C  -3.06700 32.24900 24.40400
N  -1.88400 34.12800 29.07000
C  -2.51600 33.17100 29.84000
C  -2.24000 33.39200 31.36900
C  -1.37700 34.70800 31.27500
C  -1.29400 35.04200 29.80300
C  -1.97700 35.94200 32.00800
C  -1.62900 32.20700 32.17500
C  -2.21600 31.95400 33.62000
H  -1.31400 32.03100 34.89600
N  -0.37600 35.80300 26.94500
C  -0.03900 36.42300 28.07400
C  0.91300 37.40800 27.78300
C  1.25800 37.33000 26.39400
C  0.26700 36.37500 25.85600
C  1.60100 38.19700 28.90000
C  2.36500 37.99200 25.58000
O  2.42700 37.89700 24.34900
C  3.41100 38.92600 26.21700
N  -1.62900 34.24300 24.80600
C  -0.72500 34.90900 23.97800
C  -0.55400 34.27700 22.59000
C  -1.71200 33.29200 22.57000
C  -2.14500 33.17500 24.05300
C  -0.57500 35.20100 21.31000
C  -1.29600 32.00900 21.77600
C  -2.21600 31.61400 20.59000
N  -3.08700 32.75800 26.74500
C  -3.56400 32.00900 25.66900
C  -4.40600 30.94900 26.10700
C  -4.36100 31.06500 27.47200
C  -3.56000 32.18100 27.87200
C  -4.97500 29.87000 25.22900
C  -4.78900 30.42300 28.71200
O  -5.56200 29.45600 28.96700
C  -4.11600 31.14400 29.86800
C  -5.20800 31.51300 30.88300
O  -6.25500 32.14700 30.75200
O  -4.87500 30.78500 32.03000
C  -5.77000 30.84300 33.19300
H  -0.06600 36.73800 30.14800
H  0.76800 36.36900 23.75700
H  -3.46400 31.57400 23.64200
H  -3.23400 33.65700 31.73000
H  -0.35100 34.50600 31.58500
H  -1.09500 36.29000 32.54500
H  -2.80500 35.66400 32.66000
H  -2.42300 36.72700 31.39700
H  -0.55100 32.36100 32.22200
H  -1.71600 31.33900 31.52200
H  -2.76400 31.02800 33.79700
H  -3.01000 32.69700 33.68700
H  2.30200 37.52800 29.40000
H  0.86900 38.65100 29.56700
H  2.14500 39.09000 28.59200
H  3.98100 38.28200 26.88700
H  2.87800 39.72900 26.72500
H  4.10400 39.20000 25.42200
H  0.39000 33.74000 22.67700
H  -2.55900 33.73400 22.04500
H  0.49000 35.39700 21.19300
H  -1.04000 36.16600 21.50800
H  -0.98400 34.69500 20.43400
H  -1.23100 31.16500 22.46200
H  -0.24700 32.00300 21.47900
H  -1.57100 31.41400 19.73500
H  -2.98200 32.36800 20.41000
H  -2.75500 30.69600 20.82600
H  -4.48300 29.77200 24.26000
H  -5.98600 30.16200 24.94500
H  -5.04500 28.95600 25.81700
H  -3.39700 30.49100 30.36200
H  -6.02000 31.87200 33.45300
H  -5.17300 30.52600 34.04800
H  -6.58600 30.12700 33.09600

