158

Mg 46.37800 24.48600 28.44300
C  46.72300 26.86500 31.15900
C  46.04200 22.11000 30.98600
C  46.24100 22.32400 26.04300
C  47.57500 26.92700 26.24800
N  46.16900 24.49200 30.80800
C  46.51100 25.57100 31.66400
C  46.46900 25.10500 33.16100
C  46.18400 23.54800 32.99200
C  46.22900 23.36600 31.47400
C  47.19000 22.66400 33.90100
C  45.45500 25.86600 34.02900
C  45.01000 25.19900 35.37500
H  45.80700 25.62900 36.59900
N  46.08600 22.51500 28.47300
C  45.93700 21.73300 29.61100
C  45.74100 20.33900 29.15600
C  45.70900 20.40100 27.69800
C  45.97400 21.80000 27.35800
C  45.66200 19.16100 30.10900
C  45.43100 19.25100 26.76100
O  45.58300 19.34900 25.58400
C  44.99800 18.01400 27.30900
N  46.79000 24.70100 26.39200
C  46.64100 23.61100 25.58800
C  47.03700 23.91000 24.21500
C  47.54000 25.42300 24.24600
C  47.32900 25.72700 25.70400
C  48.04500 22.89900 23.55400
C  46.84100 26.43600 23.30300
C  45.34300 26.79800 23.64100
N  46.93900 26.43000 28.55800
C  47.38500 27.26300 27.61900
C  47.58400 28.58400 28.13100
C  47.34900 28.43100 29.53500
C  46.95700 27.11000 29.75600
C  48.01400 29.84500 27.33000
C  47.41400 29.16100 30.79000
O  47.66500 30.32900 31.06300
C  46.92900 28.20700 31.93000
C  48.06400 27.95200 32.85400
O  49.01300 27.23900 32.59900
O  47.87000 28.70500 33.99900
C  48.92600 28.61700 35.03500
H  46.07700 21.32100 31.74100
H  46.18000 21.55500 25.27100
H  48.06800 27.62300 25.56600
H  47.42000 25.30100 33.65800
H  45.18100 23.35000 33.37000
H  47.95100 23.20200 34.46500
H  47.77300 21.92500 33.35100
H  46.52300 22.17100 34.60900
H  44.61900 26.22100 33.42700
H  45.95100 26.75800 34.40900
H  45.31000 24.15300 35.32400
H  43.94700 25.31600 35.58700
H  45.87800 18.24500 29.56000
H  44.65700 19.10200 30.52700
H  46.41200 19.36700 30.87300
H  45.88800 17.51700 27.69700
H  44.65800 17.42600 26.45700
H  44.20500 18.20400 28.03300
H  46.12500 23.90500 23.61900
H  48.60700 25.56500 24.07800
H  48.72600 23.27600 22.79100
H  47.55000 22.09700 23.00700
H  48.73400 22.46600 24.27800
H  46.82200 26.06200 22.28000
H  47.43000 27.34600 23.42200
H  45.30400 27.87300 23.81400
H  45.02000 26.14300 24.45000
H  44.66600 26.61200 22.80800
H  47.57200 30.68600 27.86300
H  47.54700 29.76300 26.34800
H  49.10200 29.87200 27.28700
H  46.08300 28.60400 32.49100
H  48.59800 29.36700 35.75400
H  49.89300 28.82600 34.57700
H  49.12100 27.61600 35.42100
Mg 35.56800 48.91500 24.67600
C  35.74300 47.08600 27.78800
C  34.40600 51.59100 26.49900
C  35.18000 50.36400 21.85000
C  36.60100 45.98800 23.06600
N  35.16900 49.26200 26.83900
C  35.34900 48.42200 27.93700
C  35.07900 49.12700 29.24000
C  34.43900 50.53100 28.75400
C  34.70000 50.46000 27.27500
C  32.95700 50.91300 29.05300
C  36.32600 49.47400 30.15300
C  36.21000 48.95300 31.53400
H  34.78400 49.07400 32.26300
N  34.95100 50.71300 24.22500
C  34.47700 51.71500 25.07000
C  34.38200 52.92500 24.25600
C  34.55100 52.59800 22.88900
C  34.90300 51.13700 22.94700
C  34.20100 54.36700 24.88500
C  34.38900 53.42700 21.55300
O  34.42400 52.96300 20.40800
C  34.10200 54.91400 21.84000
N  35.90600 48.28500 22.73700
C  35.69900 49.14500 21.70900
C  36.06500 48.52000 20.33500
C  36.64400 47.12100 20.77400
C  36.34600 47.08200 22.26900
C  34.86400 48.44700 19.33400
C  38.11400 46.86900 20.35200
C  39.13400 47.75700 20.96600
N  36.12400 46.95900 25.20600
C  36.47700 45.85700 24.45700
C  36.84800 44.76400 25.30900
C  36.51000 45.14000 26.57100
C  36.09100 46.47500 26.47400
C  37.33800 43.46500 24.84000
C  36.48000 44.76000 28.03100
O  36.73200 43.68900 28.62300
C  36.06500 46.01400 28.87100
C  34.78500 45.61100 29.44500
O  33.63300 45.47200 29.01400
O  35.17600 45.13700 30.63400
C  34.16800 44.37600 31.40400
H  34.14800 52.51100 27.02800
H  35.24700 50.79000 20.84700
H  36.97800 45.15400 22.47100
H  34.33500 48.52700 29.76500
H  34.96800 51.39600 29.15300
H  32.92600 51.71800 29.78700
H  32.57400 50.06500 29.62100
H  32.31100 51.10300 28.19600
H  36.38400 50.54000 30.36900
H  37.20500 49.04500 29.67200
H  37.04100 49.37900 32.09600
H  36.44700 47.88900 31.55300
H  33.35700 54.94700 24.51200
H  35.07000 55.00200 24.71400
H  34.11100 54.34300 25.97100
H  33.84700 55.50000 20.95800
H  34.99000 55.31200 22.33100
H  33.22800 54.95500 22.49000
H  36.74900 49.22700 19.86500
H  36.07300 46.34900 20.25800
H  34.27000 47.58400 19.63600
H  35.14400 48.50100 18.28200
H  34.25200 49.34000 19.46400
H  38.10300 46.89100 19.26200
H  38.46100 45.89200 20.68900
H  39.27900 48.58900 20.27700
H  39.99500 47.26100 21.41400
H  38.78500 48.08600 21.94600
H  37.93000 43.06500 25.66400
H  37.93600 43.55600 23.93300
H  36.53200 42.78600 24.56200
H  36.86400 46.28800 29.56000
H  33.60100 45.03800 32.05800
H  34.71500 43.73700 32.09700
H  33.53400 43.74400 30.78200

