158

Mg 47.51200 15.75700 28.43500
C  45.34500 15.47100 31.46200
C  49.72100 17.09400 30.50000
C  49.00500 16.66900 25.71500
C  44.76600 14.40900 26.67700
N  47.48300 16.19300 30.74200
C  46.57100 16.05600 31.72400
C  47.07000 16.53000 33.07600
C  48.51100 17.12100 32.72600
C  48.58100 16.70200 31.19900
C  48.68900 18.66400 33.02400
C  47.14400 15.45300 34.13800
C  46.87500 15.82300 35.56300
H  47.07300 17.27300 36.00600
N  49.19200 16.61400 28.14700
C  50.00300 17.08800 29.13800
C  51.16600 17.61600 28.52000
C  51.01700 17.50200 27.13500
C  49.68000 16.92900 26.94500
C  52.32500 18.18600 29.35800
C  51.91000 17.96900 26.05700
O  51.70700 17.85100 24.81800
C  53.23200 18.73700 26.38400
N  46.91200 15.68600 26.47700
C  47.75500 16.04200 25.51200
C  47.20500 15.70600 24.12300
C  45.95900 14.81000 24.37200
C  45.82200 14.95500 25.92600
C  46.79800 16.97500 23.45700
C  46.11000 13.30700 23.87700
C  47.06400 12.36500 24.62400
N  45.59200 15.04300 28.94100
C  44.61100 14.54800 28.05700
C  43.49200 14.11200 28.75300
C  43.68200 14.58800 30.07200
C  44.98100 15.11500 30.14200
C  42.28800 13.47200 28.22400
C  43.03500 14.64200 31.38800
O  41.90900 14.30700 31.67000
C  44.12600 15.18700 32.39100
C  43.69500 16.42000 33.04300
O  43.39400 17.48800 32.45200
O  43.75300 16.33400 34.42300
C  43.30500 17.63500 35.01700
H  50.40800 17.59700 31.18400
H  49.59100 16.94000 24.83400
H  43.97300 13.89800 26.12700
H  46.34900 17.29500 33.36200
H  49.26300 16.58000 33.29900
H  47.84300 18.93100 33.65700
H  48.72500 19.27100 32.11900
H  49.50800 19.05900 33.62600
H  48.11400 14.95900 34.19600
H  46.51400 14.60400 33.87000
H  47.55100 15.12400 36.05500
H  45.86200 15.45900 35.73800
H  53.29900 17.73900 29.15500
H  52.12600 18.24700 30.42800
H  52.42900 19.24000 29.10300
H  53.90100 18.02100 26.86000
H  52.96900 19.55800 27.05100
H  53.72500 19.03600 25.45900
H  48.03700 15.24100 23.59500
H  45.07000 15.28800 23.95900
H  46.65800 16.83300 22.38500
H  47.61300 17.68200 23.61500
H  45.91100 17.46200 23.86200
H  46.13300 13.20700 22.79200
H  45.10200 12.95100 24.09100
H  47.69400 11.93700 23.84400
H  46.53600 11.54400 25.11000
H  47.65900 12.98900 25.29100
H  42.18200 13.39500 27.14200
H  41.44200 14.06800 28.56600
H  42.14900 12.52300 28.74200
H  44.29800 14.51800 33.23400
H  42.22100 17.56200 34.93000
H  43.79100 18.50700 34.57900
H  43.60200 17.64100 36.06600
Mg 47.91200 25.18600 28.56200
C  48.87400 27.69700 30.92600
C  47.01000 23.21200 31.17900
C  47.20100 22.93600 26.39900
C  49.30900 27.23100 25.96700
N  48.08300 25.42200 30.78600
C  48.32300 26.54800 31.52900
C  48.11900 26.25500 33.04200
C  47.78500 24.73200 33.03400
C  47.52600 24.45800 31.60000
C  48.89100 23.84000 33.57500
C  46.87800 27.03600 33.53100
C  47.31300 27.92000 34.79600
H  46.30100 28.06000 35.98400
N  47.20000 23.29900 28.71700
C  46.92000 22.62500 29.86900
C  46.60400 21.23200 29.57400
C  46.45100 21.21200 28.14300
C  46.98200 22.51200 27.71000
C  46.29800 20.22100 30.61400
C  45.88500 20.08800 27.25900
O  45.70100 20.20900 26.02600
C  45.51700 18.75600 27.87900
N  48.23300 25.12900 26.48800
C  47.68700 24.11400 25.80500
C  48.03400 24.27500 24.32400
C  48.46500 25.76500 24.08900
C  48.71700 26.01700 25.59600
C  48.82800 23.15000 23.63600
C  47.40600 26.66800 23.52000
C  47.86600 28.02500 22.98600
N  48.69400 27.14100 28.35300
C  49.23500 27.83500 27.25400
C  49.68300 29.17500 27.66800
C  49.55600 29.17000 29.13300
C  48.94900 27.83400 29.51300
C  50.40000 30.24600 27.00200
C  49.66900 29.93500 30.32600
O  50.15800 31.02700 30.49100
C  49.14400 29.08300 31.48900
C  50.10800 28.91000 32.68300
O  51.12300 28.22500 32.68100
O  49.84600 29.74200 33.69100
C  50.70200 29.75900 34.89400
H  46.72100 22.58500 32.02500
H  46.89000 22.19500 25.66000
H  49.79800 27.87500 25.23400
H  48.96700 26.58900 33.63900
H  46.78900 24.53000 33.42800
H  48.45100 22.88800 33.87200
H  49.42600 24.24900 34.43200
H  49.56900 23.70500 32.73200
H  46.00600 26.42900 33.77200
H  46.57600 27.76900 32.78300
H  47.34700 28.95800 34.46600
H  48.26300 27.65400 35.25900
H  45.22900 20.15700 30.81500
H  46.81500 20.50100 31.53200
H  46.67500 19.24900 30.29400
H  46.33400 18.17900 28.31300
H  44.95300 18.10400 27.21300
H  44.86700 18.82700 28.75100
H  47.10200 24.19100 23.76600
H  49.34800 25.86600 23.45800
H  49.63800 23.61100 23.07100
H  48.30100 22.46200 22.97500
H  49.27500 22.50800 24.39500
H  46.77500 26.81900 24.39600
H  46.87700 26.13000 22.73300
H  48.93800 28.22000 23.02700
H  47.34100 28.81100 23.52900
H  47.76400 27.96000 21.90300
H  49.98400 30.47300 26.02000
H  51.47000 30.11200 26.84900
H  50.27000 31.17300 27.56000
H  48.22700 29.58700 31.79500
H  51.71200 29.61900 34.50700
H  50.43100 29.02200 35.65000
H  50.68800 30.76300 35.31900

