158

Mg 50.01900 47.34300 43.37500
C  46.50600 47.69600 42.95500
C  49.91200 44.52500 41.67400
C  53.35100 47.29200 43.37300
C  50.06200 50.56200 44.84300
N  48.35400 46.41200 42.22800
C  47.03000 46.60000 42.28700
C  46.19700 45.50000 41.64500
C  47.24700 44.33100 41.50000
C  48.59700 45.12600 41.77500
C  47.04600 43.16800 42.56500
C  45.62600 45.92500 40.27000
C  44.24300 45.29000 39.96400
H  43.85800 45.07600 38.55300
N  51.50200 46.05400 42.56900
C  51.21600 44.89100 41.99900
C  52.40600 44.15500 41.77300
C  53.53100 44.97600 42.11800
C  52.84000 46.17400 42.76400
C  52.51300 42.86200 41.15600
C  54.96200 44.60900 42.09500
O  55.26700 43.56000 41.63000
C  56.12100 45.37200 42.50200
N  51.52600 48.73600 43.95700
C  52.83900 48.39300 43.98200
C  53.72200 49.42100 44.68200
C  52.66900 50.44400 45.13700
C  51.32400 49.89800 44.54900
C  54.71700 48.90600 45.74200
C  53.07300 51.89900 44.77300
C  54.03000 52.56500 45.80800
N  48.57700 48.87400 43.90800
C  48.78000 50.11400 44.44700
C  47.44700 50.70000 44.58300
C  46.53500 49.77300 44.09300
C  47.28400 48.70600 43.62700
C  47.07600 51.92600 45.29100
C  45.10600 49.43700 43.92400
O  44.04800 50.00900 44.23500
C  45.03300 48.08000 43.12900
C  44.40100 46.99600 43.99800
O  44.74600 46.60700 45.05300
O  43.25600 46.48000 43.36500
C  42.42100 45.55300 44.00200
H  49.86300 43.45800 41.44700
H  54.43400 47.15600 43.40600
H  50.19800 51.49200 45.39800
H  45.34500 45.34100 42.30600
H  47.32500 43.99600 40.46600
H  47.23800 42.21600 42.07000
H  45.97700 43.06700 42.75200
H  47.55300 43.38000 43.50600
H  46.31400 45.65300 39.47000
H  45.52800 47.00900 40.21300
H  43.50100 46.04500 40.22400
H  44.18400 44.35800 40.52700
H  53.06100 42.94100 40.21700
H  51.57700 42.46900 40.75900
H  52.91700 42.00800 41.69900
H  56.16900 46.34300 42.00900
H  56.99000 44.79700 42.18400
H  56.06300 45.70200 43.53900
H  54.25200 49.89700 43.85800
H  52.57800 50.36700 46.22100
H  55.73100 48.89800 45.34100
H  54.33300 47.93900 46.06700
H  54.70300 49.45900 46.68200
H  52.10800 52.40200 44.84600
H  53.55600 52.01900 43.80400
H  53.70600 53.56900 46.07900
H  54.96800 52.65600 45.26200
H  54.34300 51.89300 46.60700
H  46.78900 51.73100 46.32500
H  46.18900 52.26700 44.75700
H  47.92000 52.61500 45.26800
H  44.62300 48.23200 42.13100
H  42.43600 45.54500 45.09200
H  42.63000 44.53800 43.66300
H  41.39500 45.73600 43.68200
Mg -12.54600 16.80400 42.32100
C  -9.65900 14.78900 41.61300
C  -10.98600 19.39000 40.70900
C  -15.53500 18.22800 41.96300
C  -14.24400 13.81900 43.22500
N  -10.54400 16.98300 41.22200
C  -9.53600 16.12800 41.15900
C  -8.31900 16.69900 40.43500
C  -8.72800 18.19800 40.56800
C  -10.23900 18.18900 40.78100
C  -7.88200 18.91500 41.73100
C  -8.09000 16.07300 39.04000
C  -6.64600 15.90400 38.57900
H  -6.33200 16.82500 37.46000
N  -13.13100 18.58900 41.56300
C  -12.35400 19.59700 41.01000
C  -13.10300 20.74700 40.71400
C  -14.44500 20.47600 41.10600
C  -14.42100 19.04300 41.58000
C  -12.58200 21.99900 40.19600
C  -15.66800 21.44900 41.07800
O  -15.62800 22.48400 40.45500
C  -16.96500 21.04000 41.63600
N  -14.61100 16.10200 42.83100
C  -15.62100 16.96800 42.52300
C  -16.99200 16.33800 42.79700
C  -16.55600 14.91000 43.32200
C  -15.04100 14.94700 43.14100
C  -18.06200 17.08900 43.62200
C  -17.30900 13.58200 42.83800
C  -17.89500 12.71200 43.99500
N  -12.15200 14.71900 42.41700
C  -12.87900 13.65400 42.86000
C  -12.10300 12.40400 42.79100
C  -10.79100 12.82900 42.37400
C  -10.90100 14.22500 42.09200
C  -12.51600 10.99500 43.17500
C  -9.43200 12.37400 42.14200
O  -8.92100 11.28000 42.35600
C  -8.67600 13.56700 41.51300
C  -7.50700 13.80700 42.43000
O  -7.48600 13.99400 43.66400
O  -6.44000 13.75500 41.56000
C  -5.12600 14.02300 42.10900
H  -10.50000 20.34700 40.51000
H  -16.46100 18.70200 41.62900
H  -14.76700 12.89100 43.46600
H  -7.40200 16.54200 41.00200
H  -8.56400 18.76000 39.64900
H  -7.13400 19.48000 41.17400
H  -7.42600 18.29800 42.50500
H  -8.56200 19.65600 42.15200
H  -8.38000 16.88400 38.37200
H  -8.61500 15.15700 38.77100
H  -6.43400 14.87800 38.27900
H  -5.89300 16.15400 39.32700
H  -12.93700 22.09600 39.17000
H  -11.50500 22.15600 40.25700
H  -13.02900 22.73200 40.86700
H  -17.56600 21.94700 41.69800
H  -16.86400 20.55500 42.60700
H  -17.55300 20.39900 40.97900
H  -17.58100 16.12400 41.90500
H  -16.60000 15.01500 44.40600
H  -17.62300 18.02100 43.97900
H  -18.28100 16.44900 44.47700
H  -18.92500 17.27500 42.98300
H  -16.76700 12.90100 42.18200
H  -18.16500 13.84900 42.21900
H  -18.97400 12.85000 43.91900
H  -17.52700 13.01800 44.97400
H  -17.60300 11.66800 43.88400
H  -12.68700 10.95100 44.25000
H  -11.80000 10.33300 42.68600
H  -13.49700 10.84300 42.72400
H  -8.23100 13.46100 40.52300
H  -5.03300 13.62600 43.12100
H  -4.88900 15.07900 42.23600
H  -4.26500 13.62400 41.57400

