158

Mg 35.37400 2.49400 29.51800
C  33.13100 3.80500 31.85500
C  37.78900 2.36200 32.00800
C  37.66900 1.60400 27.14100
C  32.90700 2.76400 27.00400
N  35.50400 3.10000 31.66000
C  34.44000 3.47500 32.42500
C  34.83300 3.38800 33.93300
C  36.33200 3.10500 33.89200
C  36.57400 2.87000 32.43700
C  37.41200 4.12000 34.54200
C  34.02300 2.35200 34.65900
C  33.51400 2.70300 36.08900
H  34.28900 3.80100 36.88700
N  37.47200 2.14900 29.55200
C  38.22200 1.98300 30.72500
C  39.50200 1.41900 30.33000
C  39.47600 1.28700 28.90400
C  38.19100 1.74600 28.50900
C  40.59100 1.18700 31.33100
C  40.63400 0.90200 27.91100
O  40.48800 0.99500 26.68900
C  41.97400 0.36500 28.41800
N  35.30700 2.26400 27.40000
C  36.35600 1.91800 26.67500
C  35.94800 1.72600 25.20300
C  34.40800 1.69800 25.21400
C  34.13700 2.36700 26.64100
C  36.52500 2.90400 24.40500
C  33.69500 0.26800 24.96200
C  32.59900 0.15900 23.81700
N  33.45800 3.23800 29.41100
C  32.53500 3.21700 28.31500
C  31.24700 3.76000 28.79200
C  31.49400 3.98200 30.20200
C  32.79100 3.71100 30.48100
C  29.98700 3.93500 28.02200
C  30.79300 4.39600 31.39800
O  29.65900 4.88300 31.52000
C  31.82400 4.22700 32.51100
C  31.86700 5.54400 33.20600
O  32.55600 6.48700 32.85200
O  31.08000 5.54300 34.34000
C  31.50800 6.43000 35.36100
H  38.54400 2.23400 32.78600
H  38.29500 1.32100 26.29200
H  32.27600 2.78900 26.11300
H  34.66700 4.37800 34.35700
H  36.62300 2.13000 34.28500
H  36.76600 4.88700 34.96900
H  38.15200 4.62600 33.92200
H  37.94700 3.63900 35.36000
H  34.57000 1.43100 34.85800
H  33.23200 2.06600 33.96600
H  33.45900 1.81600 36.72000
H  32.53100 3.16300 35.98600
H  40.42000 1.54000 32.34800
H  41.53300 1.66700 31.06900
H  40.94400 0.15600 31.32300
H  42.52700 1.23600 28.77200
H  42.53000 -0.14900 27.63400
H  41.69700 -0.35900 29.18400
H  36.40900 0.83400 24.77800
H  34.07500 2.34600 24.40300
H  35.79000 3.40300 23.77400
H  37.37500 2.62200 23.78400
H  36.90400 3.65300 25.10100
H  33.23900 -0.09100 25.88500
H  34.52300 -0.37600 24.66700
H  32.27300 1.10200 23.37700
H  31.75100 -0.34100 24.28600
H  32.93400 -0.48600 23.00500
H  29.85000 4.87200 27.48200
H  29.18300 3.94100 28.75800
H  29.81800 3.01300 27.46700
H  31.33100 3.56300 33.22200
H  30.80600 7.25900 35.26600
H  32.52900 6.79300 35.24300
H  31.41500 6.00300 36.35900
Mg 54.83700 25.16800 44.56900
C  51.85700 27.00500 43.79200
C  53.28700 22.39600 43.70000
C  57.75400 23.77200 44.65800
C  56.27500 28.29400 45.54000
N  52.94300 24.82200 43.46500
C  51.84000 25.65400 43.47200
C  50.54900 24.90600 42.97300
C  50.97900 23.41800 43.33000
C  52.54000 23.51700 43.49600
C  50.26800 22.64300 44.43900
C  50.41800 25.03400 41.46600
C  48.92500 24.92600 41.06000
H  48.55300 24.58500 39.63300
N  55.49000 23.35200 44.04000
C  54.67300 22.28400 43.75800
C  55.53600 21.12900 43.61100
C  56.90800 21.52300 43.76200
C  56.76100 22.94300 44.21600
C  54.93900 19.75400 43.20700
C  58.13900 20.62800 43.51800
O  58.03900 19.40400 43.40800
C  59.51100 21.26500 43.43100
N  56.71700 25.94300 45.08800
C  57.76000 25.09900 45.03100
C  59.03500 25.83200 45.16800
C  58.67800 27.36400 45.44800
C  57.16700 27.21700 45.31300
C  60.08800 25.39000 46.23900
C  59.16500 28.32000 44.39300
C  59.35100 29.75600 44.90900
N  54.23300 27.27300 44.75800
C  54.89300 28.35800 45.27300
C  53.90100 29.37500 45.55800
C  52.74600 28.98900 44.80000
C  52.97000 27.66700 44.41000
C  54.13000 30.51200 46.33600
C  51.37100 29.36000 44.26100
O  50.85600 30.45600 44.35700
C  50.84200 28.15000 43.57700
C  50.61000 28.53200 42.18200
O  51.40700 29.01000 41.43600
O  49.29400 28.31100 41.91500
C  48.85200 28.48600 40.52200
H  52.77700 21.43500 43.60600
H  58.76100 23.35400 44.71700
H  56.74500 29.27000 45.67600
H  49.68800 25.22400 43.56100
H  50.77400 22.97900 42.35400
H  49.65700 23.39400 44.93900
H  50.94600 22.10600 45.10200
H  49.50500 21.94400 44.09600
H  51.03200 24.34300 40.88900
H  50.83600 25.97700 41.11300
H  48.41000 25.88000 41.17900
H  48.39500 24.20000 41.67500
H  54.02400 19.61900 43.78300
H  55.47900 19.00400 43.78500
H  54.95400 19.58300 42.13000
H  59.49800 22.33400 43.21300
H  60.02200 20.75300 42.61500
H  60.01900 21.10800 44.38200
H  59.57300 25.92000 44.22400
H  58.86400 27.74300 46.45300
H  61.06300 25.13800 45.82300
H  59.68400 24.58000 46.84700
H  60.35200 26.15900 46.96500
H  58.60600 28.30100 43.45700
H  60.18500 28.07700 44.09500
H  59.07700 30.50400 44.16600
H  60.39700 29.88800 45.18400
H  58.67100 29.92500 45.74400
H  54.80600 31.22100 45.86000
H  54.59600 30.13300 47.24600
H  53.22300 31.05700 46.59800
H  49.89700 27.92600 44.07400
H  48.55600 29.52800 40.40500
H  48.03400 27.78500 40.35600
H  49.60200 28.14800 39.80700

