158

Mg 47.89100 15.43300 29.10100
C  45.92200 15.46300 31.99700
C  50.36200 17.03200 30.71800
C  49.55800 15.67500 26.08000
C  45.23300 13.86400 27.36600
N  48.08800 16.11800 31.16000
C  47.20900 15.96800 32.18500
C  47.88100 16.41100 33.46500
C  49.15700 17.21400 32.98200
C  49.25900 16.75800 31.51900
C  49.14500 18.79400 33.10400
C  48.12500 15.16500 34.47400
C  47.52000 15.26700 35.89000
H  47.78800 16.47700 36.68700
N  49.66900 16.28700 28.44300
C  50.56800 16.81900 29.31900
C  51.76800 17.06700 28.65000
C  51.61800 16.65300 27.28000
C  50.23600 16.20000 27.20800
C  53.04900 17.48100 29.35000
C  52.66000 16.62500 26.20800
O  52.40300 16.06200 25.12600
C  54.13300 17.03100 26.51500
N  47.47200 14.73400 27.04200
C  48.32600 15.02200 26.03200
C  47.73000 14.45500 24.69300
C  46.39200 13.73200 25.14800
C  46.33200 14.16100 26.64000
C  47.56000 15.40800 23.49900
C  46.42500 12.14400 25.13300
C  45.48200 11.37200 24.21500
N  45.87800 14.84800 29.49500
C  44.95400 14.10900 28.75100
C  43.75200 13.89000 29.52100
C  44.02800 14.44100 30.81400
C  45.33500 14.98300 30.72900
C  42.49500 13.11700 29.09400
C  43.55800 14.63300 32.17100
O  42.50600 14.39300 32.82700
C  44.75800 15.25700 32.96900
C  44.38100 16.43800 33.79300
O  44.49500 17.64500 33.42200
O  43.85700 16.13400 34.98400
C  43.35900 17.19600 35.84900
H  51.19100 17.42500 31.31000
H  50.09300 15.66400 25.12800
H  44.43600 13.46500 26.73500
H  47.19100 17.02300 34.04600
H  50.01800 16.77700 33.48700
H  48.29300 19.28700 33.57400
H  49.16400 19.16900 32.08100
H  50.01700 19.08000 33.69300
H  49.18700 14.94700 34.58000
H  47.68100 14.34200 33.91400
H  47.68600 14.34800 36.45200
H  46.43800 15.22800 35.76400
H  53.69400 16.60200 29.37800
H  52.82200 17.66700 30.40000
H  53.40000 18.40100 28.88200
H  54.57000 16.26100 27.15100
H  54.21100 17.99200 27.02400
H  54.67600 17.09400 25.57300
H  48.35800 13.68100 24.25100
H  45.55100 14.18200 24.62100
H  48.18700 16.29900 23.54200
H  46.54200 15.79200 23.44300
H  47.79400 14.76300 22.65200
H  46.18500 11.82200 26.14600
H  47.40700 11.86000 24.75300
H  46.10500 10.68600 23.64200
H  45.01400 12.09800 23.55000
H  44.78900 10.74000 24.77000
H  42.22600 12.45100 29.91400
H  42.89600 12.54200 28.26000
H  41.67200 13.76100 28.78300
H  45.19100 14.49700 33.61900
H  44.14000 17.65400 36.45500
H  42.71600 16.61400 36.50900
H  42.77800 17.89200 35.24400
Mg 41.94100 41.39900 26.03900
C  41.39200 43.78600 28.50500
C  43.18200 39.34100 28.60200
C  42.54600 39.01300 23.78400
C  40.78200 43.59500 23.68300
N  42.30300 41.62300 28.36400
C  41.85000 42.64100 29.12500
C  41.71400 42.21800 30.59300
C  42.54300 40.83300 30.62200
C  42.68900 40.51900 29.12100
C  43.90600 40.80200 31.41400
C  40.27400 42.07100 31.20200
C  39.89500 42.83900 32.49500
H  39.46000 42.00000 33.66600
N  42.79100 39.50600 26.18000
C  43.19100 38.82700 27.25000
C  43.69500 37.53700 26.92400
C  43.49800 37.34700 25.51500
C  42.93300 38.65500 25.09300
C  44.14000 36.51700 27.82700
C  43.65500 36.06800 24.65100
O  43.51600 36.06400 23.41600
C  44.17900 34.75400 25.25400
N  41.80700 41.31800 23.99200
C  41.96200 40.20100 23.29300
C  41.47900 40.35800 21.78200
C  41.07700 41.88800 21.84100
C  41.20800 42.29700 23.25400
C  42.46400 40.04000 20.66100
C  39.76800 42.23300 21.12800
C  39.88300 42.77500 19.71700
N  41.14400 43.32500 26.01300
C  40.67700 44.03500 24.98900
C  40.26700 45.31400 25.49300
C  40.47000 45.26500 26.85600
C  41.12500 44.02400 27.12000
C  39.54700 46.32800 24.72800
C  40.36800 46.02300 28.11600
O  39.90900 47.13300 28.29800
C  41.03700 45.08700 29.19700
C  42.13600 45.82900 29.85800
O  43.30700 45.77300 29.44600
O  41.62100 46.54200 30.94600
C  42.55000 47.43100 31.64500
H  43.51800 38.70600 29.42400
H  42.65400 38.26400 22.99700
H  40.44100 44.26800 22.89300
H  42.37900 42.85500 31.17700
H  41.92000 39.98700 30.91200
H  44.75600 40.68300 30.74200
H  43.95900 39.86900 31.97500
H  44.06700 41.63900 32.09300
H  40.10600 41.01900 31.43000
H  39.53000 42.45600 30.50500
H  39.17800 43.63000 32.27500
H  40.73000 43.44800 32.84100
H  45.12800 36.12600 27.58400
H  43.45900 35.67700 27.95900
H  44.44000 36.94600 28.78400
H  44.19400 34.06700 24.40800
H  43.55800 34.38500 26.06900
H  45.22700 34.86700 25.53100
H  40.56400 39.76600 21.80800
H  41.87100 42.46100 21.36300
H  42.68200 40.88900 20.01300
H  41.91500 39.34800 20.02300
H  43.45500 39.65000 20.89400
H  39.11100 42.83500 21.75600
H  39.22000 41.29000 21.13700
H  39.91000 41.92100 19.04000
H  40.73200 43.42400 19.50300
H  39.01000 43.41600 19.59500
H  39.46500 46.03400 23.68200
H  40.04800 47.29600 24.75600
H  38.60100 46.41200 25.26200
H  40.32000 44.87500 29.99100
H  43.20400 48.03100 31.01300
H  43.10000 46.89700 32.41800
H  41.96000 48.18200 32.17100

