158

Mg 52.65200 24.59800 44.68700
C  49.83400 26.72600 44.01000
C  50.95500 22.01500 43.03000
C  55.48900 23.00200 44.38600
C  54.41100 27.59700 45.72800
N  50.68800 24.53600 43.47100
C  49.68000 25.44300 43.43900
C  48.42300 24.87300 42.80300
C  48.73900 23.28300 42.80100
C  50.24900 23.24800 43.12700
C  47.77900 22.44500 43.69800
C  48.23300 25.55500 41.39100
C  49.02400 24.98500 40.20200
H  48.21600 24.33000 39.07600
N  53.14800 22.74600 43.92500
C  52.33000 21.74500 43.37700
C  53.02700 20.54300 43.25600
C  54.38800 20.82800 43.64500
C  54.45200 22.24300 44.01300
C  52.30300 19.12500 42.98600
C  55.48900 19.73700 43.75000
O  55.26700 18.52800 43.46400
C  56.87600 20.13200 44.31600
N  54.71600 25.23300 44.96600
C  55.66100 24.29700 44.80200
C  57.00000 24.82900 45.24600
C  56.63500 26.31800 45.75500
C  55.20900 26.44300 45.38700
C  57.72900 23.95900 46.34300
C  57.49100 27.42800 45.11000
C  58.43100 28.09200 46.16400
N  52.16900 26.69500 45.07600
C  53.01600 27.68300 45.53600
C  52.22800 28.85800 45.66800
C  50.91800 28.53400 45.15800
C  50.97300 27.21400 44.73800
C  52.68700 30.18000 46.18600
C  49.58200 29.03400 44.80000
O  49.12800 30.16800 45.00300
C  48.73300 27.83600 44.19200
C  48.04600 28.44800 42.98800
O  48.56800 29.02300 42.06000
O  46.69500 28.35000 43.26300
C  45.89600 29.00200 42.18400
H  50.31500 21.18600 42.71900
H  56.45500 22.50900 44.25600
H  54.97300 28.50200 45.96700
H  47.55100 25.08400 43.42100
H  48.62700 22.76100 41.85100
H  47.21500 23.13200 44.32800
H  48.31500 21.71100 44.29900
H  47.09400 21.89400 43.05300
H  48.48200 26.61500 41.44900
H  47.17400 25.43400 41.16500
H  49.73500 24.24900 40.57700
H  49.68900 25.76100 39.82400
H  52.27900 18.65200 43.96800
H  52.60700 18.44300 42.19100
H  51.27900 19.34300 42.68100
H  57.50800 19.24400 44.35900
H  56.73300 20.48200 45.33800
H  57.34700 20.83700 43.63100
H  57.77900 24.75500 44.48800
H  56.69900 26.33800 46.84300
H  57.07300 23.16300 46.69500
H  58.06600 24.71400 47.05300
H  58.62100 23.54300 45.87500
H  56.97600 28.16400 44.49200
H  58.12300 26.89900 44.39700
H  58.05000 29.06200 46.48400
H  59.45500 28.19400 45.80500
H  58.57000 27.34200 46.94300
H  53.23700 30.73500 45.42500
H  53.31700 30.03900 47.06500
H  51.76500 30.65500 46.51900
H  48.00300 27.60300 44.96600
H  44.85500 29.24900 42.39300
H  45.92000 28.40600 41.27200
H  46.38000 29.95100 41.95200
Mg -9.16800 41.51800 42.47800
C  -8.20600 38.15600 41.61800
C  -6.43200 42.61900 40.66800
C  -10.41900 44.50600 42.72000
C  -12.18800 39.99100 43.50800
N  -7.69000 40.53300 41.21900
C  -7.45400 39.19200 41.03800
C  -6.21600 38.99600 40.12600
C  -5.55300 40.29800 39.94900
C  -6.60900 41.23600 40.63500
C  -4.15200 40.42800 40.64900
C  -6.57800 38.41400 38.72100
C  -5.73000 37.24700 38.29100
H  -4.77400 37.57200 37.17600
N  -8.39500 43.41400 41.90700
C  -7.20700 43.64200 41.29500
C  -7.10700 45.11800 41.18900
C  -8.28300 45.72700 41.66700
C  -9.07600 44.56400 42.17600
C  -5.93500 45.71400 40.55700
C  -8.59900 47.23700 41.63100
O  -7.83400 47.98400 41.09700
C  -9.80700 47.85800 42.39300
N  -11.03800 42.11700 43.14000
C  -11.27900 43.43800 43.14900
C  -12.67700 43.66700 43.59700
C  -13.33400 42.29900 43.79200
C  -12.12000 41.39700 43.41500
C  -12.82500 44.69900 44.74800
C  -14.62900 41.98900 42.92000
C  -15.85000 41.43200 43.66800
N  -9.96300 39.53200 42.79500
C  -11.15600 39.05200 43.23800
C  -11.19000 37.67600 43.31500
C  -10.06600 37.24000 42.59600
C  -9.34800 38.41600 42.35000
C  -12.38000 36.84500 43.69100
C  -9.39900 36.06700 42.13800
O  -9.75900 34.92800 42.18800
C  -8.11000 36.62100 41.44500
C  -7.00700 36.04600 42.11900
O  -6.69200 36.30600 43.26600
O  -6.23900 35.25100 41.25500
C  -5.16000 34.44300 41.98100
H  -5.63700 43.02000 40.03500
H  -10.85700 45.49800 42.84500
H  -13.09500 39.48300 43.84400
H  -5.48900 38.40600 40.68600
H  -5.44700 40.46600 38.87700
H  -4.21300 40.82900 41.66000
H  -3.40600 41.02900 40.12900
H  -3.70500 39.44100 40.76200
H  -6.54000 39.17800 37.94400
H  -7.61700 38.09200 38.79300
H  -6.42800 36.47700 37.96200
H  -5.07700 36.79400 39.03700
H  -6.20000 46.56900 39.93500
H  -5.48300 45.04200 39.82900
H  -5.16700 45.85100 41.31800
H  -9.69600 47.38000 43.36600
H  -10.79200 47.63100 41.98500
H  -9.71100 48.94400 42.39600
H  -13.06600 44.15300 42.70200
H  -13.47900 42.20700 44.86900
H  -11.95000 45.33500 44.88200
H  -13.23100 44.22800 45.64400
H  -13.69800 45.27100 44.43600
H  -14.37800 41.27100 42.13900
H  -14.95400 42.93400 42.48500
H  -15.52900 41.48000 44.70800
H  -16.12300 40.41000 43.40600
H  -16.68600 42.10700 43.48400
H  -12.97600 37.26400 44.50100
H  -11.95500 35.89400 44.01400
H  -13.01900 36.60700 42.84000
H  -7.99300 36.48200 40.37100
H  -5.58900 33.86900 42.80200
H  -4.35800 35.11300 42.29200
H  -4.84800 33.77800 41.17600

