158

Mg 8.92600 3.85700 27.94100
C  10.45500 2.34600 30.91600
C  7.14800 5.74600 30.03800
C  7.39500 5.11200 25.14900
C  10.41800 1.31400 26.04400
N  8.81700 3.98900 30.29500
C  9.43900 3.32900 31.27400
C  9.10800 3.93600 32.64800
C  7.96400 5.00000 32.29000
C  7.92900 4.88700 30.77900
C  6.56000 4.74000 33.00800
C  10.28100 4.57300 33.38100
C  10.38700 4.42200 34.91400
H  11.01600 5.61300 35.57800
N  7.40200 5.17300 27.62300
C  6.86500 5.96600 28.58400
C  6.04900 6.96500 28.06300
C  6.17000 6.83000 26.62600
C  7.05100 5.63400 26.38400
C  5.16500 7.86700 28.79900
C  5.47400 7.56900 25.53200
O  5.70300 7.37200 24.35800
C  4.60000 8.68500 25.87300
N  8.92800 3.35700 25.82200
C  8.23400 4.02200 24.86700
C  8.31200 3.28800 23.51500
C  9.41400 2.15500 23.78000
C  9.72300 2.36500 25.30000
C  7.00800 2.77200 22.93900
C  10.74800 2.15000 23.00100
C  11.22300 0.82800 22.35800
N  10.28200 2.33000 28.25600
C  10.71100 1.35100 27.38300
C  11.60000 0.45400 28.10900
C  11.59800 0.86000 29.41400
C  10.68800 1.95200 29.52900
C  12.38600 -0.69500 27.63400
C  12.20400 0.52100 30.72200
O  13.07800 -0.23200 31.04400
C  11.44900 1.49000 31.70300
C  10.78200 0.71500 32.77900
O  9.68300 0.21100 32.73800
O  11.62100 0.70200 33.79300
C  11.05100 0.27400 35.13000
H  6.63400 6.39600 30.74900
H  7.15300 5.59600 24.20100
H  10.98100 0.62700 25.41000
H  8.76300 3.08500 33.23500
H  8.16800 6.02400 32.60100
H  6.40700 3.69200 33.26900
H  5.75700 4.99200 32.31600
H  6.52200 5.32600 33.92600
H  10.16400 5.62900 33.14000
H  11.18200 4.23800 32.86600
H  10.96000 3.50900 35.07500
H  9.41500 4.25800 35.38000
H  5.25800 7.70700 29.87300
H  4.15200 7.71500 28.42700
H  5.43000 8.91300 28.64200
H  3.78600 8.16900 26.38200
H  4.09500 9.12600 25.01400
H  5.05100 9.41700 26.54200
H  8.63100 4.02000 22.77200
H  8.90400 1.19900 23.65600
H  7.03300 1.69900 22.74800
H  6.73000 3.30400 22.02900
H  6.12800 3.03100 23.52900
H  11.55400 2.29800 23.72000
H  10.77800 2.98400 22.30100
H  12.23100 0.61800 22.71500
H  11.36900 0.99900 21.29100
H  10.49900 0.09100 22.70700
H  12.65200 -0.68900 26.57700
H  11.77700 -1.59800 27.66200
H  13.32400 -0.76200 28.18600
H  12.28100 2.05700 32.12000
H  10.04900 0.70400 35.14300
H  11.51100 0.63900 36.04800
H  10.90700 -0.80600 35.16800
Mg 46.55800 23.98300 28.22800
C  47.28200 26.24600 30.93400
C  45.90200 21.63600 30.72200
C  46.20000 21.82900 25.90700
C  48.16900 26.18200 26.17700
N  46.52800 23.92100 30.59700
C  46.83200 25.00800 31.39900
C  46.56100 24.65600 32.85900
C  46.49700 23.11300 32.85800
C  46.30200 22.81700 31.34000
C  47.70600 22.33400 33.40600
C  45.34000 25.45000 33.34900
C  45.37100 26.06900 34.74500
H  46.11900 25.28500 35.88700
N  46.04000 22.06800 28.28800
C  45.77200 21.28000 29.37100
C  45.25100 20.04600 28.90500
C  45.26900 20.11000 27.44300
C  45.91600 21.28200 27.14700
C  44.96500 18.90700 29.83000
C  44.66200 19.10800 26.42600
O  44.55000 19.37500 25.23800
C  43.86500 17.93000 26.90400
N  47.19300 24.01400 26.32500
C  46.78800 23.06500 25.50600
C  47.18600 23.25900 24.00400
C  47.78400 24.73400 24.15000
C  47.80000 24.96000 25.67900
C  48.23300 22.20500 23.51000
C  47.09500 25.91000 23.35900
C  45.89800 26.54500 24.04600
N  47.47800 25.92400 28.47200
C  48.03800 26.69100 27.49600
C  48.33700 27.92200 28.07400
C  48.04600 27.88200 29.44100
C  47.52800 26.57300 29.65900
C  48.99900 29.09200 27.31500
C  48.10500 28.59100 30.70900
O  48.52800 29.66000 30.99200
C  47.49100 27.61200 31.69600
C  48.30300 27.53400 32.98000
O  49.22800 26.74500 33.23300
O  47.80200 28.49200 33.82600
C  48.15500 28.29200 35.27400
H  45.63500 20.87700 31.46000
H  45.96400 21.31100 24.97400
H  48.70300 26.79300 25.44500
H  47.37500 24.99900 33.49700
H  45.62100 22.82500 33.43900
H  48.42200 23.05400 33.80300
H  48.18300 21.73000 32.63300
H  47.39600 21.69200 34.23000
H  44.41000 24.88400 33.30000
H  45.16000 26.23200 32.61200
H  44.31500 26.10700 35.01200
H  45.68000 27.10700 34.61500
H  45.12100 17.94300 29.34400
H  43.90400 18.96300 30.07600
H  45.58400 18.90000 30.72800
H  44.53800 17.20300 27.36000
H  43.31700 17.53000 26.05200
H  43.11600 18.32100 27.59200
H  46.29100 23.33900 23.38700
H  48.84100 24.76100 23.88700
H  48.96300 21.91600 24.26600
H  48.78300 22.57600 22.64500
H  47.55000 21.39500 23.25500
H  46.80100 25.58500 22.36100
H  47.88600 26.65500 23.27400
H  45.40200 25.92700 24.79500
H  45.11000 26.86300 23.36300
H  46.22900 27.49800 24.45900
H  48.36200 29.40600 26.48800
H  50.00300 28.86400 26.95700
H  48.97500 29.94300 27.99500
H  46.47400 27.97400 31.85300
H  48.42900 27.25900 35.49000
H  47.29300 28.62000 35.85400
H  48.92700 29.03400 35.47800

