158

Mg 47.80800 16.03600 28.44300
C  45.84600 15.90200 31.33900
C  50.14000 17.74000 30.12300
C  49.49700 16.58300 25.45500
C  45.14800 14.76800 26.60700
N  47.93200 16.74900 30.54100
C  47.03300 16.59600 31.58000
C  47.59800 17.24400 32.85000
C  48.81400 18.08700 32.25000
C  48.97400 17.47600 30.88700
C  48.58200 19.55300 32.27300
C  47.91200 16.14200 33.96800
C  48.58700 16.52800 35.26800
H  48.59900 17.95800 35.86900
N  49.59000 16.89400 27.88000
C  50.42500 17.49900 28.81600
C  51.63800 17.88800 28.13900
C  51.50900 17.45700 26.72400
C  50.14400 16.96600 26.63300
C  52.90200 18.46300 28.97800
C  52.61300 17.56700 25.61500
O  52.34500 17.24400 24.48100
C  54.01900 18.10900 25.91700
N  47.35400 15.75900 26.38000
C  48.19900 16.02300 25.33800
C  47.58700 15.84900 23.99100
C  46.32600 15.04100 24.34200
C  46.26100 15.17800 25.88100
C  47.22800 17.23600 23.30600
C  46.49900 13.53000 23.97400
C  45.84900 13.09900 22.58700
N  45.84700 15.41800 28.78400
C  44.91400 14.84100 28.01300
C  43.71700 14.52600 28.79800
C  44.10800 14.86400 30.10200
C  45.37200 15.45700 30.07600
C  42.45800 13.86700 28.25400
C  43.64400 14.83600 31.47200
O  42.64200 14.36200 31.93800
C  44.78400 15.56400 32.36900
C  44.19200 16.77900 32.99600
O  44.25000 17.91400 32.63200
O  43.53400 16.41800 34.16400
C  42.87100 17.44000 34.91400
H  50.75300 18.50600 30.60300
H  50.08300 16.62600 24.53500
H  44.32500 14.46600 25.95600
H  46.87700 17.79900 33.44900
H  49.73600 17.87800 32.79200
H  48.10900 19.81800 31.32800
H  49.53500 20.08100 32.28500
H  47.91900 19.93300 33.05000
H  48.55900 15.39000 33.51700
H  46.95500 15.71300 34.26600
H  49.63700 16.24100 35.22100
H  48.18000 15.83400 36.00300
H  53.19900 19.30300 28.34900
H  53.68300 17.76300 29.27200
H  52.53100 18.88400 29.91200
H  54.01600 19.19100 25.78700
H  54.64200 17.70400 25.12000
H  54.32500 17.74000 26.89600
H  48.34500 15.17800 23.58900
H  45.43900 15.44800 23.85700
H  47.39900 18.06900 23.98800
H  46.23800 17.18100 22.85300
H  47.79900 17.57700 22.44300
H  46.08800 12.85700 24.72600
H  47.56400 13.30000 23.93900
H  44.87900 12.62200 22.72700
H  46.54900 12.35000 22.21800
H  45.78800 13.91000 21.86100
H  41.59500 14.08600 28.88300
H  42.69700 12.80500 28.20700
H  42.21000 14.20900 27.24900
H  45.22900 14.89400 33.10400
H  41.92000 17.50600 34.38600
H  43.24800 18.46000 34.99400
H  42.56800 17.08800 35.90000
Mg -1.64200 35.06600 27.23300
C  -3.39800 33.26300 29.86300
C  -0.30500 37.07800 29.65600
C  -0.29100 36.92500 24.75100
C  -3.25700 33.10500 24.91800
N  -1.90200 35.19600 29.56500
C  -2.62200 34.35700 30.38300
C  -2.30800 34.73000 31.85400
C  -1.51200 36.14300 31.75400
C  -1.26800 36.20600 30.20600
C  -2.18200 37.56100 32.26200
C  -1.63400 33.59400 32.63300
C  -2.11800 33.39800 34.10000
H  -1.10200 33.62700 35.21800
N  -0.34600 36.50900 27.22300
C  0.18300 37.12400 28.30800
C  1.24000 37.99500 27.95200
C  1.27700 37.97800 26.51300
C  0.17300 37.09400 26.08100
C  2.09600 38.88400 28.91300
C  2.14400 38.87300 25.54600
O  1.98200 38.87100 24.32800
C  3.19900 39.88600 26.08500
N  -1.93900 35.16500 25.15000
C  -1.22500 35.97700 24.33400
C  -1.74000 35.76500 22.88500
C  -2.39200 34.36400 22.90800
C  -2.58600 34.22000 24.39200
C  -2.64800 36.89900 22.25000
C  -1.49300 33.31200 22.22100
C  -0.16200 32.90700 22.83700
N  -3.14100 33.55200 27.27300
C  -3.60600 32.74600 26.24700
C  -4.38200 31.68100 26.75000
C  -4.28200 31.83800 28.17700
C  -3.52700 32.96600 28.44800
C  -5.13900 30.64200 25.99400
C  -4.69800 31.31000 29.49300
O  -5.30700 30.29300 29.69600
C  -4.19000 32.22500 30.62700
C  -5.25600 32.77300 31.38400
O  -6.09400 33.54000 30.89200
O  -5.20300 32.35000 32.64300
C  -6.20400 33.02300 33.57200
H  0.26900 37.61100 30.41800
H  0.21700 37.52800 23.99500
H  -3.68400 32.48300 24.12800
H  -3.25200 34.94900 32.35500
H  -0.58400 36.02700 32.31600
H  -2.80300 38.09800 31.54500
H  -1.39800 38.23300 32.61200
H  -2.85000 37.39900 33.10800
H  -0.55800 33.74400 32.54600
H  -1.83200 32.61800 32.19100
H  -2.49700 32.38600 34.24300
H  -3.02400 33.99000 34.23600
H  2.10800 38.56900 29.95700
H  1.77200 39.92300 28.96300
H  3.13800 38.76700 28.61600
H  2.60900 40.48100 26.78300
H  3.54200 40.44400 25.21400
H  4.00000 39.45800 26.68800
H  -0.85700 35.69200 22.25000
H  -3.34000 34.58400 22.41600
H  -2.32800 37.81800 22.74100
H  -3.71300 36.72400 22.40300
H  -2.48400 36.87300 21.17300
H  -1.16800 33.62500 21.22900
H  -2.10700 32.41600 22.12900
H  -0.34900 31.84200 22.98000
H  0.08300 33.37500 23.79000
H  0.55700 33.15100 22.05500
H  -4.55600 30.17200 25.20200
H  -5.94300 31.11100 25.42800
H  -5.54600 29.86300 26.63900
H  -3.58000 31.63700 31.31300
H  -5.52600 33.55400 34.24100
H  -6.71900 32.27500 34.17300
H  -7.05200 33.57500 33.16700

