158

Mg 44.10400 3.57200 47.35000
C  42.31200 6.58500 47.11100
C  41.13900 1.86200 46.97900
C  45.91600 0.64800 47.10600
C  47.07800 5.39400 47.31000
N  41.93600 4.18400 47.01600
C  41.46900 5.45100 47.07000
C  39.97200 5.52200 46.93700
C  39.61000 3.95500 47.07500
C  40.95100 3.25900 47.01400
C  38.76700 3.47500 48.20300
C  39.46600 6.20500 45.58900
C  39.91500 5.64100 44.28500
H  40.91600 6.53200 43.50300
N  43.59300 1.51900 47.19900
C  42.30800 1.06200 47.05100
C  42.38600 -0.39700 46.88100
C  43.72800 -0.79400 46.79100
C  44.48400 0.43600 47.04400
C  41.12300 -1.21400 46.54600
C  44.28100 -2.20000 46.54200
O  43.43100 -3.06200 46.74600
C  45.71800 -2.48700 46.20200
N  46.16500 3.11600 47.10600
C  46.68100 1.90300 47.18300
C  48.18000 1.94900 47.16400
C  48.52700 3.43200 47.50700
C  47.17900 4.03100 47.20600
C  48.84400 0.85900 47.95800
C  49.74900 4.02300 46.70700
C  50.96900 4.53800 47.52600
N  44.64200 5.50400 47.34000
C  45.86400 6.11800 47.37200
C  45.69700 7.52800 47.48300
C  44.29700 7.80300 47.39500
C  43.70900 6.48800 47.27500
C  46.77700 8.52300 47.70100
C  43.25000 8.83100 47.38900
O  43.33100 10.00600 47.44400
C  41.88500 8.07500 47.11200
C  40.88700 8.47300 48.19200
O  40.76200 7.78300 49.21800
O  40.05400 9.57600 47.88100
C  38.82200 9.73800 48.66500
H  40.21500 1.31600 46.77800
H  46.56200 -0.23100 47.07800
H  47.96000 5.98600 47.56400
H  39.45200 6.14300 47.66600
H  38.97900 3.67100 46.23300
H  39.30900 2.98900 49.01400
H  38.11300 2.67100 47.86600
H  38.22700 4.24400 48.75500
H  39.59700 7.28600 45.64000
H  38.37700 6.23700 45.58900
H  39.02800 5.35900 43.71700
H  40.43000 4.72200 44.56300
H  40.23700 -0.79800 47.02500
H  41.21500 -2.19600 47.01000
H  41.04000 -1.37000 45.47000
H  45.97300 -1.97200 45.27600
H  45.92000 -3.55800 46.20400
H  46.42800 -2.08400 46.92400
H  48.43400 1.74000 46.12400
H  48.81100 3.44500 48.56000
H  49.82800 1.20000 48.28200
H  48.96300 -0.01200 47.31400
H  48.35200 0.52800 48.87300
H  49.30500 4.80900 46.09600
H  50.09400 3.20300 46.07600
H  50.78800 4.65300 48.59500
H  51.06200 5.58300 47.23000
H  51.85300 3.93100 47.33500
H  46.59100 8.86900 48.71800
H  46.79000 9.35600 46.99800
H  47.76200 8.08100 47.84900
H  41.69800 8.37400 46.08000
H  38.25600 10.60700 48.33000
H  39.10000 9.83300 49.71400
H  38.24800 8.82000 48.53800
Mg 47.07100 24.47200 28.61700
C  47.47500 26.79100 31.19400
C  46.27200 22.06800 30.91600
C  47.55800 22.19500 26.18400
C  48.62900 26.85400 26.33200
N  46.86100 24.46700 30.82400
C  47.09100 25.51100 31.67600
C  46.75700 25.12700 33.12900
C  46.42100 23.61800 33.04100
C  46.52300 23.35200 31.54200
C  47.20700 22.69400 33.95100
C  45.59300 25.96500 33.78600
C  45.72100 26.65500 35.20400
H  44.55300 26.52300 36.24400
N  46.62000 22.55000 28.51700
C  46.25100 21.71500 29.55300
C  46.04500 20.43100 29.01800
C  46.46800 20.39500 27.67000
C  46.90700 21.79000 27.40500
C  45.55300 19.36300 29.89200
C  46.63500 19.27100 26.74800
O  46.96000 19.46200 25.56100
C  46.52500 17.84700 27.22200
N  47.88400 24.53300 26.56200
C  47.98200 23.42300 25.76800
C  48.63100 23.71500 24.44700
C  48.49800 25.27100 24.37700
C  48.39800 25.59900 25.88300
C  50.18200 23.19200 24.46800
C  47.09900 25.61700 23.57100
C  46.45600 27.05300 23.71400
N  47.89900 26.40200 28.71300
C  48.50000 27.26000 27.71700
C  48.75400 28.48800 28.27600
C  48.38900 28.30800 29.62500
C  47.83100 27.08500 29.87200
C  49.12500 29.78800 27.48200
C  48.45600 29.01800 30.88500
O  48.93300 30.08700 31.16900
C  47.84500 28.03200 31.96800
C  48.90400 27.72000 33.05300
O  49.99600 27.26500 32.77300
O  48.49600 28.06800 34.38200
C  49.35900 27.78600 35.55600
H  46.01100 21.27400 31.61900
H  47.76000 21.49300 25.37300
H  49.13800 27.48100 25.59600
H  47.68700 25.28200 33.67800
H  45.38600 23.34000 33.24200
H  47.88100 22.03300 33.40800
H  46.49400 22.16000 34.58000
H  47.87700 23.24700 34.60900
H  44.67300 25.40200 33.94300
H  45.25800 26.74400 33.10100
H  45.91700 27.70700 34.99700
H  46.58100 26.21200 35.70600
H  44.95600 18.74700 29.21900
H  44.93200 19.62800 30.74800
H  46.44200 18.79100 30.15700
H  47.28500 17.67300 27.98300
H  46.74000 17.24500 26.33800
H  45.50600 17.64700 27.55400
H  48.02000 23.20100 23.70600
H  49.24800 25.79300 23.78300
H  50.64800 23.16200 25.45300
H  50.81100 23.85000 23.86900
H  50.18400 22.16400 24.10500
H  46.33300 24.89900 23.86400
H  47.24500 25.46900 22.50100
H  45.53900 26.91000 24.28600
H  46.15300 27.57900 22.80900
H  47.23300 27.64200 24.20200
H  48.41900 29.97700 26.67300
H  50.03900 29.55000 26.93600
H  49.25200 30.69500 28.07200
H  47.05700 28.59400 32.47000
H  49.92900 26.85700 35.55000
H  48.74100 27.66500 36.44600
H  50.06800 28.61500 35.54200

