158

Mg 36.59900 48.50500 25.83900
C  36.04700 46.50200 28.72300
C  35.97300 51.32100 27.63000
C  36.34100 50.32000 22.98300
C  36.62100 45.59400 23.98600
N  36.04100 48.81200 27.91800
C  35.95400 47.89300 28.96200
C  35.86500 48.65000 30.32100
C  35.48500 50.09000 29.85600
C  35.83500 50.12700 28.39300
C  34.06800 50.65900 30.08700
C  37.29300 48.57500 31.08400
C  37.22700 48.01100 32.49500
H  35.85300 48.27900 33.20400
N  36.44400 50.56100 25.38700
C  36.17000 51.59100 26.25900
C  36.19600 52.88500 25.63400
C  36.43700 52.58700 24.22600
C  36.47200 51.10100 24.12200
C  35.95100 54.15500 26.42900
C  36.63700 53.58000 23.09200
O  36.94400 53.24500 21.96000
C  36.45300 55.09300 23.33500
N  36.36700 48.04100 23.77300
C  36.40700 48.96400 22.78000
C  36.31900 48.27400 21.37400
C  36.73600 46.81500 21.76900
C  36.57400 46.78000 23.25200
C  34.91400 48.23900 20.66600
C  38.19700 46.65400 21.40700
C  38.67700 46.16500 20.01600
N  36.37100 46.39900 26.20900
C  36.57100 45.40400 25.33700
C  36.64700 44.15900 26.12100
C  36.46800 44.58000 27.43800
C  36.24300 45.92800 27.42700
C  36.91500 42.75100 25.60800
C  36.47600 44.04100 28.80900
O  36.67000 42.89100 29.24400
C  36.34200 45.32100 29.74500
C  35.23100 45.19400 30.65900
O  34.09200 45.55400 30.40600
O  35.63600 44.60000 31.77300
C  34.61400 44.41300 32.81600
H  35.88000 52.25600 28.18600
H  36.26700 50.84000 22.02500
H  36.82800 44.70400 23.38800
H  35.01300 48.15900 30.79300
H  36.06200 50.86300 30.36200
H  34.05500 51.57200 30.68200
H  33.49700 49.88400 30.60000
H  33.43900 50.87000 29.22300
H  37.78400 49.54400 31.17700
H  37.95000 47.98600 30.44500
H  37.99900 48.29900 33.20900
H  37.44100 46.96800 32.26400
H  35.43400 54.05500 27.38300
H  35.26900 54.77400 25.84700
H  36.93200 54.58900 26.62200
H  36.74800 55.55800 22.39500
H  37.23500 55.42200 24.02100
H  35.43000 55.37300 23.58500
H  36.97800 48.77100 20.66200
H  36.10100 46.07600 21.28200
H  34.69400 47.17400 20.59900
H  35.05000 48.73300 19.70300
H  34.02400 48.64200 21.14900
H  38.65200 46.00200 22.15300
H  38.69600 47.61800 21.49800
H  39.29100 46.95600 19.58600
H  37.85800 45.83200 19.37800
H  39.31000 45.29400 20.18400
H  37.99300 42.62200 25.51100
H  36.25900 42.48800 24.77800
H  36.55500 42.09000 26.39600
H  37.28900 45.57300 30.22300
H  34.08300 45.33100 33.07000
H  35.11200 43.96400 33.67500
H  33.86400 43.63900 32.64800
Mg -10.08100 39.78600 39.59700
C  -9.07900 36.57500 38.84600
C  -6.91800 40.86000 38.79100
C  -11.32500 43.10100 39.60400
C  -13.45100 38.60000 39.72900
N  -8.23700 38.82700 38.76900
C  -8.04300 37.48200 38.66300
C  -6.53200 37.15700 38.48700
C  -5.80100 38.48900 38.71600
C  -7.06000 39.46500 38.80600
C  -4.90400 38.63800 40.01400
C  -6.06500 36.39100 37.16200
C  -6.27500 37.05900 35.81200
H  -7.10700 36.34500 34.76900
N  -9.26200 41.79100 39.21000
C  -7.92500 41.92100 38.94700
C  -7.68000 43.38700 38.87600
C  -8.92400 44.04900 38.99000
C  -9.93100 43.00000 39.29100
C  -6.30800 43.92900 38.44900
C  -9.10400 45.56400 38.98500
O  -8.09100 46.19600 38.89600
C  -10.44800 46.12400 39.15500
N  -12.09200 40.71100 39.34900
C  -12.27800 42.04100 39.70600
C  -13.75800 42.26000 39.87700
C  -14.39200 40.90200 39.83300
C  -13.22300 39.96000 39.58200
C  -14.03000 43.01600 41.26000
C  -15.57600 40.62500 38.70400
C  -16.84400 39.92900 39.24800
N  -11.05100 38.01000 39.55600
C  -12.39000 37.67800 39.71800
C  -12.53800 36.22400 39.70100
C  -11.27900 35.77200 39.37100
C  -10.40400 36.89900 39.25600
C  -13.84900 35.44500 39.70500
C  -10.52700 34.61100 38.94600
O  -10.82700 33.44700 38.77500
C  -8.99400 35.08000 38.66300
C  -8.14800 34.39500 39.63900
O  -8.48200 34.30400 40.79800
O  -7.01000 33.81700 39.09800
C  -6.11900 33.28100 40.03800
H  -5.89400 41.23700 38.76300
H  -11.76700 44.05400 39.90100
H  -14.47500 38.23500 39.83900
H  -6.39500 36.39800 39.25700
H  -5.18400 38.60800 37.82500
H  -4.03300 39.03800 39.49600
H  -4.84800 37.63500 40.43800
H  -5.33500 39.30100 40.76500
H  -6.64900 35.47200 37.13400
H  -5.04400 36.02100 37.25600
H  -5.29700 37.12900 35.33500
H  -6.61300 38.09500 35.77700
H  -5.68500 43.15700 37.99600
H  -5.83400 44.36800 39.32700
H  -6.43500 44.73700 37.72900
H  -10.77100 46.31600 40.17800
H  -11.16700 45.49800 38.62700
H  -10.42100 46.97000 38.46700
H  -14.30900 42.92300 39.20900
H  -14.68200 40.50300 40.80600
H  -14.30600 44.06900 41.20300
H  -13.16000 42.95600 41.91300
H  -14.87000 42.61400 41.82700
H  -15.09400 39.94300 38.00300
H  -15.77500 41.53900 38.14400
H  -16.86500 39.96000 40.33800
H  -16.89800 38.89000 38.92300
H  -17.78600 40.40100 38.96800
H  -14.28300 35.40500 38.70600
H  -14.63200 35.92900 40.29000
H  -13.83200 34.48700 40.22400
H  -8.78200 34.96200 37.60000
H  -6.64700 32.59700 40.70200
H  -5.72400 34.08900 40.65300
H  -5.36300 32.79900 39.41700

