158

Mg 8.86000 3.33300 27.91200
C  9.91600 1.62100 30.92800
C  7.25800 5.45900 29.76300
C  7.24400 4.28100 25.08300
C  10.23000 0.64000 26.09700
N  8.38700 3.23800 30.04800
C  9.11500 2.77400 31.14300
C  8.90400 3.57400 32.40200
C  7.72500 4.49500 32.00900
C  7.76300 4.40000 30.48100
C  6.34700 4.31200 32.63600
C  10.26900 4.31300 32.86100
C  10.13800 4.85000 34.30300
H  10.99400 4.08500 35.30500
N  7.41600 4.70900 27.50500
C  6.96500 5.59200 28.41800
C  6.15200 6.58000 27.72000
C  6.14500 6.32000 26.28500
C  6.95100 5.06200 26.21400
C  5.44700 7.69000 28.50700
C  5.38900 7.06200 25.19700
O  5.51000 6.68500 24.00500
C  4.67900 8.33100 25.55000
N  8.82900 2.67100 25.88700
C  8.10500 3.22500 24.89400
C  8.46200 2.70500 23.55200
C  9.51700 1.64400 23.88100
C  9.48800 1.59800 25.39000
C  7.21300 2.17600 22.77200
C  10.94700 1.90700 23.33000
C  11.31000 1.08500 22.09300
N  9.97300 1.47500 28.31400
C  10.42700 0.51000 27.45900
C  11.02800 -0.55200 28.29400
C  10.85900 -0.19400 29.63800
C  10.16100 1.05500 29.63100
C  11.78400 -1.69700 27.71300
C  11.16200 -0.47700 31.03800
O  11.83500 -1.31200 31.52300
C  10.63800 0.64800 31.86400
C  9.60700 0.01700 32.75100
O  8.47100 -0.21700 32.37500
O  10.14400 -0.46300 33.85300
C  9.38500 -1.20600 34.82400
H  7.04500 6.37500 30.31800
H  6.69400 4.65700 24.21800
H  10.62600 -0.18200 25.49700
H  8.57300 2.85500 33.15200
H  8.08600 5.50900 32.18100
H  5.67100 3.84900 31.91700
H  6.00800 5.31700 32.88900
H  6.38600 3.74200 33.56400
H  10.40400 5.19000 32.22900
H  11.16600 3.72100 32.68000
H  9.09200 4.98000 34.58100
H  10.57000 5.85000 34.32400
H  5.91000 8.66600 28.35900
H  5.47000 7.57500 29.59000
H  4.36900 7.62900 28.35600
H  3.84100 8.20500 26.23600
H  4.27100 8.83600 24.67500
H  5.41100 9.00700 25.99300
H  8.94200 3.46100 22.93100
H  9.09300 0.65600 23.70200
H  7.10300 1.14200 22.44500
H  7.19300 2.67800 21.80400
H  6.31400 2.57200 23.24300
H  11.75000 1.70900 24.03900
H  10.92200 2.89800 22.87800
H  11.33700 1.60400 21.13500
H  10.52700 0.32700 22.11200
H  12.29200 0.62300 22.19600
H  11.37100 -1.79300 26.70800
H  11.54100 -2.57100 28.31700
H  12.81800 -1.35600 27.66800
H  11.38700 1.01800 32.56500
H  10.16800 -1.82800 35.25800
H  8.63900 -1.77700 34.27100
H  8.94800 -0.47700 35.50700
Mg 41.52600 40.51200 26.61600
C  40.62100 43.02100 28.83300
C  42.14700 38.37800 29.26400
C  42.56400 38.24000 24.34000
C  41.06100 42.82400 24.00300
N  41.38800 40.68000 28.74300
C  41.00100 41.80100 29.48100
C  40.98900 41.54700 30.98000
C  41.50900 40.07900 31.08700
C  41.80000 39.70100 29.62800
C  42.81300 39.77300 31.93600
C  39.54600 41.62200 31.66500
C  39.44200 42.77100 32.74200
H  38.81000 42.34400 34.04300
N  42.35500 38.57000 26.80000
C  42.36200 37.85800 27.96000
C  42.69300 36.47500 27.65000
C  43.00600 36.42500 26.20700
C  42.69700 37.79000 25.74400
C  42.69600 35.31900 28.64000
C  43.48700 35.33700 25.34400
O  43.88800 35.58600 24.23300
C  43.56700 33.90400 25.98300
N  41.81000 40.52200 24.51400
C  42.13500 39.46700 23.79400
C  42.18200 39.74000 22.27200
C  41.51000 41.12700 22.19800
C  41.49000 41.56100 23.67300
C  43.57800 39.43400 21.54000
C  40.04500 41.26000 21.54000
C  38.80600 40.70900 22.33600
N  40.96500 42.55900 26.41200
C  40.77500 43.32600 25.24800
C  40.27600 44.65100 25.61000
C  40.22500 44.58100 27.02400
C  40.61300 43.29900 27.41500
C  39.93000 45.82400 24.68900
C  39.95200 45.29800 28.23600
O  39.52800 46.41800 28.40300
C  40.16100 44.31800 29.44900
C  41.21600 44.94100 30.27000
O  42.39900 45.13600 29.98200
O  40.60100 45.52000 31.27900
C  41.49700 45.98100 32.37200
H  42.03100 37.74700 30.14900
H  42.96900 37.49100 23.65600
H  40.79500 43.51800 23.20200
H  41.70300 42.25600 31.40100
H  40.72100 39.44800 31.49800
H  42.91400 40.72200 32.46400
H  43.69300 39.59700 31.31800
H  42.56700 38.91100 32.55600
H  39.17400 40.67300 32.05100
H  38.81700 41.95600 30.92600
H  38.82700 43.60800 32.41000
H  40.36300 43.27300 33.03800
H  41.97900 34.60500 28.23300
H  42.23000 35.48700 29.61100
H  43.64300 34.81100 28.82100
H  44.17000 33.90800 26.89100
H  44.05100 33.24300 25.26400
H  42.54300 33.57800 26.16300
H  41.39400 39.02900 22.02200
H  42.17300 41.82700 21.68800
H  43.97600 40.43800 21.38900
H  43.55000 38.99900 20.54100
H  44.18700 38.83300 22.21500
H  40.24000 40.78400 20.57900
H  39.89300 42.32900 21.39200
H  39.12000 40.30000 23.29700
H  38.33800 39.91800 21.75100
H  38.15200 41.56000 22.52500
H  38.85900 45.78700 24.49100
H  40.59000 45.73700 23.82600
H  40.13900 46.75700 25.21200
H  39.18700 44.31000 29.93900
H  40.84100 46.46800 33.09300
H  42.25600 46.71200 32.09500
H  41.98100 45.10900 32.81200

