158

Mg 25.47200 1.28900 29.95300
C  27.61600 0.77400 32.70100
C  22.82300 1.37000 32.06500
C  23.53300 1.57600 27.27900
C  28.20900 0.24100 27.83800
N  25.29300 0.98400 32.18900
C  26.29700 1.05500 33.10100
C  25.80300 1.38900 34.49200
C  24.23300 1.39600 34.25400
C  24.07600 1.27600 32.74500
C  23.50400 0.19200 34.92500
C  26.40600 2.73000 34.89600
C  27.23100 2.77800 36.17700
H  26.79800 3.83300 37.19600
N  23.47100 1.48100 29.76100
C  22.54400 1.46500 30.73400
C  21.24000 1.70600 30.12000
C  21.39500 1.65000 28.74000
C  22.82800 1.57000 28.47100
C  19.95100 1.63300 30.90000
C  20.42100 1.64400 27.54500
O  20.74400 1.78300 26.37600
C  18.98300 1.28400 27.93200
N  25.91000 1.00400 27.84400
C  24.88900 1.25700 26.96200
C  25.34800 0.95800 25.48100
C  26.88300 0.60000 25.74600
C  27.00900 0.60100 27.23100
C  24.65600 -0.20800 24.62000
C  27.92400 1.57000 25.08000
C  27.83000 3.03400 25.51900
N  27.56500 0.68700 30.20500
C  28.52100 0.28900 29.25500
C  29.77900 -0.07300 29.96400
C  29.44700 0.19100 31.29700
C  28.10600 0.53400 31.38400
C  31.08100 -0.46300 29.35800
C  29.94400 0.26800 32.64800
O  31.07300 0.03200 33.14700
C  28.75600 0.65600 33.61600
C  28.73300 -0.27700 34.81200
O  27.98500 -1.26200 34.83600
O  29.44300 0.24900 35.82100
C  29.19000 -0.24900 37.18000
H  22.02400 1.53900 32.79100
H  23.03100 1.65500 26.31300
H  29.04100 -0.02200 27.18200
H  26.09400 0.58000 35.16300
H  23.76900 2.31400 34.61400
H  23.09600 0.47100 35.89600
H  24.28300 -0.56700 34.99900
H  22.73200 -0.16800 34.24500
H  25.58200 3.42600 35.05400
H  27.04900 3.07900 34.08800
H  28.28200 2.88500 35.90900
H  27.15600 1.79800 36.64700
H  19.22700 2.31300 30.45200
H  20.16000 1.92400 31.92900
H  19.41000 0.68700 30.87100
H  18.37800 0.92200 27.10100
H  18.51000 2.20800 28.26700
H  18.88000 0.50400 28.68600
H  25.28500 1.90100 24.93800
H  27.13400 -0.40100 25.39600
H  25.45300 -0.72700 24.08700
H  24.09300 0.29700 23.83600
H  24.05300 -0.82800 25.28300
H  27.59500 1.49700 24.04400
H  28.97500 1.28000 25.07300
H  27.41000 3.09400 26.52300
H  27.22300 3.60200 24.81400
H  28.79800 3.53500 25.49300
H  31.17300 -1.52600 29.13800
H  31.94700 -0.26100 29.98800
H  31.12200 0.04800 28.39600
H  28.95200 1.66900 33.96800
H  28.47400 -1.07100 37.20800
H  28.84200 0.56200 37.82000
H  30.15200 -0.64700 37.50100
Mg 9.91400 47.36500 26.13500
C  7.85700 47.60000 29.02000
C  12.49100 48.87300 27.83400
C  11.77900 47.20000 23.35700
C  7.08000 46.52500 24.31200
N  10.15700 48.08600 28.26700
C  9.16400 48.09100 29.25400
C  9.86600 48.61000 30.60800
C  11.09800 49.43400 30.07100
C  11.29800 48.81200 28.61300
C  10.93200 50.98500 30.05300
C  10.32800 47.33900 31.43900
C  10.69400 47.52200 32.95000
H  10.39700 46.43800 34.01400
N  11.93700 47.75900 25.74500
C  12.81000 48.37500 26.60100
C  14.07200 48.56700 25.88200
C  13.83000 48.01000 24.58800
C  12.48400 47.61800 24.49900
C  15.31000 49.18400 26.53300
C  14.84700 47.81300 23.40500
O  14.60900 47.18600 22.32000
C  16.21500 48.30600 23.56000
N  9.52600 46.91700 24.08200
C  10.42200 46.95800 23.14000
C  9.82200 46.57500 21.70700
C  8.31200 46.40100 22.09900
C  8.31100 46.62100 23.58000
C  9.96000 47.69600 20.71900
C  7.58800 45.12300 21.56400
C  6.05700 45.22600 21.25100
N  7.81500 47.12200 26.51100
C  6.79500 46.71700 25.66300
C  5.62500 46.50100 26.45100
C  5.97600 46.82000 27.78800
C  7.28700 47.24100 27.73900
C  4.25100 46.16700 25.80500
C  5.45900 46.96800 29.15200
O  4.35600 46.73800 29.61600
C  6.69300 47.38200 30.05500
C  6.98100 46.21500 30.91500
O  7.36200 45.14600 30.48300
O  6.75000 46.52600 32.23700
C  6.97300 45.44800 33.20000
H  13.25600 49.42500 28.38400
H  12.18400 47.29100 22.34600
H  6.21100 46.20000 23.73500
H  9.21400 49.27100 31.17900
H  12.00700 49.25700 30.64500
H  11.16900 51.48700 29.11500
H  11.59900 51.44400 30.78200
H  10.00100 51.33100 30.50100
H  11.21500 46.99100 30.91000
H  9.65100 46.49400 31.31100
H  10.26900 48.47600 33.26300
H  11.77600 47.62900 33.03100
H  15.12500 49.69200 27.48000
H  15.91200 49.87400 25.94300
H  15.91100 48.32800 26.83900
H  16.28200 49.35000 23.87000
H  16.76100 48.29000 22.61700
H  16.64200 47.63500 24.30600
H  10.16200 45.57600 21.43500
H  7.74900 47.26900 21.75600
H  10.12300 48.62300 21.26900
H  9.07300 47.88100 20.11200
H  10.86100 47.50300 20.13700
H  7.64800 44.38100 22.36000
H  8.13800 44.66500 20.74100
H  5.50300 46.12800 21.51000
H  5.52600 44.44100 21.79000
H  5.91300 44.94800 20.20600
H  4.22300 45.41700 25.01500
H  3.88100 47.14300 25.48900
H  3.72000 45.81100 26.68700
H  6.47100 48.24900 30.67800
H  6.80500 44.42700 32.85800
H  6.28500 45.68600 34.01100
H  7.99100 45.45600 33.58900

