158

Mg 1.24300 7.83900 26.14600
C  1.58200 9.52900 29.11100
C  1.22600 4.84400 28.00900
C  1.01600 6.09200 23.23900
C  1.78000 10.77200 24.42700
N  1.37800 7.22500 28.28000
C  1.29500 8.14200 29.27100
C  1.18200 7.51400 30.64800
C  1.28900 6.01400 30.35300
C  1.28200 6.00600 28.77200
C  2.47900 5.26400 31.00400
C  -0.11000 7.95200 31.37500
C  0.00900 8.30400 32.80400
H  1.19300 7.71000 33.60500
N  1.15100 5.67700 25.67900
C  1.11500 4.64500 26.58200
C  0.87700 3.38500 25.90100
C  0.88900 3.74200 24.48100
C  1.04700 5.21600 24.41000
C  0.83700 2.04200 26.54300
C  0.74000 2.94100 23.29500
O  0.69900 3.37500 22.18300
C  0.73400 1.39400 23.37500
N  1.60700 8.33900 24.07700
C  1.26100 7.47400 23.09500
C  1.16700 8.23700 21.79000
C  1.20200 9.68100 22.19400
C  1.56000 9.62100 23.67400
C  2.26000 7.89700 20.72000
C  -0.16500 10.45000 22.08700
C  -1.05700 10.16900 20.85900
N  1.75200 9.69200 26.63900
C  1.84700 10.84200 25.81700
C  1.88200 12.01100 26.58400
C  1.84100 11.53100 27.89200
C  1.74600 10.15200 27.86200
C  2.09400 13.45000 26.05600
C  1.75200 11.97700 29.21600
O  1.65700 13.09600 29.68100
C  1.71500 10.65800 30.11000
C  3.03200 10.62800 30.84800
O  4.01000 9.94400 30.61600
O  2.77400 11.21200 32.09400
C  3.76800 10.85600 33.19400
H  1.22900 3.96800 28.66100
H  0.78000 5.63500 22.27600
H  1.87400 11.74200 23.93500
H  2.01400 7.78200 31.30000
H  0.40900 5.51200 30.75500
H  3.11800 5.95000 31.56000
H  3.03500 4.70600 30.25100
H  2.00300 4.54800 31.67400
H  -0.88400 7.19300 31.26200
H  -0.61900 8.69600 30.76200
H  -0.85700 7.91900 33.34100
H  -0.00200 9.39400 32.80800
H  0.62800 2.11800 27.61000
H  1.79300 1.53200 26.42400
H  -0.03500 1.46100 26.24300
H  1.67800 1.11300 23.84200
H  0.75000 0.91700 22.39400
H  -0.04500 1.07300 24.06600
H  0.21800 8.00100 21.30800
H  1.92400 10.35900 21.73800
H  1.86100 7.57100 19.76000
H  2.85300 7.10100 21.17100
H  2.83100 8.79900 20.50300
H  0.19300 11.47600 22.01200
H  -0.65100 10.34200 23.05700
H  -0.54900 9.68900 20.02300
H  -1.39400 11.13300 20.47700
H  -1.88200 9.53000 21.17200
H  1.37200 13.76800 25.30400
H  3.11100 13.62600 25.70600
H  1.88500 14.03700 26.95000
H  0.86800 10.76800 30.78700
H  3.16700 10.67700 34.08600
H  4.41500 11.70900 33.39800
H  4.29900 9.92800 32.98200
Mg -10.01000 17.73000 42.25000
C  -6.54700 17.26100 42.29400
C  -9.47200 21.01800 41.72400
C  -13.21100 17.94300 41.47500
C  -10.21000 14.18900 42.28500
N  -8.12900 18.99100 42.08600
C  -6.86500 18.61400 42.10900
C  -5.90800 19.77300 41.99200
C  -6.89400 21.04200 41.94100
C  -8.23400 20.33700 41.94800
C  -6.78900 22.10800 43.14800
C  -4.92200 19.62300 40.79900
C  -5.37100 18.85500 39.53200
H  -4.73000 19.26800 38.16500
N  -11.21700 19.34200 41.80400
C  -10.76800 20.57200 41.70600
C  -11.91200 21.45200 41.38400
C  -13.03400 20.58600 41.33300
C  -12.51400 19.21700 41.47400
C  -11.87400 22.88500 40.89600
C  -14.61000 21.05300 41.10700
O  -14.83600 22.19300 40.86400
C  -15.75400 20.15200 41.30400
N  -11.53300 16.25700 41.66600
C  -12.77400 16.63000 41.67100
C  -13.76000 15.46400 41.68900
C  -12.78200 14.28400 41.94300
C  -11.40000 14.90400 42.02000
C  -15.00000 15.58900 42.64500
C  -12.82000 13.12600 40.80700
C  -13.68900 11.96100 41.13900
N  -8.73200 16.02300 42.38900
C  -8.96400 14.73700 42.56900
C  -7.79700 13.97300 42.87600
C  -6.81900 14.95200 42.77300
C  -7.40000 16.17000 42.46300
C  -7.57700 12.51900 43.10800
C  -5.37400 15.12600 42.73900
O  -4.46700 14.34000 42.91700
C  -5.18000 16.63400 42.56900
C  -4.44800 17.03300 43.76200
O  -3.23700 17.05100 43.80300
O  -5.19200 17.40300 44.82300
C  -4.45900 18.04900 45.88500
H  -9.32200 22.07300 41.48600
H  -14.29000 18.11500 41.46800
H  -10.46500 13.15600 42.52800
H  -5.37800 19.89700 42.93700
H  -6.84000 21.60600 41.01000
H  -5.76700 22.44500 43.32100
H  -7.31000 21.72600 44.02600
H  -7.35700 22.95000 42.75100
H  -4.01100 19.13100 41.14100
H  -4.58200 20.61100 40.48800
H  -6.39100 18.47900 39.45600
H  -4.78800 17.94600 39.67600
H  -12.81000 23.36600 41.18000
H  -11.86900 23.03700 39.81600
H  -10.99200 23.33300 41.35200
H  -15.86000 19.54000 40.40800
H  -16.55400 20.88400 41.41000
H  -15.51800 19.62600 42.22900
H  -14.19200 15.24300 40.71300
H  -12.95300 13.67000 42.82700
H  -15.12500 16.58800 43.06400
H  -15.06800 14.73700 43.32100
H  -15.84900 15.60900 41.96200
H  -11.84000 12.66500 40.68800
H  -13.18000 13.41300 39.81900
H  -14.54300 11.92700 40.46300
H  -14.14500 12.12600 42.11600
H  -13.10800 11.04700 41.26000
H  -8.30000 11.98000 42.49600
H  -7.78600 12.22200 44.13600
H  -6.57500 12.25000 42.77200
H  -4.46200 16.73800 41.75500
H  -5.21900 18.32900 46.61300
H  -3.97800 18.93300 45.46600
H  -3.81300 17.28800 46.32300

