158

Mg 0.19200 7.98600 26.65800
C  0.74000 10.17900 29.32400
C  0.28600 5.31700 28.96800
C  -0.20200 5.83000 24.10800
C  0.45200 10.61400 24.41300
N  0.53000 7.81300 28.89600
C  0.62800 8.85200 29.78000
C  0.78800 8.35700 31.21500
C  0.67300 6.79300 30.99000
C  0.48900 6.61800 29.51900
C  1.79800 5.86100 31.62000
C  -0.34400 8.90400 32.09500
C  0.01400 9.26200 33.54700
H  -0.69900 8.45300 34.61800
N  0.16900 5.83300 26.52000
C  0.14700 4.93300 27.58500
C  -0.01600 3.56300 27.09000
C  -0.25300 3.67900 25.70900
C  -0.13500 5.13900 25.33900
C  -0.15400 2.36900 27.89900
C  -0.68900 2.58800 24.66800
O  -1.24700 2.90000 23.59800
C  -0.58800 1.09200 25.04400
N  0.13000 8.17700 24.60900
C  -0.00300 7.18700 23.76700
C  -0.12700 7.71000 22.27000
C  -0.17700 9.22500 22.43800
C  0.04400 9.39100 23.93700
C  0.96300 7.22600 21.27800
C  -1.59300 9.87300 22.02400
C  -1.56400 11.17100 21.14300
N  0.52400 9.96800 26.80200
C  0.73200 10.89800 25.79900
C  1.18900 12.19100 26.41600
C  1.11100 11.89800 27.75200
C  0.71900 10.56500 27.98400
C  1.60600 13.44300 25.77000
C  1.29800 12.57600 29.01900
O  1.63100 13.74800 29.30800
C  1.11500 11.43600 30.14000
C  2.37100 11.25300 30.96400
O  3.50700 10.96400 30.54300
O  2.12800 11.56100 32.23000
C  3.27000 11.44200 33.21600
H  0.31800 4.51400 29.70800
H  -0.40200 5.13700 23.28700
H  0.58800 11.45500 23.72900
H  1.78000 8.66400 31.54900
H  -0.30100 6.47000 31.36000
H  1.28300 5.09700 32.20300
H  2.50500 6.32900 32.30400
H  2.31300 5.44600 30.75400
H  -1.21200 8.24500 32.11500
H  -0.69700 9.85000 31.68400
H  -0.19300 10.31800 33.72100
H  1.07800 9.09400 33.71500
H  -1.20200 2.22000 28.15800
H  0.37700 2.59800 28.82300
H  0.35500 1.47700 27.53300
H  0.28800 0.78700 25.61600
H  -0.66000 0.53900 24.10700
H  -1.51900 0.89400 25.57500
H  -1.10800 7.39000 21.91800
H  0.61400 9.72100 21.87600
H  1.25800 8.00700 20.57700
H  0.49600 6.39600 20.74800
H  1.79800 6.84900 21.86800
H  -2.13800 10.10000 22.94100
H  -2.22200 9.17900 21.46700
H  -0.57400 11.58700 20.95600
H  -2.05500 12.01800 21.62400
H  -2.09200 10.98300 20.20800
H  2.22700 13.11000 24.93900
H  2.19600 14.10900 26.39900
H  0.72600 14.00500 25.45500
H  0.31600 11.81800 30.77500
H  2.94800 11.46600 34.25700
H  3.95600 12.28300 33.11800
H  3.82100 10.51100 33.07800
Mg 49.68100 45.82300 41.31500
C  46.38300 45.90300 40.19800
C  49.89600 42.57600 40.32400
C  53.05200 46.04100 41.48000
C  49.47500 49.30200 41.87200
N  48.32800 44.50800 40.06500
C  47.04800 44.71700 39.87100
C  46.33700 43.48000 39.23800
C  47.42200 42.32200 39.62700
C  48.64500 43.15500 40.06900
C  46.98400 41.22800 40.67500
C  46.04600 43.70400 37.72200
C  44.64600 43.34100 37.23000
H  44.20200 43.92000 35.86300
N  51.21800 44.41000 41.26000
C  51.13600 43.08200 40.83500
C  52.40200 42.49900 40.83800
C  53.31700 43.58000 41.06200
C  52.52100 44.76400 41.28200
C  52.50400 40.96000 40.66000
C  54.86800 43.30900 41.11200
O  55.36600 42.23200 40.83100
C  55.82400 44.40700 41.48100
N  51.03800 47.43400 41.79800
C  52.37000 47.26200 41.79000
C  53.10700 48.56600 42.15300
C  51.93400 49.51900 42.57700
C  50.75300 48.73900 42.01700
C  54.29000 48.40500 43.07100
C  51.99500 50.95100 41.95400
C  52.54700 52.10300 42.83600
N  48.20500 47.32500 41.13900
C  48.31300 48.63600 41.41600
C  47.03500 49.24300 41.02000
C  46.19300 48.24000 40.63800
C  47.00400 47.08400 40.63800
C  46.68300 50.72700 41.30500
C  44.94000 47.92600 40.03800
O  44.01900 48.60400 39.72900
C  44.94500 46.35500 39.87400
C  43.99200 45.84600 40.84700
O  44.37800 45.40000 41.94000
O  42.66400 46.03200 40.47200
C  41.66200 45.45100 41.35900
H  49.84400 41.51900 40.05200
H  54.13500 46.17600 41.52500
H  49.34500 50.36600 42.08400
H  45.37400 43.31300 39.72200
H  47.60100 41.74800 38.71800
H  47.71200 40.95100 41.43800
H  46.72200 40.34600 40.09200
H  46.07800 41.49200 41.22000
H  46.71800 43.00700 37.22200
H  46.29100 44.71300 37.39000
H  43.93700 43.64900 37.99900
H  44.56000 42.25500 37.19800
H  53.29200 40.54200 41.28600
H  52.77000 40.72800 39.62900
H  51.63700 40.41600 41.03500
H  56.03200 45.12600 40.68900
H  56.77000 43.86900 41.54100
H  55.43100 44.83100 42.40500
H  53.55700 48.92400 41.22700
H  51.91800 49.45200 43.66500
H  54.17600 49.05600 43.93800
H  55.25000 48.67500 42.63100
H  54.39500 47.37900 43.42200
H  51.04400 51.24400 41.51000
H  52.71100 50.82500 41.14200
H  52.79400 51.62800 43.78500
H  51.86300 52.94400 42.95900
H  53.36400 52.55100 42.27100
H  46.88600 50.83900 42.36900
H  45.67900 50.98800 40.97000
H  47.42000 51.33900 40.78500
H  44.71800 46.06200 38.84900
H  41.00700 44.84000 40.73700
H  41.22100 46.32700 41.83500
H  42.05000 44.83700 42.17200

