158

Mg 49.51400 46.86500 43.18000
C  46.21000 47.30600 42.18900
C  49.47400 43.78200 41.51100
C  52.82500 46.75700 43.29700
C  49.47300 49.98600 44.62000
N  47.95100 45.62800 42.06000
C  46.70300 46.02800 41.68000
C  45.97100 44.88600 40.89400
C  46.97500 43.71200 41.07600
C  48.24900 44.41500 41.64300
C  46.51900 42.47400 41.95600
C  45.61300 45.35000 39.41900
C  44.20400 45.01700 39.03200
H  43.87100 44.09700 37.82200
N  50.99700 45.49100 42.47100
C  50.81500 44.30100 41.80700
C  52.06700 43.67400 41.56600
C  53.08300 44.48400 42.06800
C  52.33400 45.65200 42.65500
C  52.26800 42.25900 40.83100
C  54.58600 44.16900 42.09600
O  55.05000 43.21500 41.46500
C  55.57100 44.99300 42.82100
N  50.94700 48.10500 44.03000
C  52.28600 47.91300 43.88200
C  53.04900 49.00600 44.67300
C  51.89100 49.87000 45.23300
C  50.70200 49.29500 44.60300
C  54.07000 48.40400 45.76500
C  52.01400 51.45100 45.24100
C  53.30700 52.16100 45.72800
N  48.18500 48.33500 43.39100
C  48.25700 49.58400 43.97800
C  47.00600 50.28500 43.86400
C  46.18900 49.41000 43.15300
C  46.89900 48.22700 42.97200
C  46.77900 51.76100 44.30400
C  44.86600 49.26400 42.63500
O  43.90700 50.00700 42.70000
C  44.83200 47.87300 41.98000
C  43.75600 47.05300 42.67400
O  43.88800 46.38200 43.70500
O  42.53600 47.02300 41.97300
C  41.45100 46.18400 42.48800
H  49.54400 42.76300 41.12500
H  53.91000 46.86700 43.35500
H  49.33400 50.92600 45.15700
H  45.13500 44.70000 41.56900
H  47.27300 43.29700 40.11300
H  46.71900 41.59200 41.34700
H  45.47800 42.65200 42.22600
H  47.07700 42.30000 42.87600
H  46.23700 44.87900 38.66000
H  45.69800 46.43500 39.48500
H  43.52600 45.86700 38.96000
H  43.84700 44.37000 39.83200
H  52.70700 42.30900 39.83400
H  51.32800 41.71100 40.89200
H  53.01500 41.75100 41.44200
H  56.48500 44.40900 42.92800
H  55.21300 45.19000 43.83100
H  55.84600 45.90800 42.29600
H  53.69300 49.50400 43.94800
H  51.72900 49.56100 46.26600
H  53.57900 47.50600 46.14000
H  54.18600 49.05600 46.63100
H  55.04800 48.16800 45.34600
H  51.20300 51.88500 45.82700
H  51.81900 51.70100 44.19800
H  54.12100 51.49600 46.01400
H  53.11200 52.93900 46.46600
H  53.57000 52.65300 44.79100
H  47.68400 52.08400 44.81900
H  45.93000 52.06200 44.91900
H  46.68400 52.36400 43.40100
H  44.60600 48.03100 40.92600
H  41.65600 45.11900 42.38000
H  40.57100 46.50500 41.93000
H  41.28100 46.35600 43.55000
Mg -11.88200 37.42300 41.49700
C  -9.29300 35.23800 41.09600
C  -9.73100 39.97000 40.29900
C  -14.47300 39.48300 41.35700
C  -13.86000 34.75400 42.53000
N  -9.72500 37.59200 40.76500
C  -8.92500 36.51700 40.63200
C  -7.64300 36.80900 39.76100
C  -7.72300 38.46300 39.77600
C  -9.11900 38.72400 40.30000
C  -6.67600 39.18000 40.69800
C  -7.68600 36.18500 38.37100
C  -6.41700 35.44500 37.93400
H  -5.45500 36.14000 37.05100
N  -12.08800 39.46400 40.91900
C  -11.08000 40.32400 40.55000
C  -11.68100 41.63600 40.34300
C  -13.08400 41.52900 40.70300
C  -13.27700 40.17600 41.09500
C  -10.94800 42.87200 39.83100
C  -14.09400 42.69000 40.60100
O  -13.77300 43.83200 40.26500
C  -15.59500 42.50700 40.89700
N  -13.90400 37.15100 41.69900
C  -14.82500 38.19900 41.67000
C  -16.26800 37.65700 42.02500
C  -15.97100 36.21500 42.48900
C  -14.49200 35.97100 42.16700
C  -17.11400 38.52300 43.04400
C  -16.93200 35.07000 41.93300
C  -17.58800 34.16500 43.02800
N  -11.59800 35.43700 41.88700
C  -12.47700 34.46900 42.35500
C  -11.72000 33.24100 42.61200
C  -10.46000 33.45800 42.07500
C  -10.46800 34.83700 41.55900
C  -12.09900 32.06500 43.30800
C  -9.20900 32.90700 41.89100
O  -8.76400 31.90300 42.35600
C  -8.38900 33.91600 41.08400
C  -7.05100 34.00900 41.76900
O  -6.07100 33.31700 41.49100
O  -7.13600 34.93300 42.77600
C  -5.94400 35.11500 43.57100
H  -9.06500 40.78600 40.00800
H  -15.37100 40.09500 41.46100
H  -14.53800 33.94600 42.81200
H  -6.71400 36.48200 40.22700
H  -7.70600 38.72000 38.71700
H  -5.89900 39.52500 40.01500
H  -6.18000 38.63200 41.49900
H  -7.11700 39.99700 41.26900
H  -7.94000 36.97400 37.66400
H  -8.55500 35.53900 38.25000
H  -6.88200 34.61100 37.40800
H  -5.89700 35.01100 38.78800
H  -11.28300 43.79800 40.30000
H  -11.35300 43.06700 38.83800
H  -9.86800 42.78200 39.71800
H  -15.76900 41.94200 41.81200
H  -15.95900 41.96700 40.02300
H  -16.11000 43.46700 40.93800
H  -16.86500 37.59500 41.11500
H  -16.13300 36.27900 43.56500
H  -17.57800 39.29000 42.42400
H  -16.45800 39.05100 43.73600
H  -17.94700 37.95200 43.45400
H  -16.43100 34.35400 41.28100
H  -17.70200 35.45500 41.26400
H  -17.38500 33.12300 42.78000
H  -18.65700 34.37000 42.96800
H  -17.24500 34.40700 44.03400
H  -12.87500 31.52500 42.76400
H  -12.57600 32.42900 44.21800
H  -11.27900 31.36200 43.45600
H  -8.25200 33.75200 40.01500
H  -5.08900 34.47500 43.35500
H  -6.28400 34.97800 44.59800
H  -5.57400 36.12600 43.39900

