158

Mg 23.95700 -4.27700 45.15300
C  26.22300 -1.87500 44.03600
C  21.52900 -2.97800 43.18200
C  22.12600 -7.17100 45.70400
C  26.69000 -5.76200 46.85600
N  24.01600 -2.71400 43.67000
C  24.90900 -1.79200 43.40200
C  24.43000 -0.83200 42.30400
C  22.90000 -1.06700 42.23000
C  22.74700 -2.31800 43.16600
C  21.95200 0.13800 42.60300
C  25.22200 -1.09800 40.95800
C  25.52300 0.16700 40.13200
H  25.08200 0.14500 38.62900
N  22.12200 -4.96400 44.55900
C  21.18100 -4.24800 43.75000
C  19.95200 -4.94000 43.61000
C  20.13700 -6.23000 44.23800
C  21.50600 -6.15600 44.90200
C  18.80700 -4.30300 42.84400
C  19.08200 -7.30400 44.09200
O  18.01600 -7.03700 43.54000
C  19.34100 -8.54400 44.78300
N  24.28400 -6.07500 46.19300
C  23.32600 -7.04500 46.33200
C  23.87600 -8.21800 47.14900
C  25.32900 -7.75600 47.63800
C  25.44100 -6.41800 46.90200
C  22.97400 -8.79400 48.30500
C  26.50700 -8.70200 47.22700
C  27.70500 -8.71100 48.19100
N  25.97900 -3.80500 45.56100
C  26.91500 -4.49400 46.25900
C  28.16000 -3.77500 46.15700
C  27.92100 -2.70800 45.35800
C  26.62000 -2.77500 44.94600
C  29.45500 -4.14500 46.87200
C  28.47300 -1.48400 44.73000
O  29.58500 -1.07200 44.75600
C  27.34200 -0.90600 43.79300
C  27.03100 0.38800 44.27300
O  26.16400 0.75600 45.03400
O  27.92600 1.31800 43.82300
C  27.96700 2.64800 44.35500
H  20.72500 -2.43400 42.68200
H  21.64500 -8.13900 45.85600
H  27.59500 -6.26700 47.19900
H  24.69500 0.20000 42.53100
H  22.67300 -1.40000 41.21800
H  21.68000 0.59000 41.64900
H  22.55500 0.88800 43.11300
H  21.15200 -0.34500 43.16400
H  24.56600 -1.68400 40.31500
H  26.16000 -1.63300 41.10300
H  26.59000 0.32600 40.29100
H  24.82900 0.92000 40.50500
H  19.09400 -3.45100 42.22700
H  18.19200 -4.06500 43.71100
H  18.13800 -4.91100 42.23700
H  18.55500 -9.27100 44.57800
H  19.51600 -8.30700 45.83200
H  20.32400 -8.85900 44.43200
H  23.94800 -9.01700 46.41100
H  25.46400 -7.56700 48.70300
H  23.42300 -8.81500 49.29800
H  22.79100 -9.84500 48.08200
H  21.98600 -8.33400 48.31500
H  26.88100 -8.40200 46.24800
H  26.14700 -9.72900 47.17300
H  27.75200 -7.84600 48.85300
H  28.59700 -8.74200 47.56600
H  27.61700 -9.57300 48.85200
H  30.15700 -4.45300 46.09700
H  29.35300 -4.92000 47.63200
H  29.88000 -3.30700 47.42500
H  27.73200 -0.76500 42.78400
H  28.55500 3.20500 43.62600
H  28.32500 2.61800 45.38500
H  26.99100 3.13000 44.29800
Mg 47.89100 24.93900 29.56000
C  49.08100 27.11400 32.08000
C  46.96400 22.72100 32.16000
C  47.30300 22.59300 27.29000
C  49.37400 26.90500 27.17200
N  47.94700 25.03400 31.71400
C  48.42400 26.05600 32.55900
C  48.19800 25.73400 34.02900
C  47.78600 24.21000 34.08800
C  47.53300 23.96100 32.56700
C  48.72600 23.17100 34.78800
C  47.22200 26.73500 34.80800
C  47.82300 27.27300 36.18700
H  46.82400 27.65500 37.30100
N  46.99600 22.97400 29.68500
C  46.74500 22.23700 30.89800
C  46.08200 20.96000 30.44500
C  46.22900 20.88900 29.03400
C  46.81500 22.19600 28.59700
C  45.57200 19.93800 31.42200
C  45.67200 19.85200 28.02800
O  45.84000 19.91400 26.82200
C  44.87300 18.74600 28.48000
N  48.26500 24.78300 27.48300
C  47.98200 23.68500 26.81700
C  48.58500 23.79800 25.39900
C  49.00100 25.21000 25.35700
C  48.86300 25.65100 26.72400
C  49.80300 22.78100 25.21300
C  48.26900 26.08300 24.37100
C  46.74200 26.13100 24.47600
N  48.87900 26.74900 29.55800
C  49.47900 27.42000 28.46700
C  49.92800 28.74200 29.01200
C  49.82500 28.66600 30.38800
C  49.18800 27.45400 30.71300
C  50.51400 29.92100 28.21900
C  50.20800 29.27600 31.65100
O  50.75300 30.35300 31.87500
C  49.78600 28.25100 32.77200
C  50.97000 27.90000 33.61400
O  51.89700 27.18100 33.33700
O  50.88300 28.62200 34.79200
C  51.91400 28.39600 35.74800
H  46.53600 22.11600 32.96200
H  47.10100 21.88800 26.48000
H  49.83000 27.46200 26.35100
H  49.16700 25.94900 34.47900
H  46.83100 24.16200 34.61100
H  49.38700 23.68800 35.48300
H  49.31700 22.51800 34.14600
H  48.09600 22.58700 35.45900
H  46.27200 26.30600 35.12500
H  47.09500 27.49000 34.03200
H  48.33800 28.13500 35.76400
H  48.56700 26.56300 36.55100
H  45.85800 18.89800 31.26800
H  44.49700 19.96100 31.24600
H  45.81300 20.23100 32.44400
H  45.37700 17.95200 29.03100
H  44.26800 18.25600 27.71700
H  44.08200 19.07300 29.15400
H  47.86400 23.43500 24.66700
H  50.05500 25.25300 25.08300
H  50.77400 23.25300 25.06600
H  49.60500 22.44300 24.19600
H  49.88300 21.94700 25.91000
H  48.51300 25.72800 23.37000
H  48.64600 27.10200 24.45600
H  46.28600 25.77900 23.55000
H  46.55000 27.20400 24.46400
H  46.37000 25.59100 25.34800
H  50.45600 29.61300 27.17600
H  51.55300 30.13800 28.46900
H  49.97500 30.86500 28.30000
H  49.18700 28.83100 33.47400
H  51.44300 27.72200 36.46400
H  52.07200 29.28600 36.35600
H  52.86700 28.03700 35.36100

