158

Mg 8.62300 48.52600 25.32700
C  6.23400 49.11700 27.82100
C  11.07400 49.42700 27.59700
C  10.75000 48.01600 22.95800
C  5.93800 48.16700 23.04400
N  8.60000 49.21400 27.47300
C  7.52600 49.30400 28.31500
C  8.01000 49.59000 29.73900
C  9.44500 50.28800 29.44400
C  9.77000 49.53500 28.11700
C  9.39700 51.85500 29.08200
C  8.25300 48.34700 30.62500
C  8.51100 48.71400 32.09900
H  8.09800 47.72100 33.16900
N  10.65200 48.65500 25.32800
C  11.52900 49.04900 26.35800
C  12.89300 48.94400 25.86100
C  12.86000 48.44300 24.55200
C  11.40800 48.24500 24.23000
C  14.15400 49.38900 26.68500
C  13.95000 48.19900 23.40300
O  13.73800 47.96100 22.21600
C  15.32800 48.42600 23.83000
N  8.35600 48.14800 23.35300
C  9.45700 47.98900 22.56000
C  9.05800 47.69900 21.07900
C  7.51800 47.74400 21.17100
C  7.24100 48.03500 22.56900
C  9.65500 48.75400 20.07700
C  6.78800 46.52300 20.67100
C  5.66800 46.87300 19.61900
N  6.55900 48.71500 25.33900
C  5.57100 48.44500 24.37300
C  4.28000 48.47200 24.99300
C  4.51300 48.76700 26.28600
C  5.90300 48.83200 26.48200
C  2.80800 48.34500 24.37800
C  3.78500 48.97400 27.59000
O  2.57700 48.93300 27.92100
C  4.92900 49.34000 28.57000
C  4.73400 48.54100 29.80700
O  5.05200 47.45100 30.02200
O  4.11000 49.36300 30.71600
C  3.94500 48.80700 32.13500
H  11.83900 49.78700 28.28800
H  11.41000 47.70800 22.14500
H  5.23200 48.05300 22.21800
H  7.29200 50.26200 30.20800
H  10.27200 50.08000 30.12300
H  8.35700 52.16100 29.20200
H  9.64400 51.98100 28.02800
H  10.14700 52.42200 29.63300
H  8.94700 47.65900 30.14300
H  7.29300 47.83300 30.57900
H  8.16500 49.74100 32.21600
H  9.58900 48.87800 32.09100
H  13.96100 49.39200 27.75800
H  14.46300 50.36700 26.31800
H  15.04100 48.79200 26.47400
H  15.32700 49.37900 24.35800
H  16.01500 48.26200 23.00000
H  15.56500 47.61100 24.51300
H  9.46200 46.70000 20.91900
H  7.16800 48.63700 20.65300
H  10.44300 49.28500 20.61300
H  8.79300 49.38300 19.85800
H  10.01400 48.21100 19.20300
H  6.49200 45.95700 21.55400
H  7.51700 45.96600 20.08200
H  5.51800 45.96400 19.03700
H  5.98500 47.65300 18.92600
H  4.79300 47.23600 20.15900
H  2.59300 47.31600 24.09200
H  2.80500 48.96300 23.47900
H  2.07600 48.55000 25.16000
H  4.85100 50.38600 28.86800
H  2.90500 48.50300 32.25700
H  4.24200 49.58300 32.84100
H  4.56200 47.95400 32.41300
Mg -2.24500 35.38100 27.31900
C  -4.06800 33.45700 29.54200
C  -1.32000 37.45000 29.86500
C  -0.57800 37.13200 25.10500
C  -3.45100 33.24700 24.72200
N  -2.71000 35.49800 29.36400
C  -3.31700 34.55100 30.13000
C  -3.17300 34.75400 31.59900
C  -2.60800 36.11500 31.69000
C  -2.16600 36.38200 30.27400
C  -3.64400 37.15600 32.29200
C  -2.55200 33.60400 32.43200
C  -3.27100 33.04900 33.60900
H  -2.48800 32.51600 34.82000
N  -1.20500 37.09500 27.46400
C  -0.87000 37.78200 28.57300
C  -0.02200 38.93500 28.27900
C  0.21200 38.86800 26.88200
C  -0.52600 37.65700 26.42100
C  0.30300 40.01400 29.28900
C  1.01900 39.75400 26.04100
O  1.13500 39.56700 24.81000
C  1.74300 40.95200 26.68500
N  -2.02300 35.26700 25.27300
C  -1.20900 36.02700 24.55500
C  -1.15000 35.68400 23.03900
C  -2.05300 34.44700 23.00300
C  -2.54900 34.23100 24.44600
C  -1.62500 36.79000 22.02700
C  -1.28200 33.13100 22.46500
C  -1.76200 32.55100 21.09500
N  -3.64600 33.84900 27.08600
C  -3.97300 33.01300 26.02500
C  -4.92500 31.98300 26.41200
C  -4.91800 32.05800 27.78100
C  -4.19000 33.22500 28.18500
C  -5.56100 30.93200 25.55200
C  -5.32500 31.41900 28.94800
O  -5.91300 30.36100 29.10500
C  -4.88200 32.33400 30.20200
C  -6.20200 32.83600 30.89500
O  -7.11600 33.45100 30.24000
O  -6.27600 32.60600 32.18500
C  -7.46200 32.91700 32.88200
H  -0.99600 37.92900 30.79200
H  -0.12700 37.72800 24.30900
H  -3.77300 32.46400 24.03200
H  -4.21600 34.81900 31.90900
H  -1.67600 36.07500 32.25300
H  -3.23300 38.16200 32.37800
H  -3.89700 36.98400 33.33800
H  -4.59000 37.06400 31.75800
H  -1.63400 33.98400 32.88100
H  -2.31000 32.79200 31.74700
H  -3.73400 32.12400 33.26400
H  -4.08400 33.68700 33.95600
H  0.03100 39.85700 30.33200
H  -0.11200 40.94000 28.88900
H  1.39000 40.08900 29.30100
H  2.78600 40.73300 26.91400
H  1.34300 41.39400 27.59800
H  1.58700 41.70100 25.90900
H  -0.13300 35.35000 22.83100
H  -2.97700 34.56700 22.43600
H  -1.12100 36.49100 21.10800
H  -1.57100 37.82100 22.37700
H  -2.68600 36.62100 21.84400
H  -1.34600 32.39200 23.26400
H  -0.21700 33.27000 22.28100
H  -0.79200 32.38500 20.62700
H  -2.45800 33.23400 20.60700
H  -2.30300 31.64200 21.35500
H  -6.43300 30.48500 26.03000
H  -4.88100 30.15900 25.19500
H  -5.88300 31.29700 24.57700
H  -4.23000 31.76500 30.86400
H  -7.15500 33.60400 33.67100
H  -7.88200 31.99400 33.28100
H  -8.28300 33.37700 32.33200

