158

Mg 40.74100 8.15600 29.53500
C  42.21800 9.91600 32.35400
C  38.48000 6.82900 31.77500
C  39.35500 6.40600 27.06400
C  43.58300 8.97300 27.77900
N  40.33400 8.43600 31.75200
C  41.04700 9.27200 32.68500
C  40.41800 9.15200 34.11800
C  39.35600 8.00900 33.94400
C  39.34700 7.74500 32.36800
C  39.62000 6.72400 34.78800
C  39.81000 10.54900 34.58700
C  39.32800 10.43400 36.08000
H  40.05500 11.35400 37.06000
N  39.06500 6.86200 29.37000
C  38.26300 6.52600 30.41200
C  37.17700 5.70600 29.91900
C  37.37800 5.57400 28.49300
C  38.59900 6.27400 28.26000
C  36.06600 5.17600 30.87000
C  36.53600 4.92200 27.42300
O  36.75400 4.91900 26.18200
C  35.25500 4.37200 27.82300
N  41.45300 7.67200 27.73200
C  40.62900 7.02200 26.82700
C  41.33200 6.87700 25.47000
C  42.44400 7.99000 25.57700
C  42.52400 8.22800 27.16100
C  41.95900 5.56500 25.11700
C  42.04100 9.22900 24.69400
C  41.20600 10.36000 25.32100
N  42.55100 9.24400 29.89900
C  43.61600 9.43900 29.11600
C  44.64400 10.18600 29.83500
C  44.19200 10.40700 31.13300
C  42.85200 9.81300 31.14000
C  45.92200 10.47400 29.15600
C  44.47000 10.87600 32.45300
O  45.45400 11.43100 32.94300
C  43.17300 10.55200 33.32400
C  43.59900 9.75600 34.51500
O  44.38700 8.85400 34.52700
O  43.10500 10.34000 35.66500
C  43.56200 9.82700 36.91900
H  37.75500 6.49500 32.52000
H  38.98400 5.92300 26.15800
H  44.41100 9.34900 27.17500
H  41.07800 8.79500 34.90800
H  38.38100 8.37400 34.26600
H  39.62200 5.81600 34.18500
H  38.84000 6.62200 35.54200
H  40.55000 6.81200 35.35100
H  38.86600 10.84600 34.13000
H  40.48200 11.38600 34.39600
H  39.47400 9.42300 36.46000
H  38.25400 10.60700 36.15100
H  35.27300 5.65800 30.29800
H  36.10400 5.38100 31.94000
H  35.88000 4.10400 30.80300
H  34.75200 5.24300 28.24300
H  35.47500 3.66400 28.62200
H  34.67200 3.95900 27.00000
H  40.56400 7.12600 24.73800
H  43.47000 7.75900 25.29200
H  41.68200 4.82400 25.86700
H  43.04300 5.53500 25.22400
H  41.68200 5.41200 24.07400
H  41.47600 8.88100 23.82900
H  42.93000 9.70700 24.28200
H  40.94400 10.26400 26.37400
H  40.25900 10.25800 24.79100
H  41.65600 11.32900 25.10500
H  46.23000 9.62000 28.55300
H  46.66900 10.60500 29.93900
H  45.97000 11.30400 28.45100
H  42.67900 11.45400 33.68400
H  43.88800 8.79300 36.80900
H  42.79900 9.81100 37.69700
H  44.49700 10.31900 37.18900
Mg 41.16600 40.86600 26.62200
C  40.46400 43.59100 28.90700
C  42.29400 39.08700 29.23500
C  42.30000 38.74400 24.42800
C  40.53400 43.19500 24.01900
N  41.47200 41.44400 28.81900
C  40.87600 42.45300 29.57900
C  40.97200 42.20400 31.00700
C  41.69600 40.77600 31.09600
C  41.87200 40.36100 29.63900
C  43.06300 40.72800 31.81800
C  39.60700 42.38700 31.76700
C  39.67500 43.20000 33.13300
H  38.90200 42.66600 34.42500
N  42.17900 39.12300 26.79900
C  42.50200 38.49200 27.93100
C  43.11200 37.18400 27.68500
C  43.14700 37.10700 26.28600
C  42.54700 38.35100 25.75000
C  43.59200 36.29100 28.76000
C  43.70200 36.00500 25.39800
O  43.99900 36.12100 24.24400
C  43.98500 34.65300 26.07900
N  41.53400 41.02400 24.46500
C  41.86300 39.88400 23.82500
C  41.66300 40.02300 22.32800
C  40.80700 41.33600 22.27600
C  40.97900 41.89300 23.65300
C  43.02900 40.12900 21.48900
C  39.26400 41.12000 22.08000
C  38.46800 40.25700 23.00900
N  40.58700 42.91200 26.45400
C  40.40700 43.69600 25.34600
C  39.95700 44.99500 25.68000
C  40.01500 45.01600 27.08700
C  40.35300 43.71300 27.48600
C  39.78100 46.09600 24.62600
C  39.93100 45.95200 28.23300
O  39.72100 47.16600 28.21400
C  39.91900 44.94200 29.40600
C  40.72600 45.59100 30.50800
O  41.97000 45.65100 30.61400
O  39.89000 46.08300 31.47900
C  40.44900 46.63300 32.64800
H  42.58100 38.51600 30.12000
H  42.59100 37.96500 23.72100
H  40.30300 43.84900 23.17500
H  41.65000 42.88000 31.53000
H  41.02300 40.06700 31.57800
H  43.34700 41.60600 32.39800
H  43.94800 40.57300 31.20100
H  43.13900 39.83700 32.44100
H  39.11700 41.41600 31.83900
H  38.94200 42.99900 31.15700
H  39.09400 44.12100 33.09700
H  40.63600 43.38800 33.61200
H  43.84500 36.69800 29.73900
H  44.50800 35.72500 28.59000
H  42.86000 35.50100 28.92900
H  43.20800 34.43300 26.81000
H  44.97500 34.66600 26.53500
H  43.97900 33.86200 25.32900
H  40.95100 39.29000 21.94800
H  41.30800 41.95100 21.52800
H  43.63100 40.64400 22.23800
H  42.73700 40.68700 20.60000
H  43.34700 39.11100 21.26500
H  39.26500 40.73700 21.06000
H  38.86300 42.12600 21.95500
H  37.86600 40.79600 23.74100
H  39.18700 39.61700 23.52100
H  37.84300 39.57700 22.43000
H  39.60800 47.07800 25.06600
H  39.06800 45.92800 23.81800
H  40.72000 46.19100 24.08000
H  38.89200 44.83200 29.75400
H  39.90800 47.50800 33.01000
H  41.47800 46.96900 32.52600
H  40.42800 45.95700 33.50200

