158

Mg 26.53100 0.27900 29.72000
C  28.41900 0.09500 32.61300
C  23.68700 0.78500 31.69700
C  24.70500 0.50900 26.88500
C  29.41100 -0.36400 27.79000
N  26.12400 0.10700 31.95400
C  27.08200 0.29200 32.93400
C  26.54800 0.83400 34.29000
C  25.00800 0.90600 34.03200
C  24.91000 0.63700 32.43000
C  24.28300 -0.22900 34.91100
C  27.31200 2.17300 34.76900
C  27.97000 2.09800 36.12100
H  27.57800 3.19200 37.20000
N  24.44300 0.60200 29.40100
C  23.48600 0.70000 30.33000
C  22.24100 0.89500 29.67400
C  22.42600 0.74300 28.24600
C  23.95500 0.61600 28.09800
C  20.99000 1.18500 30.47400
C  21.50500 0.74100 27.09600
O  21.90300 0.61000 25.93900
C  20.00300 0.98400 27.25100
N  26.89200 0.04100 27.62800
C  26.03400 0.30800 26.63400
C  26.67800 0.40200 25.26700
C  28.16800 0.05900 25.56100
C  28.16700 -0.13600 27.11700
C  26.01000 -0.58900 24.27000
C  29.17700 1.15700 25.13500
C  28.71500 2.04200 23.89600
N  28.46600 -0.19100 30.06400
C  29.52400 -0.35800 29.19300
C  30.73200 -0.62800 29.97400
C  30.33200 -0.43200 31.28300
C  28.96700 -0.15100 31.33000
C  32.12300 -1.02500 29.47600
C  30.76000 -0.45400 32.62000
O  31.83500 -0.84200 33.07200
C  29.56100 -0.03000 33.52300
C  29.43600 -1.15000 34.52300
O  28.86400 -2.24400 34.32700
O  30.01200 -0.81800 35.72200
C  29.95300 -1.78000 36.83200
H  22.85200 1.06100 32.34400
H  24.23000 0.78300 25.94000
H  30.30300 -0.52300 27.18100
H  26.73300 0.07900 35.05400
H  24.59800 1.91000 34.14900
H  23.91600 -1.03100 34.27100
H  23.48600 0.22600 35.49800
H  24.93200 -0.72400 35.63400
H  26.45400 2.82700 34.92600
H  27.91000 2.62500 33.97800
H  28.97300 2.43200 35.85700
H  28.03900 1.12500 36.60800
H  20.37700 0.29500 30.33200
H  20.44000 2.07400 30.16500
H  21.16100 1.36200 31.53600
H  19.66200 0.25700 27.98900
H  19.52200 0.74100 26.30400
H  19.89000 2.04700 27.46100
H  26.34700 1.34900 24.84000
H  28.43200 -0.89400 25.10200
H  25.30700 -1.20100 24.83500
H  26.63600 -1.28700 23.71300
H  25.40400 -0.04300 23.54700
H  30.06900 0.60700 24.83400
H  29.49400 1.74000 26.00000
H  27.85000 1.61500 23.38900
H  29.56400 2.20100 23.23100
H  28.43200 3.01200 24.30500
H  32.07300 -1.74000 28.65500
H  32.72000 -1.42900 30.29400
H  32.55800 -0.15700 28.98100
H  29.81900 0.91500 34.00000
H  30.89800 -1.64200 37.35700
H  29.77000 -2.82200 36.57200
H  29.20200 -1.44900 37.54900
Mg 36.24900 49.22300 24.29800
C  36.68600 47.53100 27.37400
C  34.74400 51.81500 25.96800
C  35.71100 50.66600 21.36600
C  37.46100 46.41700 22.64000
N  35.70600 49.54500 26.47800
C  36.14800 48.85600 27.53300
C  35.74700 49.56200 28.86200
C  34.95000 50.85100 28.36600
C  35.12400 50.75400 26.84200
C  33.57300 51.12000 28.92100
C  37.07400 49.84200 29.69300
C  37.23000 49.12000 31.04400
H  35.93100 48.80600 31.82600
N  35.36100 51.01900 23.75400
C  34.90100 52.02900 24.56800
C  34.42700 53.18500 23.75400
C  34.58900 52.80700 22.36500
C  35.26900 51.45700 22.46900
C  33.85800 54.43100 24.33400
C  34.38700 53.59500 21.12200
O  34.77700 53.12500 20.04400
C  33.83100 54.94300 21.18200
N  36.45200 48.61800 22.25300
C  36.25700 49.42200 21.16500
C  36.63800 48.79800 19.88300
C  37.51300 47.66000 20.35500
C  37.12900 47.54100 21.83700
C  35.43200 48.36200 18.96000
C  38.99000 47.97600 20.23800
C  39.77900 46.70300 19.84200
N  36.94000 47.35500 24.79000
C  37.36200 46.32200 24.00900
C  37.74800 45.20700 24.86700
C  37.51100 45.63000 26.16700
C  37.00400 46.99200 26.14400
C  38.30900 43.80700 24.47600
C  37.51700 45.19100 27.60300
O  37.83500 44.17700 28.20000
C  36.98400 46.47500 28.46000
C  35.80200 46.00800 29.17700
O  34.65300 46.04900 28.83000
O  36.22400 45.33500 30.24400
C  35.18200 44.51200 30.90200
H  34.30800 52.67700 26.47800
H  35.63300 51.11300 20.37300
H  38.09800 45.61600 22.25900
H  35.02500 48.90700 29.35100
H  35.49300 51.76900 28.58700
H  33.61100 52.04500 29.49600
H  33.26300 50.27600 29.53600
H  32.92400 51.24100 28.05400
H  37.24000 50.88300 29.96900
H  37.91900 49.44700 29.13100
H  37.89000 49.70500 31.68400
H  37.88200 48.26400 30.86900
H  33.77400 54.47400 25.42000
H  32.85300 54.63700 23.96700
H  34.57400 55.22700 24.12700
H  33.37400 55.16900 20.21900
H  34.73400 55.52400 21.37000
H  33.13200 55.08500 22.00600
H  37.09000 49.51700 19.20000
H  37.26000 46.70400 19.89800
H  34.95800 49.27100 18.58900
H  34.81300 47.77100 19.63600
H  35.78600 47.72400 18.15100
H  39.37800 48.31400 21.19900
H  39.18900 48.77600 19.52500
H  39.30700 45.78100 20.18100
H  40.66900 46.62300 20.46700
H  40.05000 46.69300 18.78600
H  39.03900 43.81100 23.66600
H  37.56200 43.08400 24.15200
H  38.81500 43.43900 25.36800
H  37.81800 46.65200 29.13900
H  35.52200 43.73100 31.58200
H  34.56700 43.96500 30.18700
H  34.54800 45.12100 31.54600

