158

Mg 47.32200 24.33800 27.57400
C  48.28500 26.67800 30.05500
C  47.07300 21.97400 30.03200
C  46.73300 21.97400 25.22900
C  48.24400 26.65400 25.10200
N  47.69700 24.39500 29.77800
C  47.76900 25.47900 30.55300
C  47.67000 25.07000 32.03700
C  47.38100 23.55100 32.01100
C  47.42600 23.26300 30.47600
C  48.33400 22.69300 32.90900
C  46.78500 26.06000 32.89400
C  46.29900 25.64800 34.34200
H  46.79700 26.61300 35.44000
N  46.94600 22.24500 27.62000
C  46.79800 21.49400 28.75800
C  46.35400 20.17100 28.44000
C  46.26300 20.10900 26.99200
C  46.80500 21.38600 26.51100
C  45.92500 19.14000 29.58100
C  45.71300 19.00700 26.11000
O  45.90100 19.09000 24.86400
C  44.94700 17.87400 26.55300
N  47.47700 24.27200 25.59800
C  46.92500 23.28300 24.81200
C  46.65400 23.76000 23.34400
C  46.93400 25.24400 23.43600
C  47.58500 25.41300 24.76300
C  47.43800 22.95200 22.24700
C  45.63700 26.05400 23.16800
C  44.62300 26.21700 24.37700
N  48.18400 26.34600 27.50000
C  48.47100 27.09200 26.45700
C  49.01000 28.35500 26.94200
C  48.95100 28.30800 28.33700
C  48.51100 27.00100 28.63600
C  49.38400 29.43600 26.04800
C  49.18500 28.96800 29.56800
O  49.65000 30.01500 29.84900
C  48.67800 28.02400 30.68100
C  49.77900 27.92400 31.58700
O  50.70100 27.16900 31.60100
O  49.56400 28.80100 32.62100
C  50.53000 28.77000 33.80100
H  46.76700 21.24500 30.78600
H  46.38400 21.38600 24.37800
H  48.10400 27.39700 24.31300
H  48.67600 25.31300 32.37900
H  46.37500 23.30100 32.34500
H  47.99100 21.66500 33.03100
H  48.25600 23.19200 33.87500
H  49.36400 22.73100 32.55300
H  46.00500 26.45400 32.24200
H  47.38800 26.96800 32.91200
H  46.71200 24.67500 34.60800
H  45.22200 25.51600 34.44800
H  46.79900 18.56100 29.88000
H  45.27700 18.34500 29.21100
H  45.37800 19.53000 30.44000
H  44.28400 17.55100 25.75000
H  44.25600 18.22600 27.31800
H  45.63600 17.05300 26.75400
H  45.60000 23.60200 23.11400
H  47.56700 25.44700 22.57200
H  48.48500 23.25300 22.30300
H  47.23700 23.16800 21.19800
H  47.25000 21.87900 22.26000
H  45.15100 25.50800 22.36000
H  45.81600 27.08400 22.85700
H  44.89000 26.96400 25.12500
H  44.12500 25.30200 24.69900
H  43.76000 26.79600 24.04700
H  49.09400 30.37900 26.51100
H  48.80000 29.31500 25.13600
H  50.46200 29.55600 25.93400
H  47.79000 28.49000 31.10900
H  50.47100 27.79400 34.28200
H  50.43800 29.49700 34.60800
H  51.54000 28.76000 33.39100
Mg -9.61100 38.75900 39.80300
C  -8.73300 35.43800 39.22600
C  -6.41800 39.67700 38.55500
C  -10.71300 41.88100 39.38300
C  -12.71800 37.68200 40.77900
N  -7.87100 37.58900 38.83000
C  -7.65800 36.27300 38.90200
C  -6.20800 35.90400 38.51000
C  -5.44400 37.29200 38.71800
C  -6.64500 38.26200 38.74100
C  -4.44400 37.36900 39.92700
C  -6.18900 35.32100 37.01700
C  -6.50700 36.19000 35.83400
H  -7.73100 35.90500 34.99000
N  -8.66700 40.59100 39.12500
C  -7.41500 40.73200 38.62800
C  -7.19500 42.16000 38.44000
C  -8.36200 42.88700 38.81200
C  -9.34500 41.78100 39.14000
C  -5.88900 42.74500 38.07000
C  -8.45800 44.36000 38.82600
O  -7.48100 45.05400 38.54400
C  -9.75500 45.04200 39.24700
N  -11.49300 39.56900 39.90600
C  -11.63200 40.88400 39.77700
C  -13.05500 41.37500 40.15100
C  -13.68800 40.06600 40.78800
C  -12.62900 39.03800 40.41600
C  -13.16500 42.70600 41.00800
C  -15.02100 39.62200 40.34100
C  -16.14500 39.67200 41.40100
N  -10.58700 36.93100 40.14400
C  -11.82200 36.64200 40.60900
C  -11.92300 35.15900 40.84000
C  -10.81600 34.66100 40.19100
C  -9.95800 35.78400 39.81000
C  -13.08900 34.37400 41.51700
C  -10.09900 33.47500 39.74700
O  -10.36700 32.28600 39.88800
C  -8.74300 33.92300 39.11800
C  -7.59300 33.31200 39.91700
O  -7.63900 33.20800 41.13600
O  -6.71200 32.70700 39.09100
C  -5.45000 32.18200 39.69000
H  -5.42800 40.11600 38.41700
H  -11.20300 42.84200 39.21000
H  -13.65200 37.40600 41.27400
H  -5.78000 35.13800 39.15700
H  -4.93600 37.71900 37.85400
H  -4.87500 37.80300 40.82900
H  -3.51900 37.92700 39.78100
H  -4.06300 36.39900 40.24700
H  -6.82500 34.43700 36.97300
H  -5.16200 34.96900 36.92300
H  -5.70700 36.04100 35.10800
H  -6.45100 37.22700 36.16500
H  -5.57700 43.17700 39.02100
H  -5.92100 43.55500 37.34000
H  -5.12600 42.05700 37.70700
H  -9.90500 44.70500 40.27200
H  -10.59200 44.83400 38.58000
H  -9.54500 46.11200 39.23700
H  -13.55200 41.56800 39.20000
H  -13.67000 40.07900 41.87800
H  -12.16500 43.04400 41.28200
H  -13.71300 42.47100 41.92000
H  -13.59400 43.50800 40.40700
H  -14.96500 38.65200 39.84500
H  -15.36200 40.16600 39.46000
H  -16.84500 40.49400 41.25200
H  -15.92800 39.58000 42.46500
H  -16.78900 38.80000 41.28700
H  -14.03600 34.87700 41.32200
H  -12.90900 34.21500 42.58000
H  -13.01400 33.35600 41.13500
H  -8.69100 33.65500 38.06300
H  -4.81100 32.04600 38.81700
H  -5.52100 31.19700 40.15200
H  -5.00800 33.04700 40.18300

