158

Mg 1.14200 7.74900 26.76400
C  1.65200 9.81700 29.67700
C  1.40000 5.02900 28.85200
C  1.42500 5.77700 24.10100
C  1.16400 10.55600 24.78700
N  1.45400 7.50200 29.00100
C  1.49600 8.48200 30.03900
C  1.38400 7.83700 31.45300
C  1.57400 6.35200 31.08800
C  1.50300 6.27100 29.55800
C  2.81700 5.61500 31.67100
C  0.03600 8.23100 32.18800
C  0.14600 8.41700 33.69600
H  1.34600 7.80100 34.52700
N  1.18300 5.70700 26.50800
C  1.30400 4.76000 27.47100
C  1.43200 3.42300 26.85100
C  1.32100 3.62300 25.46300
C  1.25900 5.04400 25.25600
C  1.72200 2.09900 27.56900
C  1.20000 2.53500 24.36700
O  0.98900 2.88800 23.21800
C  1.14500 1.05000 24.59500
N  1.09800 8.12600 24.69600
C  1.26300 7.12800 23.81900
C  1.39600 7.72800 22.40300
C  0.84100 9.23600 22.51900
C  1.06300 9.37600 24.05700
C  2.72400 7.48900 21.64800
C  -0.69400 9.37100 22.30000
C  -1.14700 10.49200 21.31800
N  1.41700 9.78700 27.08800
C  1.40900 10.85000 26.14400
C  1.68300 12.09100 26.86200
C  1.74100 11.72000 28.20900
C  1.57000 10.31100 28.34600
C  1.86600 13.46700 26.26100
C  2.08900 12.25300 29.53500
O  2.55600 13.36600 29.83900
C  1.87000 11.03400 30.55300
C  3.00200 11.00700 31.47500
O  3.96300 10.22700 31.31400
O  2.83500 11.89300 32.48000
C  3.73900 11.62400 33.63200
H  1.51700 4.18200 29.53200
H  1.53000 5.21700 23.17000
H  1.15500 11.52000 24.27400
H  2.21300 8.32500 31.96500
H  0.72700 5.84000 31.54500
H  2.34700 4.82700 32.26000
H  3.35300 6.39700 32.20900
H  3.36600 5.13600 30.86100
H  -0.59400 7.34900 32.07100
H  -0.37600 9.15100 31.77600
H  -0.72700 8.16700 34.29900
H  0.25300 9.48800 33.86600
H  0.76200 1.72100 27.92100
H  2.18800 2.29800 28.53400
H  2.41100 1.47200 27.00500
H  2.15200 0.67800 24.78400
H  0.79600 0.46700 23.74300
H  0.54200 0.88900 25.48800
H  0.69600 7.23700 21.72800
H  1.43700 9.92200 21.91700
H  3.16700 8.30000 21.07100
H  2.60000 6.64100 20.97300
H  3.46000 7.04600 22.31900
H  -1.25500 9.58200 23.21000
H  -1.11500 8.45300 21.88900
H  -2.06100 10.22600 20.78600
H  -0.39300 10.74500 20.57300
H  -1.37600 11.40000 21.87500
H  1.63100 13.33800 25.20400
H  2.87300 13.86900 26.37600
H  1.15200 14.13200 26.74600
H  0.86800 11.14900 30.96800
H  3.35200 12.40000 34.29300
H  4.74300 11.86600 33.28200
H  3.73400 10.57400 33.92200
Mg 6.34900 53.82700 41.06900
C  5.94900 50.25100 40.80800
C  9.47200 53.35900 39.70200
C  6.42800 57.10500 40.41900
C  3.05600 53.91300 41.82900
N  7.45400 51.96800 40.17100
C  7.16100 50.66900 40.19200
C  8.36600 49.70500 39.83800
C  9.53400 50.70600 39.84700
C  8.77800 52.10600 39.86900
C  10.50200 50.55900 41.08800
C  8.21300 48.94300 38.46800
C  7.90900 49.73200 37.27900
H  6.87600 49.29900 36.26500
N  7.84100 55.16800 40.35600
C  9.09400 54.75700 39.86900
C  9.90100 55.94900 39.82000
C  9.02200 57.06800 39.93300
C  7.69700 56.54300 40.27300
C  11.42800 55.95300 39.52300
C  9.38000 58.51100 39.90500
O  10.52900 58.82600 39.62600
C  8.35100 59.68200 40.06500
N  4.87100 55.26800 40.81100
C  5.11400 56.62200 40.59600
C  3.86100 57.50700 40.91600
C  2.87900 56.37300 41.17300
C  3.69200 55.11300 41.44000
C  4.02400 58.52900 42.05700
C  1.83400 56.09400 40.07600
C  0.45600 56.74000 40.19400
N  4.81800 52.39900 41.45300
C  3.54500 52.60900 41.76500
C  2.84100 51.40400 42.13000
C  3.83300 50.38000 41.80200
C  4.93500 51.08900 41.29600
C  1.47700 51.19900 42.75600
C  4.11000 49.00200 41.79700
O  3.45900 48.02200 42.19500
C  5.49100 48.83600 41.04800
C  5.16600 48.02000 39.91600
O  4.78900 48.38000 38.78200
O  5.39600 46.71900 40.27300
C  4.89800 45.77900 39.31200
H  10.46000 53.23300 39.25500
H  6.31200 58.19100 40.44000
H  2.05800 54.17700 42.18600
H  8.48200 49.02100 40.67900
H  10.19200 50.57900 38.98700
H  10.40100 51.44400 41.71500
H  11.52300 50.51800 40.70700
H  10.20700 49.74200 41.74600
H  7.52000 48.10300 38.51400
H  9.21600 48.52200 38.38300
H  8.82500 49.90100 36.71200
H  7.61100 50.71100 37.65600
H  11.76500 55.00500 39.10400
H  11.97300 56.23000 40.42500
H  11.68100 56.67800 38.74900
H  8.95800 60.56800 39.87700
H  7.87200 59.74600 41.04200
H  7.73100 59.59200 39.17200
H  3.54800 57.94900 39.97000
H  2.35900 56.63700 42.09400
H  3.34600 58.47100 42.90800
H  3.78800 59.46500 41.55100
H  5.05700 58.55600 42.40200
H  1.70700 55.04400 39.81500
H  2.19800 56.51400 39.13900
H  0.44200 57.82400 40.08400
H  0.09400 56.44600 41.18000
H  -0.16500 56.21500 39.46900
H  0.68400 51.80700 42.31900
H  1.47000 51.25100 43.84500
H  1.23300 50.19400 42.41300
H  6.03500 48.23100 41.77400
H  3.88700 46.07100 39.02500
H  4.84600 44.75000 39.66700
H  5.55000 45.75600 38.44000

