158

Mg 53.96100 24.37100 45.18200
C  51.28400 26.50200 44.30500
C  52.08900 21.77200 44.09700
C  56.67600 22.53100 45.46600
C  55.90400 27.22800 45.79400
N  52.01900 24.25900 44.12700
C  51.02900 25.17600 43.93900
C  49.73500 24.51800 43.54300
C  49.95500 23.01900 43.85400
C  51.43000 22.99700 44.11500
C  49.08300 22.38700 45.05900
C  49.41500 24.79700 42.05100
C  47.93500 24.72300 41.56900
H  47.79800 24.76600 40.05000
N  54.24300 22.41700 44.97700
C  53.39500 21.49800 44.50400
C  53.95100 20.13400 44.54200
C  55.29100 20.26300 45.01500
C  55.47900 21.79000 45.14200
C  53.19200 18.86300 44.24200
C  56.34600 19.16700 45.27100
O  56.11000 17.98800 44.99500
C  57.65200 19.47300 45.79400
N  56.03000 24.85600 45.43800
C  56.94600 23.86500 45.70800
C  58.35700 24.37100 45.80800
C  58.08200 25.91800 45.74300
C  56.53000 26.02200 45.71000
C  59.17300 23.94700 47.08100
C  58.85600 26.66500 44.61200
C  58.22600 26.69800 43.24700
N  53.72500 26.41300 45.08900
C  54.54500 27.45000 45.44300
C  53.79600 28.67100 45.34000
C  52.50200 28.29900 45.00200
C  52.55400 26.95200 44.72500
C  54.35800 30.05100 45.68900
C  51.17400 28.89600 44.78500
O  50.70700 30.06000 44.88500
C  50.37000 27.79000 44.16900
C  49.98200 28.20500 42.85500
O  50.77200 28.39400 41.93000
O  48.62800 28.38700 42.83500
C  48.06200 28.66900 41.55000
H  51.48500 20.92300 43.77000
H  57.58100 21.92300 45.53200
H  56.45900 28.16200 45.90600
H  48.97400 24.92100 44.21100
H  49.81100 22.33500 43.01700
H  49.67600 22.15200 45.94300
H  48.68700 21.41000 44.78300
H  48.24000 23.05000 45.25100
H  50.18600 24.17100 41.60200
H  49.75500 25.81700 41.86700
H  47.41200 25.59500 41.96000
H  47.34300 23.87300 41.90800
H  53.74100 17.92700 44.13800
H  52.58800 19.00200 43.34600
H  52.41000 18.78200 44.99800
H  57.99200 18.53100 46.22300
H  57.34100 20.09600 46.63300
H  58.22300 19.96300 45.00600
H  58.78300 24.02400 44.86700
H  58.45200 26.35800 46.66900
H  58.81800 22.96000 47.37700
H  59.06800 24.63200 47.92200
H  60.21800 23.73200 46.86100
H  59.73500 26.05000 44.41800
H  59.26500 27.61000 44.96800
H  58.82500 26.08100 42.57800
H  58.06200 27.69000 42.82500
H  57.21500 26.29900 43.33700
H  54.95000 30.37700 44.83400
H  54.93600 30.01900 46.61300
H  53.49000 30.70100 45.80100
H  49.52500 27.68400 44.85000
H  48.06800 29.71100 41.22900
H  47.00000 28.42600 41.53700
H  48.54800 28.05100 40.79500
Mg 42.33200 41.18100 25.62700
C  41.58500 43.44500 28.10800
C  43.47500 39.12400 28.02200
C  43.31300 39.09400 23.25000
C  41.73900 43.58300 23.20200
N  42.53800 41.38400 27.89700
C  41.90300 42.20700 28.64500
C  41.94000 41.81000 30.16600
C  42.66900 40.42100 30.12600
C  42.91200 40.27600 28.59300
C  44.03600 40.29800 31.04100
C  40.56300 41.83600 30.91400
C  40.41200 41.31100 32.26600
H  39.79900 42.08100 33.34600
N  43.26600 39.24100 25.63500
C  43.75800 38.62100 26.69800
C  44.24100 37.34900 26.28700
C  44.25400 37.37200 24.93400
C  43.59900 38.55500 24.54000
C  44.68500 36.27600 27.32600
C  44.76800 36.24600 23.97500
O  44.68000 36.31500 22.74800
C  45.35600 35.07300 24.59900
N  42.32800 41.26500 23.57100
C  42.78500 40.23300 22.78700
C  42.57500 40.49500 21.33100
C  42.12700 41.98200 21.29800
C  42.04900 42.28100 22.76200
C  43.83400 40.27600 20.48100
C  40.84900 42.31100 20.49600
C  40.95300 43.41200 19.45000
N  41.77300 43.13300 25.60300
C  41.59300 44.00600 24.53400
C  41.22800 45.26100 25.09200
C  41.18700 45.13600 26.49800
C  41.51600 43.75000 26.74800
C  40.73400 46.37000 24.24300
C  40.83000 45.80300 27.71300
O  40.47900 46.95500 27.95100
C  41.14000 44.75100 28.88500
C  42.25100 45.27000 29.76800
O  43.40300 45.25200 29.40600
O  41.78400 45.51800 31.04700
C  42.86900 45.65200 32.10900
H  43.73400 38.33700 28.73200
H  43.54100 38.36100 22.47300
H  41.42600 44.31100 22.45100
H  42.52700 42.54500 30.71500
H  42.02600 39.69200 30.62000
H  44.03000 41.15800 31.71200
H  44.92800 40.19900 30.42300
H  43.94100 39.42700 31.68900
H  39.89600 41.19300 30.34100
H  40.15100 42.84500 30.93400
H  41.40000 40.99000 32.59700
H  39.91600 40.36800 32.03900
H  44.22700 35.32100 27.06800
H  44.42000 36.49900 28.36000
H  45.77000 36.27100 27.22400
H  44.57800 34.49100 25.09400
H  46.05600 35.39200 25.37000
H  45.86800 34.56300 23.78300
H  41.74200 39.94900 20.88900
H  42.95400 42.55000 20.87100
H  43.96000 39.24400 20.15300
H  44.68600 40.54500 21.10500
H  43.80400 40.82400 19.54000
H  40.00800 42.50300 21.16200
H  40.53200 41.46100 19.89200
H  40.27000 44.23600 19.65600
H  40.58000 43.11500 18.47000
H  41.99600 43.68800 19.29100
H  40.49400 45.94800 23.26700
H  41.58900 47.03200 24.10400
H  39.88600 46.80900 24.76800
H  40.19300 44.61100 29.40700
H  43.11700 44.62600 32.38100
H  42.46900 46.14700 32.99400
H  43.69500 46.20600 31.66400

