158

Mg 17.42600 -0.68600 27.71900
C  16.18800 1.12900 30.34800
C  19.67400 -2.25900 29.77700
C  18.81200 -2.09200 25.01600
C  15.52300 1.43400 25.58300
N  17.87700 -0.58300 29.73800
C  17.08200 0.06500 30.64800
C  17.53500 -0.25200 32.05200
C  18.84600 -1.04900 31.88700
C  18.82600 -1.34600 30.35800
C  20.22700 -0.22800 32.24800
C  16.42000 -0.86800 33.04500
C  16.71000 -0.95800 34.57700
H  17.98900 -0.19900 35.13600
N  18.93500 -2.07900 27.41800
C  19.71400 -2.69800 28.38300
C  20.50500 -3.72100 27.84500
C  20.24100 -3.70900 26.43400
C  19.28900 -2.67100 26.26700
C  21.49800 -4.63500 28.64800
C  20.77300 -4.58900 25.29700
O  20.34200 -4.50000 24.14000
C  21.65700 -5.74300 25.56500
N  17.30600 -0.28400 25.59500
C  18.02100 -0.96100 24.67800
C  17.82200 -0.32100 23.22700
C  16.56200 0.54900 23.44100
C  16.49900 0.59500 24.97400
C  19.11100 0.34000 22.68600
C  15.27200 -0.06600 22.74900
C  14.22000 0.75300 21.99700
N  16.03600 0.90400 27.83700
C  15.32300 1.69300 26.95500
C  14.51200 2.68500 27.66500
C  14.86500 2.43200 28.99800
C  15.80600 1.43700 29.01200
C  13.63000 3.76100 27.04700
C  14.64600 2.90700 30.34800
O  13.90700 3.79800 30.72400
C  15.50100 2.06000 31.29700
C  16.34700 2.97500 32.10400
O  17.28000 3.60500 31.65500
O  15.61100 3.17000 33.29100
C  16.22900 4.09800 34.17600
H  20.24000 -2.75300 30.57000
H  19.14100 -2.50000 24.05900
H  14.82600 2.03700 24.99800
H  17.84800 0.73100 32.40200
H  18.84400 -1.95700 32.49200
H  20.95400 -0.35400 31.44500
H  20.72100 -0.59600 33.14700
H  20.09000 0.80900 32.55800
H  16.04900 -1.81500 32.65200
H  15.54600 -0.22000 32.97300
H  16.72000 -1.99100 34.92400
H  15.90200 -0.50400 35.15000
H  21.25500 -4.74200 29.70500
H  22.54500 -4.44400 28.41200
H  21.35800 -5.65700 28.29800
H  22.44900 -5.67100 26.31000
H  22.18300 -6.05500 24.66200
H  20.97500 -6.49800 25.95600
H  17.66400 -1.10000 22.48100
H  16.69800 1.59900 23.17900
H  18.93000 1.37800 22.40800
H  19.44700 -0.20200 21.80200
H  19.93000 0.40600 23.40200
H  14.62000 -0.45400 23.53200
H  15.59300 -0.81900 22.03000
H  13.93000 0.35800 21.02400
H  14.52600 1.77300 21.76200
H  13.38400 0.82800 22.69200
H  12.71800 3.76300 27.64300
H  13.28900 3.37200 26.08800
H  14.07300 4.74900 26.92700
H  14.83700 1.38400 31.83700
H  16.91500 3.47500 34.75100
H  15.52900 4.64500 34.80600
H  16.69200 4.95200 33.68100
Mg 17.24600 51.72100 25.74200
C  19.01000 50.51500 28.38500
C  14.66500 52.62100 27.89400
C  15.46900 52.91700 23.13300
C  19.38200 50.12000 23.44900
N  16.84100 51.60400 27.87500
C  17.80000 51.18300 28.75700
C  17.39900 51.40300 30.16500
C  15.90600 51.72000 30.01700
C  15.76200 52.08600 28.55600
C  14.86200 50.56400 30.46700
C  18.30800 52.56600 30.72300
C  18.46600 52.60200 32.31600
H  17.38600 51.75600 33.08000
N  15.37500 52.78000 25.50800
C  14.44300 53.02300 26.56200
C  13.29100 53.70900 26.08600
C  13.51400 53.85600 24.68500
C  14.81100 53.14500 24.33500
C  12.21900 54.28400 27.01600
C  12.69700 54.52300 23.60800
O  12.95100 54.60900 22.41500
C  11.37300 55.26300 23.93600
N  17.48400 51.66400 23.59200
C  16.64400 52.32500 22.71800
C  17.10300 52.24000 21.22900
C  18.43800 51.36100 21.40900
C  18.41900 50.94800 22.88900
C  16.04300 51.59600 20.19600
C  19.71200 52.20700 21.02600
C  21.00100 51.55000 20.47800
N  18.89600 50.53100 25.81700
C  19.68700 49.96600 24.81400
C  20.73200 49.20300 25.47400
C  20.53800 49.39200 26.84400
C  19.42000 50.19300 27.02900
C  21.77100 48.41300 24.76800
C  21.07300 49.08700 28.19700
O  22.01800 48.43400 28.59400
C  20.08300 49.87100 29.24100
C  19.62200 48.85500 30.29900
O  19.10500 47.77100 30.15700
O  20.00200 49.27500 31.53800
C  19.90900 48.38500 32.65600
H  13.83900 52.78700 28.59000
H  14.85000 53.34200 22.34100
H  20.12400 49.62400 22.82000
H  17.51100 50.47100 30.72000
H  15.71900 52.65100 30.55300
H  14.03600 51.08200 30.95400
H  15.29100 49.85800 31.17800
H  14.43400 50.08000 29.58900
H  17.99900 53.54300 30.35300
H  19.26900 52.42100 30.23000
H  18.45500 53.66100 32.57400
H  19.42400 52.14900 32.57300
H  12.23400 55.36900 27.11700
H  12.27500 53.81800 28.00000
H  11.27100 53.88000 26.65900
H  10.60900 54.56800 24.28300
H  11.00400 55.83200 23.08300
H  11.61700 55.91100 24.77800
H  17.46100 53.23300 20.95900
H  18.36800 50.53800 20.69800
H  15.07500 52.07400 20.34400
H  15.94700 50.51800 20.31800
H  16.37600 51.83200 19.18500
H  20.00800 52.64800 21.97800
H  19.45300 53.05000 20.38500
H  20.93800 50.47800 20.28900
H  21.83000 51.65600 21.17700
H  21.31100 52.10600 19.59300
H  22.57600 48.31600 25.49700
H  22.21800 48.95700 23.93600
H  21.35500 47.47100 24.41000
H  20.72500 50.57000 29.77700
H  20.21400 47.35100 32.49300
H  18.91400 48.44900 33.09600
H  20.59600 48.73500 33.42700

