158

Mg 2.11100 -1.98500 44.39300
C  5.46200 -1.27000 43.72600
C  1.29400 0.75800 42.33300
C  -1.08000 -3.02200 44.42000
C  3.20000 -4.90000 46.06600
N  3.22100 -0.43900 43.16400
C  4.58400 -0.40700 43.00400
C  5.00700 0.73300 42.08200
C  3.62900 1.46200 41.75700
C  2.63500 0.54300 42.50400
C  3.55900 2.91200 42.07400
C  5.75800 0.32500 40.80500
C  7.11000 1.07600 40.59800
H  7.08600 1.99100 39.36400
N  0.32900 -1.23500 43.41400
C  0.18300 -0.07100 42.70800
C  -1.20500 0.08700 42.42900
C  -1.95600 -0.94600 43.09800
C  -0.87600 -1.78400 43.64600
C  -1.77300 1.19600 41.55800
C  -3.44600 -1.15300 43.10300
O  -4.14200 -0.45500 42.39600
C  -4.11800 -2.27700 43.82700
N  1.17000 -3.69300 45.19100
C  -0.11500 -3.91900 45.02700
C  -0.42600 -5.26100 45.62900
C  0.96800 -5.89600 45.97900
C  1.85100 -4.74700 45.73100
C  -1.33700 -5.14400 46.84000
C  1.35200 -7.10100 45.01600
C  1.07600 -8.54900 45.42600
N  3.98500 -2.91100 44.92300
C  4.31900 -4.07200 45.61900
C  5.72900 -4.16100 45.88600
C  6.23800 -3.04400 45.17100
C  5.09500 -2.36100 44.50400
C  6.46900 -5.34200 46.58200
C  7.43600 -2.33500 44.81600
O  8.55000 -2.63500 45.12400
C  6.99400 -1.21100 43.81500
C  7.58100 0.15200 44.28500
O  7.35300 0.68400 45.37400
O  8.42200 0.67000 43.32700
C  9.09000 1.91400 43.82100
H  0.88100 1.65900 41.87400
H  -2.05800 -3.43800 44.67100
H  3.51600 -5.78100 46.62700
H  5.60200 1.45500 42.64300
H  3.36700 1.36600 40.70400
H  2.57300 3.00600 42.52900
H  3.65500 3.53100 41.18200
H  4.36300 3.19600 42.75200
H  5.15800 0.43300 39.90200
H  5.82800 -0.75000 40.97400
H  7.89900 0.32700 40.53400
H  7.41300 1.81600 41.33900
H  -0.92500 1.63500 41.03300
H  -2.38300 1.94600 42.06200
H  -2.33900 0.75000 40.74000
H  -3.82800 -2.31500 44.87700
H  -3.77700 -3.20100 43.35900
H  -5.20500 -2.34500 43.77900
H  -0.90000 -5.86800 44.85700
H  1.13500 -6.22300 47.00500
H  -1.65300 -4.10100 46.87400
H  -0.80500 -5.46900 47.73400
H  -2.21000 -5.78000 46.68900
H  2.40600 -7.18600 44.75300
H  0.78200 -6.86100 44.11900
H  2.04100 -9.03200 45.58400
H  0.66000 -9.18600 44.64500
H  0.53000 -8.48400 46.36700
H  5.93800 -5.46500 47.52500
H  7.47200 -5.00700 46.84900
H  6.37100 -6.19800 45.91400
H  7.37100 -1.47100 42.82600
H  10.02100 2.11400 43.29000
H  9.17400 2.01400 44.90300
H  8.39600 2.70100 43.52600
Mg 30.64600 57.55700 40.88000
C  28.17200 55.30900 40.03700
C  32.97400 55.17300 39.74400
C  33.12100 60.00400 40.87600
C  28.32000 60.00100 41.40000
N  30.55400 55.53600 39.77300
C  29.40000 54.78600 39.69500
C  29.73400 53.35200 39.34200
C  31.28400 53.29200 39.62200
C  31.63900 54.74800 39.70100
C  31.65100 52.60700 40.98500
C  29.26900 52.95600 37.90200
C  29.55400 54.01300 36.81400
H  28.37500 54.50100 36.01000
N  32.85800 57.52800 40.59300
C  33.51700 56.47200 39.96500
C  34.89300 56.85100 39.89900
C  34.97800 58.28100 40.20000
C  33.59300 58.64100 40.56400
C  35.92900 55.93700 39.37000
C  36.22200 59.09400 40.10200
O  37.22800 58.57200 39.70600
C  36.32400 60.53900 40.47300
N  30.69500 59.76500 40.97600
C  31.84600 60.50100 41.10600
C  31.51900 61.92300 41.32300
C  30.05900 61.83000 41.88300
C  29.64000 60.40800 41.40900
C  32.50200 62.77200 42.10100
C  29.07400 63.00800 41.47800
C  28.29800 63.82300 42.65100
N  28.64800 57.76700 40.62100
C  27.78500 58.82100 40.94000
C  26.43000 58.35100 40.77200
C  26.51900 56.97300 40.43600
C  27.88600 56.66100 40.35200
C  25.23600 59.18900 41.05100
C  25.79100 55.79700 40.26600
O  24.57500 55.55900 40.43000
C  26.81400 54.64400 39.99600
C  26.59900 53.63900 41.07300
O  27.02700 53.72700 42.21200
O  25.74300 52.65200 40.65700
C  25.13300 51.99200 41.85900
H  33.67000 54.33500 39.66400
H  33.87500 60.78900 40.79700
H  27.55900 60.64300 41.84900
H  29.34600 52.69600 40.12200
H  31.81700 52.73500 38.85100
H  30.82100 52.26500 41.60400
H  32.24200 53.31500 41.56500
H  32.27900 51.72400 40.86600
H  28.18400 52.86000 37.87500
H  29.75300 52.01200 37.65100
H  30.24400 53.55600 36.10500
H  30.08800 54.88500 37.19100
H  36.18200 56.16400 38.33400
H  35.69900 54.88400 39.52600
H  36.80300 56.17900 39.97500
H  35.95500 60.65400 41.49200
H  35.81200 61.26800 39.84500
H  37.37700 60.79300 40.34800
H  31.41300 62.41500 40.35600
H  30.10500 61.73300 42.96800
H  33.40900 62.18100 42.23000
H  32.11800 63.01200 43.09200
H  32.63500 63.71100 41.56300
H  28.39000 62.56200 40.75700
H  29.47600 63.84400 40.90500
H  28.86800 64.70700 42.93600
H  28.23300 63.21200 43.55100
H  27.28700 64.08600 42.34100
H  24.33500 58.57500 41.01700
H  24.98200 59.93300 40.29600
H  25.38300 59.78000 41.95500
H  26.62200 54.20200 39.01800
H  25.83400 51.31600 42.34900
H  24.27400 51.50100 41.40200
H  24.92300 52.73400 42.63000

