158

Mg 25.32900 0.81500 29.90300
C  27.26600 0.62000 32.67200
C  22.56500 1.61000 32.12800
C  23.09600 0.70600 27.21200
C  27.80300 -0.32700 27.90400
N  25.00800 1.01700 32.16500
C  25.97200 0.90200 33.10500
C  25.51500 1.28800 34.47600
C  23.95700 1.56800 34.31500
C  23.81200 1.46000 32.74600
C  23.16700 0.53200 35.00900
C  26.19700 2.57200 34.97000
C  27.30300 2.54500 36.08700
H  27.11100 3.55300 37.24700
N  23.17000 1.21800 29.73500
C  22.27200 1.44200 30.74900
C  20.95500 1.47900 30.16800
C  21.07700 1.30600 28.76900
C  22.48300 1.06500 28.50900
C  19.71000 1.53700 31.06400
C  19.99200 1.21700 27.70600
O  20.22000 0.99300 26.54000
C  18.53000 1.46100 28.08800
N  25.34400 0.04000 27.93200
C  24.37300 0.21800 26.96600
C  24.89500 -0.11800 25.52400
C  26.40900 -0.46000 25.79900
C  26.58200 -0.28000 27.31800
C  24.17600 -1.26800 24.76300
C  27.41500 0.30000 24.89700
C  27.44400 1.90600 25.07800
N  27.12900 0.18100 30.18600
C  28.08300 -0.17000 29.29600
C  29.32600 -0.30100 29.91200
C  29.06700 0.03400 31.23500
C  27.69300 0.25400 31.34800
C  30.62700 -0.69100 29.23000
C  29.65400 0.21500 32.56100
O  30.80200 0.26700 32.92400
C  28.49300 0.50300 33.54300
C  28.44100 -0.62700 34.47700
O  27.86900 -1.67800 34.23900
O  29.18000 -0.29000 35.66300
C  29.11800 -1.13800 36.86700
H  21.74500 1.86500 32.80200
H  22.44000 0.67100 26.33900
H  28.70600 -0.45000 27.30200
H  25.65800 0.45900 35.16900
H  23.50200 2.52700 34.56300
H  23.52200 0.37500 36.02700
H  22.99800 -0.47800 34.63400
H  22.18800 0.99200 35.14400
H  25.50500 3.36200 35.26100
H  26.74100 3.03000 34.14400
H  28.23800 2.68900 35.54400
H  27.23800 1.60500 36.63500
H  19.10300 2.36700 30.70300
H  19.73300 1.59900 32.15200
H  19.08600 0.68200 30.80500
H  18.09900 0.77900 28.82100
H  17.90300 1.38300 27.20000
H  18.44100 2.45600 28.52400
H  24.77200 0.77200 24.90700
H  26.70100 -1.50300 25.67800
H  23.29100 -1.60300 25.30500
H  24.80400 -2.07400 24.38400
H  23.74500 -0.67100 23.95900
H  27.08200 0.25100 23.86000
H  28.41800 -0.12500 24.93100
H  27.13200 2.34600 24.13100
H  28.40800 2.37200 25.28200
H  26.67200 2.27800 25.75200
H  30.65900 -0.15200 28.28300
H  30.58300 -1.73200 28.90900
H  31.46500 -0.48400 29.89700
H  28.68800 1.48900 33.96300
H  28.38100 -0.70700 37.54500
H  30.02200 -1.12300 37.47600
H  28.94100 -2.14000 36.47500
Mg 36.53900 49.80600 24.48700
C  36.83200 48.06500 27.46400
C  35.15500 52.41200 26.40200
C  35.87900 51.37800 21.61200
C  37.34100 46.96200 22.86700
N  35.97200 50.18000 26.71100
C  36.28400 49.34600 27.66300
C  36.02200 50.03100 29.01800
C  35.25300 51.36700 28.64600
C  35.45300 51.35800 27.20600
C  33.81700 51.52300 29.03800
C  37.32600 50.29700 29.87200
C  37.34300 50.12600 31.37500
H  35.95000 49.86400 32.08100
N  35.69000 51.64800 24.12200
C  35.23200 52.62700 25.02200
C  34.98100 53.81000 24.29500
C  35.24400 53.62100 22.90100
C  35.65600 52.19700 22.79100
C  34.49600 55.02600 25.13400
C  34.95900 54.53300 21.74400
O  35.14700 54.13800 20.63000
C  34.61500 55.97000 21.87900
N  36.48100 49.23000 22.51100
C  36.19600 50.02600 21.53200
C  36.55100 49.36900 20.11700
C  36.95800 47.93300 20.56300
C  36.99100 48.06900 22.08200
C  35.31000 49.52500 19.09100
C  38.40900 47.47200 20.10500
C  39.64600 47.58600 21.01000
N  37.02100 47.92200 25.02500
C  37.35300 46.86700 24.18300
C  37.72700 45.73000 24.92900
C  37.51600 46.03800 26.25900
C  37.09600 47.45400 26.26500
C  38.41600 44.59100 24.34700
C  37.74800 45.65200 27.59000
O  38.33500 44.64800 28.03100
C  37.18100 46.94800 28.45900
C  36.02900 46.52300 29.26800
O  34.82600 46.73100 28.99800
O  36.41900 45.94300 30.40000
C  35.31900 45.53200 31.28000
H  34.92600 53.27400 27.03200
H  35.80700 51.84700 20.62900
H  37.72200 46.11900 22.28600
H  35.29800 49.49200 29.62900
H  35.73900 52.29000 28.96500
H  33.82500 52.36700 29.72800
H  33.37100 50.72100 29.62600
H  33.15500 51.77300 28.21000
H  37.51100 51.36600 29.76500
H  38.10800 49.62400 29.52200
H  37.89500 50.93600 31.85000
H  37.98600 49.30700 31.69600
H  34.48600 55.89100 24.47100
H  35.14500 55.24900 25.98000
H  33.61400 54.85600 25.75200
H  33.75300 56.04800 22.54200
H  34.34200 56.37500 20.90500
H  35.46900 56.55100 22.22700
H  37.46400 49.91000 19.87000
H  36.23100 47.19400 20.22600
H  35.74900 50.11500 18.28600
H  34.47000 50.03100 19.56700
H  34.99800 48.58600 18.63300
H  38.55000 47.97200 19.14700
H  38.17500 46.47900 19.72300
H  40.43000 47.94500 20.34400
H  40.01000 46.60700 21.32000
H  39.57700 48.29500 21.83600
H  39.07100 44.99200 23.57300
H  37.81300 43.73700 24.03700
H  39.12000 44.07400 24.99900
H  37.99500 47.21800 29.13200
H  34.79700 44.66700 30.87200
H  34.71300 46.32700 31.71500
H  35.87300 45.18800 32.15400

