158

Mg 16.79700 -0.56300 27.93000
C  15.54500 1.05000 30.71900
C  18.72100 -2.56300 29.89400
C  18.13500 -1.97200 25.15300
C  15.02800 1.65200 25.91500
N  17.06800 -0.73400 30.00900
C  16.44400 0.05900 30.99900
C  16.95600 -0.38300 32.44300
C  17.92800 -1.59800 32.10600
C  17.98300 -1.58600 30.53800
C  19.38200 -1.51000 32.67200
C  15.84700 -0.86700 33.49100
C  15.92500 -0.22300 34.94400
H  17.24200 0.22200 35.54600
N  18.26800 -2.06600 27.63000
C  18.96100 -2.80600 28.55300
C  19.75500 -3.75900 27.91500
C  19.55400 -3.62800 26.53300
C  18.61600 -2.47100 26.37900
C  20.49800 -4.73600 28.76000
C  20.26700 -4.31500 25.37900
O  20.00600 -4.12800 24.22100
C  21.35000 -5.26900 25.74400
N  16.64300 -0.23100 25.84600
C  17.34100 -0.92000 24.88300
C  17.04200 -0.29500 23.41400
C  15.92300 0.74300 23.73000
C  15.82100 0.71700 25.29200
C  18.36900 0.21000 22.74100
C  14.65400 0.51300 22.92900
C  13.65400 -0.53000 23.48500
N  15.49000 1.01300 28.19100
C  14.94300 1.92500 27.26600
C  14.25200 2.95600 27.96700
C  14.42000 2.59500 29.31900
C  15.19200 1.40300 29.38500
C  13.63700 4.15000 27.31700
C  14.12300 3.04000 30.61700
O  13.65000 4.14500 30.95400
C  14.89600 2.12900 31.62500
C  15.91400 2.91300 32.27800
O  17.05000 3.09100 31.87200
O  15.49100 3.24900 33.54400
C  16.41800 4.00500 34.37300
H  19.16100 -3.23700 30.63200
H  18.54200 -2.35200 24.21300
H  14.45600 2.30500 25.25200
H  17.52900 0.42700 32.89400
H  17.58800 -2.61200 32.31900
H  19.91500 -2.45800 32.73800
H  19.42800 -1.00700 33.63800
H  20.02300 -0.90700 32.02900
H  16.02500 -1.92200 33.70100
H  14.87400 -0.51600 33.14700
H  15.44100 -0.95100 35.59400
H  15.27400 0.64900 34.99800
H  21.55600 -4.78100 28.50200
H  20.16700 -5.76500 28.62200
H  20.53300 -4.58000 29.83800
H  22.24300 -4.70000 26.00100
H  21.64200 -5.94100 24.93700
H  21.04400 -5.87900 26.59400
H  16.61400 -1.12100 22.84400
H  16.31800 1.72600 23.47700
H  19.19300 0.06200 23.43900
H  18.21500 1.26500 22.51500
H  18.57300 -0.30500 21.80200
H  15.08300 0.17900 21.98400
H  14.07900 1.42000 22.74400
H  13.99500 -1.14700 24.31600
H  13.32900 -1.21000 22.69700
H  12.77400 0.00900 23.83600
H  13.63800 4.86300 28.14200
H  12.67200 3.94000 26.85600
H  14.33400 4.49700 26.55500
H  14.15600 1.83900 32.37000
H  16.72800 4.90600 33.84500
H  17.37600 3.52100 34.56200
H  16.05100 4.45000 35.29800
Mg -10.82100 16.99900 40.17200
C  -7.33300 16.65600 40.37100
C  -10.50900 20.25100 39.76200
C  -14.10800 16.91300 39.13700
C  -10.87600 13.29300 40.00900
N  -9.03300 18.28600 40.19000
C  -7.74900 18.02400 40.32000
C  -6.93600 19.33600 40.15800
C  -8.04800 20.48700 40.32900
C  -9.29700 19.66000 40.18200
C  -7.97500 21.30700 41.64100
C  -6.38400 19.44500 38.67700
C  -4.90300 19.13400 38.45900
H  -4.47900 18.21500 37.36200
N  -12.11200 18.38200 39.62300
C  -11.72600 19.71600 39.43100
C  -12.94900 20.48100 39.17100
C  -14.05900 19.57200 39.04000
C  -13.44200 18.21500 39.30900
C  -12.96700 21.94900 39.11400
C  -15.48300 19.93200 38.67300
O  -15.74600 21.07800 38.25200
C  -16.60100 18.90400 38.61400
N  -12.18100 15.39500 39.46800
C  -13.52800 15.68200 39.23700
C  -14.42100 14.34900 39.20300
C  -13.31400 13.30000 39.36900
C  -12.03900 13.99000 39.65100
C  -15.48400 14.32400 40.35500
C  -13.14400 12.44100 38.00500
C  -12.93500 10.94800 38.31400
N  -9.44100 15.29700 40.31400
C  -9.57400 13.87900 40.24500
C  -8.30400 13.26100 40.50400
C  -7.43500 14.33500 40.56400
C  -8.13900 15.53300 40.42700
C  -7.90800 11.86000 40.67600
C  -6.02900 14.65400 40.81100
O  -5.10400 13.95100 41.14300
C  -5.90900 16.12300 40.62100
C  -5.22100 16.78400 41.77800
O  -4.02800 17.06700 41.75100
O  -6.04500 17.17200 42.75000
C  -5.39600 18.02000 43.77700
H  -10.44200 21.34100 39.73000
H  -15.15700 16.78600 38.86300
H  -10.76600 12.21100 39.90900
H  -6.13000 19.35500 40.89200
H  -8.07200 21.25200 39.55400
H  -7.65900 22.31100 41.35900
H  -7.28800 20.75200 42.28000
H  -8.95600 21.43600 42.10000
H  -6.53600 20.47000 38.33800
H  -6.92100 18.77600 38.00400
H  -4.51000 18.62700 39.34000
H  -4.33800 20.03100 38.20300
H  -13.78600 22.46000 39.61900
H  -12.86800 22.36600 38.11200
H  -12.15900 22.40000 39.69100
H  -17.58100 19.38000 38.63600
H  -16.55200 18.19400 39.44000
H  -16.50700 18.27600 37.72800
H  -14.86300 14.34200 38.20700
H  -13.36600 12.68200 40.26500
H  -15.08800 13.85900 41.25800
H  -16.44400 13.82900 40.20600
H  -15.71300 15.35000 40.64400
H  -12.48100 12.85200 37.24300
H  -14.16100 12.39300 37.61800
H  -11.91400 10.73300 38.00000
H  -13.57600 10.35500 37.66200
H  -13.01700 10.73700 39.38000
H  -6.83700 11.76200 40.85500
H  -8.16900 11.28900 39.78500
H  -8.42700 11.38600 41.50800
H  -5.11700 16.46800 39.95700
H  -4.98200 18.87000 43.23400
H  -4.71200 17.54500 44.48000
H  -6.21500 18.43300 44.36600

