158

Mg 25.93500 0.77300 29.03200
C  27.99200 0.43600 31.89700
C  23.29100 1.15900 31.10300
C  24.01200 0.94800 26.20400
C  28.62600 -0.23000 27.03800
N  25.69100 0.61700 31.24200
C  26.66200 0.60900 32.24600
C  26.08000 0.88100 33.61800
C  24.53500 0.88300 33.37100
C  24.46800 0.89300 31.82900
C  23.70600 -0.19400 34.21100
C  26.70100 2.17500 34.26900
C  26.16200 2.73200 35.65800
H  27.05700 2.74300 36.90300
N  23.91300 1.10200 28.70500
C  23.00600 1.30000 29.70800
C  21.70900 1.56000 29.06900
C  21.89000 1.44500 27.65800
C  23.32400 1.13500 27.43500
C  20.39900 1.73500 29.82500
C  20.87200 1.64400 26.51900
O  21.23400 1.52800 25.35000
C  19.43800 1.87800 26.84700
N  26.26700 0.37500 26.93200
C  25.35600 0.58300 25.98500
C  25.91200 0.39600 24.61100
C  27.41000 0.09900 24.85900
C  27.45200 0.00600 26.37400
C  25.22100 -0.66800 23.81200
C  28.29500 1.19400 24.24100
C  29.67300 0.73800 23.74900
N  27.90800 0.22200 29.35000
C  28.89600 -0.19100 28.49400
C  30.21300 -0.32500 29.16500
C  29.81800 -0.13000 30.51200
C  28.44200 0.20300 30.59600
C  31.51700 -0.69300 28.49700
C  30.32900 -0.24600 31.85900
O  31.48400 -0.41900 32.27300
C  29.20100 0.20600 32.79900
C  28.98300 -0.86100 33.85300
O  28.35900 -1.89300 33.62500
O  29.57200 -0.60700 35.04700
C  29.29700 -1.61200 36.17400
H  22.46700 1.35500 31.79100
H  23.61000 1.18900 25.21800
H  29.47500 -0.56900 26.44000
H  26.31700 0.06300 34.29800
H  24.24600 1.91100 33.58900
H  22.85400 -0.51900 33.61300
H  23.32500 0.08600 35.19400
H  24.23900 -1.10500 34.48400
H  26.73400 2.94600 33.50000
H  27.75200 1.96100 34.46000
H  25.18700 2.29000 35.86200
H  25.81900 3.75900 35.53500
H  20.09000 2.76100 29.62600
H  20.47600 1.74900 30.91300
H  19.72600 0.89200 29.67300
H  19.50900 2.62900 27.63300
H  18.96800 1.09000 27.43700
H  18.89100 2.20700 25.96400
H  25.74200 1.32600 24.06900
H  27.72500 -0.87500 24.48400
H  24.65500 -0.22800 22.99200
H  24.57500 -1.11700 24.56700
H  25.92600 -1.46800 23.58700
H  28.33100 2.04700 24.91800
H  27.82300 1.47200 23.29900
H  30.36300 1.35000 24.33000
H  29.76800 0.94900 22.68300
H  29.93600 -0.30500 23.92500
H  31.61600 -0.19500 27.53300
H  31.63700 -1.77200 28.39100
H  32.33400 -0.33200 29.12300
H  29.63000 1.06700 33.31200
H  29.93100 -1.56900 37.05900
H  29.34500 -2.67800 35.95100
H  28.30800 -1.45800 36.60700
Mg 55.06900 23.74700 44.78600
C  52.35700 25.74600 43.74100
C  53.28700 21.03800 43.55100
C  57.91100 21.99600 45.03400
C  56.75800 26.60500 45.86200
N  53.18000 23.48000 43.51900
C  52.23100 24.47500 43.36000
C  50.92400 23.89500 42.76400
C  51.13800 22.36600 43.02900
C  52.62600 22.27000 43.38300
C  50.27300 21.91100 44.28100
C  50.82900 24.14500 41.23300
C  49.30700 24.40600 40.87500
H  48.88500 24.21600 39.38400
N  55.50300 21.75000 44.32500
C  54.68300 20.76200 43.88200
C  55.39900 19.53000 43.81800
C  56.78700 19.73500 44.23100
C  56.83400 21.21100 44.57300
C  54.65400 18.33700 43.40400
C  57.82400 18.69600 44.36800
O  57.61500 17.50700 44.12400
C  59.28000 18.99800 44.84500
N  57.23000 24.31700 45.04700
C  58.07100 23.35300 45.27100
C  59.42900 23.93600 45.77600
C  59.14000 25.49800 45.99600
C  57.65200 25.53200 45.58100
C  59.87100 23.20900 47.06400
C  59.91700 26.40700 45.03400
C  60.85300 27.44100 45.72400
N  54.73500 25.78400 44.86000
C  55.41000 26.80900 45.43000
C  54.50500 27.86000 45.70800
C  53.33200 27.60900 44.87700
C  53.54400 26.28600 44.48600
C  54.69400 29.12800 46.47100
C  52.10500 28.15800 44.27500
O  51.67400 29.33300 44.38000
C  51.47900 27.00400 43.54200
C  51.12300 27.42600 42.15400
O  51.94800 27.52300 41.24100
O  49.80500 27.69500 42.01100
C  49.42200 28.16300 40.74300
H  52.81000 20.10800 43.23300
H  58.81500 21.49600 45.38800
H  57.30000 27.46800 46.25400
H  49.98200 24.22900 43.20000
H  50.90800 21.60200 42.28700
H  50.02600 22.73900 44.94500
H  50.62300 21.08700 44.90300
H  49.30200 21.67100 43.84600
H  51.16500 23.33100 40.59100
H  51.62000 24.87000 41.03900
H  48.96000 25.42000 41.07300
H  48.65200 23.66800 41.33900
H  54.64200 18.34800 42.31400
H  53.63900 18.36200 43.80100
H  55.18700 17.47600 43.80700
H  59.62300 19.95000 44.43900
H  59.91100 18.20300 44.44700
H  59.29900 18.88200 45.92900
H  60.11700 23.76400 44.94800
H  59.28000 25.79700 47.03500
H  59.08600 22.56400 47.45800
H  59.86200 23.99000 47.82500
H  60.83600 22.70900 46.98300
H  59.21100 26.97900 44.43200
H  60.37900 25.79100 44.26300
H  60.39600 28.39400 45.99300
H  61.72100 27.66200 45.10300
H  61.16900 27.01500 46.67600
H  54.86300 28.89000 47.52100
H  53.77900 29.69500 46.30200
H  55.46600 29.71200 45.97100
H  50.53800 26.94700 44.09000
H  49.42100 29.25200 40.79400
H  48.43700 27.78600 40.46700
H  50.12300 27.88200 39.95700

