158

Mg 44.09200 4.19300 46.93300
C  42.10200 7.08700 46.78000
C  41.33400 2.25400 46.95800
C  46.12300 1.71000 46.67500
C  46.98500 6.47100 46.85500
N  41.95800 4.73200 46.84700
C  41.35200 5.94900 46.79400
C  39.79900 5.79900 46.88300
C  39.63300 4.25100 46.99200
C  41.08300 3.68700 46.84400
C  38.99800 3.88000 48.31000
C  38.98200 6.48100 45.80800
C  39.53200 6.30300 44.33800
H  38.52200 6.03700 43.18400
N  43.75900 2.22100 46.77000
C  42.58900 1.58900 46.82900
C  42.76600 0.19300 46.62500
C  44.17000 -0.10900 46.55800
C  44.77800 1.27400 46.72000
C  41.66600 -0.79800 46.45100
C  44.79200 -1.45800 46.41700
O  44.04600 -2.41300 46.18900
C  46.31000 -1.78300 46.44100
N  46.32000 4.15200 46.57000
C  46.80200 2.90700 46.67500
C  48.39900 2.98000 46.73700
C  48.69400 4.54300 46.75000
C  47.30800 5.11700 46.71300
C  49.15400 2.08000 47.80000
C  49.46400 5.04300 45.49100
C  51.02800 4.86400 45.48900
N  44.52800 6.36300 46.71200
C  45.69400 7.07400 46.77000
C  45.42000 8.50600 46.81800
C  43.99300 8.55300 46.85600
C  43.49000 7.24200 46.76200
C  46.40700 9.57800 46.89500
C  42.83400 9.42500 46.83200
O  42.81600 10.64100 46.67300
C  41.55800 8.54100 46.82000
C  40.77400 8.83600 48.12500
O  40.92500 8.19500 49.16600
O  39.96900 9.91900 48.06300
C  39.09400 10.00300 49.24200
H  40.40700 1.68000 46.91500
H  46.82200 0.87000 46.67600
H  47.91700 6.99100 47.08800
H  39.43800 6.16900 47.84200
H  39.01100 3.81800 46.20900
H  38.30100 4.63600 48.67000
H  39.73200 3.61100 49.07000
H  38.53700 2.91400 48.10700
H  38.69700 7.50200 46.06200
H  38.07100 5.88500 45.76700
H  40.28400 5.52400 44.21500
H  40.02400 7.25300 44.13000
H  41.85800 -1.55500 45.69000
H  40.71500 -0.26500 46.45700
H  41.63500 -1.42300 47.34300
H  46.83100 -1.21000 45.67400
H  46.51100 -2.84200 46.27400
H  46.60600 -1.65200 47.48200
H  48.63600 2.47400 45.80100
H  49.32300 4.81900 47.59700
H  48.29800 1.77400 48.40200
H  49.85600 2.72000 48.33300
H  49.55600 1.18500 47.32500
H  49.19500 6.05600 45.19100
H  49.09600 4.37300 44.71400
H  51.34500 4.19500 44.68900
H  51.31700 4.45700 46.45800
H  51.52900 5.81300 45.29800
H  47.40100 9.19300 46.66800
H  46.51800 9.88200 47.93600
H  46.16500 10.43000 46.26000
H  40.97800 8.79500 45.93300
H  39.59000 10.63100 49.98200
H  38.69200 9.18500 49.84000
H  38.20100 10.46300 48.81700
Mg -4.94600 25.46000 26.00200
C  -3.42500 26.49400 28.98400
C  -6.91000 23.35400 27.78600
C  -5.64800 23.73100 23.15100
C  -2.46700 27.13300 24.19400
N  -5.04200 24.85000 28.11700
C  -4.46800 25.53100 29.17900
C  -5.13100 25.16300 30.51300
C  -6.00700 23.96400 30.08400
C  -5.98400 24.05300 28.58000
C  -5.38000 22.52000 30.34800
C  -6.00000 26.35800 31.04900
C  -5.94200 26.52600 32.58300
H  -5.38500 25.42300 33.47300
N  -6.24000 23.83600 25.51700
C  -7.03800 23.20600 26.43400
C  -7.79500 22.17400 25.71100
C  -7.49300 22.26000 24.34500
C  -6.35800 23.25600 24.32100
C  -8.84800 21.26400 26.35800
C  -8.09200 21.54800 23.09700
O  -7.79700 21.85900 21.96600
C  -9.14000 20.52200 23.25700
N  -4.12900 25.38000 24.01300
C  -4.63400 24.65500 23.00400
C  -3.95100 24.91700 21.59400
C  -3.25400 26.24300 21.96500
C  -3.30700 26.37600 23.49500
C  -3.09800 23.73100 21.26800
C  -3.76600 27.56600 21.23900
C  -2.72100 28.33100 20.44400
N  -3.32700 26.75800 26.49500
C  -2.40200 27.34700 25.67400
C  -1.54400 28.18400 26.46800
C  -1.92400 27.94700 27.77900
C  -3.00000 27.00900 27.73200
C  -0.49200 29.13100 25.85300
C  -1.66600 28.31300 29.14100
O  -0.79300 29.00700 29.61500
C  -2.76200 27.47300 29.99400
C  -1.93300 26.75900 31.00700
O  -1.03300 25.94400 30.76800
O  -2.21000 27.24800 32.24900
C  -1.32600 26.77900 33.32200
H  -7.63800 22.81400 28.39600
H  -5.82100 23.18200 22.22300
H  -1.72700 27.61600 23.55300
H  -4.40600 24.85100 31.26400
H  -6.98300 23.98600 30.56800
H  -6.12800 21.73800 30.48600
H  -4.70500 22.61100 31.19800
H  -4.83400 22.17700 29.46900
H  -6.98100 26.23600 30.59100
H  -5.64800 27.29700 30.62100
H  -6.97700 26.68100 32.88800
H  -5.47100 27.46400 32.87700
H  -9.80700 21.53900 25.92000
H  -8.75900 21.36000 27.44000
H  -8.74000 20.22900 26.03500
H  -9.47700 20.23700 22.26000
H  -9.97100 21.03400 23.74400
H  -8.86800 19.68300 23.89800
H  -4.67600 25.06800 20.79400
H  -2.20500 26.03300 21.75500
H  -3.37800 22.85600 21.85400
H  -2.05500 23.99100 21.45000
H  -3.18700 23.59300 20.19100
H  -4.20600 28.28900 21.92500
H  -4.48700 27.19400 20.51100
H  -2.56500 29.40400 20.55600
H  -2.83300 28.28300 19.36100
H  -1.70200 27.95300 20.51900
H  -0.15800 28.74600 24.88900
H  0.30400 29.23100 26.59100
H  -0.97300 30.09300 25.67700
H  -3.44900 28.16500 30.48200
H  -1.41300 27.52000 34.11700
H  -0.32000 26.83400 32.90700
H  -1.54600 25.77800 33.69300

