158

Mg 1.31300 7.10200 26.01300
C  1.57300 9.27900 28.71700
C  1.95800 4.43300 28.23500
C  0.91400 4.98500 23.47100
C  1.15100 9.85000 23.86000
N  1.38100 6.92000 28.25800
C  1.43200 7.96800 29.13200
C  1.38600 7.56500 30.63000
C  1.81500 5.97300 30.37000
C  1.72300 5.69900 28.82600
C  3.12800 5.59200 30.97500
C  -0.01700 7.84900 31.26800
C  -0.09000 7.78400 32.79500
H  1.17800 7.47200 33.58600
N  1.53700 4.97800 25.85300
C  1.67200 4.07500 26.90000
C  1.43200 2.70400 26.35900
C  1.26500 2.80900 24.93700
C  1.26600 4.31800 24.65000
C  1.28800 1.45300 27.31300
C  1.03200 1.73800 23.92300
O  0.62800 2.02800 22.78500
C  1.19500 0.35400 24.27100
N  0.92200 7.39300 24.03700
C  0.82600 6.37500 23.17500
C  0.52200 6.88000 21.65200
C  0.54200 8.38700 21.87400
C  0.84600 8.56900 23.33200
C  1.49600 6.49900 20.44900
C  -0.65900 9.14600 21.29500
C  -0.40600 10.08300 20.13900
N  1.40200 9.08700 26.15700
C  1.28300 10.12300 25.21700
C  1.61300 11.41400 25.83400
C  1.70900 11.09700 27.20800
C  1.56200 9.73300 27.33700
C  1.73700 12.74000 25.21700
C  1.82100 11.71200 28.47300
O  1.84700 12.89400 28.80900
C  1.79600 10.57800 29.48900
C  3.15200 10.59300 30.11500
O  4.17900 10.04800 29.76400
O  3.04700 11.20300 31.34200
C  4.14800 10.94600 32.30400
H  2.41900 3.64700 28.83700
H  0.72400 4.40100 22.56900
H  1.22300 10.72900 23.21600
H  2.15100 8.13700 31.15700
H  0.99400 5.37900 30.77000
H  2.96200 4.77700 31.67900
H  3.50800 6.50700 31.42800
H  3.75400 5.23400 30.15800
H  -0.71800 7.20100 30.74200
H  -0.32100 8.85800 30.98600
H  -0.81600 7.00100 33.01300
H  -0.44600 8.73100 33.20000
H  1.18200 1.54600 28.39400
H  1.99900 0.64300 27.15000
H  0.41000 0.94200 26.91800
H  0.31900 0.05100 24.84300
H  1.99300 0.32800 25.01400
H  1.36800 -0.27000 23.39400
H  -0.45500 6.48200 21.37700
H  1.43700 8.72100 21.35000
H  2.47700 6.13500 20.75200
H  1.57300 7.26000 19.67200
H  1.12400 5.55700 20.04600
H  -1.05800 9.82100 22.05300
H  -1.51700 8.49300 21.13200
H  -0.84200 9.72100 19.20800
H  0.65400 10.28100 19.97900
H  -0.88200 11.02800 20.40100
H  0.91900 12.75700 24.49700
H  2.71900 12.79600 24.74900
H  1.52600 13.51800 25.95000
H  1.00600 10.71800 30.22700
H  5.12100 10.87400 31.81900
H  3.83900 9.99700 32.74300
H  4.23500 11.83000 32.93600
Mg 36.62200 50.39300 25.78700
C  36.07300 48.15900 28.44700
C  35.92500 53.03700 27.86000
C  36.53000 52.39600 23.01500
C  37.08600 47.66600 23.64800
N  35.90300 50.56300 27.92500
C  35.93800 49.56500 28.83400
C  35.76200 50.10900 30.25000
C  35.42900 51.58200 29.97800
C  35.77300 51.77800 28.51400
C  33.92800 52.00000 30.29300
C  37.15800 49.94600 31.11700
C  36.98800 50.16000 32.59000
H  35.58500 50.27300 33.15900
N  36.38200 52.46000 25.49400
C  36.16900 53.40800 26.51400
C  36.31700 54.72300 25.94700
C  36.36200 54.62700 24.49100
C  36.46800 53.15500 24.25700
C  36.32200 55.96100 26.88300
C  36.39800 55.75900 23.48800
O  36.53600 55.53200 22.30200
C  36.47100 57.09100 23.90500
N  36.75600 50.05600 23.58500
C  36.62000 51.04000 22.68800
C  36.78100 50.54600 21.17500
C  37.17400 49.03900 21.46200
C  37.03700 48.85900 22.98300
C  35.47300 50.64000 20.37700
C  38.68400 48.90300 20.99100
C  39.13600 47.49200 20.45500
N  36.57800 48.30600 25.99200
C  36.87000 47.34600 25.00700
C  37.02400 46.03700 25.69600
C  36.57500 46.30300 27.01200
C  36.34400 47.68900 27.14200
C  37.42900 44.70100 25.15000
C  36.37800 45.70600 28.33800
O  36.45500 44.51600 28.63800
C  36.01500 46.88000 29.31500
C  34.73600 46.57000 29.93900
O  33.65600 46.87700 29.39000
O  34.88600 46.09700 31.17300
C  33.62600 45.96300 32.05000
H  35.72600 53.84100 28.57100
H  36.62800 52.97500 22.09400
H  37.09200 46.74500 23.06200
H  34.95000 49.50700 30.65900
H  36.09200 52.23200 30.54900
H  33.81600 52.49600 31.25700
H  33.20800 51.18200 30.31000
H  33.57600 52.67000 29.50900
H  37.84100 50.68000 30.68800
H  37.50200 48.91800 31.00400
H  37.51700 51.07400 32.86100
H  37.52400 49.30700 33.00500
H  37.22200 56.57100 26.81000
H  36.23400 55.64700 27.92300
H  35.43300 56.57700 26.74900
H  36.31600 57.85000 23.13800
H  37.42700 57.20000 24.41600
H  35.63300 57.27900 24.57500
H  37.56600 51.04100 20.60300
H  36.59000 48.34300 20.86000
H  35.08100 51.65100 20.48600
H  34.70700 49.88900 20.56700
H  35.67300 50.54200 19.31000
H  39.24000 49.19000 21.88400
H  38.85400 49.53200 20.11800
H  38.33700 46.75700 20.55100
H  39.98400 47.16600 21.05700
H  39.45700 47.56400 19.41500
H  37.61100 43.89700 25.86300
H  38.16900 44.88100 24.37000
H  36.54800 44.27900 24.66800
H  36.75600 46.90200 30.11500
H  33.05000 46.88500 31.96900
H  33.93900 45.91100 33.09200
H  33.14600 45.01700 31.80100

