158

Mg 24.71700 1.12400 30.20900
C  26.78700 0.91700 32.97100
C  22.06700 1.52100 32.36000
C  22.66700 0.63800 27.52100
C  27.43200 0.23900 28.21300
N  24.48000 1.17600 32.50200
C  25.47200 1.11900 33.37500
C  24.99300 1.68300 34.71500
C  23.44400 1.44400 34.58700
C  23.30600 1.34400 33.07000
C  22.98600 0.04300 35.20800
C  25.56100 3.11000 35.10600
C  26.40000 3.19200 36.45400
H  25.98300 4.17500 37.54300
N  22.70100 1.06400 30.00500
C  21.73300 1.32400 30.98200
C  20.47000 1.41500 30.35000
C  20.62900 0.98100 28.99100
C  22.06500 0.94200 28.77900
C  19.20300 1.73700 31.10000
C  19.60700 0.75000 27.95300
O  19.93000 0.51900 26.79400
C  18.22500 0.68800 28.27000
N  25.00800 0.35900 28.23700
C  24.03300 0.52500 27.31700
C  24.56200 0.39800 25.88400
C  26.08200 0.15300 26.07500
C  26.20700 0.25200 27.56900
C  23.85000 -0.49300 24.87000
C  26.93200 1.15400 25.22700
C  26.44500 1.23500 23.78000
N  26.68700 0.63400 30.46900
C  27.71800 0.45500 29.56300
C  28.99700 0.32700 30.26500
C  28.68300 0.51500 31.64100
C  27.25800 0.69500 31.67200
C  30.39200 0.10500 29.75500
C  29.27900 0.65800 32.97800
O  30.44800 0.54600 33.40600
C  28.06500 0.96100 33.87600
C  28.07900 -0.18600 34.80300
O  27.46900 -1.22300 34.65500
O  28.86200 0.15100 35.88700
C  28.73800 -0.74800 37.01600
H  21.22700 1.86900 32.96500
H  22.09100 0.83500 26.61500
H  28.26700 0.09600 27.52400
H  25.37900 1.05500 35.51800
H  22.99700 2.33600 35.02400
H  23.84400 -0.59200 35.43200
H  22.41300 -0.51100 34.46400
H  22.41300 0.29900 36.09900
H  24.70500 3.78300 35.04700
H  26.22900 3.32200 34.27100
H  27.39000 3.52800 36.14500
H  26.36700 2.19000 36.88200
H  19.41800 1.72400 32.16800
H  18.35400 1.10500 30.84000
H  18.96900 2.75200 30.77900
H  18.18300 -0.13100 28.98800
H  17.70700 0.42600 27.34800
H  17.84200 1.61700 28.69300
H  24.34600 1.33900 25.37800
H  26.46900 -0.85600 25.93400
H  24.56400 -1.14500 24.36800
H  23.39700 0.11700 24.08800
H  23.03600 -1.02700 25.36000
H  27.97700 0.84800 25.28700
H  26.73600 2.15100 25.62200
H  25.70900 2.01300 23.57800
H  26.00300 0.31600 23.39500
H  27.26300 1.35800 23.07100
H  30.91800 1.05500 29.66700
H  30.37600 -0.34400 28.76100
H  30.83300 -0.53200 30.52100
H  28.01500 1.91200 34.40700
H  28.50900 -1.75000 36.65400
H  28.01100 -0.37400 37.73700
H  29.71900 -0.61400 37.47200
Mg 46.84900 16.81800 28.09700
C  45.08900 16.59800 31.24600
C  49.24100 18.68600 29.74000
C  48.30600 17.02700 25.11700
C  44.10400 15.26700 26.67200
N  47.16300 17.52600 30.26800
C  46.29100 17.27700 31.36200
C  47.00000 17.74200 32.77700
C  48.12800 18.66700 32.13500
C  48.27500 18.23000 30.63900
C  47.75500 20.14500 32.24400
C  47.54100 16.47000 33.59900
C  47.66200 16.49800 35.08900
H  47.45100 17.80700 35.90800
N  48.55100 17.78200 27.52900
C  49.38100 18.55800 28.34600
C  50.46300 19.02800 27.53800
C  50.23000 18.51000 26.18100
C  48.96800 17.73600 26.21800
C  51.68100 19.83700 28.08900
C  51.07600 18.63800 24.90600
O  50.79500 18.05100 23.89700
C  52.17200 19.61300 24.89600
N  46.31500 16.19900 26.06300
C  47.11200 16.28300 25.02100
C  46.41300 15.73600 23.71500
C  45.14200 15.12800 24.27600
C  45.15500 15.56300 25.77500
C  46.10800 16.83700 22.68100
C  45.19400 13.58100 24.08800
C  44.71600 13.17600 22.66900
N  44.98300 16.08200 28.72000
C  44.03400 15.39600 27.99000
C  42.95200 15.01500 28.82200
C  43.33300 15.41200 30.14300
C  44.59300 16.08500 30.02000
C  41.70200 14.43000 28.36600
C  42.91800 15.46700 31.57600
O  41.92700 14.93600 32.08000
C  44.15100 16.13600 32.31700
C  43.74300 17.28500 33.23400
O  43.82600 18.48000 32.92800
O  43.13300 16.83500 34.35700
C  42.47800 17.72500 35.34800
H  50.06300 19.29500 30.12200
H  48.79700 16.98900 24.14200
H  43.29100 14.64300 26.29600
H  46.37700 18.34500 33.43700
H  49.07900 18.58100 32.66100
H  48.50500 20.81200 32.67000
H  46.91200 20.33900 32.90700
H  47.56600 20.63900 31.29200
H  48.50900 16.15300 33.21100
H  46.89900 15.59300 33.51700
H  48.65300 16.12800 35.35200
H  46.88500 15.89600 35.56200
H  52.62300 19.31900 27.90900
H  51.51200 20.05000 29.14500
H  51.54000 20.79100 27.58100
H  51.71100 20.58800 25.05100
H  52.47800 19.61500 23.85000
H  52.95100 19.41800 25.63300
H  47.11600 15.01100 23.30500
H  44.19500 15.49000 23.87500
H  46.84500 17.62700 22.82100
H  45.09800 17.24500 22.70800
H  46.36600 16.43500 21.70100
H  44.63800 13.09100 24.88700
H  46.22000 13.22100 24.16200
H  45.52400 12.75900 22.06700
H  44.27000 14.00100 22.11400
H  44.01400 12.35600 22.82300
H  41.65500 13.34100 28.37300
H  41.34400 14.70700 27.37500
H  40.87600 14.69100 29.02800
H  44.65600 15.43200 32.97800
H  41.70300 18.21200 34.75500
H  43.19400 18.39800 35.81800
H  41.99000 17.02300 36.02300

