158

Mg 2.86400 -0.70600 44.38700
C  6.34900 0.10400 43.91400
C  2.15000 2.13200 42.68200
C  -0.21800 -1.92500 43.93800
C  3.93800 -3.88800 45.54700
N  4.17100 0.96600 43.35300
C  5.50700 1.11500 43.39400
C  5.87500 2.56900 43.10400
C  4.56800 3.27700 42.87300
C  3.56500 2.09300 42.96200
C  4.20900 4.42300 43.87800
C  7.00100 2.89800 42.06100
C  6.70300 2.43600 40.61900
H  6.30900 3.53600 39.61800
N  1.16000 0.05200 43.54000
C  1.04500 1.24300 42.85200
C  -0.31500 1.44700 42.47200
C  -1.03300 0.23400 42.77900
C  -0.02000 -0.61600 43.46800
C  -0.76100 2.70200 41.83000
C  -2.46300 0.05200 42.36600
O  -3.09800 0.84500 41.77700
C  -3.12100 -1.27500 42.52000
N  1.95800 -2.58400 44.90300
C  0.63300 -2.75200 44.64600
C  0.24700 -4.21900 45.04500
C  1.55200 -4.94200 45.42500
C  2.57200 -3.75100 45.37600
C  -0.89600 -4.30200 46.14700
C  1.90600 -6.17100 44.45500
C  2.72900 -7.36300 44.96000
N  4.71700 -1.60200 44.94800
C  4.94400 -2.91700 45.36700
C  6.33300 -3.15400 45.37100
C  6.95600 -2.01000 44.88600
C  5.91000 -1.10100 44.53000
C  7.02600 -4.39500 45.90000
C  8.27100 -1.38800 44.68800
O  9.39500 -1.86500 44.88400
C  7.87600 -0.02300 43.99600
C  8.39200 1.13100 44.81700
O  9.17300 1.97500 44.47500
O  7.83900 0.99300 46.07800
C  8.31600 2.01700 47.03600
H  1.83800 3.14800 42.42900
H  -1.21500 -2.36800 43.89800
H  4.16300 -4.92300 45.81300
H  6.40700 2.98600 43.96000
H  4.40300 3.68500 41.87600
H  5.15200 4.91400 44.12000
H  3.74000 4.18000 44.83100
H  3.63400 5.17600 43.33800
H  7.92700 2.45500 42.42800
H  7.19800 3.97000 42.02100
H  5.97000 1.63500 40.52100
H  7.64200 1.97800 40.30900
H  -0.40600 3.61200 42.31300
H  -1.82000 2.87700 42.02100
H  -0.62600 2.68000 40.74800
H  -3.55800 -1.33100 43.51700
H  -2.47700 -2.12300 42.28500
H  -3.98000 -1.37100 41.85600
H  -0.08900 -4.70600 44.12900
H  1.59400 -5.39800 46.41400
H  -1.68200 -4.95200 45.76500
H  -1.38500 -3.36000 46.39400
H  -0.40500 -4.71500 47.02900
H  2.48000 -5.86800 43.57900
H  0.99000 -6.64400 44.10400
H  2.94700 -7.36900 46.02800
H  3.71500 -7.39700 44.49800
H  2.30700 -8.32300 44.66200
H  6.40900 -4.96800 46.59100
H  7.87000 -4.15000 46.54400
H  7.32500 -5.12100 45.14300
H  8.26300 0.11800 42.98600
H  7.65700 2.88600 47.05200
H  9.29100 2.48700 46.90700
H  8.25000 1.57000 48.02800
Mg 43.98900 2.77400 47.07600
C  43.40200 6.02700 46.18300
C  40.64200 1.90200 46.18300
C  44.66700 -0.53700 47.46400
C  47.43900 3.51600 47.14100
N  42.36400 3.83100 46.25300
C  42.28700 5.18200 45.92200
C  40.88600 5.53800 45.39600
C  40.01300 4.36000 45.93300
C  41.07600 3.27900 46.13900
C  39.22900 4.77400 47.21100
C  40.82100 5.71100 43.86500
C  40.15500 7.05700 43.45100
H  39.10100 6.95000 42.36400
N  42.78300 0.88400 46.83600
C  41.46600 0.77400 46.46500
C  41.11600 -0.59700 46.31600
C  42.29000 -1.34400 46.83200
C  43.27000 -0.33500 47.07700
C  39.79200 -1.20500 45.76900
C  42.39700 -2.85600 46.92500
O  41.50500 -3.53900 46.48300
C  43.58300 -3.51300 47.43900
N  45.78500 1.68400 47.31400
C  45.75800 0.32800 47.55300
C  47.24900 -0.21200 47.62000
C  48.07900 1.08900 47.49900
C  47.04700 2.21900 47.28800
C  47.46300 -0.98300 48.87600
C  49.12200 1.01300 46.29800
C  50.53800 1.53900 46.52800
N  45.25300 4.46000 46.86500
C  46.57300 4.58400 46.99700
C  46.89600 6.05000 47.04800
C  45.66100 6.64400 46.69800
C  44.74800 5.64700 46.57100
C  48.23300 6.56700 47.34200
C  44.91400 7.90800 46.48600
O  45.40900 9.03500 46.64500
C  43.44200 7.52300 46.03000
C  42.53000 8.39700 46.87300
O  42.27800 8.08100 47.97600
O  42.11000 9.55600 46.29500
C  41.03300 10.20000 47.05000
H  39.63300 1.69400 45.81900
H  45.01900 -1.54400 47.69400
H  48.51700 3.67800 47.06500
H  40.52900 6.43200 45.90800
H  39.34700 4.00500 45.14700
H  39.51700 5.74400 47.61800
H  39.41000 4.09600 48.04500
H  38.16200 4.84100 47.00100
H  40.29300 4.86000 43.43500
H  41.86400 5.69500 43.55000
H  40.94300 7.72700 43.10600
H  39.68500 7.54300 44.30600
H  39.17400 -1.35500 46.65400
H  39.94800 -2.15600 45.26000
H  39.50900 -0.45800 45.02800
H  43.75600 -3.11100 48.43700
H  44.36100 -3.31000 46.70200
H  43.40300 -4.57300 47.61700
H  47.37600 -0.88700 46.77400
H  48.49900 1.24200 48.49300
H  47.11100 -2.00500 48.73500
H  47.07100 -0.41100 49.71700
H  48.53100 -1.10600 49.05500
H  48.78000 1.55200 45.41400
H  49.19500 -0.01900 45.95400
H  50.61900 2.04300 47.49100
H  50.79000 2.17800 45.68200
H  51.17600 0.65500 46.52500
H  48.36700 7.24200 46.49800
H  49.06700 5.86600 47.35900
H  48.11400 7.16400 48.24600
H  43.32500 7.93900 45.03000
H  41.49500 10.87300 47.77300
H  40.41200 9.54300 47.65800
H  40.38000 10.78700 46.40500

