158

Mg 40.91900 9.20300 29.72700
C  42.58100 10.37100 32.51900
C  38.76100 7.54200 31.82600
C  39.22600 8.02600 27.00800
C  43.40100 10.27600 27.70300
N  40.81900 8.88300 31.94200
C  41.47100 9.62800 32.85100
C  40.91000 9.50900 34.27500
C  39.89600 8.33600 34.03300
C  39.75700 8.23700 32.48000
C  40.36300 6.95400 34.69100
C  40.37300 10.82600 34.85200
C  40.27500 10.80800 36.40900
H  41.18200 11.81200 37.18800
N  39.15300 8.09600 29.49400
C  38.46300 7.45200 30.46200
C  37.29300 6.89300 29.86000
C  37.26700 7.24700 28.51200
C  38.59600 7.84100 28.26500
C  36.18600 6.16600 30.65300
C  36.17300 7.05300 27.50300
O  36.29000 7.46500 26.35300
C  34.91600 6.35800 27.96700
N  41.27500 9.11200 27.66200
C  40.43300 8.55500 26.73700
C  40.87900 8.84300 25.21700
C  42.18500 9.68700 25.42900
C  42.39100 9.70400 26.98500
C  40.91600 7.51000 24.29300
C  42.09600 11.06600 24.79100
C  41.29300 12.14300 25.47500
N  42.68700 10.09700 29.99200
C  43.65000 10.45500 29.06000
C  44.76100 11.07400 29.75800
C  44.42400 11.04900 31.11300
C  43.13200 10.45500 31.20400
C  45.98300 11.73200 29.11700
C  44.83100 11.46400 32.38200
O  45.78300 12.09900 32.76400
C  43.59400 11.02400 33.41600
C  44.20400 10.06000 34.30800
O  44.73000 9.06900 33.86200
O  44.18800 10.36200 35.61900
C  44.68800 9.25800 36.52300
H  37.98400 7.18600 32.50500
H  38.57300 7.71100 26.19200
H  44.09700 10.70600 26.97900
H  41.70500 9.16300 34.93600
H  38.89800 8.62400 34.36300
H  41.11200 7.10200 35.47000
H  40.86400 6.26800 34.00800
H  39.43300 6.51000 35.04600
H  39.35300 10.96800 34.49700
H  40.91800 11.68100 34.45200
H  40.39500 9.75400 36.66100
H  39.21600 11.05300 36.49400
H  36.70200 5.97900 31.59500
H  36.13800 5.19400 30.16200
H  35.23500 6.67100 30.82200
H  34.26000 6.87200 28.67000
H  35.24600 5.32700 28.09900
H  34.26700 6.35900 27.09200
H  40.11200 9.48700 24.78800
H  43.12800 9.20400 25.17200
H  40.94000 6.57300 24.84800
H  41.85800 7.54600 23.74500
H  40.04900 7.44700 23.63400
H  41.72300 10.97900 23.77000
H  43.17100 11.24400 24.80900
H  40.74600 11.84400 26.37000
H  40.47900 12.49400 24.84100
H  41.99300 12.95300 25.68000
H  46.43200 12.39400 29.85700
H  45.54300 12.44100 28.41500
H  46.61300 11.09900 28.49200
H  43.19900 11.83100 34.03400
H  45.77100 9.20400 36.41600
H  44.30200 8.31700 36.13100
H  44.33400 9.33500 37.55100
Mg 41.44100 40.86200 27.38000
C  40.72200 43.18400 29.82900
C  42.66500 38.59700 29.76200
C  42.71600 38.74100 24.89100
C  40.81500 43.39200 24.98700
N  41.49400 40.83500 29.56600
C  41.12400 41.88700 30.39600
C  41.16900 41.51400 31.90400
C  41.76300 40.06800 31.84800
C  42.08800 39.81100 30.26200
C  43.09500 39.89800 32.60400
C  39.76400 41.53400 32.69600
C  39.82700 42.14100 34.11600
H  38.94000 41.54600 35.25400
N  42.42500 38.91600 27.35500
C  42.83300 38.17600 28.43200
C  43.31800 36.88600 28.01400
C  43.21000 36.88200 26.57900
C  42.80600 38.27800 26.23300
C  43.63600 35.78700 29.00400
C  43.46100 35.73100 25.59900
O  43.10700 35.76200 24.41300
C  44.01900 34.44000 26.13900
N  41.70900 41.08000 25.28000
C  42.21800 40.00700 24.44900
C  41.98700 40.37900 22.95900
C  41.55500 41.90400 23.03100
C  41.28400 42.17800 24.54400
C  43.00400 40.18900 21.86900
C  40.34100 42.20100 22.14000
C  38.90400 41.82800 22.62500
N  40.89400 42.92600 27.36400
C  40.74700 43.82700 26.34000
C  40.44700 45.12000 26.86600
C  40.36900 44.89200 28.25500
C  40.67800 43.54900 28.47900
C  40.25300 46.39000 26.11100
C  40.16800 45.52300 29.56900
O  39.90700 46.67400 29.94900
C  40.40500 44.39300 30.63600
C  41.54100 44.91900 31.47200
O  42.67400 45.27900 31.20700
O  41.00800 45.16800 32.74000
C  41.75300 45.97700 33.71500
H  42.92800 37.92500 30.58100
H  43.04900 38.13100 24.04800
H  40.60900 43.99000 24.09800
H  41.88100 42.18900 32.37900
H  40.99100 39.34200 32.10600
H  42.94600 39.19100 33.42000
H  43.42300 40.86100 32.99700
H  43.85000 39.53500 31.90700
H  39.40600 40.53600 32.94900
H  39.05400 41.97700 31.99700
H  39.64200 43.21400 34.06200
H  40.88100 42.13100 34.39400
H  43.09300 34.86400 28.79900
H  43.39100 36.03500 30.03600
H  44.70300 35.56400 29.00200
H  43.22800 33.92900 26.68800
H  44.90500 34.53500 26.76600
H  44.23100 33.80200 25.28200
H  41.06300 39.87600 22.67500
H  42.38000 42.52400 22.68200
H  43.25500 41.14000 21.39800
H  42.63800 39.50100 21.10800
H  43.88900 39.78800 22.36300
H  40.54500 41.63400 21.23200
H  40.34500 43.24400 21.82300
H  38.81200 41.19700 23.51000
H  38.54200 41.18000 21.82700
H  38.23700 42.69000 22.63800
H  40.74000 46.34600 25.13600
H  40.68000 47.16300 26.75000
H  39.17600 46.51400 26.00600
H  39.49300 44.22500 31.20900
H  42.03900 45.22100 34.44700
H  41.11900 46.74500 34.15600
H  42.73000 46.29900 33.35300

