158

Mg 31.09300 58.36800 40.31500
C  28.21700 56.76500 38.82100
C  33.01200 55.78100 38.98300
C  33.82400 60.27000 40.41500
C  29.11000 61.11300 41.07400
N  30.59300 56.48800 39.14500
C  29.36500 56.06800 38.65100
C  29.44000 54.66600 38.30400
C  30.91100 54.19100 38.80500
C  31.55200 55.57900 38.89600
C  30.73800 53.50200 40.21600
C  29.12700 54.40000 36.74900
C  29.19700 55.52100 35.74300
H  28.29800 55.45300 34.48400
N  33.22700 58.06500 39.84900
C  33.70600 56.89400 39.40700
C  35.14700 56.99400 39.21200
C  35.45300 58.35900 39.56400
C  34.19200 58.95000 40.01300
C  35.95100 55.98700 38.53900
C  36.80900 58.98800 39.44400
O  37.74900 58.48700 38.87500
C  37.01200 60.32800 40.02400
N  31.39500 60.37800 40.56500
C  32.63200 60.97300 40.62600
C  32.56400 62.46500 41.04200
C  31.03200 62.72600 41.41800
C  30.45300 61.33500 40.99600
C  33.59200 62.76400 42.21100
C  30.32700 63.88500 40.76500
C  29.50500 64.86300 41.61900
N  28.99900 58.81900 40.24800
C  28.35300 59.99400 40.55400
C  26.93100 59.79600 40.36900
C  26.80300 58.54100 39.66200
C  28.13700 57.99000 39.58700
C  25.85600 60.77100 40.74700
C  25.91000 57.60600 38.98100
O  24.73300 57.62700 38.71600
C  26.70500 56.41000 38.62400
C  26.23100 55.20600 39.32500
O  25.97600 55.12200 40.55200
O  26.01600 54.21600 38.42700
C  25.39700 53.04800 39.05700
H  33.55400 54.87100 38.71800
H  34.60400 61.03300 40.45200
H  28.63200 62.04400 41.38600
H  28.64900 54.15500 38.85200
H  31.44500 53.56300 38.09200
H  31.47800 52.70300 40.26000
H  29.78500 52.97600 40.16400
H  30.91100 54.25100 40.98900
H  28.11500 54.01600 36.62000
H  29.79000 53.62000 36.37600
H  30.20200 55.51600 35.32000
H  29.01500 56.51400 36.15500
H  35.72500 56.10500 37.48000
H  35.76600 54.94500 38.80100
H  36.99100 56.18800 38.79700
H  36.57200 60.38100 41.01900
H  36.48500 61.04000 39.38900
H  38.08200 60.53800 40.03800
H  32.75800 63.02200 40.12500
H  30.94000 62.72500 42.50400
H  34.50600 63.27400 41.90600
H  33.99900 61.84800 42.63900
H  33.14200 63.39600 42.97700
H  29.52900 63.53200 40.11200
H  31.02400 64.48100 40.17700
H  30.21300 65.59900 41.99800
H  28.92800 64.37200 42.40400
H  28.77700 65.44000 41.04800
H  25.74200 61.51600 39.96000
H  26.30300 61.31300 41.58200
H  24.91800 60.29300 41.02800
H  26.48800 56.28500 37.56300
H  25.53900 52.30700 38.27100
H  24.33600 53.16500 39.28000
H  25.92600 52.73200 39.95600
Mg 26.70200 50.85300 25.86900
C  24.94200 52.09000 28.69900
C  29.27400 50.24400 28.00900
C  28.34500 49.73600 23.23000
C  24.21500 52.21300 23.91700
N  27.03400 51.18600 28.08600
C  26.17900 51.50800 29.03900
C  26.71000 51.33500 30.49400
C  28.19200 51.06800 30.24200
C  28.18600 50.74500 28.65300
C  29.16000 52.20600 30.72200
C  25.89700 50.26900 31.24900
C  25.36100 50.61200 32.61600
H  26.43200 51.05700 33.63900
N  28.58700 50.17900 25.68400
C  29.51900 50.01100 26.64100
C  30.64600 49.41300 26.03500
C  30.39700 48.97800 24.70900
C  29.12500 49.66200 24.49200
C  31.84500 49.12800 26.88500
C  31.21200 48.14500 23.74300
O  30.88900 47.91200 22.58400
C  32.48700 47.48100 24.18100
N  26.36400 50.97300 23.81600
C  27.15700 50.32300 22.93300
C  26.44700 50.30100 21.52300
C  25.15600 51.18500 21.79800
C  25.21700 51.47700 23.23400
C  27.39800 50.72800 20.37500
C  23.74300 50.45400 21.44400
C  22.56900 51.34100 20.97900
N  25.00000 51.91300 26.18200
C  24.04300 52.36700 25.28500
C  23.00600 53.08100 25.92700
C  23.29200 52.99100 27.28400
C  24.51200 52.29300 27.37600
C  21.91300 53.80600 25.28500
C  22.84700 53.31700 28.55200
O  21.81300 53.93400 28.86700
C  23.92400 52.78800 29.55800
C  24.43400 53.82500 30.54300
O  25.23600 54.72000 30.30100
O  23.93500 53.59400 31.80400
C  24.32300 54.57900 32.85700
H  30.03800 50.08200 28.77200
H  28.96100 49.25200 22.46900
H  23.47100 52.67400 23.26500
H  26.52600 52.25600 31.04700
H  28.38500 50.11700 30.73700
H  28.77500 53.21800 30.59500
H  30.04500 52.14400 30.08800
H  29.49700 52.12900 31.75500
H  26.53100 49.38900 31.36200
H  25.08500 49.91400 30.61400
H  24.91200 49.67400 32.94400
H  24.52300 51.30700 32.67400
H  31.89500 49.75100 27.77700
H  32.78000 49.40700 26.39900
H  31.88600 48.10000 27.24600
H  33.02900 48.31800 24.62200
H  32.98400 47.06800 23.30400
H  32.30200 46.64000 24.84800
H  26.10400 49.31700 21.20300
H  25.22100 52.12600 21.25000
H  28.32200 51.06400 20.84500
H  26.90600 51.48200 19.76000
H  27.62300 49.89800 19.70600
H  23.36400 49.93700 22.32600
H  23.88800 49.74300 20.63100
H  22.15600 50.93200 20.05700
H  22.77200 52.41200 20.98900
H  21.64400 51.30900 21.55400
H  21.39700 53.24500 24.50700
H  22.30800 54.74000 24.88500
H  21.15100 53.96600 26.04900
H  23.34900 52.12900 30.20900
H  24.24700 55.60800 32.50600
H  25.31500 54.33200 33.23400
H  23.63500 54.52600 33.70000

