158

Mg 7.47500 54.46100 40.20200
C  6.87700 51.03900 40.31800
C  10.85400 53.84600 39.46100
C  7.96900 57.72600 39.46600
C  4.17500 55.13300 40.68500
N  8.65000 52.67100 39.73000
C  8.15100 51.35800 39.89000
C  9.33000 50.40000 39.66100
C  10.60700 51.31900 39.82000
C  10.08000 52.70500 39.67400
C  11.48100 51.09200 41.06800
C  9.30500 49.56000 38.29000
C  9.28400 50.55900 37.01100
H  7.82700 50.71100 36.39400
N  9.20600 55.56500 39.40900
C  10.50900 55.17400 39.37800
C  11.34600 56.29500 39.09600
C  10.54400 57.47900 39.09300
C  9.14900 56.93500 39.28100
C  12.88100 56.27200 38.87000
C  11.04200 58.97700 38.89200
O  12.21900 59.19400 38.66600
C  10.15500 60.15700 39.11400
N  6.22600 56.15700 39.99300
C  6.64200 57.42800 39.82600
C  5.53400 58.48900 39.90500
C  4.36300 57.63300 40.40300
C  4.97300 56.24100 40.43000
C  5.81000 59.79800 40.71800
C  3.15500 57.63600 39.41000
C  1.75100 57.46500 40.09600
N  5.76700 53.34400 40.40800
C  4.49200 53.70900 40.65100
C  3.73300 52.55800 41.06700
C  4.65000 51.51700 40.93300
C  5.84900 52.02500 40.46700
C  2.25100 52.52200 41.42500
C  4.82600 50.02700 41.13000
O  4.07900 49.18800 41.66000
C  6.27300 49.70200 40.67500
C  6.03100 48.71000 39.50500
O  5.55400 48.98000 38.40700
O  6.12300 47.42000 39.99500
C  6.04300 46.32700 39.02800
H  11.93600 53.69500 39.44700
H  8.10600 58.80000 39.32000
H  3.18100 55.25200 41.12000
H  9.27400 49.69200 40.48800
H  11.21800 51.14200 38.93500
H  11.08700 50.52400 41.91100
H  11.57900 52.11900 41.41900
H  12.49600 50.71600 40.94100
H  8.61300 48.72100 38.37200
H  10.29000 49.10800 38.17100
H  10.05600 50.21300 36.32300
H  9.56200 51.57700 37.28300
H  13.05400 56.80500 37.93500
H  13.20000 55.24900 38.67300
H  13.50000 56.69700 39.66000
H  9.33800 60.31100 38.40800
H  10.75000 61.05900 38.96700
H  9.78500 60.23900 40.13600
H  5.32200 58.78600 38.87800
H  4.05700 57.88000 41.41900
H  5.53500 60.56000 39.98900
H  6.81600 59.90900 41.12300
H  5.12500 59.80700 41.56600
H  3.28400 56.92600 38.59400
H  3.10700 58.60000 38.90300
H  1.89800 57.23400 41.15100
H  1.18100 56.78600 39.46100
H  1.13800 58.36500 40.09400
H  2.00800 51.69900 42.09700
H  1.70500 52.43700 40.48600
H  1.96800 53.40700 41.99400
H  6.87300 49.23400 41.45600
H  6.44200 45.38100 39.39500
H  6.69800 46.53700 38.18300
H  5.00600 46.14400 38.74600
Mg 16.60800 51.64700 24.87300
C  18.37000 50.53600 27.70000
C  14.10100 52.65500 26.95500
C  14.60000 52.18300 22.29600
C  18.95600 50.06200 22.83600
N  16.31700 51.49700 27.06400
C  17.24900 51.20700 27.97800
C  16.83000 51.63300 29.40100
C  15.32100 52.09700 29.12400
C  15.23400 52.14400 27.60900
C  14.28300 51.18900 29.89500
C  17.70400 52.84000 29.93600
C  17.93300 52.87400 31.51800
H  17.20800 52.03000 32.41500
N  14.67900 52.45600 24.67100
C  13.81400 52.85800 25.63900
C  12.64500 53.41300 25.02600
C  12.74300 53.26200 23.67800
C  14.06300 52.69400 23.47300
C  11.47000 54.05200 25.77800
C  11.71200 53.57500 22.64700
O  11.89600 53.36700 21.47400
C  10.33500 53.93400 23.04300
N  16.71400 51.29600 22.88700
C  15.81500 51.60600 21.97100
C  16.24900 51.33800 20.55600
C  17.70200 50.66200 20.73500
C  17.79500 50.70500 22.27500
C  15.22000 50.59000 19.66200
C  18.92000 51.40800 20.04600
C  19.88900 50.54100 19.15100
N  18.28400 50.47700 25.19500
C  19.24300 50.03400 24.22800
C  20.34000 49.40900 24.97100
C  20.04600 49.58100 26.33800
C  18.78100 50.28200 26.38000
C  21.62000 48.79800 24.35600
C  20.54200 49.40200 27.65600
O  21.62100 48.99900 28.02200
C  19.41600 49.94900 28.58400
C  18.91500 48.71700 29.33700
O  18.11800 47.89000 28.91400
O  19.34200 48.77600 30.68100
C  18.66100 47.85400 31.63400
H  13.40400 53.16100 27.62600
H  13.94500 52.30500 21.43100
H  19.73600 49.67100 22.17900
H  16.80400 50.74400 30.03000
H  15.21200 53.10800 29.51500
H  13.79300 50.71100 29.04600
H  13.63900 51.84900 30.47700
H  14.82200 50.57200 30.61300
H  17.17500 53.77600 29.75900
H  18.59100 52.68600 29.32100
H  17.94400 53.91900 31.82500
H  18.99900 52.68900 31.65400
H  10.64700 53.35000 25.90900
H  11.04300 54.96300 25.35800
H  11.81800 54.32200 26.77500
H  10.27200 54.96000 23.40700
H  9.99500 53.16500 23.73700
H  9.68500 53.94500 22.16800
H  16.33100 52.29200 20.03600
H  17.74400 49.61400 20.44200
H  14.74200 51.37200 19.07200
H  14.40400 50.08500 20.18100
H  15.72400 49.90000 18.98500
H  19.49100 52.00600 20.75700
H  18.61500 52.06400 19.23100
H  19.87900 50.92000 18.13000
H  19.57600 49.49800 19.19100
H  20.87200 50.78800 19.55300
H  22.15000 49.52700 23.74300
H  21.26000 47.96600 23.75100
H  22.30900 48.39500 25.09900
H  19.73300 50.73600 29.26800
H  18.42100 46.90100 31.16400
H  17.89400 48.31800 32.25500
H  19.45400 47.50300 32.29500

