158

Mg 48.92900 34.19100 27.02800
C  46.43800 33.00900 29.27900
C  49.42900 36.88200 28.98000
C  50.80200 35.47300 24.61100
C  47.96800 31.50500 24.92900
N  48.01900 34.83500 28.89100
C  47.14400 34.15900 29.71500
C  47.07400 34.81800 31.04400
C  47.76200 36.21900 30.73400
C  48.46200 35.98300 29.43400
C  46.85800 37.50300 30.63400
C  47.81500 33.91700 32.05400
C  47.48900 33.99300 33.54200
H  46.50900 34.94400 34.15600
N  50.11500 35.98200 26.82900
C  50.22200 36.92600 27.79900
C  51.19400 37.93900 27.42600
C  51.65000 37.53900 26.09000
C  50.82400 36.28700 25.74200
C  51.59500 39.11200 28.28100
C  52.80100 38.19000 25.17400
O  53.14100 37.65400 24.10700
C  53.58800 39.37800 25.72600
N  49.07400 33.65100 24.95000
C  50.13200 34.30800 24.28700
C  50.43000 33.63900 22.97600
C  49.68400 32.20100 23.15400
C  48.86800 32.42800 24.45600
C  49.72600 34.32700 21.69000
C  50.64600 30.94500 23.31100
C  52.14400 31.10400 22.99500
N  47.49500 32.55200 27.04200
C  47.18200 31.59100 26.12500
C  46.14900 30.67900 26.62800
C  45.79100 31.26400 27.80500
C  46.61000 32.35800 28.04300
C  45.53300 29.50500 25.86000
C  44.88200 31.13000 28.84900
O  44.01300 30.30900 29.06200
C  45.18300 32.30100 29.88400
C  45.48700 31.65200 31.14000
O  46.28600 30.74000 31.35100
O  44.60600 32.15100 31.99100
C  44.58200 31.53400 33.31000
H  49.62400 37.71300 29.66200
H  51.28700 35.92700 23.74400
H  47.75400 30.63200 24.30800
H  46.02700 34.77400 31.34500
H  48.48700 36.49400 31.50000
H  47.14700 38.20700 31.41500
H  45.87300 37.08700 30.84500
H  46.78700 37.98300 29.65800
H  48.87200 34.16700 31.95900
H  47.63300 32.86100 31.85400
H  48.40900 34.15400 34.10300
H  47.11000 33.00200 33.79200
H  50.87400 39.28500 29.08000
H  51.64200 40.08400 27.78900
H  52.56000 39.02700 28.78000
H  52.95000 40.25400 25.85000
H  54.24600 39.82200 24.97900
H  54.18800 39.22300 26.62300
H  51.50400 33.72900 22.81800
H  48.96400 32.01300 22.35700
H  49.96300 33.74400 20.80000
H  50.21200 35.29900 21.61300
H  48.65000 34.39100 21.85600
H  50.17600 30.06600 22.87000
H  50.68900 30.71400 24.37600
H  52.74900 31.65100 23.71900
H  52.16400 31.46400 21.96700
H  52.48400 30.07300 23.09600
H  44.88400 28.92800 26.51900
H  46.39700 28.92000 25.54600
H  44.95000 29.88700 25.02200
H  44.42200 33.08100 29.91000
H  45.58000 31.59000 33.74300
H  44.33600 30.47400 33.24300
H  43.92600 32.07800 33.98900
Mg 27.48100 49.84100 25.88600
C  25.49500 51.00500 28.61800
C  29.77600 48.75100 28.25000
C  29.40100 48.71000 23.38400
C  25.37600 51.36400 23.73400
N  27.51600 49.80100 28.20700
C  26.61800 50.28700 29.11600
C  27.03000 49.98500 30.62400
C  28.55000 49.79100 30.37200
C  28.70500 49.49400 28.81600
C  29.36400 51.12100 30.68000
C  26.36000 48.72300 31.33600
C  25.69300 48.88200 32.69400
H  26.42100 49.61500 33.84000
N  29.28800 48.80100 25.75300
C  30.04200 48.42400 26.90200
C  31.14200 47.55400 26.47300
C  30.98500 47.45800 25.06500
C  29.91600 48.34000 24.67500
C  32.10700 46.83600 27.38200
C  31.65100 46.57200 24.10600
O  31.39200 46.60100 22.88800
C  32.68900 45.62000 24.55200
N  27.59400 50.16600 23.84000
C  28.36300 49.51500 22.98000
C  27.83500 49.47700 21.57400
C  26.40700 50.17800 21.70100
C  26.44000 50.62600 23.13100
C  28.77600 50.23800 20.53200
C  25.28100 49.10100 21.40900
C  25.11000 47.97900 22.47000
N  25.77700 51.01300 26.07600
C  25.05100 51.59200 25.05000
C  23.82200 52.17200 25.58800
C  23.97000 51.97700 27.00400
C  25.22200 51.32200 27.24800
C  22.67300 52.85700 24.71900
C  23.35400 52.30800 28.30900
O  22.39000 53.09900 28.54800
C  24.26500 51.57800 29.44400
C  24.64300 52.58200 30.50100
O  25.18000 53.63900 30.26100
O  24.19200 52.10600 31.74200
C  24.55100 52.86900 32.94600
H  30.50200 48.45000 29.00800
H  29.75100 48.25900 22.45300
H  24.53900 51.40200 23.03300
H  26.82900 50.89200 31.19300
H  28.98300 49.02600 31.01700
H  30.15600 51.26500 29.94500
H  29.79000 51.07700 31.68300
H  28.69200 51.96900 30.55300
H  27.06900 47.89800 31.40300
H  25.51800 48.47200 30.69000
H  25.41000 47.87600 33.00200
H  24.79600 49.49500 32.61100
H  31.84400 46.98300 28.43000
H  33.14500 47.14900 27.27000
H  32.00500 45.76800 27.19400
H  32.10900 44.99500 25.23000
H  33.54000 46.13600 24.99600
H  33.05000 45.04700 23.69800
H  27.73300 48.45400 21.21300
H  26.40700 50.98500 20.96900
H  29.80400 50.06600 20.84800
H  28.55100 51.29700 20.40100
H  28.61300 49.71000 19.59200
H  25.61400 48.58300 20.51000
H  24.33000 49.57100 21.15800
H  25.51200 48.28000 23.43700
H  25.66800 47.08500 22.19400
H  24.09400 47.68500 22.73400
H  22.60800 52.38000 23.74100
H  23.01100 53.89000 24.64300
H  21.71100 52.79300 25.22800
H  23.88000 50.66000 29.88800
H  23.93800 53.76600 33.02900
H  25.62500 53.05100 32.99900
H  24.48000 52.13900 33.75200

