158

Mg 40.70700 9.76400 29.26300
C  42.61900 10.82800 31.93600
C  38.63400 8.01200 31.42900
C  39.34800 7.87700 26.52700
C  43.24000 10.87700 27.07100
N  40.76000 9.35900 31.51700
C  41.50700 10.08100 32.41300
C  41.02400 9.82600 33.81100
C  39.64500 9.14200 33.58800
C  39.69600 8.74500 32.09300
C  39.37600 7.86600 34.49500
C  40.98200 10.99100 34.75600
C  41.46200 10.75600 36.21900
H  40.86500 11.47100 37.38200
N  39.14800 8.28500 29.00800
C  38.32500 7.78100 30.02300
C  37.29200 6.98700 29.45200
C  37.49900 6.92700 28.08400
C  38.70200 7.74300 27.81800
C  36.15600 6.30600 30.36400
C  36.63600 6.23900 27.00800
O  36.86800 6.40300 25.79900
C  35.44500 5.37800 27.37000
N  41.26100 9.33700 27.11100
C  40.49400 8.55600 26.22800
C  40.91300 8.87100 24.81800
C  42.19000 9.78800 25.03000
C  42.27100 10.00200 26.48800
C  41.19100 7.55900 24.06900
C  42.26500 10.98600 24.11500
C  41.75400 12.36200 24.61800
N  42.52400 10.82100 29.41100
C  43.45300 11.19900 28.43100
C  44.58200 11.85800 29.08200
C  44.28300 11.77700 30.44800
C  43.03200 11.07400 30.60300
C  45.68500 12.55000 28.39500
C  44.72300 12.18300 31.75400
O  45.67900 12.79000 32.17000
C  43.65000 11.57300 32.72200
C  44.39300 10.72100 33.77200
O  44.66700 9.54200 33.79200
O  44.82300 11.59600 34.74300
C  45.51700 11.14100 35.90100
H  37.85700 7.68900 32.12500
H  38.89400 7.35800 25.68100
H  43.91000 11.33800 26.34200
H  41.80700 9.17900 34.20600
H  38.79100 9.81200 33.69100
H  39.84600 7.00400 34.02100
H  38.33600 7.63200 34.72300
H  39.80500 7.93800 35.49400
H  39.91200 11.17700 34.84200
H  41.37600 11.90500 34.31100
H  42.48900 11.12100 36.24900
H  41.33800 9.73800 36.58800
H  36.24500 5.22000 30.32700
H  35.17700 6.53700 29.94400
H  36.14200 6.71200 31.37600
H  34.96100 5.16200 26.41700
H  34.80800 5.98700 28.01100
H  35.76400 4.53400 27.98200
H  40.11300 9.48000 24.39700
H  43.08500 9.21000 24.80100
H  42.18600 7.55900 23.62200
H  40.56100 7.33400 23.20900
H  41.21900 6.69200 24.72900
H  41.76900 10.73100 23.17900
H  43.29700 11.17200 23.81800
H  42.58600 13.03400 24.82900
H  41.19800 12.24600 25.54800
H  41.15100 12.81000 23.82800
H  45.47000 12.59100 27.32700
H  46.57100 11.92400 28.50000
H  45.86600 13.47300 28.94700
H  43.08100 12.33700 33.25200
H  44.86200 11.26400 36.76300
H  46.30900 11.87100 36.06800
H  45.83500 10.09800 35.89200
Mg -1.76800 34.45100 27.24100
C  -3.39600 32.42400 29.58400
C  -0.30000 36.21000 29.78800
C  -0.61600 36.60100 25.04700
C  -3.61700 32.76900 24.74300
N  -2.02600 34.46600 29.34800
C  -2.69100 33.55100 30.13500
C  -2.54600 33.84500 31.61100
C  -1.71400 35.16400 31.68800
C  -1.36600 35.34100 30.21900
C  -2.54400 36.34500 32.26600
C  -1.80200 32.58900 32.32200
C  -2.57500 31.99600 33.53300
H  -1.80400 31.81900 34.75300
N  -0.58500 36.20700 27.33000
C  -0.04900 36.76700 28.51300
C  0.89500 37.79400 28.14100
C  0.80100 37.95000 26.70400
C  -0.10900 36.89900 26.32200
C  1.86500 38.47700 29.04200
C  1.64400 38.74500 25.79700
O  1.61400 38.65800 24.54200
C  2.62100 39.68900 26.36900
N  -2.21300 34.73400 25.23300
C  -1.58400 35.68700 24.49600
C  -2.00100 35.73700 23.00400
C  -2.78200 34.34400 22.90900
C  -2.91200 33.90100 24.38100
C  -2.84500 37.04300 22.68900
C  -2.01200 33.26000 22.04800
C  -2.81200 32.40500 21.08400
N  -3.16700 32.86800 27.02300
C  -3.78000 32.25100 25.97100
C  -4.52500 31.11100 26.40100
C  -4.40500 31.15200 27.82600
C  -3.59300 32.24700 28.13100
C  -5.15100 30.00000 25.56300
C  -4.75500 30.50300 29.04200
O  -5.36500 29.43300 29.24200
C  -4.19600 31.38300 30.25500
C  -5.28300 31.90800 31.13800
O  -5.95200 32.89600 30.95400
O  -5.47100 31.06100 32.20800
C  -6.32400 31.55000 33.22800
H  0.31800 36.75300 30.50600
H  -0.09200 37.31500 24.40900
H  -4.18500 32.18000 24.01900
H  -3.55400 33.89900 32.02200
H  -0.78200 34.96300 32.21500
H  -2.09600 36.53500 33.24100
H  -3.57500 36.08700 32.51200
H  -2.44100 37.21800 31.62200
H  -0.83000 32.93000 32.67600
H  -1.73900 31.80800 31.56400
H  -2.81900 30.98500 33.20500
H  -3.49700 32.57100 33.62400
H  2.90900 38.41500 28.73300
H  1.65500 38.19200 30.07300
H  1.65600 39.54600 29.00600
H  2.72400 40.53100 25.68500
H  3.55900 39.21400 26.65800
H  2.26700 40.28400 27.21100
H  -1.18900 35.74300 22.27600
H  -3.76800 34.49500 22.46900
H  -2.30400 37.72500 22.03300
H  -3.05600 37.42600 23.68700
H  -3.81900 36.81700 22.25600
H  -1.43200 32.67400 22.76100
H  -1.28200 33.71900 21.38200
H  -2.31200 32.28500 20.12300
H  -3.78100 32.88800 20.95900
H  -2.93800 31.41400 21.52000
H  -6.02300 30.24900 24.95800
H  -5.47400 29.20100 26.23100
H  -4.32000 29.52200 25.04500
H  -3.59800 30.66100 30.81100
H  -6.30600 32.61000 33.48100
H  -6.13600 30.87000 34.05800
H  -7.33100 31.37500 32.85000

