158

Mg 1.83400 -1.31600 43.70400
C  5.31600 -0.70900 43.14200
C  1.15800 1.66100 42.11200
C  -1.31600 -2.40300 43.42700
C  2.73400 -4.41100 45.22100
N  3.07400 0.23800 42.53300
C  4.42700 0.32300 42.57400
C  4.89800 1.48000 41.73500
C  3.65000 2.35200 41.59500
C  2.51600 1.36500 42.08700
C  3.66500 3.54600 42.52800
C  5.54600 1.00100 40.45900
C  6.81800 1.75300 39.98000
H  6.67600 2.28800 38.52600
N  0.11700 -0.51000 42.92000
C  0.08100 0.74600 42.39700
C  -1.30000 1.02900 42.18200
C  -2.05400 -0.11900 42.42000
C  -1.10400 -1.09400 42.90900
C  -1.74400 2.37100 41.73200
C  -3.56500 -0.27500 42.32100
O  -4.21000 0.66900 41.80900
C  -4.49400 -1.50200 42.54200
N  0.86100 -3.20700 44.27100
C  -0.46400 -3.35500 44.05600
C  -0.97800 -4.69600 44.46100
C  0.31000 -5.24400 45.19000
C  1.40600 -4.29300 44.81200
C  -2.20800 -4.66200 45.28200
C  0.56200 -6.70300 44.80300
C  0.54800 -7.61700 46.07500
N  3.60000 -2.37900 44.15700
C  3.78700 -3.60500 44.79700
C  5.27400 -3.78300 45.03900
C  5.90900 -2.71200 44.34600
C  4.81900 -1.87900 43.77900
C  5.94500 -4.90800 45.67000
C  7.17700 -2.11000 43.96700
O  8.30000 -2.58100 44.17500
C  6.87000 -0.68000 43.31400
C  7.21500 0.38900 44.16500
O  6.50500 0.91300 45.01600
O  8.49900 0.73000 43.86800
C  8.77200 2.13800 44.16600
H  0.98400 2.60200 41.58500
H  -2.38200 -2.64000 43.43000
H  3.05900 -5.29000 45.78200
H  5.64600 1.94100 42.37900
H  3.54100 2.71100 40.57100
H  3.05900 3.48300 43.43200
H  3.47700 4.42000 41.90400
H  4.64800 3.65200 42.98800
H  4.73900 0.99000 39.72700
H  5.95800 0.00100 40.59000
H  7.61300 1.00700 39.95400
H  7.10600 2.67200 40.49200
H  -2.77800 2.59400 41.46800
H  -1.09500 2.71500 40.92700
H  -1.50700 2.96100 42.61600
H  -5.52700 -1.43300 42.20200
H  -4.63500 -1.82700 43.57400
H  -4.20000 -2.33500 41.90400
H  -1.18400 -5.23000 43.53400
H  0.29600 -4.98500 46.24900
H  -2.28100 -5.42700 46.05500
H  -3.11700 -4.66000 44.67900
H  -2.16400 -3.67000 45.73200
H  1.49500 -6.76600 44.24300
H  -0.21800 -7.08700 44.14500
H  1.55500 -8.03000 46.13800
H  -0.05400 -8.44800 45.70800
H  0.16800 -7.12600 46.97100
H  6.73900 -4.60800 46.35400
H  6.43700 -5.28400 44.77300
H  5.21200 -5.53500 46.17900
H  7.36800 -0.61600 42.34700
H  9.29600 2.57300 43.31500
H  9.55700 2.21800 44.91800
H  7.89100 2.74000 44.38700
Mg 46.97400 34.17000 27.40700
C  45.29700 32.88100 30.11400
C  47.70500 36.80200 29.21200
C  48.26000 35.60600 24.61800
C  45.98300 31.39700 25.52800
N  46.76600 34.51900 29.64700
C  46.00400 33.97500 30.53100
C  45.96200 34.72500 31.81900
C  46.57700 36.08200 31.44600
C  47.13600 35.83400 30.02900
C  45.70200 37.27700 31.70600
C  46.69100 33.91900 32.98300
C  46.18800 34.01700 34.38100
H  45.78500 35.38800 34.92700
N  47.76400 36.04800 26.92000
C  47.98100 37.00400 27.85700
C  48.73900 38.06600 27.29000
C  48.91600 37.83300 25.90200
C  48.30600 36.45200 25.74500
C  49.19000 39.25300 28.05000
C  49.55400 38.65600 24.72700
O  49.84800 38.07700 23.67900
C  49.86400 40.19500 24.92100
N  47.16500 33.53500 25.45700
C  47.78400 34.30300 24.49400
C  47.78900 33.57900 23.14900
C  47.32900 32.16700 23.55200
C  46.73000 32.38300 24.93000
C  46.78900 34.07300 21.92700
C  48.48600 31.03600 23.50100
C  49.07800 30.80900 22.12200
N  46.00400 32.43800 27.71000
C  45.62300 31.42300 26.88000
C  44.78100 30.46900 27.61400
C  44.62500 31.02200 28.79500
C  45.34100 32.21300 28.85200
C  44.22600 29.26400 27.08500
C  43.98200 30.82600 30.15100
O  43.35000 29.89600 30.56000
C  44.17000 32.13000 30.91500
C  44.42600 31.79300 32.40900
O  45.30900 31.07000 32.78700
O  43.34800 32.27700 33.12300
C  43.04600 31.71000 34.48600
H  47.91000 37.75600 29.70300
H  48.72600 36.01800 23.72100
H  45.61200 30.51700 24.99900
H  44.91800 34.90200 32.07900
H  47.38500 36.33200 32.13400
H  44.82300 37.05300 32.31100
H  45.39900 37.75200 30.77300
H  46.18700 37.95800 32.40500
H  47.66700 34.40000 33.05700
H  46.87000 32.88700 32.68000
H  46.95400 33.61700 35.04500
H  45.34300 33.33800 34.48900
H  50.27700 39.28100 28.12100
H  48.71700 39.35600 29.02600
H  48.93000 40.07300 27.38000
H  48.92500 40.74900 24.92200
H  50.48300 40.51700 24.08400
H  50.46800 40.40300 25.80400
H  48.82500 33.53800 22.81300
H  46.51100 31.75200 22.96300
H  45.88300 33.49300 21.75200
H  47.21200 34.03100 20.92400
H  46.64000 35.14600 21.81000
H  48.05100 30.18000 24.01600
H  49.24500 31.26800 24.24900
H  50.15500 30.68500 22.24100
H  49.07800 31.60700 21.38000
H  48.61700 29.90500 21.72200
H  44.37200 28.45800 27.80400
H  44.74700 28.86100 26.21700
H  43.21500 29.52700 26.77700
H  43.24200 32.68900 30.78900
H  43.91500 31.36400 35.04500
H  42.45500 30.81700 34.28100
H  42.45400 32.35100 35.13800

