158

Mg 35.84200 1.50000 29.46600
C  33.64500 2.50200 32.07200
C  38.39600 1.67800 31.73200
C  37.88500 0.86300 26.91800
C  33.06900 1.63500 27.26200
N  36.00300 2.08700 31.60700
C  34.95500 2.40900 32.52600
C  35.43400 2.43600 33.89200
C  36.99900 2.29100 33.75000
C  37.21500 2.06700 32.28500
C  37.75500 3.55900 34.32500
C  34.89400 1.17500 34.65400
C  34.54100 1.47900 36.13700
H  35.25500 2.60100 36.82300
N  37.82100 1.25000 29.36300
C  38.73200 1.26400 30.44000
C  40.08000 0.98700 29.90000
C  40.00200 0.94100 28.50300
C  38.54100 1.03200 28.17200
C  41.35600 0.65300 30.81400
C  41.02400 0.63700 27.46700
O  40.81800 0.52600 26.28500
C  42.50300 0.64100 27.95600
N  35.49000 1.08000 27.35700
C  36.54100 0.89400 26.50800
C  36.05700 0.86100 25.04000
C  34.54700 0.97300 25.17500
C  34.28600 1.24500 26.66900
C  36.65600 1.99100 24.11700
C  33.73200 -0.21400 24.61000
C  32.66100 0.04800 23.56100
N  33.79500 1.89900 29.60600
C  32.80500 1.95700 28.61900
C  31.51300 2.36100 29.17900
C  31.83000 2.49700 30.51800
C  33.17200 2.26900 30.73000
C  30.15400 2.62700 28.53900
C  31.14700 2.80200 31.81000
O  29.96600 2.92900 32.06000
C  32.32900 2.84300 32.81200
C  32.30400 4.13200 33.51200
O  32.88800 5.12800 33.19700
O  31.60100 4.00100 34.75300
C  31.33200 5.14700 35.63300
H  39.18100 1.93100 32.44800
H  38.52100 0.82900 26.03000
H  32.24400 1.63100 26.54600
H  35.14000 3.40000 34.30700
H  37.34600 1.37800 34.23300
H  38.35600 3.18600 35.15500
H  37.09900 4.41100 34.50500
H  38.49000 4.02600 33.67100
H  35.45800 0.25400 34.50400
H  33.89600 0.99600 34.25500
H  34.62300 0.54300 36.69000
H  33.51600 1.83100 36.25900
H  42.11600 1.40100 30.58800
H  41.78200 -0.33100 30.61800
H  41.12900 0.63100 31.88000
H  42.61200 1.53100 28.57600
H  43.17600 0.59800 27.09900
H  42.59900 -0.28000 28.53000
H  36.54300 0.02500 24.53600
H  34.18900 1.89700 24.72000
H  37.13800 2.67300 24.81900
H  35.84100 2.47300 23.57600
H  37.36700 1.55700 23.41400
H  33.46800 -0.91000 25.40600
H  34.47900 -0.82700 24.10500
H  33.15300 -0.34200 22.67000
H  32.44300 1.08300 23.29700
H  31.78000 -0.56200 23.76200
H  29.68500 1.67600 28.28800
H  30.24600 3.24400 27.64500
H  29.48100 3.15800 29.21200
H  32.04700 2.08200 33.53900
H  31.69000 4.91600 36.63600
H  30.32800 5.57200 35.62100
H  31.89300 5.97800 35.20600
Mg 36.53000 49.66000 25.51200
C  36.73700 47.86000 28.37800
C  35.60000 52.48000 27.38100
C  36.12900 51.37000 22.61900
C  37.76800 46.97900 23.69400
N  36.08400 50.13100 27.66600
C  36.37600 49.18000 28.70500
C  36.59200 49.86800 30.01800
C  36.10100 51.31700 29.68600
C  35.80400 51.35700 28.19500
C  34.75300 51.68200 30.51300
C  38.08300 49.77400 30.50800
C  38.36300 49.70600 32.00600
H  37.17700 49.55300 32.96700
N  35.92600 51.69000 25.06700
C  35.61300 52.63900 25.99600
C  35.18500 53.85900 25.26800
C  35.31300 53.62400 23.89600
C  35.73800 52.17700 23.80800
C  34.80100 55.15600 25.97800
C  35.07400 54.49500 22.73000
O  35.31000 54.12100 21.55200
C  34.77300 55.93300 22.85800
N  36.78600 49.19300 23.42500
C  36.58100 50.05500 22.42900
C  36.90800 49.44800 21.06800
C  37.67800 48.26000 21.46600
C  37.39400 48.12100 22.93700
C  35.64800 49.15700 20.23000
C  39.16500 48.29800 21.10100
C  40.15800 47.09100 21.35700
N  36.99000 47.69800 25.87200
C  37.43100 46.75600 25.05300
C  37.65300 45.53500 25.81800
C  37.48000 45.88800 27.19400
C  36.99400 47.25400 27.13300
C  37.97800 44.30900 25.18900
C  37.48300 45.46000 28.61000
O  37.64400 44.39100 29.17200
C  37.00700 46.71900 29.40600
C  35.79900 46.37300 30.22900
O  34.63200 46.63500 29.92700
O  36.17000 45.73400 31.33800
C  35.19400 45.39900 32.38000
H  35.44400 53.42200 27.91200
H  36.04400 51.80300 21.62100
H  38.20700 46.19800 23.06900
H  35.86200 49.38500 30.66800
H  36.83000 52.03800 30.05800
H  34.50000 50.96600 31.29400
H  33.94300 51.83400 29.80000
H  34.76100 52.57300 31.14000
H  38.58100 50.64300 30.07800
H  38.52100 48.94100 29.95700
H  39.03900 50.48000 32.36700
H  38.88800 48.78600 32.26300
H  35.51600 55.94300 25.74100
H  34.76300 55.08700 27.06500
H  33.83200 55.54300 25.66100
H  34.59800 56.37700 21.87800
H  35.64100 56.42200 23.30000
H  33.89600 56.04100 23.49600
H  37.46400 50.15300 20.44900
H  37.25100 47.30400 21.16300
H  34.85100 48.63800 20.76400
H  35.90900 48.61300 19.32200
H  35.30200 50.14400 19.92200
H  39.42100 49.18600 21.67900
H  39.27000 48.67200 20.08300
H  40.84800 47.00500 20.51800
H  39.58600 46.16400 21.41200
H  40.73400 47.27600 22.26400
H  37.61400 44.28200 24.16200
H  37.36000 43.52900 25.63200
H  39.06400 44.25500 25.10900
H  37.70600 47.01300 30.18900
H  35.66300 45.68000 33.32300
H  34.86000 44.36200 32.40900
H  34.26000 45.95100 32.26700

