158

Mg 53.54700 24.36800 44.70000
C  50.73200 26.38600 44.23700
C  51.73000 21.71900 44.23500
C  56.53500 22.55000 44.13400
C  55.49300 27.29000 45.13500
N  51.43200 24.16100 44.21300
C  50.45900 25.05700 44.01100
C  49.13100 24.36800 43.69600
C  49.45100 22.87600 43.92200
C  50.96100 22.89700 44.23200
C  48.58500 22.07200 44.97100
C  48.54600 24.64600 42.26400
C  49.50200 24.59700 41.10200
H  49.04600 24.37500 39.64500
N  54.05400 22.29300 44.31800
C  53.14500 21.37500 44.22800
C  53.76600 20.07100 43.98100
C  55.17900 20.24600 44.01000
C  55.32500 21.73500 44.11700
C  52.96900 18.82200 43.92800
C  56.24300 19.15200 44.01400
O  56.00100 17.98400 43.89800
C  57.68800 19.51700 44.24700
N  55.80700 24.91300 44.74700
C  56.78800 23.97500 44.35700
C  58.14900 24.75900 44.28600
C  57.78500 26.24700 44.58100
C  56.28100 26.15400 44.90700
C  59.26700 24.21100 45.23100
C  58.15600 27.36200 43.51600
C  59.51800 28.09500 43.74200
N  53.20400 26.36300 44.81500
C  54.13200 27.45200 45.02400
C  53.36500 28.67400 45.06700
C  52.06300 28.28900 44.73700
C  52.03300 26.91200 44.61500
C  53.93500 30.00400 45.22000
C  50.75000 28.81400 44.58800
O  50.24100 29.96400 44.70600
C  49.83200 27.65700 44.13000
C  49.38700 27.90800 42.74500
O  50.13900 28.12000 41.81200
O  48.10400 28.43000 42.86000
C  47.45600 28.97000 41.63400
H  51.10000 20.83200 44.14000
H  57.53000 22.12400 43.98800
H  56.00300 28.24900 45.24800
H  48.36600 24.73500 44.38000
H  49.23900 22.21900 43.07800
H  48.29700 22.64600 45.85200
H  49.08700 21.22600 45.44100
H  47.73000 21.74700 44.37900
H  48.02100 25.59400 42.14700
H  47.87000 23.85300 41.94600
H  50.31500 23.87300 41.15800
H  50.11100 25.49600 41.19200
H  53.52500 17.91400 43.69100
H  52.13900 18.75300 43.22500
H  52.67700 18.68500 44.96900
H  58.24600 18.59700 44.41900
H  57.69000 19.91700 45.26100
H  58.01400 20.20300 43.46400
H  58.50200 24.77700 43.25500
H  58.29600 26.55000 45.49500
H  58.81400 23.55900 45.97800
H  59.69700 25.01900 45.82300
H  60.04100 23.74400 44.62200
H  57.39000 28.13600 43.47300
H  58.21700 26.98100 42.49700
H  59.37500 29.17500 43.71500
H  60.29300 27.90600 42.99900
H  59.99700 27.87000 44.69500
H  53.91700 30.31800 44.17700
H  54.90000 30.00200 45.72700
H  53.18700 30.46400 45.86700
H  48.98400 27.59700 44.81200
H  46.53300 29.43300 41.98500
H  47.11900 28.04200 41.17400
H  47.91200 29.69500 40.96000
Mg 17.04300 52.47900 26.28900
C  18.97000 51.11500 28.82900
C  14.77900 53.50100 28.73000
C  14.93400 53.40700 23.84500
C  19.39000 51.54400 23.95200
N  16.97800 52.34700 28.57000
C  17.85900 51.81000 29.35200
C  17.65300 52.14400 30.75800
C  16.12300 52.60400 30.72600
C  15.96500 52.93000 29.28300
C  15.05100 51.56000 31.21500
C  18.66200 53.16500 31.40400
C  18.74200 53.16800 32.90600
H  17.74100 52.24400 33.66900
N  15.17400 53.36400 26.26300
C  14.44300 53.78600 27.37300
C  13.18900 54.31500 26.90900
C  13.26900 54.33400 25.48900
C  14.46700 53.64600 25.14900
C  12.03700 54.79900 27.79400
C  12.32600 54.92000 24.38400
O  12.44200 54.86500 23.14200
C  11.19300 55.90800 24.75700
N  17.18900 52.39400 24.25300
C  16.12600 52.76700 23.43300
C  16.48700 52.62200 21.94100
C  17.93900 52.08200 22.01000
C  18.21300 52.08000 23.47600
C  15.46200 51.79200 21.28500
C  19.00900 52.93000 21.23600
C  19.58600 54.15600 21.90800
N  18.85800 51.64900 26.31300
C  19.69000 51.25200 25.27900
C  20.73400 50.45600 25.77200
C  20.54600 50.35000 27.13800
C  19.42100 51.17100 27.46700
C  21.69900 49.67500 24.95900
C  21.02600 49.78300 28.34600
O  22.01100 49.11700 28.59500
C  20.11300 50.35700 29.51400
C  19.74700 49.32600 30.53800
O  18.76500 48.57100 30.46400
O  20.52600 49.52200 31.62800
C  20.41900 48.47900 32.65400
H  14.09400 53.92400 29.46800
H  14.30100 53.67500 22.99700
H  20.08600 51.15800 23.20400
H  17.71200 51.25200 31.38200
H  15.97100 53.53700 31.26900
H  14.66700 50.90400 30.43300
H  14.24900 52.06500 31.75400
H  15.54400 50.90800 31.93600
H  18.20300 54.09700 31.07600
H  19.68600 53.09200 31.03800
H  18.80700 54.22400 33.16800
H  19.69700 52.69600 33.13400
H  12.17900 54.44300 28.81500
H  11.14900 54.32100 27.38000
H  11.93900 55.88400 27.82300
H  10.77200 56.40800 23.88400
H  11.41000 56.69400 25.48100
H  10.47300 55.27800 25.27700
H  16.45800 53.59800 21.45700
H  18.00800 51.04900 21.66900
H  14.78600 52.46100 20.75200
H  14.81100 51.24800 21.97000
H  15.87900 51.09500 20.55800
H  18.55300 53.28500 20.31100
H  19.80200 52.27400 20.87800
H  20.65700 53.97000 21.98800
H  19.23900 54.32800 22.92600
H  19.36200 55.09700 21.40600
H  21.27600 49.31200 24.02200
H  22.00500 48.79000 25.51600
H  22.62900 50.22600 24.82500
H  20.63700 51.20700 29.95000
H  20.07600 47.51400 32.28100
H  19.75200 48.84800 33.43300
H  21.38200 48.38800 33.15600

