158

Mg 46.96000 17.01700 28.39600
C  44.95300 16.69600 31.07300
C  49.18700 18.83800 30.56200
C  48.72600 17.87700 25.67400
C  44.69500 15.43100 26.40500
N  47.06100 17.62800 30.56500
C  46.09200 17.34800 31.46600
C  46.51000 17.74400 32.90500
C  47.71700 18.72500 32.66400
C  48.09200 18.29500 31.21400
C  47.49100 20.30600 32.86400
C  46.80300 16.39200 33.71500
C  46.89400 16.48400 35.27400
H  46.47100 17.74200 35.97400
N  48.73600 18.08000 28.14200
C  49.44300 18.75200 29.15700
C  50.68700 19.26500 28.53400
C  50.64300 19.01900 27.07600
C  49.33500 18.32700 26.92000
C  51.76900 19.89200 29.42500
C  51.64500 19.46600 25.98400
O  51.51500 19.06600 24.86400
C  52.69100 20.55800 26.25500
N  46.85400 16.65100 26.37900
C  47.67100 17.05700 25.37700
C  47.36400 16.42200 24.02600
C  46.07500 15.50300 24.32400
C  45.89200 15.82000 25.81500
C  47.13400 17.52600 22.87000
C  46.40600 14.04600 24.17500
C  45.67100 13.36200 23.05200
N  45.06600 16.29600 28.55000
C  44.30800 15.55400 27.71600
C  43.13600 15.12500 28.42100
C  43.33100 15.56600 29.70800
C  44.53100 16.25600 29.75200
C  42.08000 14.42400 27.80000
C  42.80300 15.53200 30.99700
O  41.77600 14.98800 31.38300
C  43.76100 16.22200 31.94100
C  43.11700 17.29700 32.62800
O  42.61400 18.28700 32.04900
O  43.05200 16.99700 33.96000
C  42.16200 17.70200 34.81900
H  49.83700 19.48200 31.15700
H  49.25900 18.23800 24.79200
H  43.91600 14.89500 25.85900
H  45.64300 18.23900 33.34100
H  48.60300 18.49700 33.25600
H  48.30000 20.88800 33.30600
H  46.64600 20.48000 33.53000
H  47.17200 20.79500 31.94300
H  47.77700 16.13600 33.29600
H  46.12300 15.55500 33.55900
H  47.94200 16.30700 35.51600
H  46.24800 15.67300 35.60900
H  51.47600 20.89000 29.75300
H  52.71800 20.11600 28.93800
H  51.87800 19.27400 30.31600
H  52.87700 21.04300 25.29600
H  53.62700 20.14400 26.62900
H  52.37600 21.33200 26.95500
H  48.13700 15.76700 23.62500
H  45.15400 15.64200 23.75700
H  47.38000 18.49900 23.29500
H  46.08900 17.61700 22.57200
H  47.80700 17.34600 22.03100
H  46.26700 13.52400 25.12200
H  47.45300 13.85700 23.93800
H  45.04900 14.02800 22.45400
H  45.14500 12.53400 23.52700
H  46.34900 12.90800 22.32900
H  41.41900 14.84800 27.04400
H  41.31900 14.02200 28.46900
H  42.57300 13.60100 27.28300
H  44.13100 15.46500 32.63200
H  42.38800 18.76800 34.81200
H  42.29600 17.44200 35.86800
H  41.12000 17.68900 34.49900
Mg 37.31100 50.38600 25.56300
C  37.56900 48.05700 28.43500
C  36.11100 52.71500 27.72000
C  36.53500 52.24600 22.90900
C  37.90800 47.58300 23.56800
N  36.96400 50.31000 27.80700
C  37.16400 49.37000 28.76000
C  36.95500 49.95900 30.19800
C  36.35600 51.36400 29.88100
C  36.54100 51.50500 28.33000
C  34.87700 51.59500 30.39200
C  38.35800 50.01600 31.03900
C  38.17200 49.73600 32.54300
H  36.77000 49.93400 33.19800
N  36.52600 52.23800 25.39100
C  36.04700 53.01200 26.36400
C  35.51700 54.24000 25.73800
C  35.74400 54.15900 24.28700
C  36.25500 52.87500 24.15600
C  34.90300 55.32500 26.57600
C  35.39500 55.16700 23.14300
O  35.69600 54.93900 21.98200
C  34.57900 56.41600 23.47300
N  37.12800 49.96900 23.53700
C  36.93400 50.92900 22.58500
C  37.01600 50.34900 21.17300
C  37.43500 48.85600 21.43600
C  37.45400 48.79300 22.94500
C  35.76200 50.59400 20.27900
C  38.72700 48.46000 20.63600
C  40.07900 48.73600 21.31900
N  37.84400 48.28700 25.87200
C  38.05100 47.31000 24.94500
C  38.39200 46.05900 25.58300
C  38.25000 46.34300 26.95100
C  37.86100 47.71000 27.08300
C  38.72000 44.74400 24.95100
C  38.28700 45.72900 28.25200
O  38.49600 44.57800 28.60400
C  37.93000 46.85800 29.28100
C  36.80800 46.51900 30.08200
O  35.63400 46.44100 29.75700
O  37.25900 46.02300 31.30400
C  36.23300 45.69500 32.34000
H  35.82900 53.50700 28.41600
H  36.44900 52.71000 21.92400
H  38.10200 46.77900 22.85500
H  36.22700 49.32300 30.70100
H  36.98300 52.06400 30.43400
H  34.41800 50.61200 30.49900
H  34.22000 52.00900 29.62700
H  34.80300 52.18700 31.30400
H  38.89800 50.95500 30.92200
H  39.09400 49.31000 30.65500
H  38.93200 50.26900 33.11300
H  38.43600 48.68900 32.68900
H  33.99200 55.79400 26.20500
H  35.54500 56.20400 26.62700
H  34.79100 54.95500 27.59500
H  33.59100 56.02700 23.71900
H  34.52300 57.10100 22.62800
H  35.02700 56.92400 24.32700
H  37.83800 50.76800 20.59100
H  36.60500 48.19000 21.20100
H  35.16700 49.69300 20.42800
H  35.94800 50.74500 19.21500
H  35.15600 51.47300 20.49800
H  38.76300 48.99400 19.68700
H  38.74800 47.37300 20.55500
H  40.59300 49.62600 20.95400
H  40.71600 47.86600 21.15800
H  40.16400 48.81600 22.40300
H  38.88900 43.95700 25.68700
H  39.60700 44.80000 24.32000
H  37.95000 44.36600 24.27800
H  38.82000 47.03400 29.88600
H  35.24600 45.82200 31.89500
H  36.12600 46.21500 33.29200
H  36.28400 44.63200 32.57500

