158

Mg 17.47600 -1.36600 27.56500
C  16.35700 0.77900 30.00400
C  19.54000 -2.90200 30.03500
C  18.57300 -3.55500 25.16400
C  15.59800 0.31100 25.24400
N  17.93500 -0.98400 29.70600
C  17.27100 -0.23000 30.54300
C  17.52700 -0.45400 32.01200
C  18.63500 -1.59100 31.96000
C  18.76700 -1.85200 30.46400
C  19.93300 -1.29300 32.64100
C  16.25300 -0.77400 32.93900
C  16.02800 0.15600 34.21400
H  17.22100 0.55200 34.93400
N  18.92900 -2.89300 27.58200
C  19.63000 -3.39600 28.68500
C  20.45800 -4.47700 28.25500
C  20.21200 -4.69900 26.83500
C  19.21700 -3.65700 26.46200
C  21.53500 -5.03700 29.13300
C  20.86300 -5.57100 25.82500
O  20.71300 -5.41100 24.64300
C  21.84200 -6.65500 26.20400
N  17.25300 -1.53500 25.47100
C  17.77300 -2.50700 24.76200
C  17.01900 -2.53600 23.32500
C  15.90200 -1.45100 23.55000
C  16.28500 -0.81900 24.82300
C  18.02300 -2.36100 22.16300
C  14.42500 -1.94000 23.46700
C  13.60300 -1.12600 22.47300
N  16.30700 0.30300 27.56000
C  15.54200 0.88700 26.53800
C  14.73700 1.92300 27.07900
C  15.00900 1.93800 28.41500
C  15.98500 0.93800 28.66200
C  13.87200 2.83800 26.25000
C  14.75500 2.67000 29.64400
O  13.91300 3.59900 29.82000
C  15.51500 1.91600 30.70900
C  16.43800 2.84600 31.38600
O  17.54800 3.02700 30.98800
O  15.78200 3.48500 32.46300
C  16.60300 4.63100 32.93800
H  20.15700 -3.49200 30.71600
H  18.58700 -4.47400 24.57400
H  14.85400 0.72900 24.56200
H  17.99400 0.41100 32.48300
H  18.19900 -2.52100 32.32600
H  20.69700 -1.30500 31.86400
H  20.07500 -2.04100 33.42000
H  19.97300 -0.28100 33.04300
H  16.16300 -1.81200 33.25900
H  15.41100 -0.51100 32.29900
H  15.44200 -0.36200 34.97300
H  15.48400 1.07300 33.98800
H  20.86700 -5.68800 29.69800
H  22.05500 -4.42700 29.87100
H  22.33000 -5.48000 28.53300
H  21.97000 -7.38000 25.40000
H  21.31600 -7.16000 27.01500
H  22.77900 -6.32400 26.65000
H  16.59100 -3.52700 23.16800
H  16.05900 -0.67800 22.79800
H  18.34300 -3.34400 21.81700
H  18.92900 -1.78000 22.33500
H  17.33200 -1.96600 21.41800
H  14.01900 -1.93700 24.47800
H  14.32600 -2.97400 23.13700
H  14.14800 -0.22400 22.19600
H  12.71200 -0.78800 23.00200
H  13.20800 -1.56500 21.55600
H  12.83300 2.51000 26.28000
H  14.24400 2.83500 25.22500
H  13.81800 3.86200 26.62000
H  14.82500 1.50700 31.44700
H  15.92100 4.99400 33.70700
H  16.78900 5.42600 32.21600
H  17.48600 4.27500 33.46800
Mg 35.85300 1.06100 29.53400
C  33.70200 2.27000 32.19400
C  38.48700 1.50400 31.70600
C  37.97000 0.39000 27.03000
C  33.24600 1.66400 27.31500
N  36.03500 1.88200 31.75100
C  35.05500 2.18700 32.64900
C  35.64900 2.24700 34.04900
C  37.20500 2.31000 33.79000
C  37.25800 1.90500 32.29600
C  37.87100 3.69200 34.08700
C  35.18300 1.04800 34.97100
C  35.23100 1.32000 36.53000
H  36.29100 2.27400 37.11800
N  37.92500 0.86600 29.40300
C  38.82300 1.02500 30.44100
C  40.08500 0.52300 29.95900
C  39.99000 0.18400 28.56000
C  38.60800 0.57700 28.26300
C  41.23100 0.25500 30.92800
C  41.09100 -0.29300 27.50900
O  40.79100 -0.39300 26.31500
C  42.45400 -0.57200 27.98900
N  35.63400 1.07200 27.59200
C  36.58700 0.57400 26.64500
C  36.01600 0.48100 25.18900
C  34.59400 0.56500 25.47800
C  34.47600 1.23000 26.86200
C  36.61200 1.55500 24.22800
C  33.80700 -0.76200 25.33700
C  32.65500 -0.82500 24.36900
N  33.87100 1.62900 29.71900
C  32.97900 1.94900 28.69500
C  31.68200 2.34900 29.26100
C  31.90000 2.44300 30.62500
C  33.23100 2.04600 30.84900
C  30.40600 2.45400 28.50900
C  31.24500 2.67100 31.88800
O  30.10500 3.04400 32.11300
C  32.42000 2.50400 33.00100
C  32.41800 3.68200 33.89200
O  32.36600 4.85700 33.47600
O  32.47600 3.29300 35.18300
C  32.88800 4.35900 36.08200
H  39.27200 1.41000 32.46000
H  38.53500 0.17300 26.12100
H  32.39000 1.69100 26.63800
H  35.25600 3.20600 34.38600
H  37.60600 1.55900 34.47100
H  37.08900 4.45100 34.05700
H  38.53600 3.83200 33.23500
H  38.32600 3.64000 35.07700
H  35.62100 0.09300 34.67800
H  34.12600 0.86900 34.77800
H  35.19700 0.34200 37.01000
H  34.28500 1.82400 36.72800
H  41.37600 -0.82500 30.95100
H  40.85700 0.39400 31.94200
H  42.08400 0.89300 30.69400
H  42.43700 -1.41000 28.68600
H  42.94700 0.33200 28.34700
H  42.91900 -1.01000 27.10700
H  36.25300 -0.49900 24.77400
H  34.19500 1.27500 24.75500
H  37.61000 1.86300 24.53700
H  35.85700 2.33400 24.12000
H  36.72600 1.04400 23.27200
H  33.40100 -0.95800 26.32900
H  34.44300 -1.63700 25.20700
H  31.74600 -0.70400 24.95800
H  32.71400 -1.76900 23.82600
H  32.58400 -0.01400 23.64400
H  30.42500 1.58100 27.85700
H  30.32300 3.32800 27.86300
H  29.59200 2.48200 29.23400
H  32.14400 1.62500 33.58300
H  32.03000 5.01400 36.23300
H  33.62400 5.02500 35.63100
H  33.39100 3.92300 36.94500

