158

Mg 26.41900 49.75000 25.99200
C  24.22300 51.03500 28.43400
C  28.40500 48.66400 28.66300
C  28.69700 48.78100 23.67200
C  24.48000 51.14800 23.58100
N  26.23800 49.76900 28.29700
C  25.28800 50.38300 29.07800
C  25.44900 49.96200 30.57800
C  26.90100 49.41900 30.65500
C  27.20000 49.22900 29.08800
C  27.96700 50.36800 31.32600
C  24.26300 49.11200 31.11100
C  23.75100 49.46900 32.53000
H  23.85900 48.28300 33.56500
N  28.32400 48.88900 26.17100
C  29.00000 48.54400 27.32800
C  30.31600 48.00000 27.03500
C  30.47500 48.12100 25.58500
C  29.14800 48.64900 25.08600
C  31.21100 47.46900 28.05900
C  31.68400 47.84100 24.76300
O  31.82600 48.14600 23.57700
C  32.85200 47.17200 25.35900
N  26.57100 49.89000 23.91500
C  27.42900 49.23500 23.16600
C  27.06800 49.31400 21.63600
C  25.86300 50.31100 21.60800
C  25.58400 50.46000 23.09300
C  28.29800 49.77200 20.76300
C  24.62700 49.72500 20.93500
C  23.86100 48.62800 21.73300
N  24.67600 50.85900 25.96600
C  23.96300 51.34400 24.90600
C  22.76800 52.04300 25.35200
C  22.85100 51.98300 26.71700
C  24.08000 51.27800 27.03700
C  21.63100 52.54100 24.44700
C  22.14400 52.31100 27.98000
O  21.12900 52.97100 28.14000
C  22.98100 51.63700 29.10200
C  23.43900 52.70900 30.03800
O  24.28800 53.56400 29.93200
O  22.69200 52.48200 31.22300
C  22.89700 53.29800 32.36500
H  28.90200 48.32400 29.57400
H  29.44100 48.29900 23.03300
H  23.92400 51.60300 22.75800
H  25.45900 50.87400 31.17600
H  26.87500 48.45600 31.16400
H  28.53800 49.92000 32.13900
H  27.46400 51.15100 31.89200
H  28.66100 50.83800 30.62800
H  24.58000 48.07000 31.07400
H  23.43900 49.09300 30.39700
H  22.75600 49.91400 32.51600
H  24.44700 50.21500 32.91400
H  30.75700 47.57400 29.04400
H  32.20100 47.91600 28.15400
H  31.30700 46.42600 27.75800
H  32.53800 46.26700 25.87800
H  33.23200 47.90700 26.06900
H  33.60300 46.97600 24.59400
H  26.76700 48.32400 21.29300
H  26.05800 51.27800 21.14400
H  28.42000 49.02200 19.98100
H  29.24100 49.82700 21.30600
H  28.16600 50.76500 20.33500
H  24.91900 49.25300 19.99700
H  23.95000 50.50300 20.58200
H  22.86800 49.00300 21.97900
H  24.29500 48.38300 22.70300
H  23.77500 47.69000 21.18400
H  21.07400 51.65300 24.15000
H  21.91800 53.10800 23.56100
H  21.02000 53.16000 25.10400
H  22.33200 50.90100 29.57500
H  23.28000 52.61600 33.12400
H  21.93100 53.64200 32.73500
H  23.53700 54.18100 32.34400
Mg 8.78500 48.08200 27.50500
C  6.76200 47.84600 30.41600
C  11.56100 48.00900 29.52300
C  10.63000 48.60300 24.80000
C  5.85800 48.61200 25.55000
N  9.03500 48.33700 29.78500
C  8.11100 47.95200 30.79300
C  8.76200 47.71200 32.18600
C  10.27000 48.06300 31.81300
C  10.32800 48.17200 30.24500
C  10.75300 49.30600 32.54600
C  8.72400 46.27600 32.82400
C  9.83400 45.83400 33.83700
H  9.39300 45.47200 35.24300
N  10.80100 48.28900 27.20400
C  11.76900 48.12900 28.16000
C  13.07200 48.23000 27.52500
C  12.83900 48.25400 26.15100
C  11.37500 48.25000 25.94000
C  14.37500 48.32600 28.37200
C  13.81900 48.14100 25.05400
O  13.55000 48.09900 23.86800
C  15.27500 48.14300 25.41000
N  8.25500 48.59000 25.48200
C  9.25200 48.74800 24.55900
C  8.68700 49.15200 23.19000
C  7.15600 48.91900 23.33500
C  7.05400 48.72400 24.82200
C  9.10900 50.57800 22.72900
C  6.68600 47.70500 22.45300
C  7.03900 46.30100 22.84500
N  6.76000 48.20000 27.90500
C  5.68700 48.34400 26.97700
C  4.47400 48.18400 27.72700
C  4.85000 48.00000 29.02900
C  6.25300 47.94400 29.10900
C  3.05200 48.18600 27.25900
C  4.29100 47.66600 30.34300
O  3.13600 47.64100 30.75900
C  5.55200 47.53800 31.27300
C  5.54000 46.17200 31.92100
O  5.95000 45.12200 31.45500
O  5.16000 46.25500 33.20700
C  5.23000 45.04900 33.96700
H  12.46000 47.80000 30.10800
H  11.24800 48.67300 23.90300
H  5.01400 48.81000 24.88500
H  8.37200 48.35900 32.97200
H  10.91800 47.20800 32.00400
H  10.78000 50.05900 31.75900
H  11.72700 49.17400 33.01700
H  10.12700 49.66300 33.36400
H  8.63900 45.56200 32.00500
H  7.84500 46.28700 33.46900
H  10.47900 46.68800 34.04300
H  10.33400 44.94700 33.44900
H  14.99000 47.43400 28.25700
H  14.32300 48.53200 29.44100
H  14.97000 49.16100 28.00100
H  15.55700 49.09300 25.86400
H  15.93400 48.10200 24.54300
H  15.50200 47.31400 26.08000
H  9.14300 48.42500 22.51700
H  6.63500 49.79700 22.95500
H  8.23600 51.23000 22.70200
H  9.42700 50.61100 21.68800
H  9.96200 50.92600 23.31100
H  7.06200 47.77300 21.43200
H  5.60300 47.82200 22.42000
H  6.20200 45.67500 23.15200
H  7.93500 46.28800 23.46600
H  7.40400 45.74800 21.97900
H  2.89600 47.33000 26.60300
H  2.71400 49.12000 26.80900
H  2.36700 47.88500 28.05200
H  5.37000 48.21700 32.10600
H  5.46000 45.19200 35.02300
H  6.06000 44.37900 33.74400
H  4.32700 44.45700 33.82000

