158

Mg 44.90000 4.30200 46.64500
C  42.82600 7.07200 46.49500
C  42.11800 2.23300 46.37200
C  46.85900 1.50600 46.30800
C  47.61400 6.42300 46.33700
N  42.71400 4.65100 46.40300
C  42.11800 5.83000 46.47500
C  40.56300 5.72600 46.58700
C  40.32700 4.16100 46.64000
C  41.78300 3.60100 46.48400
C  39.66900 3.67700 47.97300
C  39.80300 6.32300 45.42200
C  40.35700 6.03300 44.00000
H  40.16900 7.08300 42.90900
N  44.53300 2.17100 46.34600
C  43.30500 1.60200 46.25800
C  43.46800 0.12400 46.12000
C  44.83600 -0.14400 46.10700
C  45.48300 1.20500 46.20300
C  42.28100 -0.82100 46.05800
C  45.45200 -1.46100 45.85300
O  44.80800 -2.48300 45.94400
C  46.90200 -1.57000 45.36000
N  46.91000 4.00900 46.14400
C  47.50200 2.76200 46.18700
C  49.03100 2.92800 46.35300
C  49.23600 4.51300 46.35700
C  47.87200 5.06500 46.25200
C  49.60300 2.05000 47.53100
C  50.14700 5.05900 45.18600
C  51.48600 5.58000 45.70800
N  45.26300 6.34800 46.59100
C  46.40500 7.06600 46.40400
C  46.14100 8.44800 46.62400
C  44.73600 8.53000 46.56400
C  44.27400 7.15600 46.55700
C  47.26100 9.43500 46.63400
C  43.60800 9.36800 46.60200
O  43.55700 10.60200 46.55200
C  42.33000 8.44300 46.52500
C  41.48900 8.71300 47.70600
O  41.70100 8.28500 48.83000
O  40.44000 9.47600 47.35400
C  39.37100 9.62800 48.26200
H  41.22500 1.63900 46.58000
H  47.55900 0.67900 46.44400
H  48.43900 7.09300 46.58500
H  40.36500 6.22000 47.53900
H  39.59600 3.81400 45.91000
H  38.76400 3.09700 47.79500
H  39.39400 4.43800 48.70300
H  40.43600 3.14600 48.53600
H  39.82300 7.40600 45.54200
H  38.75300 6.03100 45.39000
H  39.78300 5.16300 43.68400
H  41.36700 5.62500 43.95800
H  42.38700 -1.37500 45.12500
H  41.29900 -0.35200 45.98600
H  42.37100 -1.57700 46.83800
H  47.48600 -1.56100 46.28000
H  47.21400 -0.80800 44.64600
H  47.00700 -2.54000 44.87500
H  49.43400 2.47300 45.44800
H  49.58400 4.88200 47.32200
H  49.88000 1.01700 47.31900
H  48.88400 1.93100 48.34200
H  50.48800 2.57100 47.89500
H  49.71200 5.86200 44.59000
H  50.16600 4.22400 44.48600
H  51.62200 6.61300 45.39000
H  52.35700 5.12500 45.23700
H  51.59400 5.59400 46.79200
H  47.94000 9.28300 47.47300
H  46.81600 10.42800 46.58800
H  47.87400 9.29500 45.74300
H  41.78200 8.77900 45.64500
H  39.06000 10.64800 48.03700
H  39.68600 9.66000 49.30500
H  38.55200 8.94700 48.03200
Mg -4.84500 25.19800 25.56800
C  -3.34400 26.12600 28.62500
C  -6.79400 22.88500 27.56700
C  -5.72600 23.62000 22.88300
C  -2.56800 27.21900 23.88500
N  -4.92800 24.53700 27.89200
C  -4.29500 25.19100 28.87400
C  -4.87500 24.87900 30.26100
C  -5.72500 23.61500 29.84400
C  -5.88500 23.70800 28.31700
C  -5.11600 22.27900 30.27100
C  -5.75200 26.12400 30.79200
C  -5.55200 26.46500 32.32500
H  -4.69700 25.57000 33.16200
N  -6.26400 23.66300 25.21600
C  -6.95000 22.89800 26.11800
C  -7.95500 22.17000 25.44200
C  -7.60000 22.26500 24.06500
C  -6.48300 23.19000 23.95400
C  -9.06200 21.40300 26.19500
C  -8.32300 21.63400 22.87700
O  -7.98300 21.84200 21.72500
C  -9.62800 20.84900 23.10700
N  -4.14000 25.31600 23.63100
C  -4.62100 24.47900 22.67300
C  -3.96900 24.83700 21.28700
C  -3.26200 26.23000 21.50000
C  -3.34200 26.30000 23.05700
C  -2.90500 23.74500 20.81600
C  -3.98900 27.38700 20.76600
C  -3.09200 28.60300 20.54000
N  -3.22800 26.38000 26.07200
C  -2.46700 27.21300 25.28600
C  -1.61900 28.01200 26.11700
C  -1.91700 27.59100 27.40300
C  -2.92400 26.61100 27.35300
C  -0.76500 29.07600 25.63800
C  -1.63400 27.86000 28.76100
O  -0.82400 28.63200 29.33300
C  -2.49200 26.85400 29.62600
C  -1.56300 26.19100 30.52400
O  -1.03100 25.10400 30.29900
O  -1.50900 26.90600 31.73200
C  -0.54800 26.27600 32.71600
H  -7.49500 22.20000 28.05000
H  -6.13200 23.12000 22.00100
H  -1.96200 27.84800 23.23000
H  -4.19200 24.55700 31.04700
H  -6.66500 23.63900 30.39500
H  -5.86200 21.86800 30.95100
H  -4.11500 22.35600 30.69600
H  -4.97000 21.64000 29.40100
H  -6.82100 25.91400 30.74300
H  -5.67700 27.02400 30.18200
H  -6.51600 26.67500 32.79000
H  -5.09600 27.45500 32.31300
H  -9.73200 20.66800 25.74900
H  -9.72300 22.12000 26.68300
H  -8.56600 20.89700 27.02400
H  -9.29200 19.95200 23.62600
H  -9.94900 20.63500 22.08700
H  -10.30100 21.39500 23.76800
H  -4.78600 24.81200 20.56600
H  -2.24000 26.25900 21.12200
H  -1.95900 24.17400 20.48400
H  -3.39800 23.07600 20.11000
H  -2.55100 23.12100 21.63700
H  -4.93400 27.67500 21.22500
H  -4.18300 26.92800 19.79600
H  -2.95600 28.75600 19.46900
H  -2.15900 28.44300 21.08000
H  -3.58800 29.52200 20.85100
H  -0.56600 29.80500 26.42400
H  -1.23900 29.59200 24.80300
H  0.20700 28.61600 25.45800
H  -3.08900 27.55000 30.21500
H  -0.52900 25.18700 32.77000
H  -0.71300 26.64800 33.72800
H  0.47700 26.57000 32.49100

