158

Mg 8.84400 3.00600 27.86500
C  9.63500 1.28300 30.75000
C  7.50700 5.52500 29.67400
C  7.15000 4.17000 25.02500
C  9.75700 0.16300 25.89400
N  8.37100 3.23200 30.10800
C  8.99100 2.45900 31.08300
C  8.83100 3.17200 32.42200
C  8.15700 4.52100 32.02700
C  7.92600 4.41400 30.48100
C  6.90900 4.99700 32.80200
C  10.17100 3.39200 33.08000
C  10.41300 4.57800 34.04900
H  10.97400 4.33900 35.41900
N  7.73500 4.71500 27.37900
C  7.39200 5.70800 28.23200
C  6.72600 6.75800 27.53400
C  6.50000 6.35100 26.22400
C  7.18300 5.01000 26.13000
C  6.34600 8.10900 28.26500
C  5.67400 7.11600 25.14200
O  5.45800 6.63200 24.05300
C  5.23200 8.50200 25.46600
N  8.47000 2.29200 25.84700
C  7.71000 2.94300 24.88600
C  7.78300 2.12600 23.52100
C  8.83300 0.98900 23.75600
C  8.99300 1.12700 25.27800
C  6.38800 1.47400 23.10200
C  10.20700 1.40300 23.11700
C  10.64000 0.38100 22.02300
N  9.56600 1.11400 28.24800
C  9.99000 0.13100 27.34600
C  10.84500 -0.83100 28.14800
C  10.69600 -0.44100 29.43600
C  9.85400 0.72700 29.43900
C  11.58700 -1.99000 27.65000
C  11.11200 -0.70500 30.76700
O  11.85600 -1.59400 31.13700
C  10.45400 0.43000 31.73100
C  9.49000 -0.26100 32.68200
O  8.31100 -0.54600 32.45900
O  10.05400 -0.46600 33.87900
C  9.27200 -1.08900 34.95400
H  7.17800 6.38100 30.26700
H  6.78000 4.52500 24.06100
H  10.15800 -0.73500 25.42000
H  8.33800 2.61400 33.21800
H  8.87800 5.32700 32.16100
H  7.13800 6.00800 33.14000
H  6.82300 4.29200 33.62900
H  5.92500 5.01400 32.33300
H  10.92500 3.37700 32.29300
H  10.27900 2.51900 33.72400
H  9.45700 5.04900 34.28200
H  10.87100 5.40400 33.50400
H  7.17100 8.81800 28.19600
H  6.27700 7.90900 29.33400
H  5.46700 8.64500 27.90700
H  4.38900 8.37200 26.14400
H  4.85500 9.07200 24.61800
H  6.06300 9.13400 25.78200
H  8.05300 2.87000 22.77200
H  8.54100 -0.04300 23.55800
H  5.74700 1.77900 23.92900
H  6.49600 0.39000 23.12600
H  6.04100 1.71800 22.09800
H  10.95200 1.40300 23.91200
H  10.18300 2.45300 22.82600
H  9.94000 -0.42700 21.80900
H  11.42800 -0.14200 22.56500
H  11.13300 0.82500 21.15900
H  12.13600 -1.62900 26.78000
H  10.92400 -2.72900 27.20000
H  12.27700 -2.37700 28.40000
H  11.23200 0.96100 32.28000
H  9.93000 -1.68900 35.58100
H  8.54200 -1.72200 34.44800
H  8.71100 -0.38100 35.56400
Mg -0.04300 44.00600 25.79800
C  2.09900 43.79800 28.64400
C  -2.53900 42.90900 27.85500
C  -2.04800 43.71100 23.07800
C  2.65500 44.88500 23.84600
N  -0.22000 43.57900 28.08500
C  0.74600 43.52500 29.01400
C  0.19300 43.29400 30.35700
C  -1.27600 42.79900 30.07400
C  -1.38900 43.20900 28.59200
C  -1.61500 41.37200 30.51200
C  0.30500 44.61300 31.21900
C  0.78200 44.38200 32.70200
H  0.42500 43.07400 33.33500
N  -1.94000 43.29400 25.50200
C  -2.85100 42.87400 26.51100
C  -4.11500 42.44400 25.94900
C  -4.00200 42.65100 24.54800
C  -2.55500 43.13300 24.28700
C  -5.33000 42.17300 26.78500
C  -5.09000 42.44400 23.45500
O  -4.98000 42.77200 22.32800
C  -6.34800 41.86800 23.81200
N  0.35100 44.14800 23.79000
C  -0.76200 44.22000 22.87500
C  -0.39900 45.13800 21.65000
C  1.14000 45.50900 21.95800
C  1.43300 44.85900 23.26400
C  -0.62400 44.57800 20.23000
C  1.36000 47.02400 22.02700
C  1.59400 47.69300 20.65000
N  2.00900 44.26300 26.09300
C  3.02000 44.51000 25.18300
C  4.29200 44.52300 25.75800
C  3.99200 44.30200 27.16800
C  2.59600 44.09900 27.31400
C  5.54800 44.98200 25.00900
C  4.56600 44.13300 28.48000
O  5.76200 44.13300 28.78600
C  3.38500 43.79000 29.44600
C  3.67200 42.49800 30.07800
O  3.32000 41.42100 29.63000
O  4.33200 42.69400 31.23000
C  4.63200 41.49300 32.01200
H  -3.40000 42.65600 28.47700
H  -2.69700 43.79600 22.20400
H  3.47600 45.36700 23.31200
H  0.72900 42.50800 30.88800
H  -2.05300 43.36000 30.59400
H  -1.76500 40.69700 29.67000
H  -2.40800 41.31600 31.25900
H  -0.73100 40.98600 31.01900
H  -0.62100 45.18700 31.25100
H  1.08500 45.26100 30.81800
H  0.40800 45.22000 33.29000
H  1.85300 44.58100 32.67400
H  -6.10700 42.91100 26.58800
H  -5.21200 41.90100 27.83400
H  -5.67100 41.22400 26.37000
H  -6.94500 42.55600 24.41000
H  -6.14200 40.89700 24.26200
H  -7.04400 41.79900 22.97700
H  -1.01100 46.03800 21.70000
H  1.83800 45.03800 21.26600
H  -1.63500 44.77000 19.86800
H  -0.50500 43.50200 20.35300
H  0.12200 44.95400 19.53000
H  2.25400 47.29300 22.59000
H  0.50000 47.45400 22.54000
H  0.95200 48.57000 20.57200
H  1.36700 46.94300 19.89200
H  2.65000 47.96200 20.65800
H  5.49400 45.98700 24.59000
H  5.88100 44.15600 24.38100
H  6.29400 45.13600 25.78800
H  3.38600 44.51700 30.25800
H  3.67000 40.98200 32.06400
H  4.88800 41.68900 33.05300
H  5.37900 40.85900 31.53500

