158

Mg 42.70600 4.83400 47.71800
C  41.00000 7.94000 47.29900
C  39.78900 3.19200 47.43900
C  44.51000 2.02700 47.16400
C  45.79800 6.76200 47.37600
N  40.59000 5.49000 47.39000
C  40.12600 6.73500 47.30700
C  38.54000 6.80400 47.52600
C  38.18100 5.29700 47.75200
C  39.59200 4.59500 47.50500
C  37.52000 4.84600 49.07300
C  37.74700 7.55800 46.39000
C  38.09200 7.05100 44.91800
H  38.50400 8.08900 43.92400
N  42.25200 2.83500 47.52300
C  40.96200 2.33300 47.46700
C  40.98400 0.91200 47.47500
C  42.35600 0.54200 47.22000
C  43.15500 1.78200 47.28800
C  39.66700 0.12300 47.60500
C  42.73000 -0.83600 47.01900
O  41.95300 -1.78600 46.96200
C  44.11600 -1.12000 46.84700
N  44.81700 4.48100 47.17100
C  45.25500 3.17400 47.15100
C  46.79400 3.13400 47.13100
C  47.18500 4.65800 47.08300
C  45.85500 5.41200 47.16600
C  47.42400 2.34900 48.33700
C  48.06900 5.05400 45.82300
C  49.51300 5.11200 45.97600
N  43.34500 6.92100 47.46900
C  44.63600 7.53300 47.34500
C  44.41300 9.02700 47.26800
C  43.02200 9.20000 47.34400
C  42.45700 7.89400 47.33100
C  45.44400 9.93500 47.11500
C  41.97200 10.21100 47.24300
O  41.98700 11.40700 47.12100
C  40.63300 9.37800 47.31700
C  39.91800 9.84800 48.55700
O  40.16300 9.47000 49.67300
O  38.95800 10.78800 48.17600
C  38.10700 11.42300 49.18300
H  38.86200 2.62000 47.35300
H  45.25700 1.23200 47.20400
H  46.71200 7.35300 47.29500
H  38.43200 7.37600 48.44800
H  37.56500 4.92300 46.93500
H  37.10400 5.60700 49.73300
H  38.27800 4.27200 49.60500
H  36.74500 4.10300 48.88600
H  38.05000 8.60400 46.44200
H  36.68200 7.39200 46.55000
H  37.22200 6.56800 44.47300
H  38.86500 6.28800 45.00500
H  39.14400 0.21300 46.65300
H  39.00700 0.47800 48.39800
H  39.57100 -0.95500 47.73400
H  44.66600 -0.66800 47.67200
H  44.54500 -0.74800 45.91700
H  44.26400 -2.19100 46.98200
H  47.13600 2.65700 46.21300
H  47.77700 4.82600 47.98200
H  46.71300 2.15600 49.14000
H  48.27600 2.91700 48.71200
H  47.72800 1.35600 48.00300
H  47.69200 6.03900 45.55000
H  47.81300 4.33600 45.04400
H  49.80700 4.97300 47.01700
H  49.99500 6.05700 45.72600
H  50.10000 4.44600 45.34300
H  46.03000 9.97100 48.03400
H  45.09100 10.91600 46.79700
H  46.07000 9.61300 46.28200
H  39.93200 9.66500 46.53400
H  37.83600 12.46000 48.98100
H  38.56500 11.33300 50.16800
H  37.20300 10.87100 49.43800
Mg -0.97400 33.73500 26.94000
C  -2.89500 32.09200 29.10400
C  0.21700 35.82500 29.51800
C  0.82400 35.43200 24.68400
C  -2.75800 32.32200 24.21200
N  -1.43500 34.04300 28.99700
C  -2.09100 33.02600 29.73200
C  -1.99500 33.29600 31.23000
C  -1.46900 34.80200 31.15600
C  -0.82700 34.91700 29.80800
C  -2.58200 35.85400 31.36500
C  -1.10500 32.23800 31.98100
C  -0.76100 32.57000 33.40000
H  -1.24300 31.46200 34.45100
N  0.53900 35.19000 27.09300
C  0.86600 35.92100 28.22400
C  1.94000 36.79500 27.91300
C  2.01900 36.82000 26.53900
C  1.11300 35.77700 26.05500
C  2.55500 37.71400 28.95400
C  2.77000 37.74400 25.51500
O  2.40700 37.84800 24.33500
C  3.85000 38.62900 25.97000
N  -0.98600 34.00600 24.73400
C  -0.07700 34.64900 24.01600
C  -0.27100 34.43900 22.50400
C  -1.20800 33.14700 22.45400
C  -1.74600 33.18900 23.86500
C  -0.59000 35.72200 21.65900
C  -0.55100 31.78800 22.02700
C  0.55000 31.33400 22.93700
N  -2.53600 32.59600 26.67800
C  -3.12900 31.99600 25.56000
C  -4.05800 31.03700 25.97500
C  -4.04300 31.06100 27.38500
C  -3.10000 31.99200 27.72100
C  -4.85800 30.25400 25.10600
C  -4.62000 30.44700 28.56800
O  -5.43900 29.56900 28.70700
C  -3.80100 31.08900 29.77500
C  -4.80500 31.81200 30.55100
O  -5.37900 32.89400 30.14500
O  -5.04600 31.26400 31.75400
C  -6.03600 31.85500 32.65200
H  0.53500 36.49300 30.32100
H  1.52400 35.85100 23.95800
H  -3.18000 31.79800 23.35200
H  -2.99600 33.39400 31.65000
H  -0.74400 35.05600 31.93000
H  -2.76700 36.08500 32.41400
H  -3.50900 35.46600 30.94300
H  -2.22200 36.76300 30.88300
H  -0.17700 32.09400 31.42700
H  -1.63200 31.28600 31.92000
H  -1.15200 33.51700 33.77300
H  0.32800 32.62600 33.37300
H  2.58900 37.20700 29.91900
H  1.96400 38.63000 28.98100
H  3.58600 37.81600 28.61600
H  4.51000 38.97300 25.17300
H  4.41200 38.25500 26.82500
H  3.20800 39.46900 26.23600
H  0.69500 34.14100 22.09800
H  -1.96400 33.38700 21.70600
H  -1.17400 35.45600 20.77900
H  0.35700 36.03200 21.21700
H  -1.14700 36.36400 22.34200
H  -0.04000 31.97100 21.08200
H  -1.33900 31.05000 21.87500
H  0.55200 31.82500 23.91000
H  1.53200 31.52400 22.50300
H  0.53600 30.25400 23.08500
H  -4.89900 29.25200 25.53300
H  -4.38200 30.14400 24.13200
H  -5.88700 30.58000 24.95200
H  -3.32900 30.26800 30.31500
H  -5.63200 32.59800 33.33900
H  -6.56900 31.07500 33.19400
H  -6.76200 32.50100 32.15700

