158

Mg 2.59600 -1.11800 43.93600
C  6.08100 -0.31100 43.78300
C  1.93600 1.85100 42.50100
C  -0.51200 -2.24800 43.46300
C  3.62700 -4.22400 44.98200
N  3.93500 0.46200 43.20300
C  5.22600 0.67100 43.27300
C  5.72500 1.97900 42.66800
C  4.36400 2.76800 42.62200
C  3.31000 1.61500 42.81600
C  4.08600 4.12600 43.45600
C  6.42800 1.78100 41.31600
C  7.74800 2.58900 41.08100
H  8.24800 2.57700 39.64200
N  0.96600 -0.31100 43.10700
C  0.81900 0.93100 42.58100
C  -0.53700 1.25800 42.19500
C  -1.27700 0.04300 42.44900
C  -0.27000 -0.90200 43.04800
C  -0.93300 2.55900 41.50000
C  -2.70700 -0.07500 42.10400
O  -3.29100 0.70900 41.41000
C  -3.43000 -1.33800 42.47900
N  1.73000 -3.04800 44.05700
C  0.41000 -3.26000 43.93300
C  0.05100 -4.79300 44.16200
C  1.36000 -5.29600 44.80400
C  2.31600 -4.14100 44.65600
C  -1.32900 -5.01400 44.90000
C  1.91500 -6.62300 44.25400
C  2.15100 -7.78800 45.23500
N  4.47300 -2.05800 44.33000
C  4.70200 -3.30900 44.85700
C  6.07300 -3.52800 45.12000
C  6.70500 -2.29300 44.66700
C  5.66600 -1.51100 44.24600
C  6.68200 -4.87000 45.62600
C  7.97100 -1.67400 44.52500
O  9.10400 -2.10500 44.72700
C  7.64800 -0.25200 43.93400
C  8.01300 0.77100 45.00300
O  7.76100 0.66500 46.18200
O  8.79500 1.77400 44.41100
C  9.05800 2.86600 45.38300
H  1.77700 2.87100 42.14500
H  -1.54500 -2.58600 43.36100
H  4.03500 -5.15900 45.37100
H  6.40600 2.50600 43.33600
H  4.31600 3.21000 41.62700
H  3.09800 3.96300 43.88800
H  3.97800 5.01800 42.83800
H  4.79800 4.23000 44.27500
H  5.71100 1.99200 40.52300
H  6.60500 0.70700 41.25700
H  8.56000 2.17400 41.67900
H  7.61300 3.64600 41.30800
H  -0.62200 2.47600 40.45900
H  -0.61000 3.51000 41.92400
H  -2.01500 2.59000 41.62500
H  -4.50700 -1.26000 42.32600
H  -3.27400 -1.55900 43.53500
H  -3.14700 -2.17400 41.83900
H  -0.01500 -5.24200 43.17100
H  1.19100 -5.45100 45.87000
H  -2.10300 -4.32400 44.56200
H  -1.08600 -4.90900 45.95700
H  -1.53400 -6.05100 44.63700
H  2.83400 -6.43300 43.70000
H  1.14800 -7.02000 43.58900
H  3.18900 -8.11100 45.15400
H  1.58600 -8.64600 44.87100
H  1.81500 -7.66900 46.26500
H  6.77100 -5.73400 44.96600
H  6.16700 -5.10400 46.55800
H  7.72900 -4.66200 45.84800
H  8.21400 -0.04400 43.02600
H  8.06600 3.27900 45.56300
H  9.84800 3.53400 45.04000
H  9.47300 2.40100 46.27800
Mg 26.16400 50.62100 27.03600
C  24.15900 51.74000 29.56200
C  28.35500 49.40500 29.42200
C  28.05400 49.30500 24.68100
C  24.08000 51.98900 24.64100
N  26.24000 50.66500 29.19100
C  25.32300 51.11800 30.04600
C  25.72700 50.99400 31.49600
C  27.19500 50.52900 31.37600
C  27.23800 50.22400 29.87300
C  28.17500 51.52800 31.93100
C  24.85600 50.02600 32.24200
C  24.45700 50.34200 33.63500
H  25.48900 50.83200 34.65300
N  27.91600 49.38100 27.06400
C  28.61600 49.02100 28.12400
C  29.78900 48.21300 27.68500
C  29.85700 48.24800 26.26700
C  28.58100 48.98600 25.94100
C  30.84500 47.63900 28.70500
C  30.89800 47.71700 25.29200
O  30.72200 47.85500 24.10400
C  32.07900 47.06000 25.76500
N  26.14200 50.77600 25.05100
C  26.96900 50.01700 24.31200
C  26.66500 50.10500 22.76500
C  25.20100 50.59400 22.79900
C  25.09200 51.14500 24.25900
C  27.68200 51.13200 22.00100
C  24.20900 49.58300 22.41700
C  22.91800 50.10300 21.66800
N  24.55100 51.86300 27.03600
C  23.74600 52.26500 26.01600
C  22.51400 52.76700 26.58500
C  22.63800 52.67100 27.96800
C  23.90100 52.06000 28.19200
C  21.36600 53.29800 25.81000
C  22.02200 52.87900 29.22800
O  20.90600 53.40400 29.53900
C  22.95000 52.24600 30.32600
C  23.37700 53.25900 31.29800
O  24.23900 54.08600 31.10100
O  22.62800 53.09600 32.46100
C  22.85400 54.13700 33.44800
H  29.07000 49.06000 30.17100
H  28.61700 48.90500 23.83500
H  23.38800 52.37600 23.89000
H  25.71300 51.95500 32.01000
H  27.39800 49.65000 31.98700
H  28.53700 51.28100 32.92900
H  27.87300 52.57500 31.90000
H  29.06900 51.53500 31.30700
H  25.38200 49.09100 32.43500
H  23.94600 49.86200 31.66500
H  24.11300 49.36500 33.97400
H  23.69000 51.10700 33.51800
H  30.69400 47.86300 29.76100
H  31.78700 48.01800 28.31100
H  30.90500 46.55400 28.61500
H  32.60900 46.49900 24.99500
H  31.88600 46.23400 26.45000
H  32.80300 47.77000 26.16500
H  26.76400 49.12800 22.29100
H  25.16200 51.48100 22.16600
H  28.24500 51.58200 22.81900
H  27.30300 51.98700 21.44200
H  28.20300 50.53100 21.25700
H  23.83200 49.22100 23.37400
H  24.61900 48.77100 21.81600
H  22.06800 49.90800 22.32200
H  22.78000 49.61900 20.70100
H  22.93300 51.19000 21.58000
H  20.38300 53.22200 26.27500
H  21.30700 52.95300 24.77800
H  21.53100 54.37200 25.73100
H  22.42300 51.45100 30.85400
H  21.92200 54.27700 33.99500
H  23.18000 55.11600 33.09800
H  23.59200 53.84200 34.19300

