158

Mg 46.35700 24.88300 29.05200
C  47.14600 26.95200 31.79600
C  45.04500 22.62000 31.20900
C  46.38800 22.61600 26.53600
C  47.87400 27.28300 26.99800
N  46.13700 24.76700 31.25300
C  46.38800 25.85700 32.15300
C  45.80000 25.49700 33.55900
C  45.17000 24.10700 33.42300
C  45.45400 23.76400 31.89200
C  45.81700 23.00100 34.25300
C  44.88200 26.58400 34.17500
C  45.15800 26.95400 35.65400
H  43.96600 27.10000 36.58000
N  45.74800 22.88300 28.91200
C  45.20400 22.16700 29.89100
C  44.88100 20.87800 29.34800
C  45.40700 20.73700 28.06200
C  45.95600 22.08000 27.78900
C  44.14000 19.87100 30.10700
C  45.33800 19.60500 27.04900
O  46.00500 19.70500 26.06800
C  44.73600 18.30000 27.41500
N  47.08700 24.95100 27.11400
C  46.81100 23.92400 26.20800
C  47.15800 24.35300 24.78800
C  47.45400 25.87400 24.96000
C  47.53100 26.07200 26.45000
C  48.20400 23.46500 23.97300
C  46.41100 26.83000 24.27900
C  45.06000 26.85900 24.92700
N  47.26400 26.72900 29.29400
C  47.88800 27.55400 28.34500
C  48.29600 28.82800 28.92800
C  48.01100 28.53500 30.26500
C  47.52900 27.26700 30.45300
C  48.87500 30.16800 28.34400
C  48.13200 29.15500 31.54900
O  48.53500 30.25200 31.91400
C  47.57500 28.11900 32.60100
C  48.70500 27.75100 33.47900
O  49.66400 27.12000 33.13300
O  48.42200 28.13900 34.74100
C  49.38800 27.67400 35.78400
H  44.46000 22.00300 31.89300
H  46.28900 22.05000 25.60700
H  48.34700 28.05300 26.38400
H  46.63900 25.35900 34.24100
H  44.11100 24.16100 33.67400
H  45.23200 22.09100 34.11600
H  45.82400 23.19600 35.32500
H  46.81600 22.76900 33.88400
H  43.85000 26.28000 33.99700
H  44.94100 27.45300 33.52100
H  45.69100 27.90400 35.65800
H  45.95200 26.31900 36.04700
H  44.78900 19.02200 30.32000
H  43.31500 19.47400 29.51500
H  43.78800 20.22600 31.07600
H  45.20400 17.95700 28.33800
H  44.86500 17.54400 26.64100
H  43.67500 18.54800 27.45200
H  46.18400 24.26100 24.30600
H  48.45200 26.15600 24.62600
H  48.54900 22.61200 24.55700
H  49.11900 23.96900 23.66000
H  47.83700 22.94500 23.08800
H  46.29100 26.47300 23.25600
H  46.90500 27.80100 24.32500
H  44.92800 25.92800 25.47800
H  44.40400 26.93900 24.06000
H  45.01900 27.73500 25.57300
H  49.24100 29.83700 27.37200
H  49.58600 30.47700 29.11000
H  48.00100 30.81900 28.35800
H  46.73200 28.48700 33.18600
H  50.39400 27.75200 35.37100
H  49.07700 26.72100 36.21100
H  49.38500 28.36100 36.63000
Mg 8.54600 47.64600 25.01100
C  6.52400 47.59800 27.93000
C  11.17100 48.45800 27.02700
C  10.43900 47.66500 22.28900
C  5.69700 47.59400 23.03700
N  8.76400 48.12100 27.17000
C  7.84200 48.02200 28.21000
C  8.39900 48.53100 29.54200
C  9.77600 49.18800 29.04900
C  9.97900 48.51100 27.68800
C  9.84100 50.72800 28.95200
C  8.67300 47.30500 30.51800
C  9.04100 47.58400 31.96300
H  8.81300 46.52500 32.99500
N  10.51500 47.94200 24.68100
C  11.41900 48.16800 25.67100
C  12.73900 48.13300 25.05600
C  12.60800 47.80600 23.69300
C  11.13400 47.72900 23.49700
C  14.03600 48.42800 25.80000
C  13.69400 47.67000 22.55800
O  13.38500 47.49300 21.42200
C  15.10900 47.69400 22.87700
N  8.13400 47.48900 22.99300
C  9.08000 47.66000 22.04800
C  8.53200 47.74000 20.62400
C  7.07200 47.70100 20.90000
C  6.93100 47.52600 22.38400
C  9.09700 48.88000 19.70300
C  6.25400 46.60000 20.07600
C  6.12500 46.76300 18.53400
N  6.52500 47.53800 25.36700
C  5.52800 47.46100 24.45400
C  4.32700 47.27100 25.20700
C  4.66100 47.38000 26.57200
C  5.98400 47.54200 26.63100
C  2.99700 47.12500 24.71200
C  4.08800 47.25300 27.84000
O  2.95500 47.09800 28.14800
C  5.27400 47.30200 28.81800
C  5.33800 46.15500 29.73500
O  6.17800 45.24800 29.55000
O  4.57500 46.27900 30.81800
C  4.65800 45.19900 31.79000
H  11.96000 48.86500 27.66300
H  11.10500 47.50700 21.43800
H  4.82200 47.60600 22.38400
H  7.70000 49.28400 29.90500
H  10.56300 48.87700 29.73500
H  9.92800 51.08100 29.98000
H  8.86100 51.05400 28.60400
H  10.62200 51.10200 28.29100
H  9.43600 46.69700 30.03200
H  7.82800 46.61700 30.47600
H  8.52600 48.47300 32.32700
H  10.10100 47.81600 31.86100
H  14.39000 49.39500 25.44200
H  14.78900 47.64400 25.71900
H  13.84300 48.56800 26.86400
H  15.52700 48.66700 23.13700
H  15.75600 47.43100 22.04000
H  15.36500 47.00200 23.67900
H  8.80500 46.72700 20.33100
H  6.63800 48.68400 20.71600
H  9.79000 49.43400 20.33600
H  8.24100 49.51500 19.47300
H  9.48500 48.40700 18.80200
H  5.26200 46.50600 20.51800
H  6.78500 45.65200 20.16000
H  6.74900 47.58600 18.18300
H  5.09000 46.97600 18.26900
H  6.44600 45.81400 18.10400
H  2.89900 46.60800 23.75700
H  2.73700 48.17600 24.58400
H  2.51700 46.49600 25.46200
H  5.05600 48.19100 29.41000
H  4.56700 45.58500 32.80500
H  5.45800 44.46200 31.72300
H  3.77300 44.58600 31.61600

