158

Mg 0.79000 7.61200 26.26400
C  1.53900 9.56000 29.17300
C  0.25900 4.99900 28.35600
C  0.60200 5.90200 23.58600
C  1.22700 10.59500 24.46400
N  0.87400 7.30700 28.53200
C  1.22000 8.23900 29.46600
C  0.99700 7.62600 30.84300
C  0.80900 6.13400 30.57500
C  0.60000 6.12700 29.06600
C  1.99100 5.23100 31.08000
C  -0.16400 8.19800 31.61900
C  0.02400 8.55500 33.10200
H  1.28700 7.98800 33.77600
N  0.46900 5.69100 25.94500
C  0.22400 4.72000 26.90500
C  0.14700 3.44100 26.21200
C  0.16600 3.70600 24.81200
C  0.42700 5.09600 24.71300
C  -0.10600 2.19100 27.01400
C  -0.07400 2.73400 23.68200
O  -0.25600 2.98700 22.48900
C  -0.20200 1.32300 24.09800
N  0.95200 8.22100 24.24800
C  0.71100 7.28100 23.30700
C  1.00100 7.91200 21.92700
C  0.89700 9.46100 22.23100
C  0.95700 9.45900 23.75800
C  2.52900 7.59500 21.50500
C  -0.53700 10.04900 21.76000
C  -0.50200 11.55500 21.52200
N  1.23500 9.71400 26.68900
C  1.35800 10.77700 25.85800
C  1.78400 11.97800 26.52900
C  1.96900 11.55700 27.86600
C  1.52200 10.17000 27.91600
C  2.02400 13.36100 25.87100
C  2.28500 11.93700 29.23400
O  2.67400 13.05500 29.59400
C  1.91500 10.64200 30.15900
C  3.09800 10.35800 30.97700
O  3.97600 9.57600 30.64400
O  3.16500 11.23000 32.10600
C  4.41500 11.14100 32.93800
H  0.09600 4.15700 29.03200
H  0.67000 5.33700 22.65300
H  1.28500 11.50900 23.86900
H  1.89400 7.84400 31.42300
H  -0.10600 5.77600 31.04700
H  1.59100 4.46800 31.74900
H  2.87900 5.74300 31.45000
H  2.32500 4.78800 30.14200
H  -1.01100 7.51100 31.62500
H  -0.49200 9.11000 31.11900
H  -0.91500 8.21700 33.53900
H  0.18200 9.62000 33.27500
H  0.68300 1.57000 26.58700
H  -1.09600 1.78400 26.81000
H  0.15000 2.33700 28.06400
H  -0.25300 0.69600 23.20800
H  -1.14900 1.29600 24.63800
H  0.62300 0.97900 24.72200
H  0.37900 7.58300 21.09400
H  1.58600 10.16400 21.76300
H  2.66300 6.56600 21.16900
H  3.10900 7.90800 22.37200
H  2.90000 8.14200 20.63800
H  -1.19800 9.82000 22.59500
H  -1.01400 9.50000 20.94800
H  -0.98300 11.91300 22.43200
H  -1.07600 11.76900 20.62000
H  0.48200 12.01900 21.45900
H  2.72000 13.83800 26.56100
H  1.04600 13.82800 25.75100
H  2.36100 13.18700 24.84900
H  1.15000 10.83700 30.91000
H  4.53100 12.11100 33.42200
H  5.26500 11.05700 32.26100
H  4.34000 10.30400 33.63200
Mg 53.48600 24.33000 44.68400
C  50.72700 26.26000 44.16000
C  51.55200 21.58400 43.67800
C  56.26800 22.38500 44.20600
C  55.37300 27.06600 45.23100
N  51.32400 23.91700 44.07900
C  50.44500 24.95400 43.81500
C  49.11600 24.41300 43.19500
C  49.27100 22.95600 43.61700
C  50.79300 22.80300 43.76100
C  48.40100 22.60200 44.80500
C  49.10100 24.62600 41.68500
C  47.66700 24.83500 41.19500
H  47.41500 24.47700 39.74800
N  53.85400 22.28000 44.23800
C  52.92200 21.33400 43.86100
C  53.49500 20.10000 43.74200
C  54.83600 20.16400 43.99100
C  55.05200 21.65300 44.22200
C  52.66300 18.91500 43.36100
C  55.80100 19.13500 43.99900
O  55.52600 17.98800 43.64500
C  57.10800 19.42600 44.43100
N  55.58500 24.61000 44.61700
C  56.54500 23.72400 44.38100
C  57.96400 24.43900 44.34700
C  57.63700 25.91600 44.65700
C  56.14400 25.88600 44.91200
C  58.91100 23.78800 45.43000
C  57.90500 26.84000 43.38200
C  59.00300 27.95000 43.73500
N  53.10500 26.20600 44.89500
C  53.98300 27.22600 45.21900
C  53.21600 28.39600 45.50000
C  51.84300 28.09500 45.12000
C  51.89200 26.72000 44.67800
C  53.70900 29.74100 45.94300
C  50.59900 28.63100 44.85300
O  50.08300 29.71200 45.19100
C  49.81300 27.48300 44.22200
C  49.20200 27.96900 42.90600
O  49.70700 27.97600 41.76000
O  47.93600 28.33500 43.10100
C  47.22900 28.88900 41.91600
H  50.89300 20.74800 43.43300
H  57.10500 21.75700 43.89300
H  55.96500 27.94100 45.50700
H  48.22800 24.90800 43.58700
H  48.91400 22.42300 42.73500
H  47.68300 21.80400 44.61800
H  47.92900 23.48200 45.24300
H  49.10300 22.36200 45.60300
H  49.48300 23.73000 41.19700
H  49.72600 25.45700 41.35700
H  47.38500 25.88100 41.30900
H  47.00100 24.23600 41.81500
H  52.31000 18.85600 42.33100
H  51.84900 18.99400 44.08100
H  53.18500 17.96400 43.47300
H  57.79900 19.70400 43.63500
H  57.48900 18.43500 44.67800
H  57.20200 20.07600 45.30000
H  58.45400 24.30800 43.38200
H  58.09300 26.33100 45.55700
H  59.95100 23.81100 45.10500
H  58.61100 22.80500 45.79400
H  58.86800 24.40200 46.33000
H  56.97600 27.28300 43.02200
H  58.24000 26.25500 42.52600
H  59.81500 27.61500 44.38000
H  58.62100 28.74600 44.37500
H  59.40000 28.37000 42.81100
H  53.20500 30.62700 45.55800
H  54.76100 29.82700 45.66800
H  53.43700 29.89800 46.98700
H  48.94900 27.28300 44.85500
H  46.94200 27.95800 41.42600
H  47.74200 29.47200 41.15100
H  46.39800 29.50600 42.25600

