158

Mg 30.16100 57.98300 40.62000
C  27.31600 56.17800 39.75500
C  32.05600 55.17600 39.98600
C  33.02400 59.98500 40.73900
C  28.20800 60.83800 40.86000
N  29.77600 55.98300 39.85900
C  28.48700 55.46600 39.73800
C  28.55300 53.97800 39.36200
C  30.00400 53.59800 39.82600
C  30.70100 55.02400 39.90300
C  30.10000 52.72500 41.09500
C  28.17100 53.65000 37.88800
C  28.51300 54.73300 36.79400
H  28.39400 54.46100 35.20900
N  32.33700 57.60500 40.38500
C  32.88500 56.36000 40.07500
C  34.30000 56.52800 39.88400
C  34.59400 57.90800 40.17900
C  33.29200 58.58100 40.46800
C  35.19700 55.37600 39.60100
C  35.94700 58.59900 40.09400
O  36.83700 57.89800 39.62900
C  36.18100 60.08300 40.28700
N  30.60000 60.16600 40.69800
C  31.84400 60.72000 40.91800
C  31.73300 62.16600 41.33500
C  30.19900 62.33200 41.48000
C  29.56300 61.09800 40.90200
C  32.58600 62.72300 42.47900
C  29.54400 63.59500 40.79200
C  28.77500 64.62100 41.62400
N  28.18100 58.52100 40.39600
C  27.46100 59.68200 40.60900
C  26.07000 59.39800 40.39900
C  25.97800 58.03200 40.04400
C  27.25600 57.59400 40.07500
C  24.88500 60.28000 40.52500
C  25.04500 56.94100 39.64300
O  23.82500 57.00300 39.48300
C  25.91000 55.63200 39.46500
C  25.25600 54.61300 40.42500
O  25.09200 54.77500 41.63800
O  24.96500 53.52100 39.76300
C  24.72400 52.35900 40.60600
H  32.54800 54.20300 40.04000
H  33.93900 60.50200 41.03600
H  27.55000 61.68000 41.08700
H  27.82200 53.43100 39.95700
H  30.40600 52.84900 39.14300
H  30.78600 51.89300 40.93700
H  29.12400 52.44300 41.48800
H  30.46600 53.38400 41.88200
H  27.10600 53.46900 37.74700
H  28.64500 52.70100 37.63700
H  29.54300 55.02300 37.00000
H  27.95600 55.64100 37.02200
H  35.78700 55.35400 38.68500
H  34.55600 54.49900 39.50700
H  35.81400 55.09700 40.45500
H  36.07700 60.34700 41.33900
H  35.39200 60.52200 39.67700
H  37.12900 60.44500 39.88800
H  32.01700 62.67700 40.41500
H  29.97700 62.30200 42.54700
H  33.52100 62.17900 42.61900
H  31.98300 62.54300 43.36800
H  32.91900 63.73100 42.23300
H  28.84300 63.25200 40.03100
H  30.28600 64.02700 40.12100
H  27.88500 64.92500 41.07200
H  29.44900 65.44000 41.87600
H  28.45800 64.08000 42.51500
H  25.20600 61.31000 40.36900
H  24.54400 60.20500 41.55800
H  24.09700 59.96900 39.84000
H  25.74800 55.32000 38.43300
H  25.11500 51.47400 40.10400
H  23.64000 52.30600 40.50900
H  25.11600 52.35800 41.62300
Mg -5.74900 24.67400 25.78600
C  -4.02300 26.22800 28.49700
C  -7.02800 22.46700 28.20100
C  -7.11700 22.99600 23.34300
C  -4.13900 26.82800 23.66800
N  -5.57500 24.46700 28.09200
C  -4.88600 25.18400 28.97900
C  -5.28300 24.98200 30.48700
C  -6.02600 23.59300 30.30400
C  -6.26200 23.48200 28.73400
C  -5.34700 22.36000 30.92300
C  -6.08100 26.22800 31.01000
C  -5.77900 26.78500 32.41100
H  -5.23400 25.78700 33.40600
N  -7.00100 23.04500 25.79300
C  -7.44300 22.26500 26.85700
C  -8.28800 21.20300 26.30200
C  -8.48400 21.42300 24.88300
C  -7.47900 22.52100 24.61600
C  -8.98500 20.10000 27.16600
C  -9.44600 20.77200 23.97200
O  -9.56000 20.95000 22.76900
C  -10.51700 19.82700 24.50900
N  -5.53200 24.77300 23.73200
C  -6.22600 23.95700 22.91300
C  -5.93500 24.28500 21.45000
C  -4.96400 25.59500 21.46600
C  -4.87500 25.73100 23.03100
C  -5.39900 22.97200 20.75500
C  -5.57400 26.71700 20.57800
C  -4.59500 27.30200 19.57200
N  -4.23500 26.13400 26.01900
C  -3.84200 27.02100 25.05100
C  -2.87700 27.94400 25.55700
C  -2.92200 27.68700 26.95200
C  -3.78600 26.58500 27.18600
C  -2.15900 29.11800 24.90700
C  -2.52300 28.24200 28.17800
O  -1.87400 29.21200 28.36100
C  -3.19800 27.26000 29.31900
C  -2.10800 26.59300 30.10800
O  -1.15000 25.94300 29.63700
O  -2.36400 26.92600 31.44000
C  -1.26900 26.57900 32.34400
H  -7.36400 21.70000 28.90200
H  -7.57000 22.39800 22.54900
H  -3.64900 27.48700 22.94900
H  -4.37500 24.99600 31.09000
H  -7.05300 23.55900 30.66800
H  -4.67900 22.73000 31.70100
H  -4.81300 21.74400 30.20000
H  -6.24200 21.81100 31.21500
H  -7.12300 25.91200 31.05900
H  -6.18500 27.05800 30.31100
H  -6.67200 27.28800 32.78400
H  -5.10900 27.61100 32.17400
H  -9.26500 19.14000 26.73100
H  -9.91400 20.46500 27.60400
H  -8.22600 19.88800 27.91800
H  -10.96900 20.15900 25.44400
H  -10.16900 18.80100 24.62500
H  -11.32000 19.66800 23.78900
H  -6.88900 24.54900 20.99400
H  -4.00500 25.29900 21.04200
H  -4.44800 23.26600 20.31000
H  -6.02600 22.76100 19.88900
H  -5.13200 22.12000 21.38000
H  -5.86700 27.53900 21.23100
H  -6.49300 26.46200 20.05000
H  -3.80800 26.61400 19.26300
H  -4.19400 28.20000 20.04200
H  -5.07400 27.52300 18.61800
H  -1.72600 29.89100 25.54200
H  -2.92500 29.53300 24.25100
H  -1.40400 28.65800 24.26900
H  -3.77300 27.86900 30.01700
H  -0.44000 27.20900 32.02300
H  -0.87100 25.58700 32.13200
H  -1.49000 26.73600 33.40000

