158

Mg 43.83300 3.73600 47.59000
C  41.52700 6.33800 47.38100
C  41.10400 1.48000 47.44000
C  46.00900 1.34300 47.02000
C  46.42600 6.19700 47.03000
N  41.57700 3.85700 47.24200
C  40.88200 5.04900 47.40800
C  39.33900 4.79200 47.70700
C  39.32500 3.24100 47.85300
C  40.74400 2.82200 47.55900
C  38.86000 2.76200 49.22500
C  38.39200 5.36800 46.56200
C  38.84100 5.01500 45.10500
H  39.17500 6.14300 44.19900
N  43.58400 1.67600 47.30800
C  42.40400 0.93500 47.35600
C  42.74900 -0.37300 47.00400
C  44.16500 -0.52100 47.08100
C  44.62500 0.86700 47.13300
C  41.68800 -1.40600 46.57200
C  44.96300 -1.80800 46.88400
O  44.36400 -2.84100 46.66600
C  46.47700 -1.86500 46.99400
N  45.92200 3.74200 47.06200
C  46.57700 2.61100 47.07400
C  48.09500 2.82100 47.00100
C  48.22400 4.39900 47.07400
C  46.77100 4.82000 46.96100
C  49.01900 2.01300 48.01400
C  49.18800 5.09900 46.07200
C  50.44700 5.65600 46.71300
N  44.05800 5.91000 47.37600
C  45.14900 6.71900 47.21000
C  44.64700 8.08400 47.30000
C  43.26000 8.03200 47.32900
C  42.97300 6.62200 47.31400
C  45.52300 9.31700 47.47400
C  41.96900 8.72300 47.35800
O  41.76200 9.93800 47.38800
C  40.83600 7.68300 47.42200
C  39.93800 7.93000 48.63300
O  40.12800 7.46200 49.71000
O  38.82800 8.68000 48.32600
C  37.88600 8.91300 49.40300
H  40.26900 0.79300 47.58900
H  46.75100 0.55100 46.89500
H  47.23400 6.93100 46.99500
H  39.06300 5.31200 48.62400
H  38.74100 2.79500 47.04700
H  39.66800 2.47800 49.90000
H  38.16000 1.94700 49.03800
H  38.30500 3.52700 49.76700
H  38.32300 6.45500 46.61300
H  37.41200 4.93700 46.76500
H  38.03300 4.44800 44.64500
H  39.73200 4.39000 45.04800
H  42.01400 -1.80900 45.61300
H  40.74700 -0.86200 46.49500
H  41.73700 -2.14000 47.37700
H  46.66900 -1.39600 47.96000
H  46.89500 -1.44300 46.08000
H  46.68300 -2.92700 46.86300
H  48.41800 2.58200 45.98700
H  48.53000 4.69900 48.07600
H  49.53100 1.22200 47.46500
H  48.37300 1.59600 48.78700
H  49.69100 2.77100 48.41600
H  48.69800 5.83700 45.43700
H  49.56700 4.29000 45.44800
H  51.31100 5.28900 46.16000
H  50.54100 5.37800 47.76300
H  50.39500 6.73500 46.57200
H  45.26000 9.96600 46.64000
H  46.55400 9.01400 47.28700
H  45.35100 9.79900 48.43700
H  40.21900 7.89700 46.54900
H  38.46900 9.35400 50.21100
H  37.52600 7.97900 49.83500
H  37.00500 9.45400 49.05800
Mg 42.27400 41.43800 25.74000
C  41.42000 43.88100 28.11800
C  43.48300 39.60400 28.45000
C  43.39000 39.04300 23.66200
C  41.84000 43.68200 23.24200
N  42.27200 41.59900 28.05100
C  41.79500 42.68000 28.76200
C  41.80900 42.42200 30.31400
C  42.66800 41.14000 30.39600
C  42.78300 40.72700 28.91900
C  43.96200 41.27600 31.12600
C  40.43000 42.23400 30.98200
C  40.07900 43.33900 32.09100
H  41.00900 43.71700 33.25200
N  43.30900 39.54400 25.99800
C  43.70300 39.02400 27.17600
C  44.27600 37.70000 26.90400
C  44.12600 37.42200 25.49100
C  43.52600 38.66000 25.03200
C  44.78500 36.72900 28.00300
C  44.29800 36.11600 24.65800
O  44.09600 36.08300 23.42300
C  44.84000 34.86900 25.26700
N  42.55800 41.34700 23.81200
C  42.95200 40.24600 23.09200
C  42.79500 40.51000 21.56400
C  42.03700 41.87600 21.51400
C  42.14100 42.33500 22.92900
C  44.05800 40.45900 20.75300
C  40.53500 41.74300 21.17600
C  39.71100 40.57800 21.67800
N  41.68200 43.37500 25.63500
C  41.56600 44.19900 24.49700
C  41.21700 45.48900 24.88700
C  41.06400 45.39200 26.30700
C  41.39400 44.12400 26.69300
C  41.18900 46.68500 24.00800
C  40.77200 46.16900 27.52800
O  40.49900 47.34700 27.72800
C  40.98000 45.11500 28.80200
C  42.02400 45.77100 29.71200
O  43.22400 45.94600 29.43600
O  41.41200 46.18400 30.87100
C  42.32900 46.78000 31.80100
H  43.62400 38.95500 29.31600
H  43.60400 38.34300 22.85200
H  41.64900 44.38400 22.42800
H  42.33000 43.26900 30.76200
H  42.17700 40.31800 30.91500
H  44.06800 40.52200 31.90500
H  44.07100 42.22100 31.65700
H  44.81100 41.19000 30.44700
H  40.49000 41.35100 31.61900
H  39.75500 42.25100 30.12600
H  39.11600 43.04600 32.50800
H  39.98000 44.24300 31.49000
H  43.99000 35.98700 28.07500
H  44.90000 37.20100 28.97900
H  45.76000 36.33900 27.71000
H  44.14200 34.52300 26.02900
H  45.81900 35.18800 25.62300
H  45.07100 34.15900 24.47300
H  42.26500 39.66300 21.12900
H  42.51700 42.57500 20.83000
H  44.30200 41.39100 20.24300
H  44.03600 39.58400 20.10300
H  44.84000 40.32200 21.49900
H  40.56100 41.66500 20.09000
H  40.10800 42.69700 21.48500
H  39.42700 39.87500 20.89500
H  38.85600 40.88600 22.28100
H  40.15000 39.92400 22.43100
H  40.57400 46.55600 23.11800
H  42.19500 46.79700 23.60400
H  40.88600 47.55200 24.59400
H  40.09100 45.01800 29.42400
H  42.77000 47.69500 31.40400
H  43.02700 46.01300 32.13700
H  41.76200 47.11500 32.67000

