158

Mg 26.63300 0.39900 30.06400
C  28.77600 -0.04200 32.81100
C  24.09100 0.85500 32.04500
C  24.59300 0.48200 27.23300
C  29.35800 -0.59400 28.10100
N  26.43500 0.37700 32.13300
C  27.42900 0.33600 33.07600
C  26.83000 0.73300 34.48300
C  25.26700 0.84600 34.27700
C  25.22000 0.59900 32.70800
C  24.36200 -0.03900 35.08100
C  27.52600 2.04300 35.08700
C  27.63300 1.85900 36.62500
H  27.25900 3.04300 37.52700
N  24.60200 0.76100 29.65200
C  23.72000 0.93200 30.64800
C  22.37100 1.10300 30.06300
C  22.51300 1.06200 28.62400
C  23.96800 0.76000 28.46100
C  21.12300 1.37100 30.87900
C  21.52700 1.39400 27.47400
O  21.84200 1.45200 26.29900
C  20.18300 1.85100 27.89400
N  26.92400 -0.03200 28.03700
C  25.96000 0.07000 27.03200
C  26.47600 -0.38200 25.67100
C  28.09000 -0.11500 25.88100
C  28.14600 -0.27600 27.42800
C  26.18900 -1.88500 25.39300
C  28.77800 1.13800 25.25900
C  30.30700 0.96000 24.89600
N  28.60600 -0.32100 30.30000
C  29.55000 -0.68700 29.44600
C  30.71000 -1.08300 30.13000
C  30.54100 -0.74800 31.46900
C  29.18200 -0.35100 31.51200
C  32.01900 -1.71000 29.51000
C  31.17100 -0.66500 32.75000
O  32.33100 -0.84700 33.11200
C  30.00300 -0.19600 33.73600
C  29.82300 -1.10300 34.95000
O  29.27200 -2.22500 34.89100
O  30.43400 -0.55000 36.05000
C  30.18400 -1.35000 37.24700
H  23.31100 1.06200 32.78100
H  23.91500 0.36600 26.38500
H  30.20700 -0.89600 27.48400
H  27.05100 -0.14200 35.09500
H  24.91800 1.87800 34.32000
H  23.68600 -0.72600 34.57200
H  23.76900 0.62600 35.70900
H  24.81400 -0.69200 35.82800
H  26.83400 2.87600 34.96200
H  28.48100 2.10000 34.56500
H  28.67800 1.71400 36.89800
H  27.02100 1.02300 36.96300
H  20.72200 2.34200 30.58900
H  21.45800 1.46500 31.91200
H  20.35500 0.64200 30.62100
H  19.79600 1.07600 28.55500
H  19.49400 1.93200 27.05300
H  20.27300 2.73300 28.52900
H  26.06800 0.19700 24.84300
H  28.71200 -0.97000 25.61600
H  25.54700 -2.06400 24.53000
H  25.65100 -2.15500 26.30100
H  27.13000 -2.42700 25.30300
H  28.55200 1.89100 26.01400
H  28.26200 1.49100 24.36600
H  30.60700 1.61300 24.07600
H  30.53600 -0.07800 24.65500
H  30.91900 1.37800 25.69500
H  32.03500 -1.71900 28.42100
H  32.04700 -2.73000 29.89300
H  32.91200 -1.22700 29.90800
H  30.26500 0.76900 34.17000
H  29.13700 -1.32200 37.55100
H  30.93700 -0.97200 37.93900
H  30.48200 -2.39400 37.15300
Mg 35.36700 48.79700 25.97500
C  35.61100 47.07800 29.04600
C  33.93700 51.48600 27.69800
C  34.44300 50.14300 23.00500
C  36.36400 45.81500 24.36400
N  34.67200 49.15700 28.14700
C  35.07400 48.43000 29.22300
C  34.74100 49.06200 30.60000
C  34.03200 50.41500 30.09100
C  34.24200 50.38900 28.55200
C  32.51900 50.51500 30.35400
C  36.03100 49.35100 31.39200
C  36.02700 49.32000 32.93600
H  34.62300 49.39200 33.69600
N  34.46700 50.63800 25.46000
C  34.04000 51.57500 26.29300
C  33.79800 52.77400 25.49700
C  33.75700 52.34900 24.15300
C  34.18900 50.96800 24.16200
C  33.62400 54.18800 26.14500
C  33.43100 53.18000 22.84600
O  33.31500 52.67200 21.74100
C  33.17100 54.64600 22.94900
N  35.43200 48.23200 24.03500
C  35.00100 48.90900 22.96100
C  35.31100 48.12400 21.60600
C  36.09300 46.87600 22.12800
C  35.97900 46.96500 23.62200
C  34.02300 47.80900 20.68400
C  37.56500 46.73000 21.59000
C  38.76900 47.37000 22.37400
N  35.99500 46.81300 26.55600
C  36.37700 45.71800 25.79500
C  36.65400 44.60400 26.65400
C  36.41100 45.11100 27.96900
C  35.95700 46.41000 27.81400
C  37.06300 43.18500 26.27900
C  36.43100 44.76400 29.42000
O  36.68100 43.73600 29.97300
C  35.81500 46.02300 30.15200
C  34.52100 45.66900 30.69100
O  33.41100 45.76900 30.11200
O  34.76400 45.14100 31.96200
C  33.64700 44.44000 32.56200
H  33.55100 52.34000 28.25800
H  34.05500 50.54600 22.06700
H  36.74000 44.90700 23.88800
H  34.05800 48.40600 31.13900
H  34.47500 51.31500 30.51700
H  31.86400 50.49200 29.48300
H  32.34000 51.35900 31.01900
H  32.28200 49.65700 30.98400
H  36.56300 50.27700 31.17600
H  36.70500 48.55100 31.08700
H  36.64100 50.17900 33.20700
H  36.51100 48.42300 33.32300
H  34.56600 54.68100 25.90500
H  33.50900 54.31800 27.22100
H  32.84500 54.67700 25.55900
H  32.17000 54.81900 23.34300
H  33.19300 55.19400 22.00700
H  33.86900 55.19200 23.58200
H  35.95000 48.59800 20.86200
H  35.64500 45.94800 21.77000
H  33.27800 47.08500 21.01300
H  34.40500 47.50400 19.70900
H  33.41000 48.70900 20.63800
H  37.58900 47.03800 20.54400
H  37.71400 45.65800 21.72000
H  39.43000 47.67400 21.56200
H  39.28500 46.64600 23.00500
H  38.40500 48.18100 23.00400
H  36.55200 42.72300 25.43400
H  36.88700 42.57600 27.16500
H  38.12700 43.10700 26.05600
H  36.46700 46.36100 30.95800
H  33.29200 43.77200 31.77700
H  32.93200 45.15600 32.96700
H  34.03700 43.93900 33.44800

