158

Mg 41.46200 41.61300 26.96200
C  40.56500 43.84500 29.29300
C  42.35400 39.30900 29.24500
C  42.68200 39.66100 24.39000
C  41.20700 44.21500 24.43600
N  41.29100 41.56800 29.05500
C  40.91700 42.63300 29.85400
C  40.72000 42.11000 31.32200
C  41.48900 40.75700 31.28200
C  41.67300 40.45700 29.78500
C  42.98400 40.82100 31.75800
C  39.28100 42.05500 31.94800
C  38.90800 43.26500 32.93700
H  38.42300 43.04400 34.33600
N  42.26000 39.70500 26.79600
C  42.58500 38.91200 27.85600
C  43.16300 37.63600 27.34400
C  43.17800 37.71800 25.96400
C  42.65400 39.05800 25.64900
C  43.40700 36.47100 28.25700
C  43.64400 36.66100 24.91400
O  43.56900 36.79400 23.71300
C  44.22300 35.38100 25.39400
N  41.82100 41.86500 24.77700
C  42.31200 40.90500 23.98100
C  42.37500 41.22000 22.50300
C  41.49500 42.52400 22.49100
C  41.54100 42.94700 24.01100
C  43.79700 41.55300 21.96400
C  40.07300 42.30900 21.93900
C  39.28600 41.21300 22.53100
N  41.01200 43.60100 26.87000
C  40.96000 44.51900 25.78400
C  40.48800 45.77900 26.32500
C  40.25200 45.52000 27.70500
C  40.65000 44.20000 27.96900
C  40.29700 47.05500 25.45800
C  39.80200 46.14300 28.93800
O  39.43600 47.29600 29.10900
C  39.95300 45.07900 30.04400
C  40.95300 45.71400 30.95300
O  42.15300 45.67200 30.75900
O  40.32200 46.31400 32.03700
C  41.15600 47.02900 33.00100
H  42.62000 38.57900 30.01200
H  43.11200 39.00800 23.62700
H  40.99500 44.98900 23.69600
H  41.32800 42.65100 32.04700
H  40.94100 39.90900 31.69400
H  43.65900 40.56600 30.94100
H  43.25400 40.06800 32.49800
H  43.24800 41.76400 32.23600
H  39.06600 41.03100 32.25700
H  38.72000 42.11300 31.01600
H  38.14900 43.82100 32.38600
H  39.68700 44.02600 32.97400
H  43.49500 36.84700 29.27600
H  44.36000 35.97600 28.07200
H  42.63700 35.70400 28.17500
H  45.10300 35.62800 25.98800
H  44.36100 34.81100 24.47600
H  43.61500 34.78900 26.07900
H  41.96200 40.42000 21.88900
H  41.93500 43.23300 21.79000
H  43.82300 42.52900 21.47800
H  43.98600 40.76800 21.23100
H  44.46000 41.47500 22.82500
H  39.95100 42.34400 20.85700
H  39.49000 43.17900 22.24000
H  38.60800 41.70800 23.22600
H  39.91300 40.37300 22.83100
H  38.62600 40.77600 21.78200
H  40.31100 46.74500 24.41400
H  41.10800 47.77200 25.59100
H  39.32100 47.53300 25.54100
H  38.96000 44.98600 30.48600
H  41.00400 46.62900 34.00400
H  40.72800 48.03100 32.99500
H  42.22400 47.02900 32.78400
Mg -11.76500 17.02900 42.33500
C  -8.27200 18.22600 42.23700
C  -12.55200 20.38500 41.66900
C  -14.75800 16.06000 42.07100
C  -10.44900 13.77900 42.47600
N  -10.51300 19.05400 41.83200
C  -9.16300 19.27900 42.03400
C  -8.75100 20.73800 41.85900
C  -10.19800 21.38400 41.93800
C  -11.18000 20.23400 41.70500
C  -10.42100 22.07800 43.34000
C  -8.05900 20.96000 40.50700
C  -6.66000 21.53200 40.42600
H  -5.71000 20.74500 39.62700
N  -13.43600 17.96500 41.81600
C  -13.62300 19.34100 41.64400
C  -15.07600 19.59300 41.45000
C  -15.77200 18.37000 41.58200
C  -14.65400 17.38600 41.81600
C  -15.57100 20.97900 41.12100
C  -17.28600 18.14900 41.46400
O  -17.99400 19.13900 41.30700
C  -17.92000 16.78100 41.33200
N  -12.48000 15.10400 41.95900
C  -13.83200 15.05600 42.24100
C  -14.23700 13.59200 42.59200
C  -12.88000 12.89700 42.76600
C  -11.86900 13.95600 42.41700
C  -15.19100 13.40500 43.82000
C  -12.63300 11.62300 41.99100
C  -13.78600 10.59300 41.97500
N  -9.74000 16.14600 42.29300
C  -9.39000 14.80400 42.34000
C  -7.91400 14.68800 42.56700
C  -7.44700 16.05600 42.66800
C  -8.56900 16.87000 42.34400
C  -7.07000 13.42600 42.67300
C  -6.27300 16.85400 42.83000
O  -5.07600 16.64200 43.01900
C  -6.82900 18.34400 42.50700
C  -6.42000 19.10700 43.69700
O  -6.83800 18.95600 44.85000
O  -5.49200 19.99100 43.35500
C  -4.70500 20.76000 44.32600
H  -12.84400 21.42900 41.54200
H  -15.77500 15.76100 42.33400
H  -10.14100 12.76000 42.72300
H  -8.13900 20.99000 42.72500
H  -10.37000 22.23400 41.27900
H  -9.49900 22.05000 43.92100
H  -11.21500 21.58700 43.90400
H  -10.57000 23.14700 43.18900
H  -8.64000 21.72900 39.99900
H  -8.10000 20.04300 39.92000
H  -6.19400 21.55000 41.41100
H  -6.55900 22.60200 40.24700
H  -16.55400 21.08700 40.66200
H  -14.80000 21.41200 40.48400
H  -15.48000 21.51700 42.06400
H  -18.82400 16.81000 40.72400
H  -18.12000 16.26800 42.27300
H  -17.20800 16.27600 40.67900
H  -14.83300 13.17900 41.77800
H  -12.74500 12.73100 43.83400
H  -14.67200 12.79800 44.56100
H  -16.09500 12.84000 43.59100
H  -15.37600 14.33400 44.35800
H  -11.85300 10.95700 42.35900
H  -12.27000 11.89700 41.00100
H  -13.66400 9.73900 42.64200
H  -13.95800 10.22700 40.96200
H  -14.73400 11.05000 42.25800
H  -6.05800 13.63800 42.32800
H  -7.49300 12.58200 42.12900
H  -7.01300 12.90100 43.62700
H  -6.29800 18.72800 41.63600
H  -3.87700 21.24900 43.81200
H  -4.27800 20.08400 45.06700
H  -5.34900 21.48200 44.82700

