158

Mg 1.38100 8.37500 25.02900
C  1.88100 10.36100 27.80200
C  1.50500 5.60400 26.81400
C  0.89700 6.53400 22.20500
C  1.17700 11.34400 23.07600
N  1.76200 8.04500 27.08600
C  1.90300 9.00100 28.07200
C  2.03800 8.32500 29.49600
C  2.01200 6.79200 29.06200
C  1.70300 6.80100 27.55900
C  3.38100 6.05900 29.32700
C  0.81100 8.65200 30.45900
C  1.10300 8.72900 31.96700
H  2.33300 7.94400 32.58500
N  1.35000 6.34100 24.52600
C  1.47000 5.37300 25.51100
C  1.26500 4.13000 24.86500
C  0.97500 4.31600 23.49900
C  1.07500 5.77700 23.35000
C  1.26900 2.81800 25.53800
C  0.63400 3.38500 22.35300
O  0.19300 3.71300 21.25400
C  0.65500 1.99400 22.64200
N  1.20100 8.90200 22.92200
C  0.99700 7.91000 21.96700
C  0.78500 8.56800 20.57800
C  0.55600 10.13700 20.92500
C  0.94600 10.17900 22.40000
C  2.10200 8.36600 19.75900
C  -0.84600 10.68400 20.60200
C  -0.85100 11.39800 19.24600
N  1.47100 10.41500 25.33700
C  1.37400 11.52100 24.40900
C  1.50200 12.83700 25.15500
C  1.66500 12.41500 26.50000
C  1.71000 10.93800 26.51300
C  1.66200 14.22700 24.52500
C  1.87300 12.89000 27.81200
O  1.93700 14.01400 28.23900
C  1.93400 11.62300 28.70800
C  3.06100 11.81400 29.64500
O  4.19400 12.01300 29.27400
O  2.59800 11.88000 30.92700
C  3.45600 12.38400 32.00300
H  1.58600 4.76000 27.50200
H  0.88600 5.99600 21.25400
H  1.21900 12.20900 22.41100
H  2.99500 8.64200 29.90900
H  1.23600 6.19900 29.54700
H  3.19500 5.25700 30.04100
H  4.20400 6.64500 29.73300
H  3.72700 5.54300 28.43100
H  0.00900 7.94200 30.26000
H  0.50700 9.66600 30.20100
H  0.23000 8.26500 32.42500
H  1.08900 9.78400 32.23900
H  2.04400 2.17400 25.12200
H  0.31500 2.32300 25.71800
H  1.74400 3.04600 26.49300
H  0.50200 1.45700 21.70700
H  -0.22900 2.06100 23.27700
H  1.57300 1.66000 23.12500
H  -0.02500 8.03500 20.07800
H  1.28000 10.79600 20.44600
H  2.05600 7.31400 19.47500
H  2.96800 8.48600 20.40800
H  2.13000 8.97400 18.85500
H  -1.17200 11.33600 21.41200
H  -1.44000 9.78200 20.45900
H  -1.69200 11.12200 18.61100
H  0.05200 11.41000 18.63600
H  -1.15600 12.39400 19.56800
H  0.99400 14.93900 25.00900
H  1.45800 14.23700 23.45400
H  2.68500 14.60100 24.56800
H  1.04700 11.76600 29.32500
H  3.95700 11.46500 32.31000
H  2.88000 12.77900 32.84000
H  4.15300 13.14100 31.64400
Mg 8.95800 3.43400 27.59500
C  10.25900 1.74000 30.57400
C  7.61800 5.76100 29.64400
C  7.70300 4.77800 24.88400
C  10.39500 0.82200 25.76300
N  8.87600 3.62400 29.92900
C  9.44200 2.85600 30.91000
C  9.16700 3.43600 32.27400
C  8.18100 4.67200 31.96700
C  8.22600 4.67700 30.42700
C  6.74000 4.75400 32.60000
C  10.52500 3.82400 32.94200
C  10.39700 4.84500 34.18700
H  11.19500 4.60000 35.42500
N  7.93800 5.18400 27.27800
C  7.47700 6.03400 28.26500
C  6.82900 7.13000 27.65400
C  6.83600 6.83400 26.23500
C  7.53000 5.58500 26.04000
C  6.22800 8.25000 28.36900
C  6.22400 7.66700 25.11500
O  6.29100 7.38900 23.91900
C  5.43300 8.88400 25.47500
N  9.10600 2.86600 25.65000
C  8.42100 3.57100 24.69900
C  8.52800 2.84100 23.32200
C  9.60300 1.76400 23.57000
C  9.79300 1.81300 25.08700
C  7.24000 2.39700 22.65700
C  10.87700 1.98400 22.71200
C  11.34400 0.81700 21.81000
N  10.22200 1.71800 28.00400
C  10.63800 0.71700 27.11000
C  11.24400 -0.35200 27.87300
C  11.24600 0.08100 29.21900
C  10.50300 1.28900 29.23200
C  11.74900 -1.57200 27.41700
C  11.60800 -0.28700 30.54600
O  12.27900 -1.27400 30.95600
C  11.06400 0.81900 31.49800
C  10.25000 0.28000 32.56500
O  9.08800 -0.02400 32.44800
O  10.90900 0.24600 33.67400
C  10.11900 -0.36200 34.78500
H  7.23300 6.52000 30.32900
H  7.30200 5.19200 23.95600
H  10.83500 0.01200 25.17600
H  8.63900 2.74400 32.93100
H  8.78400 5.55800 32.16200
H  6.76900 3.88100 33.25100
H  5.94900 4.83600 31.85400
H  6.61400 5.66000 33.19200
H  11.17000 4.28300 32.19300
H  11.12300 3.00200 33.33400
H  9.33300 4.85100 34.42200
H  10.60700 5.86900 33.87700
H  6.64900 9.13500 27.89300
H  6.39500 8.31900 29.44400
H  5.16600 8.18500 28.13200
H  6.09500 9.59400 25.97100
H  4.55000 8.43600 25.93000
H  5.06100 9.31100 24.54300
H  8.96900 3.59500 22.67000
H  9.21100 0.76000 23.41000
H  7.00100 3.02400 21.79800
H  6.51000 2.56000 23.45000
H  7.25900 1.33600 22.40400
H  11.79600 2.25700 23.23100
H  10.75300 2.78400 21.98200
H  10.63900 -0.01300 21.83500
H  12.25900 0.48600 22.30300
H  11.45100 1.32300 20.85100
H  11.16300 -1.70800 26.50800
H  11.45600 -2.35300 28.11800
H  12.82400 -1.48400 27.25800
H  11.94000 1.32700 31.90000
H  9.49000 0.36900 35.29300
H  10.91500 -0.73500 35.43000
H  9.53000 -1.21600 34.45100

