158

Mg 44.27800 5.23700 47.35300
C  42.16600 8.20700 47.34700
C  41.33500 3.50600 47.14400
C  46.11300 2.77000 46.90700
C  47.00200 7.50200 47.16500
N  42.06100 5.87100 47.24800
C  41.42200 7.06800 47.19100
C  39.88200 6.94700 47.02500
C  39.68500 5.39700 46.94800
C  41.15300 4.86900 47.18300
C  38.64900 4.81400 47.91300
C  39.09800 7.73100 45.88900
C  39.85100 8.09700 44.57100
H  39.07700 7.59900 43.28400
N  43.78700 3.38200 47.01400
C  42.57900 2.82900 47.05700
C  42.77000 1.43900 46.75600
C  44.13300 1.14600 46.64000
C  44.78000 2.46200 46.78400
C  41.55500 0.48700 46.75300
C  44.81700 -0.21200 46.37700
O  44.11500 -1.21000 46.35800
C  46.16500 -0.37100 46.16800
N  46.30100 5.18500 46.97600
C  46.84500 3.93800 47.00100
C  48.40800 3.94500 46.97600
C  48.62200 5.48800 47.17300
C  47.22500 6.14900 47.11400
C  49.00900 3.09600 48.07300
C  49.44800 6.01400 45.97300
C  50.96600 5.78700 46.09700
N  44.59000 7.39700 47.38600
C  45.75900 8.11300 47.28700
C  45.50000 9.51600 47.30200
C  44.09200 9.57300 47.35700
C  43.55300 8.30100 47.43900
C  46.50100 10.63800 46.95800
C  42.96900 10.55100 47.37800
O  42.91500 11.74200 47.26500
C  41.67300 9.65500 47.19000
C  40.55100 10.02100 48.15000
O  40.41200 9.67400 49.27700
O  39.80300 11.07700 47.64200
C  38.86800 11.76100 48.57300
H  40.45200 2.88000 47.00000
H  46.80500 1.92900 46.82100
H  47.82100 8.22500 47.16300
H  39.52700 7.39200 47.95400
H  39.50600 5.19600 45.89200
H  37.88100 5.58800 47.91900
H  39.09000 4.75400 48.90800
H  38.24500 3.88000 47.52300
H  38.72900 8.66100 46.32200
H  38.21600 7.13300 45.66200
H  40.89900 7.80300 44.63100
H  39.80400 9.17800 44.43600
H  41.63400 -0.37400 46.09000
H  40.76000 0.95700 46.17500
H  41.26800 0.30200 47.78800
H  46.56300 0.25800 45.37200
H  46.51900 -1.37100 45.91800
H  46.81300 -0.18100 47.02400
H  48.62900 3.59300 45.96800
H  49.09300 5.65300 48.14200
H  48.21100 2.70500 48.70400
H  49.61900 3.69500 48.75000
H  49.45500 2.18800 47.66800
H  49.26400 7.08000 45.83800
H  49.13700 5.50100 45.06300
H  51.30700 4.99100 45.43400
H  51.30100 5.51900 47.09900
H  51.49100 6.72700 45.93200
H  46.04300 11.57500 47.27200
H  46.69400 10.58300 45.88700
H  47.43400 10.50000 47.50400
H  41.21900 9.89000 46.22700
H  39.50700 11.96900 49.43100
H  38.03200 11.17900 48.96100
H  38.47600 12.64800 48.07600
Mg 49.98300 45.71700 42.97100
C  46.69300 46.11700 41.61200
C  50.27300 42.83800 41.06500
C  53.32900 45.82700 43.17200
C  49.88100 49.18000 43.85300
N  48.61300 44.63300 41.51100
C  47.34300 44.96400 41.13500
C  46.77300 44.02600 40.10600
C  47.90200 42.88700 40.03100
C  49.00900 43.49900 40.94700
C  47.38400 41.44600 40.51200
C  46.66200 44.80900 38.72900
C  45.24800 44.87800 38.20300
H  45.00000 44.10100 36.94900
N  51.49900 44.31400 42.62200
C  51.41500 43.21800 41.81700
C  52.71100 42.51200 41.91600
C  53.53000 43.26600 42.74400
C  52.83400 44.54600 42.89100
C  52.94500 41.16700 41.19900
C  54.89800 42.86500 43.20200
O  55.40500 41.83900 42.81700
C  55.81200 43.85400 43.92900
N  51.31000 47.32300 43.30400
C  52.66900 46.99200 43.50500
C  53.45500 48.19900 43.97100
C  52.43000 49.26300 44.37200
C  51.14200 48.56900 43.77600
C  54.69900 48.01900 44.98600
C  52.68000 50.60000 43.72900
C  52.74400 51.79700 44.65100
N  48.55000 47.20400 43.10200
C  48.66300 48.58300 43.43500
C  47.28700 49.17600 43.39500
C  46.50000 48.20600 42.69500
C  47.34100 47.05800 42.44400
C  46.83400 50.61300 43.77300
C  45.15700 47.96100 42.19500
O  44.12500 48.63500 42.22200
C  45.19700 46.56100 41.61100
C  44.27000 45.64300 42.29800
O  44.51600 44.92200 43.29000
O  42.97500 45.70600 41.71200
C  41.97800 44.73900 42.26800
H  50.41400 41.97400 40.41300
H  54.42000 45.86300 43.20300
H  49.87700 50.18200 44.28600
H  45.75200 43.75900 40.37900
H  48.34600 42.73300 39.04700
H  47.74100 40.61000 39.91100
H  46.30400 41.44600 40.65800
H  47.91600 41.26000 41.44500
H  47.26000 44.23300 38.02300
H  47.00900 45.83500 38.85400
H  45.03000 45.92300 37.98000
H  44.46900 44.53900 38.88600
H  52.12800 40.88100 40.53600
H  53.14600 40.33300 41.87200
H  53.87500 41.14500 40.63200
H  56.57000 43.40900 44.57300
H  55.17000 44.54600 44.47500
H  56.21000 44.40900 43.08000
H  53.88500 48.42600 42.99600
H  52.26800 49.41800 45.43900
H  54.90600 46.97300 45.21200
H  54.32000 48.49300 45.89100
H  55.64400 48.45800 44.66500
H  51.87900 50.81200 43.01900
H  53.59300 50.55400 43.13500
H  53.70200 52.24300 44.38400
H  52.71300 51.47500 45.69200
H  51.97300 52.51700 44.37800
H  45.77500 50.77400 43.97500
H  47.23100 51.22700 42.96500
H  47.38400 50.83100 44.68800
H  44.77300 46.63900 40.61000
H  42.39300 43.77000 42.54600
H  41.15900 44.65400 41.55500
H  41.48100 45.15500 43.14400

