158

Mg 42.65200 41.11200 26.84000
C  42.08500 43.54700 29.35200
C  43.65800 38.99500 29.30100
C  43.47100 39.01800 24.36200
C  41.94400 43.59300 24.46900
N  43.02000 41.32800 29.11300
C  42.56700 42.35900 29.90700
C  42.55500 41.95400 31.44900
C  43.36300 40.57500 31.34400
C  43.37900 40.24400 29.82100
C  44.69200 40.47100 32.10300
C  41.15300 41.92000 32.05600
C  40.80000 42.64400 33.37600
H  40.09400 41.74500 34.41700
N  43.50000 39.23400 26.78000
C  43.76200 38.49400 27.94900
C  44.12000 37.12100 27.53500
C  44.15400 37.17300 26.03700
C  43.70700 38.48600 25.63200
C  44.37600 36.00700 28.60000
C  44.54700 36.07400 25.04700
O  44.48500 36.15000 23.86900
C  45.15300 34.89200 25.64100
N  42.77300 41.28400 24.76300
C  43.05500 40.23800 23.95600
C  42.64200 40.57200 22.50200
C  41.93800 41.97600 22.61400
C  42.26100 42.33300 24.03700
C  43.86600 40.45600 21.55900
C  40.43200 41.84800 22.33400
C  39.56000 41.05400 23.36500
N  42.08500 43.14700 26.83900
C  41.88800 44.00900 25.80300
C  41.41200 45.29300 26.28900
C  41.41600 45.12900 27.68100
C  41.79700 43.76900 27.99400
C  40.85700 46.44700 25.47700
C  41.25400 45.88000 28.92800
O  41.07500 47.05200 29.26700
C  41.44400 44.77800 30.08300
C  42.36500 45.30600 31.08300
O  43.36100 45.99600 30.76800
O  41.84300 45.33600 32.30000
C  42.56100 46.16100 33.34700
H  43.94700 38.32000 30.10900
H  43.66600 38.38400 23.49400
H  41.64500 44.32600 23.71700
H  43.08900 42.73000 31.99700
H  42.70500 39.80600 31.74800
H  45.44700 40.72500 31.35800
H  44.77300 39.49700 32.58400
H  44.70300 41.26500 32.84900
H  40.82700 40.88200 32.11700
H  40.52800 42.51600 31.39100
H  40.09500 43.46400 33.24000
H  41.73500 43.03200 33.78000
H  45.44700 35.84200 28.48200
H  43.84200 35.10500 28.30200
H  44.16800 36.37100 29.60600
H  45.96800 35.29600 26.24100
H  45.68900 34.27500 24.91900
H  44.60300 34.16100 26.23400
H  41.93600 39.79300 22.21300
H  42.42000 42.74500 22.01100
H  44.85400 40.63400 21.98500
H  43.82200 41.35200 20.94000
H  43.78300 39.50600 21.03000
H  40.26200 41.45100 21.33300
H  40.03200 42.85500 22.21600
H  39.99200 41.18000 24.35800
H  39.52500 40.01100 23.04800
H  38.54500 41.44900 23.34400
H  40.92500 46.36700 24.39200
H  41.27800 47.37200 25.87200
H  39.79400 46.52000 25.70700
H  40.43100 44.54300 30.40900
H  43.61200 46.34600 33.12400
H  42.49400 45.76700 34.36100
H  42.12700 47.14600 33.51900
Mg 16.95600 53.06000 26.61700
C  18.85600 51.47500 29.03500
C  14.50200 53.61600 28.90600
C  14.96800 54.19400 24.11300
C  19.32600 52.01600 24.14000
N  16.60400 52.48900 28.64200
C  17.60000 51.96100 29.45700
C  17.27300 52.27200 30.89800
C  15.78900 52.63000 30.82800
C  15.53600 52.81700 29.35400
C  14.86500 51.61600 31.45900
C  18.17600 53.39700 31.50300
C  18.63200 53.18400 32.91500
H  17.67100 52.38000 33.82400
N  15.06700 53.95600 26.52200
C  14.23900 54.16000 27.63200
C  13.04800 54.87700 27.23600
C  13.09300 54.96800 25.81900
C  14.41200 54.38800 25.37300
C  11.98100 55.22500 28.26900
C  12.09200 55.62100 24.85100
O  12.39600 55.64900 23.64600
C  10.89300 56.44000 25.37100
N  17.11400 52.97700 24.42200
C  16.11700 53.55900 23.66800
C  16.44900 53.29600 22.14400
C  17.99800 52.95100 22.18800
C  18.18000 52.63200 23.66400
C  15.48400 52.28100 21.47800
C  19.01700 53.94800 21.59500
C  19.51900 55.20900 22.35500
N  18.75900 51.84200 26.53900
C  19.65300 51.60600 25.47300
C  20.76800 50.79000 26.05100
C  20.47000 50.84500 27.45200
C  19.25200 51.41800 27.69000
C  21.90900 50.22000 25.26600
C  21.06100 50.40500 28.73100
O  22.11900 49.84100 28.95900
C  20.00900 50.90300 29.81500
C  19.65600 49.80000 30.60800
O  19.07500 48.77900 30.25000
O  19.99400 50.00700 31.89600
C  19.54800 48.95400 32.76500
H  13.75200 53.79900 29.67800
H  14.35200 54.51100 23.26800
H  20.01300 51.76000 23.33000
H  17.48800 51.39200 31.50500
H  15.69100 53.62500 31.26200
H  14.14100 52.12500 32.09600
H  15.33100 50.76700 31.95900
H  14.35400 51.22100 30.58000
H  17.73300 54.37500 31.31400
H  19.07200 53.51000 30.89200
H  18.66500 54.10700 33.49400
H  19.56700 52.63400 33.02200
H  11.15500 54.52300 28.38000
H  11.50500 56.15400 27.95700
H  12.46300 55.49600 29.20900
H  10.26000 55.91800 26.08800
H  10.27200 56.66700 24.50400
H  11.27500 57.34100 25.85000
H  16.37300 54.28400 21.68900
H  18.24000 51.98800 21.74000
H  16.13200 51.48800 21.10500
H  14.85100 52.57900 20.64300
H  14.87500 51.74700 22.20900
H  18.50500 54.33600 20.71400
H  19.84700 53.27000 21.39500
H  18.81800 55.49300 23.14000
H  19.43700 56.06800 21.68900
H  20.56500 55.09200 22.63800
H  22.49700 51.12500 25.10900
H  21.79100 49.69800 24.31600
H  22.52700 49.66300 25.97000
H  20.51700 51.69800 30.36000
H  20.38800 48.26200 32.82900
H  18.56600 48.52100 32.57300
H  19.43800 49.49400 33.70600

