158

Mg 16.48300 -2.57000 28.15900
C  15.89500 -0.44200 30.90300
C  17.83400 -4.81300 30.41900
C  17.66000 -4.42200 25.50700
C  15.29600 -0.35000 26.07500
N  16.91400 -2.61200 30.48300
C  16.52200 -1.63900 31.27900
C  16.86000 -2.04600 32.75000
C  17.77900 -3.32500 32.55000
C  17.46300 -3.65900 31.09200
C  19.29900 -2.96700 32.77600
C  15.61900 -2.45400 33.56900
C  15.36800 -1.65500 34.87600
H  16.66800 -1.19400 35.64700
N  17.51000 -4.44500 27.97300
C  17.84500 -5.22300 29.01700
C  18.38200 -6.47800 28.48500
C  18.24400 -6.42200 27.04400
C  17.77200 -5.03900 26.77300
C  18.88300 -7.57600 29.36200
C  18.58600 -7.47600 25.97500
O  18.38000 -7.27800 24.74700
C  19.24500 -8.77700 26.51900
N  16.55400 -2.33400 26.08700
C  17.07600 -3.22800 25.19000
C  16.95300 -2.72600 23.77400
C  15.88000 -1.62600 23.97800
C  15.80700 -1.46500 25.48400
C  18.27100 -2.18000 23.21400
C  14.40000 -1.77800 23.38300
C  13.11300 -1.97100 24.22000
N  15.71900 -0.76700 28.34100
C  15.26600 0.03800 27.38400
C  14.67600 1.17300 27.93800
C  14.87900 1.08200 29.34900
C  15.57500 -0.13900 29.48000
C  13.99300 2.29800 27.22800
C  14.68600 1.59300 30.67700
O  14.16800 2.63700 31.04500
C  15.37800 0.63600 31.72800
C  16.41700 1.48600 32.33200
O  17.58900 1.41800 32.03300
O  15.85300 2.42600 33.13500
C  16.70400 3.48900 33.67500
H  18.26400 -5.46800 31.17900
H  18.05000 -5.05300 24.70600
H  14.90400 0.44700 25.44000
H  17.39300 -1.20400 33.19200
H  17.74700 -4.13100 33.28400
H  19.51500 -1.96500 33.14600
H  19.86200 -3.15900 31.86200
H  19.66000 -3.54700 33.62400
H  15.46200 -3.53200 33.58700
H  14.88900 -2.05900 32.86200
H  14.91600 -2.25500 35.66500
H  14.69300 -0.88400 34.50600
H  18.50500 -8.58400 29.19600
H  18.42000 -7.44000 30.33900
H  19.95700 -7.51800 29.54300
H  20.04200 -8.52600 27.21900
H  19.72400 -9.31900 25.70400
H  18.50000 -9.43100 26.97300
H  16.51100 -3.54600 23.20800
H  16.16400 -0.67400 23.52700
H  18.95800 -1.83000 23.98500
H  18.10800 -1.30600 22.58300
H  19.01400 -2.77100 22.67800
H  14.38400 -2.57100 22.63400
H  14.19300 -0.84500 22.85900
H  12.74200 -1.02900 24.62500
H  13.31900 -2.51800 25.14000
H  12.44400 -2.55000 23.58400
H  12.98600 1.93900 27.01300
H  14.56400 2.51300 26.32500
H  13.95700 3.25100 27.75500
H  14.69800 0.28000 32.50200
H  16.09500 4.05200 34.38200
H  17.01800 4.17400 32.88700
H  17.59000 3.02200 34.10500
Mg -0.45600 44.03000 26.59100
C  1.83400 43.69500 29.17600
C  -2.98200 43.10900 28.87400
C  -2.68700 44.22700 24.07700
C  2.29400 44.51700 24.38800
N  -0.53500 43.39500 28.70000
C  0.47200 43.63500 29.61700
C  0.05900 43.47600 31.04400
C  -1.46200 43.08200 30.90900
C  -1.69700 43.27300 29.41100
C  -1.87100 41.74600 31.49300
C  0.33600 44.77300 31.90000
C  0.45100 44.57700 33.43600
H  -0.12800 43.33100 34.08200
N  -2.60200 43.70200 26.50400
C  -3.40900 43.29600 27.54500
C  -4.77200 43.13400 27.01200
C  -4.71300 43.57800 25.63200
C  -3.28000 43.88400 25.35900
C  -5.88900 42.69200 27.88100
C  -5.83300 43.57700 24.62600
O  -5.78900 43.98400 23.48900
C  -7.12000 42.85000 24.91900
N  -0.21100 44.32700 24.56600
C  -1.31600 44.41800 23.74100
C  -0.93400 44.77500 22.30100
C  0.64300 45.07200 22.51400
C  0.97900 44.65100 23.89400
C  -1.35400 43.74800 21.19700
C  1.03100 46.57200 22.39500
C  1.12600 47.22100 20.96000
N  1.64400 43.98800 26.71400
C  2.59900 44.19800 25.73400
C  3.90200 44.09300 26.36500
C  3.66100 43.87300 27.72300
C  2.28100 43.82100 27.86700
C  5.17900 44.44400 25.74500
C  4.27000 43.77100 29.00300
O  5.43500 43.85000 29.35500
C  3.14800 43.61300 29.99700
C  3.30600 42.30100 30.54400
O  3.27700 41.22700 29.95900
O  3.40900 42.40900 31.95700
C  3.41200 41.07400 32.54600
H  -3.71500 42.88300 29.65100
H  -3.35600 44.37300 23.22600
H  3.13400 44.68100 23.70900
H  0.46500 42.52500 31.39000
H  -1.98100 43.89500 31.41700
H  -2.37800 41.10500 30.77200
H  -2.54000 42.00300 32.31500
H  -1.01700 41.16400 31.84000
H  -0.49800 45.43300 31.66200
H  1.32300 45.08400 31.55900
H  0.06200 45.44100 33.97400
H  1.47600 44.58600 33.80800
H  -5.53800 42.25800 28.81700
H  -6.57600 41.98400 27.41700
H  -6.48400 43.57300 28.12200
H  -7.60200 43.43900 25.70000
H  -6.82700 41.87400 25.30600
H  -7.70700 42.76100 24.00500
H  -1.45000 45.70400 22.05800
H  1.23600 44.52000 21.78400
H  -0.46000 43.31900 20.74500
H  -2.03600 44.24400 20.50600
H  -1.88300 42.90100 21.63300
H  2.03400 46.76300 22.77700
H  0.31000 47.15800 22.96500
H  0.85400 46.49100 20.19700
H  2.17000 47.49000 20.79600
H  0.48400 48.10000 21.01400
H  5.50100 45.37700 26.20800
H  5.13400 44.61300 24.67000
H  5.86800 43.61800 25.92900
H  3.18800 44.32800 30.81900
H  4.41300 40.80300 32.21000
H  2.62400 40.43200 32.15300
H  3.22700 41.24500 33.60700

