158

Mg 6.12200 52.94400 40.94900
C  5.03500 49.54100 40.79200
C  9.23800 51.91000 39.63700
C  6.86400 56.06800 40.52500
C  2.71500 53.67400 41.72200
N  6.94400 51.01500 40.30000
C  6.39400 49.73500 40.32900
C  7.39000 48.70100 39.82100
C  8.73700 49.47900 39.79200
C  8.28800 50.93400 39.95100
C  9.75100 49.02300 40.96300
C  7.17800 47.98100 38.48500
C  6.44900 48.78900 37.31900
H  7.26600 49.36500 36.14500
N  7.94200 53.88700 40.39400
C  9.09000 53.33500 39.83100
C  10.08400 54.34400 39.60600
C  9.36200 55.56500 39.92300
C  8.00000 55.24600 40.34600
C  11.57100 54.30300 39.33600
C  9.98200 56.93400 39.80800
O  11.10900 57.15700 39.46200
C  9.17300 58.10700 40.20800
N  4.92100 54.63400 40.88400
C  5.47200 55.80300 40.70700
C  4.35900 56.85500 40.70100
C  3.09500 56.07100 41.18300
C  3.65100 54.72400 41.39300
C  4.66400 58.13100 41.58100
C  1.94900 55.97200 40.10900
C  0.50000 56.49200 40.50300
N  4.26100 51.82500 41.37700
C  2.93300 52.29000 41.66500
C  2.12300 51.15100 41.93100
C  2.88900 50.05300 41.60200
C  4.12200 50.49400 41.19400
C  0.72000 51.09100 42.48000
C  2.83600 48.66500 41.53300
O  1.95100 47.85100 41.74900
C  4.31900 48.19800 41.02300
C  4.12000 47.37000 39.76200
O  3.68400 47.79500 38.73700
O  4.63800 46.11000 39.92700
C  4.60100 45.25200 38.73200
H  10.20200 51.49700 39.33400
H  7.00500 57.14700 40.44200
H  1.74800 54.06300 42.04900
H  7.39800 47.98100 40.64000
H  9.19400 49.29300 38.82000
H  10.69100 48.86600 40.43300
H  9.45800 48.08500 41.43300
H  9.83600 49.81200 41.71000
H  6.55300 47.11800 38.71300
H  8.12300 47.51900 38.20100
H  6.03600 49.66000 37.82800
H  5.60000 48.15100 37.07300
H  12.07600 54.69100 40.22000
H  11.80800 55.01300 38.54300
H  11.88900 53.27300 39.17500
H  8.43600 58.22400 39.41300
H  9.71400 59.04000 40.05200
H  8.93600 58.05200 41.27000
H  4.30900 57.16000 39.65600
H  2.65700 56.55600 42.05500
H  4.37100 59.01300 41.01200
H  5.71900 58.13700 41.85700
H  4.11300 58.13800 42.52100
H  1.91800 54.98700 39.64200
H  2.16000 56.64200 39.27500
H  -0.18600 55.77100 40.05900
H  0.28000 57.47100 40.07700
H  0.34600 56.56900 41.58000
H  0.08900 51.83100 41.98800
H  0.78100 51.38200 43.52900
H  0.35800 50.08300 42.27300
H  4.71200 47.48100 41.74500
H  5.07700 44.28300 38.88200
H  5.02300 45.68000 37.82200
H  3.57300 45.01200 38.46000
Mg 9.74000 47.87400 25.65400
C  7.30200 48.34600 28.29900
C  12.13400 48.88200 27.94500
C  11.86100 47.79800 23.09400
C  7.03600 47.17800 23.47400
N  9.68700 48.43600 27.95000
C  8.66300 48.37800 28.76900
C  9.19900 48.50100 30.26000
C  10.56400 49.18000 29.95600
C  10.85500 48.72700 28.55300
C  10.62700 50.74100 29.99000
C  9.30100 47.15700 30.96300
C  8.69300 47.07300 32.31200
H  9.44000 46.22700 33.42900
N  11.71300 48.41200 25.49800
C  12.53500 48.70600 26.57300
C  13.96700 48.82100 26.06200
C  13.85300 48.50900 24.69100
C  12.41700 48.20200 24.43000
C  15.18800 49.23300 26.96000
C  14.97500 48.21800 23.72000
O  14.89200 48.10400 22.51500
C  16.37900 48.00800 24.30700
N  9.49000 47.63500 23.52600
C  10.56000 47.58000 22.67100
C  10.14500 47.17900 21.27600
C  8.64100 46.79700 21.42600
C  8.32400 47.23200 22.88000
C  10.39500 48.24900 20.21700
C  8.22000 45.41000 21.15800
C  8.56800 44.24600 22.20200
N  7.59200 47.67600 25.79300
C  6.65300 47.39600 24.81500
C  5.37700 47.46500 25.44000
C  5.57400 47.86100 26.77600
C  6.97900 47.98000 26.97200
C  4.06500 47.07900 24.83400
C  4.87200 48.19700 28.04000
O  3.70100 48.07400 28.27400
C  6.00300 48.52200 29.07600
C  5.74400 47.70800 30.30900
O  5.57100 46.49300 30.28100
O  5.50500 48.51500 31.38600
C  4.72300 47.94200 32.39800
H  12.96600 49.15100 28.60000
H  12.53600 47.76800 22.23600
H  6.13600 46.84800 22.95000
H  8.49300 49.22500 30.66700
H  11.29800 48.82600 30.67900
H  11.37700 51.07100 30.70800
H  9.69200 51.18400 30.33200
H  10.80800 51.19200 29.01400
H  10.30500 46.73500 30.92400
H  8.67500 46.50100 30.36000
H  7.69900 46.65500 32.15700
H  8.39100 48.02700 32.74400
H  14.91800 49.62300 27.94100
H  15.47200 50.18100 26.50300
H  15.98900 48.49800 27.04000
H  16.51500 47.22300 25.05000
H  16.73800 48.94600 24.73200
H  17.13200 47.86300 23.53200
H  10.72700 46.29300 21.02000
H  8.00300 47.52200 20.92100
H  10.99700 49.07200 20.60100
H  9.49900 48.71000 19.80100
H  11.04000 47.82600 19.44600
H  8.67600 45.07100 20.22800
H  7.15200 45.42200 20.93800
H  9.38100 43.60100 21.86900
H  7.63200 43.70200 22.32900
H  8.71800 44.60200 23.22100
H  3.36100 47.83600 25.18000
H  3.91500 46.02800 25.08000
H  4.13400 47.27600 23.76400
H  6.11900 49.55600 29.40100
H  5.41000 47.45000 33.08600
H  3.94800 47.29000 31.99400
H  4.23800 48.76500 32.92200

