158

Mg 24.39600 -4.72900 45.64800
C  26.50700 -2.32700 44.41300
C  22.05500 -3.84600 43.06100
C  22.71800 -7.47300 46.33000
C  27.08700 -5.91000 47.77200
N  24.27500 -3.21100 43.90300
C  25.25700 -2.38300 43.67700
C  24.86900 -1.58500 42.38200
C  23.33800 -1.83200 42.25100
C  23.18200 -3.04400 43.08900
C  22.38900 -0.72000 42.78500
C  25.60300 -2.16200 41.03800
C  26.54700 -1.18200 40.42900
H  26.32700 -1.06300 38.94600
N  22.57900 -5.47600 44.89800
C  21.82800 -4.98800 43.87400
C  20.64500 -5.84200 43.81400
C  20.80200 -6.89900 44.70300
C  22.07100 -6.62700 45.39000
C  19.41800 -5.45200 42.92400
C  19.73900 -8.02200 44.91100
O  18.74900 -8.17900 44.20500
C  19.77900 -8.90400 46.16600
N  24.92900 -6.53000 46.79000
C  23.94000 -7.37000 46.94500
C  24.42800 -8.55000 47.79000
C  25.63700 -7.97800 48.54000
C  25.96200 -6.73800 47.66000
C  23.39500 -9.18100 48.84900
C  26.79700 -9.06800 48.74000
C  27.37400 -9.39000 50.11300
N  26.39200 -4.13000 46.18100
C  27.37300 -4.71500 46.99900
C  28.62600 -3.95500 46.90300
C  28.33900 -3.00000 45.85200
C  26.93900 -3.19500 45.44800
C  29.98300 -4.30700 47.66900
C  28.85100 -1.96000 45.08100
O  29.96100 -1.51300 45.07800
C  27.71000 -1.50100 44.08300
C  27.51000 -0.05000 44.31300
O  27.57300 0.51300 45.38700
O  27.50700 0.71600 43.10100
C  27.73200 2.14000 43.30000
H  21.31700 -3.68400 42.27300
H  22.17100 -8.35900 46.65800
H  27.87700 -6.07100 48.50800
H  25.21200 -0.57400 42.60000
H  23.00800 -2.01400 41.22800
H  22.96000 0.02000 43.34500
H  21.63700 -1.05700 43.49900
H  21.92600 -0.14700 41.98200
H  24.87300 -2.43900 40.27700
H  26.12500 -3.08100 41.30300
H  27.58400 -1.48800 40.56500
H  26.50000 -0.15700 40.79900
H  19.09400 -6.31300 42.33900
H  19.54100 -4.67400 42.17100
H  18.55100 -5.19100 43.53100
H  20.33700 -9.83500 46.06800
H  18.78600 -9.33200 46.30800
H  19.95400 -8.24900 47.01900
H  24.77600 -9.34300 47.12800
H  25.31000 -7.62800 49.51900
H  23.81400 -9.65400 49.73700
H  22.81000 -9.94900 48.34400
H  22.76600 -8.36800 49.21200
H  27.64300 -8.55900 48.27800
H  26.63700 -10.02400 48.24200
H  26.83000 -8.81300 50.86100
H  28.41300 -9.07100 50.20200
H  27.19700 -10.42800 50.39400
H  30.59200 -5.08200 47.20400
H  29.82100 -4.64300 48.69300
H  30.53300 -3.37600 47.81000
H  28.10400 -1.76600 43.10200
H  28.56200 2.29400 43.99000
H  26.93800 2.71500 43.77500
H  27.94000 2.57400 42.32200
Mg 42.63500 42.27500 25.84300
C  41.58100 44.34900 28.43300
C  44.01000 40.17400 28.11300
C  43.63300 40.20100 23.34700
C  41.76300 44.77700 23.63100
N  42.80000 42.26800 27.97300
C  42.13300 43.19300 28.82700
C  42.24200 42.74500 30.30300
C  43.02200 41.44200 30.15600
C  43.33300 41.24900 28.66300
C  44.40200 41.51100 30.93000
C  40.80500 42.46600 30.84400
C  40.76200 41.52700 32.08600
H  40.31200 42.10500 33.41900
N  43.62100 40.40900 25.75100
C  44.13000 39.71900 26.81000
C  44.79900 38.54000 26.35500
C  44.64000 38.49500 24.99000
C  43.88100 39.71500 24.62300
C  45.58300 37.65100 27.19100
C  45.20000 37.50100 23.89100
O  45.00800 37.60700 22.69200
C  45.95300 36.25100 24.29500
N  42.75400 42.42400 23.79100
C  43.18400 41.44600 22.97200
C  43.04500 41.94300 21.55300
C  42.32900 43.37800 21.60800
C  42.38900 43.56100 23.09600
C  44.38300 41.95100 20.73400
C  40.97200 43.44300 20.95400
C  41.03100 44.09200 19.55300
N  41.91300 44.23900 25.94800
C  41.66000 45.09300 24.98800
C  41.01100 46.28800 25.48500
C  41.00600 46.10100 26.86700
C  41.54600 44.84100 27.13100
C  40.47400 47.47600 24.62600
C  40.61200 46.57900 28.22900
O  40.02000 47.61000 28.61000
C  40.95500 45.45600 29.29200
C  41.85100 46.08500 30.30200
O  43.07300 46.25700 30.15500
O  41.17600 46.34300 31.45700
C  41.99600 47.04100 32.50200
H  44.55600 39.63900 28.89300
H  43.96300 39.60000 22.49700
H  41.56800 45.55300 22.88800
H  42.86000 43.38600 30.93200
H  42.54100 40.50700 30.44300
H  44.44500 40.50900 31.35800
H  44.59800 42.31800 31.63600
H  45.15300 41.51100 30.14000
H  40.12800 42.17900 30.03900
H  40.57200 43.45400 31.24200
H  41.66300 40.93300 32.23700
H  39.93100 40.87800 31.80900
H  45.18000 37.75600 28.19900
H  46.65700 37.71400 27.02100
H  45.29500 36.61000 27.04700
H  46.33400 35.73600 23.41300
H  45.41200 35.52600 24.90300
H  46.78800 36.60800 24.89800
H  42.37100 41.23600 21.07100
H  43.01700 44.14300 21.24700
H  45.18400 41.84400 21.46600
H  44.51000 42.83800 20.11400
H  44.44400 41.07000 20.09500
H  40.32700 44.02700 21.61100
H  40.63400 42.41400 20.83900
H  40.14300 44.70400 19.39100
H  41.06900 43.29400 18.81100
H  41.86600 44.78000 19.42700
H  41.08400 47.48900 23.72300
H  40.58400 48.42400 25.15200
H  39.45900 47.14900 24.39800
H  40.04300 45.15100 29.80400
H  42.54800 47.90600 32.13300
H  42.61700 46.26300 32.94500
H  41.27500 47.50300 33.17700

