158

Mg 36.01200 0.76600 29.56200
C  33.76700 1.57900 32.17900
C  38.57300 0.74600 32.02300
C  38.20800 0.65600 27.09200
C  33.44800 1.25500 27.33400
N  36.18100 1.35700 31.90300
C  35.05500 1.46000 32.70200
C  35.53700 1.21400 34.20500
C  37.06100 1.18100 34.10400
C  37.30700 1.02900 32.65900
C  37.82500 2.44900 34.71300
C  34.99400 0.03200 35.07500
C  35.28300 0.02100 36.61600
H  35.80600 1.32800 37.26300
N  38.05000 0.50500 29.56200
C  38.95700 0.55700 30.66000
C  40.27300 0.17700 30.14400
C  40.15700 0.17800 28.74300
C  38.75000 0.52400 28.37200
C  41.48100 0.00800 30.99900
C  41.27000 -0.12600 27.69100
O  41.04700 -0.21000 26.49300
C  42.62900 -0.52900 28.07600
N  35.89500 1.01000 27.62600
C  36.87600 0.88800 26.75800
C  36.52500 0.83900 25.22800
C  34.97200 0.90500 25.30100
C  34.73400 1.06000 26.85700
C  37.17400 1.91000 24.37200
C  34.18700 -0.32200 24.70300
C  34.03500 -1.67300 25.41200
N  33.99700 1.23900 29.68000
C  33.06400 1.49800 28.69800
C  31.78500 1.74500 29.26500
C  32.01300 1.76200 30.60900
C  33.41200 1.52300 30.86900
C  30.52400 1.86900 28.54300
C  31.31200 1.73800 31.89300
O  30.13500 1.75700 32.14100
C  32.46900 1.60300 33.03100
C  32.38000 2.88900 33.78500
O  32.52700 4.05100 33.39500
O  32.17900 2.52100 35.11700
C  32.39600 3.66000 36.03800
H  39.43900 0.50600 32.64400
H  38.80300 0.56500 26.18100
H  32.69100 1.22700 26.54800
H  35.27200 2.14000 34.71500
H  37.43600 0.24400 34.51800
H  37.22200 3.35000 34.59600
H  38.78300 2.50300 34.19600
H  38.18000 2.33800 35.73800
H  35.36700 -0.87000 34.59100
H  33.92500 0.15500 34.89900
H  36.05100 -0.75300 36.61400
H  34.38000 -0.27900 37.14700
H  42.27300 -0.66200 30.66500
H  41.16000 -0.29400 31.99600
H  42.00800 0.93900 31.21000
H  43.03300 0.00600 28.93600
H  43.28500 -0.27300 27.24500
H  42.61700 -1.55700 28.43800
H  36.83300 -0.15900 24.91700
H  34.63900 1.81500 24.80100
H  37.82300 2.48700 25.03100
H  36.47000 2.64000 23.97100
H  37.82200 1.41800 23.64700
H  34.65300 -0.58400 23.75400
H  33.17700 -0.01400 24.43000
H  34.54900 -2.26200 24.65200
H  33.01100 -2.00400 25.58300
H  34.66200 -1.76800 26.29800
H  30.75300 1.54500 27.52800
H  30.00200 2.82500 28.57600
H  29.78600 1.10700 28.79600
H  32.21400 0.72400 33.62300
H  32.32300 3.28700 37.06000
H  31.60200 4.39600 35.91200
H  33.36000 4.16600 35.98000
Mg 5.18400 57.09700 41.92600
C  5.24900 53.61200 41.46900
C  8.13200 57.33600 40.27000
C  4.65200 60.50000 41.75200
C  1.90200 56.67000 43.24100
N  6.38400 55.64600 40.89200
C  6.21500 54.27600 40.77600
C  7.36500 53.70500 39.90900
C  8.44500 54.75600 40.06600
C  7.63100 56.01100 40.42700
C  9.52200 54.42900 41.10600
C  6.84200 53.41700 38.46000
C  7.35800 52.08500 37.82600
H  6.50100 51.57200 36.68800
N  6.27300 58.76400 41.08700
C  7.50500 58.59200 40.52500
C  7.91200 59.89000 40.09000
C  6.87700 60.83600 40.41900
C  5.90400 60.06200 41.16200
C  9.30300 60.13500 39.49900
C  6.90200 62.34600 40.10600
O  7.96500 62.88100 39.72700
C  5.76600 63.27000 40.37500
N  3.49700 58.34500 42.39200
C  3.69600 59.72900 42.43900
C  2.42400 60.44900 42.98500
C  1.63500 59.23400 43.49900
C  2.40300 57.95700 43.04300
C  2.75700 61.52000 44.01300
C  0.08600 59.14600 43.16100
C  -1.03200 58.62300 44.10900
N  3.88500 55.52500 42.43000
C  2.57600 55.46800 42.94500
C  2.15300 54.09600 43.08300
C  3.21600 53.40000 42.56400
C  4.21900 54.26800 42.08600
C  1.00900 53.62600 43.82200
C  3.69600 52.06700 42.41500
O  3.30900 51.00700 42.72400
C  5.03300 52.16100 41.71300
C  5.01100 51.33300 40.47600
O  4.15400 51.34500 39.55800
O  5.97000 50.30400 40.58500
C  5.91400 49.25700 39.57800
H  9.09400 57.36100 39.75300
H  4.45900 61.57400 41.71300
H  1.03100 56.50800 43.88000
H  7.68400 52.73500 40.29000
H  9.01300 55.16600 39.23100
H  10.49200 54.54600 40.62300
H  9.42300 53.36700 41.33300
H  9.28000 55.06400 41.95800
H  7.39500 54.19200 37.93100
H  5.76500 53.57600 38.40100
H  7.37100 51.33000 38.61100
H  8.37700 52.16400 37.44600
H  9.06500 60.79800 38.66700
H  9.82100 59.24200 39.15100
H  9.93500 60.67500 40.20400
H  4.87700 62.80300 39.95100
H  6.04600 64.18200 39.84600
H  5.61000 63.42000 41.44300
H  1.78500 60.88600 42.21800
H  1.65700 59.09300 44.58000
H  3.84000 61.62500 43.95200
H  2.47000 61.22200 45.02200
H  2.16100 62.40500 43.78800
H  -0.05900 58.88000 42.11400
H  -0.19100 60.18200 42.97000
H  -1.66400 59.40800 44.52600
H  -0.45200 58.00200 44.79100
H  -1.69900 57.91200 43.62200
H  1.21200 53.58200 44.89200
H  0.53200 52.71400 43.46100
H  0.17800 54.32300 43.71800
H  5.84600 51.81100 42.34900
H  6.96000 48.98400 39.43300
H  5.40600 49.49500 38.64400
H  5.45400 48.39200 40.05600

