158

Mg 54.59900 24.25000 44.59800
C  51.78300 26.32000 43.87500
C  52.57700 21.54800 43.68200
C  57.33400 22.26300 44.59600
C  56.36400 27.14700 45.33200
N  52.39400 23.97400 43.56800
C  51.44800 25.01600 43.53700
C  50.04900 24.42600 43.51700
C  50.35200 22.85600 43.64000
C  51.87000 22.74200 43.59900
C  49.76200 22.25000 44.91200
C  49.29400 24.69800 42.19400
C  49.98000 24.85800 40.77600
H  49.60200 24.01900 39.54000
N  54.91100 22.22300 44.23300
C  53.97200 21.23900 43.89400
C  54.56700 19.92200 43.72100
C  55.92500 20.05100 44.04700
C  56.14400 21.57500 44.32300
C  53.67800 18.70000 43.49300
C  56.91500 18.84600 44.13700
O  56.59700 17.67900 43.94300
C  58.31200 19.02900 44.60400
N  56.59300 24.67700 44.76000
C  57.58800 23.68500 44.77600
C  58.94500 24.23200 45.20000
C  58.61500 25.80600 45.43200
C  57.10800 25.96200 45.13000
C  59.76000 23.50700 46.30100
C  59.65600 26.79900 44.79800
C  60.28700 27.95000 45.70000
N  54.23100 26.33800 44.55400
C  55.00900 27.28200 45.08200
C  54.21400 28.47500 45.23000
C  52.97200 28.18300 44.75700
C  52.98500 26.82800 44.38900
C  54.83800 29.75900 45.80300
C  51.66700 28.70400 44.44900
O  51.24800 29.83400 44.67100
C  50.82800 27.51600 43.90300
C  50.33000 27.94900 42.52600
O  50.93100 27.95500 41.46700
O  49.00700 28.16800 42.68200
C  48.24600 28.61500 41.50400
H  51.81100 20.78400 43.52900
H  58.24400 21.66600 44.68300
H  56.85000 27.98100 45.84200
H  49.46200 24.83500 44.33900
H  49.93700 22.28800 42.80700
H  50.47000 22.03500 45.71200
H  49.22300 21.31100 44.78600
H  49.01600 22.90000 45.36900
H  48.71700 25.59100 42.43400
H  48.59200 23.89600 41.96600
H  51.05400 24.69400 40.86800
H  49.78000 25.92200 40.64700
H  53.61100 18.58300 42.41200
H  52.66200 18.88500 43.84100
H  54.11600 17.82100 43.96600
H  58.37200 19.39300 45.63000
H  58.71400 19.77600 43.91900
H  58.87400 18.09800 44.52700
H  59.54400 24.05100 44.30800
H  58.71400 25.98800 46.50200
H  59.23700 22.55600 46.39900
H  59.82200 23.99100 47.27600
H  60.76600 23.30400 45.93300
H  59.15500 27.26800 43.95100
H  60.52500 26.20600 44.51300
H  61.37100 28.04900 45.66200
H  59.99500 27.85300 46.74500
H  59.88800 28.92800 45.43000
H  53.95000 30.31800 46.09900
H  55.37900 30.19900 44.96500
H  55.43100 29.46000 46.66800
H  49.99200 27.24100 44.54600
H  48.77600 29.48600 41.11600
H  47.22400 28.89700 41.75400
H  48.24400 27.86500 40.71300
Mg 31.58600 58.64300 40.81700
C  28.92400 56.82100 39.55800
C  33.72500 56.09800 39.64100
C  34.14300 60.69700 41.18900
C  29.27000 61.48000 40.86000
N  31.33200 56.68200 39.72100
C  30.17700 56.15500 39.30300
C  30.35900 54.89400 38.52300
C  31.84800 54.55200 38.74900
C  32.35900 55.82200 39.42600
C  32.21800 53.21300 39.50300
C  29.93200 54.96600 37.01500
C  28.71700 54.08000 36.56500
H  27.60500 54.79900 35.63600
N  33.68200 58.30800 40.74000
C  34.41800 57.22900 40.21500
C  35.82100 57.44500 40.30200
C  35.98600 58.72700 40.84000
C  34.59400 59.31500 40.98900
C  36.85400 56.44100 39.90800
C  37.31800 59.36200 41.09900
O  38.39900 58.82400 40.85400
C  37.34100 60.67400 41.64700
N  31.66200 60.78100 41.20200
C  32.89600 61.37400 41.31200
C  32.74300 62.91500 41.31800
C  31.20800 63.18300 41.02300
C  30.67800 61.72400 40.99000
C  33.23600 63.73100 42.50500
C  30.90300 64.06300 39.81400
C  29.93000 65.17200 40.08100
N  29.48700 59.10000 40.45800
C  28.68000 60.21500 40.80100
C  27.27500 59.81000 40.65800
C  27.39900 58.47300 40.28800
C  28.70000 58.12100 40.06800
C  26.10700 60.72600 40.74800
C  26.59100 57.32100 39.86100
O  25.39400 57.13000 39.66000
C  27.54300 56.26600 39.46400
C  27.31400 55.06700 40.35500
O  27.61500 55.08800 41.53700
O  26.58200 53.99800 39.78600
C  26.03800 53.09900 40.76500
H  34.37800 55.32000 39.23800
H  34.95400 61.35500 41.50800
H  28.78900 62.44900 40.70900
H  29.82600 54.10000 39.04600
H  32.42300 54.65100 37.82900
H  32.97200 52.80500 38.82900
H  31.43500 52.48400 39.29300
H  32.57900 53.14300 40.53000
H  30.73400 54.75400 36.30700
H  29.52800 55.96000 36.82500
H  28.29700 53.59400 37.44600
H  29.01400 53.21300 35.97400
H  37.52900 56.74200 39.10800
H  36.40300 55.50600 39.57400
H  37.52800 56.28800 40.75100
H  36.81300 60.61400 42.59900
H  36.99700 61.42100 40.93200
H  38.35200 60.80000 42.03400
H  33.24500 63.28600 40.42400
H  30.70200 63.61000 41.88900
H  32.71900 63.38400 43.40000
H  33.00600 64.79500 42.44100
H  34.30300 63.52700 42.59900
H  30.33100 63.60100 39.01000
H  31.74600 64.55800 39.33100
H  30.30600 66.05700 39.56800
H  29.84300 65.23500 41.16600
H  28.99100 64.78200 39.69000
H  26.10100 61.36400 39.86400
H  26.17700 61.47200 41.53900
H  25.16800 60.18600 40.86700
H  27.38400 56.03000 38.41200
H  26.57700 52.18400 41.01100
H  25.20900 52.70400 40.17800
H  25.55700 53.55700 41.63000

