158

Mg 42.66200 41.48300 26.80600
C  41.62800 43.69100 29.35700
C  43.96200 39.47600 29.26500
C  44.18200 39.81800 24.42300
C  41.79800 44.03400 24.46600
N  42.66200 41.51000 29.01300
C  42.03900 42.41300 29.82800
C  42.18300 42.09800 31.32200
C  42.92100 40.76700 31.28300
C  43.21200 40.53900 29.74400
C  44.28400 40.69800 32.08100
C  40.78600 41.99700 32.07500
C  40.99700 41.66800 33.57900
H  40.05800 42.42100 34.54200
N  43.86900 39.86500 26.85400
C  44.13000 39.03600 27.91300
C  44.83300 37.85000 27.37600
C  44.86500 37.87200 25.96000
C  44.34400 39.26300 25.72800
C  45.25300 36.80300 28.28700
C  45.46500 36.84800 24.87000
O  45.51700 37.11500 23.66400
C  46.02500 35.47200 25.33400
N  43.03200 41.84800 24.71500
C  43.52200 40.94900 23.98700
C  43.44300 41.28100 22.47100
C  42.58600 42.51800 22.54800
C  42.43800 42.85900 24.00700
C  44.77800 41.44800 21.72200
C  41.17600 42.24100 21.92500
C  40.14100 41.34400 22.67800
N  41.74400 43.40800 26.83800
C  41.50600 44.36200 25.80800
C  41.11700 45.58500 26.40500
C  41.17300 45.38100 27.80000
C  41.51000 44.05300 28.00700
C  40.71700 46.82000 25.72500
C  40.92400 46.02000 29.07500
O  40.49100 47.11000 29.38200
C  41.10300 44.91900 30.13900
C  42.05000 45.35600 31.23600
O  43.15000 45.82100 31.00400
O  41.37500 45.24800 32.40600
C  42.07000 45.86500 33.49800
H  44.36300 38.83800 30.05500
H  44.45900 39.18900 23.57500
H  41.57000 44.82300 23.74600
H  42.81300 42.82800 31.82900
H  42.25600 39.96900 31.61400
H  44.12000 41.28600 32.98400
H  45.10400 41.25900 31.63300
H  44.59900 39.68000 32.31100
H  40.18700 41.19600 31.64000
H  40.10800 42.83500 31.91000
H  42.01500 41.88000 33.90500
H  40.84600 40.60600 33.77200
H  46.29400 36.50800 28.15500
H  44.66900 35.97500 27.88600
H  45.13600 37.00200 29.35200
H  46.37100 35.01100 24.40900
H  45.35300 34.83600 25.91000
H  46.93500 35.75400 25.86200
H  42.85300 40.52700 21.95000
H  42.92700 43.40600 22.01500
H  45.70200 41.52800 22.29500
H  44.68200 42.34100 21.10500
H  45.06300 40.65900 21.02600
H  41.24000 41.89300 20.89400
H  40.62800 43.18300 21.91600
H  40.45000 41.06800 23.68600
H  39.95000 40.46700 22.06000
H  39.17700 41.84700 22.75300
H  40.11500 46.55300 24.85600
H  41.59700 47.41300 25.48000
H  40.18700 47.38900 26.48900
H  40.09700 44.73400 30.51600
H  42.87200 46.56400 33.26000
H  42.68700 45.03900 33.85300
H  41.46700 46.17500 34.35200
Mg 27.26600 50.52500 26.25000
C  25.15400 51.64600 28.96000
C  29.48700 49.46300 28.46700
C  29.36400 50.03700 23.63600
C  25.02200 52.18200 24.04000
N  27.22600 50.53600 28.43800
C  26.31500 50.99400 29.37300
C  26.75100 50.56000 30.78600
C  28.22100 50.08100 30.56600
C  28.31700 50.04500 29.06100
C  29.33100 51.04800 31.10600
C  25.76100 49.57800 31.46200
C  24.99900 49.89400 32.75200
H  25.73500 50.44700 33.98000
N  29.10800 49.81400 26.05800
C  29.81400 49.31000 27.13300
C  31.07600 48.80200 26.59900
C  31.14800 49.08900 25.26200
C  29.92000 49.71900 24.90800
C  32.07500 48.03000 27.43400
C  32.24400 48.79200 24.20700
O  32.16800 49.14000 23.02600
C  33.49400 48.14000 24.63800
N  27.23600 51.17000 24.16600
C  28.20600 50.71300 23.30700
C  27.74200 50.90500 21.84300
C  26.37400 51.63000 21.94100
C  26.15200 51.60400 23.48300
C  28.76700 51.69700 20.93000
C  25.20900 50.88500 21.17800
C  24.70200 51.55800 19.87900
N  25.46700 51.67400 26.42100
C  24.67900 52.22100 25.39100
C  23.53200 52.96200 26.02200
C  23.72300 52.67900 27.38200
C  24.79500 51.98200 27.55200
C  22.47600 53.72600 25.26300
C  23.09000 52.90900 28.68000
O  22.05800 53.51400 29.00000
C  24.01700 52.29200 29.72700
C  24.49200 53.42400 30.58300
O  25.57000 54.02500 30.43000
O  23.75100 53.39200 31.75200
C  24.42700 53.94200 32.91800
H  30.15500 49.07200 29.23800
H  29.95900 49.94900 22.72400
H  24.34200 52.73500 23.38800
H  26.75300 51.42000 31.45600
H  28.32800 49.05800 30.92700
H  29.65400 50.55200 32.02200
H  28.99400 52.03200 31.43300
H  30.21000 51.20000 30.48000
H  26.47100 48.85900 31.87200
H  25.11500 49.16700 30.68500
H  24.59800 48.97000 33.16700
H  24.11100 50.49600 32.55600
H  31.84500 48.35200 28.44900
H  33.11500 48.33200 27.30400
H  31.96300 46.96200 27.24900
H  33.90800 48.90700 25.29300
H  34.05200 47.95300 23.72100
H  33.19900 47.20400 25.11300
H  27.64200 49.96000 21.31100
H  26.47500 52.66300 21.60700
H  29.66100 52.11200 21.39600
H  28.24000 52.53500 20.47500
H  29.09100 50.95100 20.20500
H  24.33000 50.54600 21.72700
H  25.55600 49.92800 20.78700
H  24.92200 50.99900 18.97000
H  25.22600 52.51200 19.83700
H  23.62600 51.69200 19.99900
H  22.91600 54.47400 24.60200
H  21.85800 54.25500 25.98700
H  21.86800 52.99500 24.73000
H  23.41700 51.55900 30.26700
H  24.40200 55.00700 32.69100
H  25.44700 53.57100 33.01700
H  23.84200 53.85800 33.83400

