158

Mg 54.96900 24.84300 45.80500
C  52.19600 26.49900 44.24600
C  53.37300 21.84700 44.67100
C  57.73600 23.37800 46.34400
C  56.14500 27.83000 46.66600
N  53.02400 24.26200 44.46800
C  52.05200 25.09900 44.06900
C  50.78500 24.40500 43.55000
C  51.15600 22.87600 43.84000
C  52.58600 22.98100 44.45200
C  50.13000 22.00400 44.62000
C  50.32700 24.59800 42.11000
C  48.82200 24.67100 41.82600
H  48.29600 23.97400 40.52700
N  55.47900 22.90000 45.61900
C  54.75200 21.80200 45.13400
C  55.59100 20.63600 45.14000
C  56.83800 20.99300 45.53300
C  56.76300 22.47300 45.85400
C  55.10200 19.28300 44.61000
C  58.01700 20.07500 45.51400
O  57.78200 18.91600 45.18800
C  59.43800 20.52600 45.92000
N  56.81100 25.52300 46.23900
C  57.73900 24.74200 46.63600
C  58.86600 25.48900 47.37000
C  58.46400 26.97300 47.16000
C  57.02000 26.77600 46.73500
C  59.26900 25.01700 48.83000
C  59.25400 27.63000 45.97300
C  59.18100 29.17600 45.98900
N  54.35000 26.83800 45.58600
C  54.90500 27.92700 46.06100
C  54.08700 29.08700 45.79300
C  52.92500 28.60200 45.22300
C  53.21300 27.20400 44.96700
C  54.59900 30.46700 46.08400
C  51.65900 28.91600 44.55800
O  51.14200 30.04900 44.41500
C  51.13200 27.57800 43.97800
C  50.97800 27.83600 42.50600
O  51.90600 28.01700 41.67800
O  49.65800 27.92200 42.18900
C  49.30600 28.23800 40.79900
H  52.85600 20.89800 44.51000
H  58.70500 22.92900 46.57000
H  56.60400 28.80200 46.85700
H  49.99600 24.76500 44.21000
H  51.26100 22.38000 42.87500
H  50.60100 21.73600 45.56600
H  49.81700 21.14900 44.02100
H  49.18200 22.51300 44.79600
H  50.65400 23.84900 41.38900
H  50.75000 25.51400 41.69800
H  48.45800 25.69700 41.87400
H  48.32300 24.17400 42.65800
H  54.03000 19.11700 44.50300
H  55.42600 18.49100 45.28600
H  55.61600 18.91900 43.72100
H  59.82300 21.47200 45.54000
H  60.09100 19.66200 45.79300
H  59.44100 20.71600 46.99300
H  59.81300 25.38800 46.83900
H  58.45700 27.53200 48.09500
H  60.34600 24.86100 48.89300
H  58.75100 24.08500 49.05600
H  59.05100 25.77900 49.57800
H  58.91900 27.26000 45.00500
H  60.30600 27.38500 46.11500
H  58.69100 29.56400 45.09700
H  60.15900 29.65900 45.97100
H  58.69700 29.67800 46.82700
H  55.68800 30.52100 46.07500
H  54.34400 30.74200 47.10800
H  54.07500 31.13300 45.39900
H  50.13600 27.34500 44.35600
H  48.45600 28.90800 40.67600
H  48.97900 27.34800 40.26200
H  50.12100 28.68100 40.22600
Mg 50.84600 45.46800 42.74900
C  47.96800 46.87300 41.14800
C  50.38800 42.62600 40.95800
C  53.98100 44.64400 43.49600
C  51.32800 48.71400 44.16400
N  49.40200 44.91000 41.25900
C  48.28500 45.55100 40.76000
C  47.38700 44.73300 39.94500
C  48.13300 43.34000 39.90300
C  49.34800 43.56000 40.80500
C  47.19500 42.16800 40.25800
C  47.03400 45.24800 38.52900
C  45.51600 45.23700 38.14900
H  45.05800 44.05600 37.25300
N  52.06000 43.79400 42.36300
C  51.63400 42.71700 41.62700
C  52.63200 41.76300 41.73000
C  53.74800 42.24800 42.48200
C  53.33500 43.59700 42.82700
C  52.45600 40.41000 41.11900
C  55.01900 41.47000 42.77100
O  55.16600 40.31700 42.39300
C  56.21900 42.19600 43.45500
N  52.50600 46.65400 43.39900
C  53.67900 46.02500 43.77800
C  54.66800 47.02700 44.33000
C  53.75800 48.17700 44.70400
C  52.43300 47.82100 44.07800
C  55.57000 46.55500 45.51700
C  54.32500 49.60000 44.44400
C  54.36900 50.47900 45.62500
N  49.87100 47.39000 42.75400
C  50.09000 48.51600 43.47200
C  48.99000 49.49200 43.21400
C  48.10800 48.81100 42.34400
C  48.72800 47.58900 42.05600
C  48.84900 50.90400 43.72200
C  46.86800 48.96500 41.64400
O  46.06800 49.89700 41.66300
C  46.68300 47.68100 40.90600
C  45.48100 47.06800 41.57900
O  45.50900 46.21200 42.40000
O  44.32200 47.40000 40.95400
C  43.10800 46.96500 41.63100
H  50.17900 41.70800 40.40400
H  54.98200 44.35500 43.82500
H  51.37900 49.57800 44.82900
H  46.44400 44.68300 40.48900
H  48.44700 43.13800 38.87800
H  46.19600 42.41200 40.61800
H  47.69200 41.69900 41.10700
H  47.25500 41.48000 39.41500
H  47.59400 44.69600 37.77400
H  47.31900 46.29500 38.42800
H  45.33400 46.11600 37.53100
H  44.83600 45.21200 39.00000
H  51.42500 40.19200 40.84000
H  52.69900 39.55400 41.74900
H  53.00600 40.34000 40.18100
H  55.87500 42.43000 44.46200
H  56.49900 43.05500 42.84500
H  57.13800 41.61400 43.53000
H  55.28200 47.15800 43.43900
H  53.49700 48.10600 45.76000
H  55.26900 47.09000 46.41800
H  56.57500 46.89400 45.26500
H  55.63500 45.48900 45.73400
H  53.60300 50.01800 43.74200
H  55.27100 49.51700 43.90900
H  55.39500 50.80400 45.79800
H  53.97300 50.10400 46.56900
H  53.79600 51.36500 45.35200
H  48.07500 51.02600 44.47900
H  48.66600 51.36200 42.75000
H  49.75400 51.38500 44.09200
H  46.45700 48.01000 39.89100
H  42.47000 47.81700 41.86500
H  43.29700 46.36500 42.52100
H  42.79600 46.29600 40.82900

