158

Mg 46.48900 24.84300 28.57900
C  46.97300 26.88700 31.41100
C  45.12500 22.53400 30.69100
C  46.67000 22.70900 26.05200
C  47.78000 27.36500 26.54800
N  46.29500 24.73500 30.84300
C  46.43000 25.67500 31.72100
C  45.96400 25.30500 33.19800
C  45.41800 23.82500 32.87900
C  45.61300 23.73900 31.35500
C  46.12100 22.67000 33.63900
C  44.90200 26.31100 33.78300
C  45.05600 26.94600 35.16700
H  44.05100 26.71900 36.26500
N  45.90200 22.85300 28.39500
C  45.31600 22.11000 29.36000
C  44.92500 20.87300 28.65900
C  45.61900 20.76700 27.41000
C  46.07900 22.18000 27.23000
C  44.16800 19.78400 29.37300
C  45.62900 19.53300 26.41300
O  46.04600 19.61900 25.27200
C  45.08200 18.21000 26.84300
N  47.18300 25.08000 26.57800
C  47.12500 23.97500 25.69000
C  47.82600 24.37400 24.32900
C  47.87800 25.94400 24.43800
C  47.53800 26.15300 25.91600
C  49.18400 23.71400 24.03600
C  46.99300 26.72800 23.38300
C  45.45200 26.71300 23.41600
N  47.20100 26.74300 28.85400
C  47.70700 27.68000 27.93000
C  48.06500 28.88600 28.52700
C  47.83000 28.60900 29.94600
C  47.31200 27.30200 30.09700
C  48.67300 30.03100 27.85900
C  47.91700 29.23000 31.21800
O  48.24500 30.38800 31.53300
C  47.52500 28.02300 32.28500
C  48.75300 27.70100 32.99900
O  49.73200 27.09000 32.49500
O  48.62000 27.78400 34.39200
C  49.70900 27.17600 35.19300
H  44.70900 21.75600 31.33400
H  46.74400 21.86400 25.36300
H  48.31500 28.07100 25.90900
H  46.91700 25.32900 33.72500
H  44.36700 23.65800 33.11700
H  45.49200 22.25400 34.42600
H  47.00700 23.12700 34.08200
H  46.41600 21.91700 32.90800
H  43.89000 25.90500 33.77000
H  44.86300 27.17200 33.11600
H  45.34800 27.98900 35.03800
H  45.92400 26.42700 35.57200
H  43.45700 19.35300 28.66900
H  43.50500 20.14000 30.16100
H  44.78000 18.97600 29.77500
H  45.36600 17.79000 27.80800
H  45.53000 17.45400 26.19800
H  43.99500 18.20100 26.77000
H  47.10400 24.12100 23.55200
H  48.91200 26.29000 24.41600
H  49.86800 24.25300 23.37900
H  49.05800 22.71100 23.62900
H  49.75300 23.62800 24.96100
H  47.42900 26.45000 22.42400
H  47.29500 27.77400 23.32900
H  45.12600 25.99100 24.16400
H  45.23200 26.44000 22.38400
H  45.03800 27.68900 23.66500
H  49.50500 29.72600 27.22400
H  49.05700 30.70500 28.62500
H  47.95200 30.65800 27.33400
H  46.73100 28.37100 32.94500
H  49.68900 27.60400 36.19500
H  50.68500 27.31800 34.72700
H  49.35700 26.14500 35.16700
Mg 30.54200 58.94100 41.17500
C  27.47900 57.86700 40.05400
C  32.07100 56.08500 39.90100
C  33.66500 60.41800 41.47300
C  29.04700 62.05400 41.82200
N  29.88700 57.32300 40.01100
C  28.55500 56.98600 39.82200
C  28.44600 55.64900 39.17700
C  29.80700 54.90900 39.68800
C  30.67600 56.16300 39.87000
C  29.89200 54.01200 40.94500
C  28.30200 55.76800 37.60200
C  27.15500 54.96400 36.90500
H  26.33100 55.52900 35.77200
N  32.67900 58.32700 40.83100
C  33.02100 57.12800 40.24100
C  34.44300 57.06800 40.24200
C  34.91900 58.30700 40.68500
C  33.76100 59.09800 40.98100
C  35.22700 55.86100 39.86700
C  36.36300 58.66000 40.68800
O  37.22500 57.87200 40.37400
C  36.92400 60.03700 40.81200
N  31.27800 60.95100 41.43700
C  32.57300 61.27400 41.62700
C  32.66100 62.73900 42.06900
C  31.19900 63.22100 42.24700
C  30.46100 61.97800 41.83300
C  33.56400 63.10700 43.26700
C  30.83500 64.43500 41.25600
C  30.06700 65.63200 41.89200
N  28.56900 59.81300 41.02200
C  28.08400 61.09700 41.31100
C  26.69900 61.21000 41.10800
C  26.35200 59.86800 40.65500
C  27.53300 59.15100 40.66000
C  25.83100 62.39300 41.26200
C  25.29100 59.06100 40.13800
O  24.11500 59.21800 39.78200
C  26.00100 57.66500 39.76900
C  25.52300 56.53800 40.59800
O  26.02600 56.07200 41.62300
O  24.39200 56.06700 39.92100
C  23.92800 54.79400 40.39200
H  32.60200 55.15200 39.70100
H  34.66600 60.78200 41.71400
H  28.55100 62.97300 42.14000
H  27.55000 55.18200 39.58600
H  30.17700 54.27900 38.88000
H  28.89100 53.98500 41.37400
H  30.59000 54.47000 41.64600
H  30.31600 53.02000 40.78700
H  29.23000 55.43900 37.13500
H  28.30600 56.83500 37.37900
H  26.44000 54.66000 37.66900
H  27.51200 54.00500 36.52800
H  35.63800 55.85700 38.85800
H  34.60200 54.98100 40.01400
H  36.06000 55.78200 40.56500
H  37.97600 60.10200 40.53300
H  36.82200 60.26800 41.87300
H  36.38300 60.79000 40.23900
H  33.05100 63.14200 41.13400
H  30.94200 63.36800 43.29600
H  34.15900 62.20500 43.40400
H  32.87600 63.23600 44.10200
H  34.29100 63.86600 42.98000
H  30.20700 63.99700 40.48100
H  31.66600 64.81500 40.66200
H  29.52500 66.16600 41.11200
H  30.76200 66.34200 42.33900
H  29.37600 65.34600 42.68600
H  26.31300 63.09600 41.94100
H  24.76200 62.18400 41.31600
H  25.95400 62.83200 40.27100
H  25.79800 57.49200 38.71200
H  23.76900 54.11900 39.55100
H  22.95200 54.88000 40.86900
H  24.42000 54.26000 41.20600

