158

Mg 48.56100 35.02900 28.09900
C  46.49900 33.72500 30.71200
C  48.39700 38.05300 29.87600
C  49.85000 36.43500 25.40300
C  47.70400 32.16100 26.29100
N  47.49600 35.73900 30.01500
C  46.94300 34.96400 30.97800
C  46.92400 35.64100 32.35000
C  46.95100 37.11100 31.88100
C  47.71300 36.98000 30.55200
C  45.57200 37.84900 32.02600
C  48.21600 35.19700 33.18300
C  47.96500 34.87400 34.65600
H  47.50500 36.00000 35.60300
N  49.13800 37.00400 27.68500
C  49.00800 38.07600 28.59100
C  49.77600 39.10200 28.08500
C  50.15200 38.76900 26.73600
C  49.69600 37.38100 26.49200
C  50.23200 40.38700 28.90800
C  50.97600 39.45400 25.60900
O  51.16100 38.87800 24.54400
C  51.29300 40.95400 25.75000
N  48.75500 34.41600 26.12800
C  49.51600 35.06600 25.24300
C  49.74400 34.22600 23.95600
C  49.04500 32.88000 24.25400
C  48.41300 33.14800 25.62300
C  49.44300 34.94500 22.66700
C  49.91600 31.67300 24.25500
C  51.05400 31.76900 25.33900
N  47.27100 33.26500 28.40700
C  47.08100 32.18800 27.57100
C  46.31200 31.25600 28.26000
C  45.99900 31.79200 29.54100
C  46.62500 33.06300 29.51400
C  45.89500 29.95600 27.67800
C  45.33200 31.57000 30.74400
O  44.72100 30.58800 31.09900
C  45.63800 32.85900 31.57400
C  46.11700 32.31600 32.85600
O  47.21200 31.86900 33.10000
O  45.06100 32.30400 33.77400
C  45.21300 31.30700 34.86100
H  48.33800 39.01700 30.38400
H  50.26100 36.88600 24.49700
H  47.50900 31.26600 25.69600
H  45.99500 35.44000 32.88400
H  47.54700 37.65000 32.61700
H  45.43200 38.52100 31.18000
H  45.45200 38.32200 33.00100
H  44.68300 37.23400 31.88600
H  49.04700 35.89200 33.06700
H  48.51700 34.24300 32.75100
H  48.82600 34.29800 34.99500
H  47.13800 34.17000 34.75500
H  49.98100 40.43300 29.96700
H  49.98300 41.31900 28.40000
H  51.31900 40.40900 28.82800
H  51.84400 41.17100 26.66500
H  50.30000 41.39500 25.84000
H  51.95200 41.28400 24.94700
H  50.82200 34.16400 23.80900
H  48.31300 32.70800 23.46500
H  49.16500 35.96200 22.94700
H  48.55400 34.54800 22.17900
H  50.29300 34.94000 21.98500
H  50.39900 31.57700 23.28300
H  49.41400 30.75400 24.55500
H  50.85100 32.46000 26.15800
H  52.01500 31.94400 24.85500
H  51.14400 30.83500 25.89300
H  46.68800 29.49600 27.08800
H  44.97700 30.19700 27.14000
H  45.79300 29.31300 28.55100
H  44.70800 33.40300 31.73900
H  45.43400 30.35500 34.38000
H  44.24600 31.27800 35.36300
H  45.96900 31.40600 35.64000
Mg 9.68800 48.37400 26.02300
C  7.82600 48.76400 28.99000
C  12.21400 49.96300 27.55500
C  11.44000 47.97100 23.06400
C  6.68300 47.83100 24.26300
N  9.90900 49.26800 28.06200
C  9.13400 49.11500 29.12100
C  9.84700 49.55200 30.42500
C  11.01000 50.39500 29.85700
C  11.03700 49.94100 28.38900
C  10.75000 51.91400 30.06300
C  10.19100 48.29600 31.30300
C  10.09400 48.37900 32.85000
H  10.14400 47.03600 33.67900
N  11.55300 48.90100 25.32000
C  12.46200 49.52900 26.15200
C  13.78000 49.43400 25.48600
C  13.59200 48.81000 24.26700
C  12.14600 48.49700 24.18600
C  15.11000 49.86700 26.17900
C  14.54600 48.50400 23.09100
O  14.25200 48.09000 21.95900
C  16.03800 48.83200 23.24400
N  9.24100 48.07800 23.94000
C  10.10600 47.89000 22.93100
C  9.39700 47.41100 21.66100
C  7.84600 47.51400 22.07400
C  7.89800 47.81800 23.57500
C  9.78900 48.27100 20.43000
C  7.09000 46.24900 21.57800
C  6.87700 46.01700 20.10100
N  7.67400 48.32900 26.49400
C  6.53400 48.12800 25.63400
C  5.39200 48.01400 26.49000
C  5.84300 48.24500 27.78300
C  7.19500 48.43300 27.73800
C  3.98700 47.62000 26.04100
C  5.46600 48.29000 29.20300
O  4.29800 48.17000 29.66200
C  6.76800 48.58300 29.99200
C  6.88400 47.31000 30.76700
O  7.09900 46.17900 30.35200
O  6.84700 47.54500 32.13400
C  7.08400 46.28100 32.90400
H  13.04900 50.39000 28.11400
H  12.07100 47.70600 22.21400
H  5.72800 47.67100 23.75800
H  9.17000 50.14700 31.03900
H  11.97500 50.07200 30.24700
H  10.02900 52.03100 30.87200
H  10.35800 52.24900 29.10200
H  11.63700 52.48800 30.33100
H  11.25300 48.08800 31.17400
H  9.73100 47.37700 30.94000
H  9.20700 48.95600 33.11400
H  11.00500 48.84000 33.23000
H  15.77600 49.01100 26.28900
H  14.94900 50.42400 27.10200
H  15.55100 50.55900 25.46200
H  16.51300 48.72200 22.26900
H  16.48000 48.10300 23.92300
H  16.23000 49.88500 23.45000
H  9.67500 46.37600 21.46100
H  7.37000 48.43400 21.73400
H  10.58300 48.98000 20.66200
H  8.95400 48.82500 20.00000
H  10.25200 47.65800 19.65700
H  6.11800 46.28400 22.06900
H  7.54900 45.34100 21.96900
H  5.87400 45.61800 19.94800
H  7.61100 45.31600 19.70400
H  6.99300 47.00300 19.65200
H  3.89900 47.08500 25.09500
H  3.44000 48.50200 25.70900
H  3.54900 47.04400 26.85600
H  6.57000 49.42100 30.66100
H  7.42500 46.63800 33.87500
H  7.91100 45.68300 32.52100
H  6.15100 45.72400 32.99500

