158

Mg 54.32300 24.15900 43.62500
C  51.72500 26.44000 43.12200
C  52.20100 21.67600 42.33900
C  57.05900 22.20500 43.28900
C  56.38900 26.86500 44.30900
N  52.24000 24.06400 42.91300
C  51.40300 25.14600 42.74900
C  49.91200 24.66600 42.33300
C  50.05300 23.11500 42.29800
C  51.60600 22.97900 42.51400
C  49.35500 22.31100 43.35000
C  49.31200 25.26600 41.01800
C  50.17300 25.46500 39.68800
H  49.91200 24.40700 38.61500
N  54.61300 22.13500 43.06200
C  53.61200 21.33400 42.52900
C  54.18200 20.00900 42.20500
C  55.62500 20.11400 42.49400
C  55.85600 21.49800 42.98000
C  53.41300 18.82400 41.67400
C  56.61600 18.98900 42.21200
O  56.26500 17.97000 41.72000
C  58.08800 19.04100 42.64600
N  56.47700 24.47800 43.62400
C  57.36000 23.52800 43.58900
C  58.83200 23.95100 43.85600
C  58.54600 25.48800 44.29200
C  57.07400 25.68400 44.09200
C  59.40000 23.03100 44.91000
C  59.37700 26.47300 43.37400
C  60.84900 26.43500 43.87400
N  54.20400 26.22200 43.75000
C  55.05800 27.17300 44.16400
C  54.35700 28.42300 44.30500
C  53.07000 28.16000 43.90400
C  53.02700 26.82100 43.56500
C  54.98300 29.75100 44.56800
C  51.79800 28.87400 43.68800
O  51.47900 30.03800 43.87100
C  50.85400 27.74900 43.10900
C  50.33200 28.32100 41.86800
O  51.00500 28.45300 40.82000
O  48.98900 28.60200 41.98900
C  48.22300 29.08700 40.83100
H  51.44100 20.92200 42.11900
H  57.90400 21.53900 43.10100
H  56.99700 27.72800 44.58700
H  49.26400 24.93300 43.16700
H  49.91900 22.73500 41.28500
H  49.95000 22.41500 44.25700
H  49.18200 21.27800 43.05000
H  48.40100 22.84000 43.36800
H  48.83900 26.23000 41.20600
H  48.54100 24.53800 40.76700
H  51.21300 25.39300 40.00700
H  49.90900 26.51000 39.52300
H  53.46000 18.84900 40.58500
H  52.40600 18.96100 42.06800
H  53.81900 17.86800 42.00400
H  58.37000 18.00300 42.82400
H  58.31400 19.66300 43.51200
H  58.57600 19.52100 41.79800
H  59.35200 23.98700 42.89800
H  58.70500 25.66700 45.35500
H  59.56200 23.50700 45.87700
H  60.36400 22.76100 44.47700
H  58.87200 22.08800 45.05000
H  59.10300 27.52600 43.43200
H  59.24300 26.12700 42.34900
H  61.56900 26.14000 43.11000
H  60.88000 25.74100 44.71400
H  61.22200 27.43100 44.11400
H  54.56000 30.01500 45.53700
H  54.75700 30.52700 43.83700
H  56.07200 29.70700 44.57100
H  49.96300 27.63300 43.72600
H  48.40100 28.56200 39.89200
H  48.04900 30.15000 40.66000
H  47.20200 28.83500 41.11800
Mg 49.15600 46.16600 42.60000
C  45.71300 46.77200 41.85700
C  48.93300 43.28800 40.97700
C  52.56200 45.95100 42.73300
C  49.32300 49.51000 43.83400
N  47.53300 45.11800 41.64300
C  46.16600 45.48900 41.44100
C  45.40100 44.39900 40.61900
C  46.44600 43.22800 40.56400
C  47.74300 43.90700 41.11400
C  46.02200 41.98300 41.49700
C  45.06200 44.93100 39.20300
C  43.69100 44.36900 38.59600
H  43.86600 43.78000 37.15900
N  50.55600 44.77500 41.92300
C  50.25900 43.64700 41.31500
C  51.42000 42.79400 41.07000
C  52.52500 43.58500 41.55400
C  51.94700 44.84800 42.14500
C  51.32000 41.51100 40.31000
C  54.02400 43.10700 41.50600
O  54.35700 42.01000 41.11200
C  55.12600 44.00900 41.92300
N  50.76700 47.52700 43.26300
C  52.05800 47.21800 43.12500
C  53.00700 48.31000 43.68600
C  51.95800 49.48300 43.91700
C  50.61300 48.87900 43.53200
C  53.78900 47.78100 44.92900
C  52.28300 50.81900 43.25100
C  52.99400 51.87900 44.19500
N  47.82200 47.80300 42.81000
C  48.04400 49.08600 43.35700
C  46.81300 49.84600 43.29900
C  45.86800 48.95900 42.82500
C  46.55800 47.73100 42.47600
C  46.67400 51.35200 43.76200
C  44.42700 48.79400 42.52900
O  43.54600 49.61700 42.66300
C  44.30900 47.33300 41.81700
C  43.48700 46.40400 42.72300
O  43.78700 45.95500 43.81300
O  42.36700 45.95100 42.06500
C  41.42700 45.03100 42.64400
H  48.89500 42.33500 40.44500
H  53.64300 46.00200 42.88000
H  49.42000 50.54800 44.15600
H  44.53700 44.11700 41.22000
H  46.65200 42.80400 39.58100
H  44.96300 42.10800 41.72300
H  46.61300 41.98500 42.41200
H  46.12900 41.08700 40.88600
H  45.89500 44.65100 38.55900
H  44.91400 46.00800 39.12400
H  43.07500 45.26700 38.54200
H  43.19400 43.63200 39.22700
H  52.32200 41.18000 40.03700
H  50.71900 41.53600 39.40100
H  50.72700 40.74900 40.81600
H  54.97200 44.08000 43.00000
H  54.98100 44.97100 41.43300
H  56.12800 43.58300 41.87300
H  53.66600 48.53000 42.84500
H  51.76200 49.75400 44.95500
H  53.67500 48.46300 45.77100
H  54.83900 47.57000 44.72400
H  53.30900 46.87100 45.28600
H  51.35000 51.12100 42.77600
H  52.97400 50.55100 42.45200
H  53.20100 51.39800 45.15100
H  52.48600 52.83900 44.28100
H  53.99100 51.98900 43.76800
H  47.39500 51.75600 44.47200
H  45.68800 51.44000 44.21800
H  46.75400 52.04500 42.92500
H  43.84200 47.41800 40.83600
H  40.46000 44.97400 42.14400
H  41.38400 45.14600 43.72700
H  41.81700 44.02600 42.48700

