158

Mg 1.70900 -1.40900 44.45400
C  5.07200 -0.53300 43.83500
C  0.89700 1.76000 42.95500
C  -1.51400 -2.36200 43.96400
C  2.74300 -4.47000 45.38700
N  2.87100 0.42200 43.41900
C  4.25000 0.46400 43.36900
C  4.75300 1.82400 42.79200
C  3.39400 2.65800 42.73900
C  2.31300 1.59000 42.98600
C  3.16900 3.72800 43.76600
C  5.47100 1.63600 41.45900
C  6.67700 2.58800 41.09900
H  6.92900 2.86000 39.63800
N  -0.10400 -0.40500 43.62800
C  -0.17200 0.83300 43.11200
C  -1.57200 1.14900 42.80500
C  -2.36900 -0.00000 43.12600
C  -1.35200 -1.01800 43.59900
C  -2.10500 2.47200 42.27800
C  -3.90300 -0.15700 43.04100
O  -4.59800 0.73200 42.59400
C  -4.57700 -1.40200 43.43200
N  0.77500 -3.11600 44.56500
C  -0.57000 -3.31400 44.46200
C  -0.94700 -4.81500 44.79300
C  0.43200 -5.42400 45.22000
C  1.41600 -4.29700 45.02300
C  -2.17500 -5.09000 45.65700
C  0.81300 -6.85500 44.54400
C  1.61900 -7.87600 45.46200
N  3.55200 -2.36800 44.56700
C  3.80000 -3.61600 45.05200
C  5.25400 -3.78300 45.12800
C  5.83800 -2.59200 44.69700
C  4.72800 -1.78500 44.30300
C  5.94600 -4.95600 45.58300
C  7.06700 -1.87000 44.50200
O  8.24100 -2.17700 44.72200
C  6.60300 -0.52900 43.90800
C  7.09600 0.63200 44.71300
O  6.55500 0.96900 45.74900
O  8.22500 1.23100 44.16900
C  8.48400 2.52100 44.70100
H  0.53700 2.72400 42.59100
H  -2.44100 -2.91800 43.81200
H  3.07600 -5.39700 45.85700
H  5.53300 2.32600 43.36300
H  3.15100 3.13900 41.79200
H  2.33400 3.49300 44.42700
H  2.91500 4.64400 43.23200
H  4.09900 3.99900 44.26500
H  4.81900 1.84500 40.61100
H  5.76900 0.59300 41.35900
H  7.59500 2.17300 41.51600
H  6.52100 3.53800 41.61000
H  -3.11500 2.53700 41.87500
H  -1.47100 2.66700 41.41200
H  -1.76000 3.32000 42.87000
H  -5.64700 -1.33400 43.23100
H  -4.45200 -1.52500 44.50800
H  -4.11500 -2.28700 42.99500
H  -1.24800 -5.18600 43.81300
H  0.44800 -5.54000 46.30400
H  -2.62100 -4.12700 45.90600
H  -2.00400 -5.48200 46.66000
H  -2.86000 -5.78500 45.17100
H  1.52600 -6.53500 43.78400
H  0.00400 -7.34900 44.00600
H  0.77300 -8.26100 46.03200
H  2.48800 -7.39600 45.91100
H  2.02800 -8.70900 44.89100
H  7.00500 -4.71200 45.49600
H  5.74400 -5.85300 44.99700
H  5.51200 -5.14600 46.56400
H  7.05700 -0.51300 42.91700
H  7.66400 3.09500 45.13300
H  8.82500 3.27900 43.99600
H  9.35600 2.43500 45.35000
Mg 47.94700 15.83900 28.67200
C  45.77800 15.63800 31.39700
C  50.25600 17.61700 30.68300
C  49.71900 16.46800 25.94000
C  45.24200 14.63500 26.63900
N  47.95500 16.60600 30.79200
C  47.00500 16.32500 31.71000
C  47.44400 16.78900 33.13000
C  48.80400 17.52200 32.88400
C  49.06100 17.18800 31.36700
C  48.92900 19.06800 33.32400
C  47.57900 15.63300 34.10700
C  46.69800 15.56500 35.37000
H  46.50500 16.91100 36.10700
N  49.91200 16.74200 28.41100
C  50.61500 17.45000 29.35600
C  51.74700 17.94200 28.69300
C  51.64300 17.66000 27.27300
C  50.37200 16.92100 27.15000
C  52.84600 18.75900 29.38400
C  52.58700 17.87000 26.06400
O  52.31300 17.50100 24.92600
C  53.86000 18.60400 26.25400
N  47.57400 15.60300 26.57900
C  48.47500 15.87500 25.65500
C  48.01100 15.46000 24.25400
C  46.69000 14.73500 24.59500
C  46.45300 15.01500 26.07000
C  47.95600 16.58700 23.14800
C  46.57500 13.29100 24.07700
C  46.95400 12.23900 25.10400
N  45.92300 15.18900 28.85900
C  44.98700 14.72200 27.99600
C  43.75800 14.30700 28.74900
C  44.03800 14.61800 30.10500
C  45.32300 15.16300 30.11900
C  42.45900 13.86700 28.20300
C  43.56300 14.56100 31.47300
O  42.49400 14.12900 31.81700
C  44.70800 15.21700 32.33600
C  44.01300 16.36900 33.12300
O  43.80100 17.51300 32.85600
O  43.51400 15.83600 34.29800
C  42.79800 16.56500 35.18500
H  50.98900 18.07400 31.35100
H  50.27200 16.73000 25.03500
H  44.54500 14.16700 25.94200
H  46.78400 17.57200 33.50400
H  49.61600 16.94900 33.33200
H  48.01400 19.52700 33.69800
H  49.19200 19.59800 32.40800
H  49.70500 19.25600 34.06500
H  48.60900 15.64000 34.46300
H  47.46700 14.70800 33.54200
H  47.32400 15.04000 36.09100
H  45.78700 15.00000 35.17400
H  53.83600 18.36200 29.16100
H  52.78700 18.65400 30.46700
H  52.83700 19.79500 29.04300
H  53.56900 19.63800 26.43800
H  54.57500 18.56200 25.43200
H  54.43000 18.37400 27.15500
H  48.76000 14.77200 23.86100
H  45.94400 15.26500 24.00300
H  48.58800 16.23100 22.33500
H  48.33500 17.57100 23.42700
H  46.94300 16.60900 22.74800
H  47.17700 13.22400 23.17100
H  45.54200 13.10200 23.78300
H  46.14600 11.54300 25.32600
H  47.28900 12.55500 26.09200
H  47.84700 11.79300 24.66600
H  42.24600 14.46200 27.31400
H  41.63900 14.01700 28.90500
H  42.36900 12.84200 27.84400
H  45.05500 14.54600 33.12300
H  42.91800 17.64700 35.24500
H  43.16400 16.28500 36.17300
H  41.74200 16.38200 34.98600

