158

Mg 26.20500 0.39600 29.62200
C  28.00000 0.20800 32.64100
C  23.31200 0.80100 31.53300
C  24.39500 0.21600 26.76000
C  28.99200 -0.50100 27.82100
N  25.70200 0.32500 31.92800
C  26.64600 0.44800 32.92200
C  26.00100 0.81200 34.25500
C  24.42700 0.87600 33.92000
C  24.44200 0.64900 32.31900
C  23.53300 0.09800 34.87300
C  26.62900 2.14900 34.77600
C  27.35600 1.99200 36.09300
H  26.81500 2.84900 37.28400
N  24.09300 0.45500 29.18400
C  23.05600 0.50800 30.12000
C  21.77500 0.43000 29.39700
C  22.06100 0.22800 28.00500
C  23.55900 0.32400 27.95300
C  20.44300 0.48100 30.15600
C  21.08900 -0.06100 26.81800
O  21.50800 -0.19500 25.66700
C  19.64100 -0.10500 26.99100
N  26.59000 -0.05800 27.56300
C  25.71800 0.00200 26.54900
C  26.38300 -0.08300 25.16300
C  27.82200 -0.45800 25.58700
C  27.86100 -0.31900 27.06600
C  25.67300 -1.06700 24.15600
C  28.94400 0.34500 24.79000
C  29.18900 1.74900 25.14800
N  28.12800 -0.03500 30.03300
C  29.17000 -0.39300 29.20600
C  30.30000 -0.72200 30.01500
C  29.94400 -0.42600 31.34500
C  28.57600 -0.04900 31.30700
C  31.64900 -1.19300 29.44700
C  30.44200 -0.41200 32.74600
O  31.46600 -0.85600 33.22600
C  29.17600 0.11100 33.66800
C  29.14600 -0.79400 34.80000
O  28.41400 -1.81800 34.88200
O  29.91600 -0.37100 35.80400
C  29.80000 -1.08400 37.08600
H  22.45200 1.19600 32.07800
H  23.89500 -0.00600 25.81500
H  29.86300 -0.82100 27.24600
H  26.14400 -0.06900 34.88200
H  24.02900 1.87200 34.11300
H  22.96100 -0.62000 34.28500
H  22.87500 0.81900 35.35800
H  24.05400 -0.45600 35.65400
H  25.86100 2.90900 34.91800
H  27.43200 2.64000 34.22600
H  28.38800 2.28300 35.89800
H  27.26800 0.95000 36.40000
H  20.58200 1.07800 31.05800
H  19.97800 -0.45600 30.46300
H  19.78400 1.00000 29.46000
H  19.20200 -0.16300 25.99500
H  19.32300 0.83300 27.44700
H  19.37100 -0.94300 27.63400
H  26.44500 0.84100 24.58700
H  27.93600 -1.54200 25.55900
H  24.73000 -1.37300 24.60900
H  26.22800 -1.99500 24.01700
H  25.60100 -0.59800 23.17500
H  28.57400 0.40600 23.76700
H  29.85500 -0.24000 24.65900
H  30.25200 1.92500 25.31500
H  28.67000 2.07100 26.05000
H  28.73000 2.46400 24.46500
H  31.69200 -0.89100 28.40100
H  31.74200 -2.27200 29.57200
H  32.50700 -0.68100 29.88100
H  29.38200 1.13400 33.98200
H  29.97500 -2.15600 36.99500
H  28.80700 -0.94300 37.51200
H  30.45700 -0.63600 37.83100
Mg 35.63700 1.38900 30.64400
C  33.49700 2.79500 32.94800
C  37.96600 0.89200 33.07100
C  37.84300 0.38200 28.27500
C  33.29400 1.82800 28.16700
N  35.73600 1.96700 32.74600
C  34.75100 2.50700 33.52300
C  35.18200 2.34200 34.97900
C  36.70300 2.00800 34.93700
C  36.80900 1.57600 33.50200
C  37.73200 3.12800 35.32600
C  34.28900 1.39300 35.81800
C  34.16100 1.59900 37.40500
H  34.78700 2.79900 38.17900
N  37.65400 0.78500 30.70000
C  38.39000 0.58600 31.79300
C  39.76500 0.22100 31.38200
C  39.71500 0.16400 29.99100
C  38.36000 0.51900 29.60200
C  40.89700 -0.06100 32.31700
C  40.81000 -0.24600 29.05200
O  40.77000 -0.09600 27.80400
C  42.10400 -0.87600 29.49600
N  35.57600 1.11400 28.51300
C  36.60400 0.66900 27.72900
C  36.23200 0.35500 26.25200
C  34.76500 0.90400 26.31400
C  34.54200 1.29500 27.72600
C  36.99900 1.06400 25.10100
C  33.74100 -0.18200 25.82600
C  33.61800 -0.20800 24.24400
N  33.78800 2.26400 30.52000
C  32.96300 2.38100 29.40200
C  31.74200 3.05600 29.76200
C  31.92100 3.27900 31.16800
C  33.13500 2.71800 31.55200
C  30.56600 3.44300 28.89900
C  31.33500 3.81500 32.38100
O  30.34200 4.49800 32.50100
C  32.27200 3.27900 33.62700
C  32.49200 4.37500 34.48600
O  33.29200 5.33900 34.25700
O  31.65700 4.34100 35.55800
C  31.65500 5.52700 36.34800
H  38.66500 0.67200 33.88000
H  38.49000 -0.03400 27.49900
H  32.49400 1.81600 27.42400
H  35.18700 3.37700 35.32100
H  36.95300 1.13000 35.53300
H  38.27500 2.51000 36.04200
H  37.34800 4.01100 35.83600
H  38.49100 3.21600 34.54900
H  34.82100 0.45200 35.67900
H  33.26500 1.27400 35.46100
H  34.33600 0.65700 37.92300
H  33.11200 1.89400 37.43800
H  41.26600 -1.08600 32.35900
H  40.65800 0.25600 33.33300
H  41.74000 0.51000 31.93100
H  42.67900 -1.23400 28.64200
H  42.10800 -1.63800 30.27600
H  42.72300 -0.06700 29.88400
H  36.30800 -0.71900 26.07700
H  34.74100 1.81700 25.72000
H  38.04500 1.15700 25.39300
H  36.73700 2.09400 24.86000
H  36.80500 0.47600 24.20400
H  32.76800 -0.09100 26.30900
H  34.15800 -1.13500 26.15000
H  33.93300 0.74300 23.81500
H  32.55500 -0.38900 24.08300
H  33.99500 -1.11900 23.77900
H  29.94300 2.56500 28.72600
H  31.04400 3.65000 27.94200
H  30.04900 4.32000 29.28900
H  31.82300 2.43500 34.15000
H  30.63600 5.67900 36.70500
H  31.89800 6.41000 35.75800
H  32.25400 5.42800 37.25400

