158

Mg 53.58400 24.61800 44.41700
C  50.75700 26.68500 43.95000
C  51.60400 21.85800 43.95700
C  56.39400 22.83400 44.27900
C  55.51100 27.57900 44.86500
N  51.51100 24.32600 43.77200
C  50.52800 25.27700 43.56900
C  49.15000 24.70800 43.27600
C  49.39300 23.27300 43.67900
C  50.93900 23.13900 43.82400
C  48.50300 22.70200 44.91700
C  48.58600 24.91600 41.80800
C  49.71900 25.37300 40.86000
H  49.18100 25.71500 39.49600
N  53.94300 22.60600 44.07700
C  53.03100 21.66100 43.98100
C  53.69200 20.34500 43.96700
C  55.07700 20.61900 43.89000
C  55.20100 22.04900 44.10600
C  52.95400 19.01400 44.03000
C  56.21700 19.65600 43.60400
O  55.88400 18.45500 43.44300
C  57.67700 19.97500 43.61500
N  55.73500 25.17300 44.54000
C  56.67100 24.22800 44.40800
C  58.06500 24.80500 44.68400
C  57.69800 26.35200 44.54700
C  56.19300 26.37800 44.72100
C  58.41600 24.31100 46.13700
C  58.25500 26.96100 43.22200
C  59.56900 27.69700 43.31600
N  53.26300 26.73300 44.38800
C  54.10900 27.78500 44.76500
C  53.28700 29.02300 44.93900
C  51.98400 28.58300 44.59000
C  52.01000 27.23800 44.33700
C  53.90300 30.35700 45.33800
C  50.63300 29.03100 44.37300
O  50.16900 30.17700 44.49400
C  49.73600 27.86200 44.00100
C  49.00100 28.13100 42.73500
O  49.58700 28.49700 41.70800
O  47.62600 28.10900 42.88000
C  46.84800 28.33700 41.53400
H  50.98300 20.96000 43.92300
H  57.32200 22.25900 44.32100
H  55.95000 28.57000 45.00000
H  48.42900 25.19400 43.93200
H  49.04600 22.58900 42.90500
H  49.05900 22.11500 45.64800
H  47.75000 22.04100 44.48700
H  47.99700 23.49100 45.47400
H  47.67500 25.50700 41.71200
H  48.24600 23.92700 41.50000
H  50.50000 24.61300 40.83700
H  50.22100 26.23700 41.29500
H  52.50500 18.71200 43.08400
H  52.27000 19.02100 44.87800
H  53.70400 18.23600 44.17700
H  58.19500 19.03800 43.41400
H  57.82400 20.32200 44.63800
H  57.89400 20.75200 42.88100
H  58.72300 24.46700 43.88400
H  58.12100 26.98000 45.33100
H  58.57000 25.21400 46.72800
H  59.30300 23.67800 46.16200
H  57.64700 23.82400 46.73600
H  57.49500 27.56500 42.72800
H  58.45400 26.21500 42.45200
H  59.48500 28.68600 42.86400
H  60.26600 27.08300 42.74400
H  59.86300 27.77400 44.36300
H  53.17600 31.16700 45.28900
H  54.73600 30.68600 44.71700
H  54.40900 30.26400 46.29900
H  49.00200 27.68100 44.78600
H  46.51800 27.32500 41.30000
H  47.35200 28.84600 40.71200
H  45.86100 28.74600 41.74800
Mg 0.43300 42.82800 25.96400
C  3.00900 42.73000 28.31900
C  -1.77500 42.38200 28.50100
C  -2.03700 42.79400 23.63300
C  2.85000 43.10000 23.47600
N  0.63100 42.58800 28.16200
C  1.79100 42.57600 28.91100
C  1.42000 42.42400 30.34100
C  -0.08100 41.93800 30.34800
C  -0.47500 42.28600 28.96500
C  -0.33800 40.39100 30.74600
C  1.75200 43.75700 31.10400
C  1.31100 43.88900 32.59000
H  1.03700 42.63900 33.39900
N  -1.68200 42.52200 26.05100
C  -2.37000 42.43800 27.23000
C  -3.83800 42.43400 26.84200
C  -3.86500 42.53600 25.43400
C  -2.50300 42.60800 24.98600
C  -4.79000 42.48600 27.88200
C  -5.09300 42.53700 24.51500
O  -5.06400 42.65100 23.31200
C  -6.44000 42.60700 25.05500
N  0.38000 42.87700 23.85700
C  -0.74000 42.93600 23.09100
C  -0.43700 43.17900 21.62300
C  1.06500 43.19600 21.56300
C  1.52100 43.10700 23.03300
C  -1.08300 42.09200 20.66700
C  1.62700 44.35500 20.74000
C  1.81000 45.76000 21.44900
N  2.50600 42.87100 25.84100
C  3.33500 43.05200 24.77700
C  4.71000 43.02300 25.17000
C  4.63600 42.80800 26.57800
C  3.26100 42.82700 26.93400
C  5.92400 43.04900 24.28100
C  5.42300 42.55800 27.77500
O  6.62500 42.39100 27.90900
C  4.37600 42.58200 28.93400
C  4.61300 41.38000 29.79500
O  4.20300 40.25700 29.60200
O  5.31900 41.69500 30.91600
C  5.36800 40.69300 31.98300
H  -2.43000 42.29100 29.37000
H  -2.73700 42.95800 22.81100
H  3.46100 43.24300 22.58200
H  1.99500 41.65600 30.85800
H  -0.67400 42.52500 31.04900
H  -0.87000 40.33700 31.69600
H  0.46900 39.68700 30.94900
H  -1.03900 39.98700 30.01600
H  1.22800 44.57200 30.60300
H  2.78200 44.11600 31.08000
H  0.36900 44.43400 32.64000
H  2.08600 44.50100 33.05200
H  -5.76000 42.85200 27.54500
H  -4.54000 43.23900 28.63000
H  -4.79100 41.47600 28.29300
H  -6.48700 41.83900 25.82800
H  -7.21200 42.29500 24.35200
H  -6.60500 43.60900 25.45100
H  -0.69200 44.17800 21.26900
H  1.41500 42.26700 21.11400
H  -1.45900 41.30200 21.31700
H  -0.36400 41.51700 20.08400
H  -1.90600 42.40800 20.02500
H  1.05400 44.48700 19.82100
H  2.61500 43.96500 20.49800
H  1.37300 45.59400 22.43300
H  1.22800 46.54000 20.95700
H  2.86000 46.05200 21.45900
H  6.73200 42.50800 24.77400
H  6.27000 44.06800 24.10700
H  5.66100 42.47800 23.39100
H  4.68600 43.40900 29.57300
H  5.88800 39.77500 31.71000
H  4.38600 40.43400 32.37900
H  5.91200 41.24700 32.74800

