158

Mg 46.81500 34.99000 28.39200
C  45.23100 32.91100 30.80900
C  47.12000 37.43200 30.72500
C  47.91500 37.00100 25.96000
C  46.23600 32.49100 25.98900
N  46.27400 35.15200 30.47600
C  45.69800 34.17900 31.29100
C  45.87700 34.54000 32.80500
C  46.09600 36.10400 32.66200
C  46.53300 36.24700 31.16500
C  44.85300 36.87100 33.11100
C  47.19600 33.79200 33.27000
C  47.38200 33.76300 34.79400
H  46.41200 34.55300 35.61700
N  47.49400 37.03100 28.39500
C  47.60500 37.84300 29.48200
C  48.27600 39.12200 29.11800
C  48.48600 38.95300 27.70900
C  47.91700 37.61800 27.29200
C  48.61500 40.24200 30.04900
C  49.04500 40.03800 26.70000
O  49.19900 39.82300 25.54300
C  49.51000 41.43600 27.16300
N  47.00700 34.78100 26.22500
C  47.55000 35.72800 25.45300
C  47.78400 35.25500 23.98600
C  47.36300 33.77800 24.07300
C  46.84300 33.67100 25.53600
C  46.99600 36.02800 22.84600
C  48.46100 32.66300 23.71000
C  48.13300 31.84600 22.47400
N  46.03500 33.07700 28.30200
C  45.84200 32.18700 27.29200
C  45.09800 30.99600 27.73500
C  44.79500 31.20900 29.05700
C  45.38500 32.46900 29.42100
C  44.69900 29.90700 26.78500
C  44.02500 30.72400 30.29600
O  43.27000 29.76300 30.47200
C  44.17100 31.89500 31.33800
C  44.57500 31.34900 32.70400
O  45.51800 30.63000 32.96300
O  43.51600 31.66500 33.55800
C  43.66000 31.19700 34.99400
H  47.36700 38.09400 31.55700
H  48.31100 37.65500 25.18000
H  46.03200 31.66300 25.30700
H  45.07200 34.28400 33.49400
H  46.90700 36.31400 33.35900
H  44.95200 37.65500 33.86300
H  44.21900 36.17400 33.65800
H  44.36400 37.36500 32.27200
H  48.01600 34.42700 32.93500
H  47.20000 32.78600 32.85100
H  48.40800 34.08900 34.96200
H  47.27200 32.75200 35.18500
H  48.20900 41.22000 29.79300
H  49.69000 40.42100 30.00900
H  48.47200 40.01700 31.10600
H  48.77800 42.20600 26.91800
H  50.43700 41.61900 26.62000
H  49.82400 41.52100 28.20300
H  48.87300 35.27000 23.94300
H  46.46200 33.63100 23.47800
H  46.82300 37.08900 23.02400
H  46.08900 35.64400 22.38000
H  47.74300 36.12600 22.05800
H  48.75600 32.02900 24.54600
H  49.40000 33.20100 23.57500
H  47.25000 32.10300 21.88900
H  48.13600 30.80300 22.79400
H  49.03900 31.95200 21.87800
H  44.86500 29.00900 27.37900
H  45.26900 29.83600 25.85800
H  43.63700 29.96200 26.54700
H  43.18900 32.35600 31.44600
H  44.23800 30.28200 35.12000
H  42.67400 30.87100 35.32700
H  43.98100 31.97100 35.69000
Mg 26.11600 52.03800 25.59900
C  23.91500 52.95400 28.21000
C  28.41600 51.43100 28.20600
C  28.37300 51.77200 23.32200
C  23.72800 53.19700 23.34000
N  26.19400 52.23600 27.89800
C  25.11400 52.45800 28.69600
C  25.44700 52.15200 30.21100
C  26.93500 51.85900 30.20300
C  27.26200 51.91400 28.69900
C  27.83600 52.73000 31.11300
C  24.52200 51.02800 30.79900
C  24.07300 51.39800 32.26000
H  24.41900 50.62600 33.52700
N  28.06300 51.49200 25.79300
C  28.88200 51.27800 26.86900
C  30.18600 50.92700 26.46000
C  30.17500 50.86900 25.04100
C  28.83700 51.35100 24.63100
C  31.22600 50.73000 27.49200
C  31.36500 50.56700 24.12100
O  31.25900 50.59000 22.88700
C  32.70100 50.21900 24.61900
N  26.05200 52.52400 23.66300
C  27.13600 52.21200 22.88100
C  26.94300 52.57000 21.37800
C  25.40200 52.85200 21.40600
C  25.00700 52.80500 22.89900
C  27.76500 53.91200 21.01000
C  24.51500 51.83900 20.50900
C  23.68300 52.44200 19.34800
N  24.21500 52.92300 25.68800
C  23.31600 53.25200 24.69800
C  22.08500 53.69600 25.26800
C  22.23800 53.54800 26.67700
C  23.54900 53.04300 26.84000
C  20.79700 54.12100 24.68700
C  21.60000 53.69200 27.95800
O  20.45400 54.02400 28.26900
C  22.68300 53.30800 29.03400
C  22.75000 54.25100 30.18100
O  23.27900 55.35700 30.08200
O  21.99200 53.82600 31.20500
C  21.85400 54.79200 32.29800
H  29.07800 51.07700 28.99900
H  29.05500 51.60000 22.48600
H  23.03900 53.40200 22.51700
H  25.31900 53.03600 30.83500
H  27.08700 50.85600 30.60200
H  27.18800 53.17400 31.86900
H  28.32600 53.49000 30.50500
H  28.60600 52.20000 31.67300
H  25.18400 50.18700 31.00500
H  23.67600 50.81300 30.14600
H  22.99700 51.55300 32.34400
H  24.41100 52.39000 32.56000
H  30.94700 51.23100 28.41900
H  32.20600 51.09000 27.18100
H  31.39200 49.65800 27.59400
H  32.64900 49.64100 25.54200
H  33.23400 51.16900 24.61600
H  33.26700 49.63300 23.89500
H  27.31600 51.79800 20.70500
H  25.18400 53.85100 21.02800
H  28.62700 53.61200 20.41300
H  28.19200 54.46200 21.84800
H  27.13700 54.62400 20.47500
H  23.86900 51.26900 21.17700
H  25.14500 51.02300 20.15600
H  23.02700 53.25900 19.64900
H  23.03500 51.66800 18.93700
H  24.37400 52.70700 18.54800
H  20.92100 54.27400 23.61400
H  20.58500 55.04200 25.22900
H  19.99700 53.38700 24.77900
H  22.25100 52.39600 29.44600
H  22.67100 54.56600 32.98300
H  20.93700 54.75500 32.88500
H  22.07500 55.82700 32.03600

