158

Mg 47.57300 24.96100 27.94200
C  48.64500 27.50600 30.11100
C  46.42800 23.11800 30.60300
C  46.82400 22.44900 25.89900
C  49.50200 26.51700 25.47100
N  47.38100 25.37700 30.15000
C  47.98700 26.43200 30.82100
C  47.78000 26.25000 32.30100
C  47.08500 24.81100 32.46100
C  46.96900 24.37000 31.00900
C  47.86100 23.83000 33.29300
C  46.92400 27.35500 32.93900
C  47.32300 27.92800 34.32600
H  46.22100 27.85800 35.37600
N  46.67500 23.08900 28.18800
C  46.34400 22.46400 29.38600
C  45.81600 21.11000 29.10500
C  45.84200 20.94600 27.70100
C  46.44000 22.18700 27.19000
C  45.51500 20.13100 30.22100
C  45.40100 19.74500 26.94700
O  45.66100 19.69400 25.72900
C  44.65100 18.65200 27.62800
N  48.09500 24.51400 25.93900
C  47.49800 23.50900 25.24800
C  47.90800 23.44200 23.78400
C  48.64800 24.81400 23.63300
C  48.78300 25.33400 25.09200
C  48.72400 22.19900 23.47000
C  47.88900 25.96000 22.89700
C  48.90900 26.89500 22.16600
N  48.80900 26.71900 27.69600
C  49.45900 27.26700 26.65200
C  50.15300 28.49300 26.95300
C  49.77200 28.67400 28.33700
C  49.01900 27.56700 28.75800
C  50.98900 29.42000 26.20200
C  49.90100 29.52300 29.52700
O  50.48600 30.60800 29.62500
C  49.20400 28.75000 30.70900
C  50.22400 28.57000 31.77600
O  51.26400 27.93300 31.68900
O  49.72900 29.21200 32.84400
C  50.61400 29.09700 34.03500
H  46.03400 22.56100 31.45500
H  46.58600 21.71800 25.12300
H  50.00200 27.01500 24.63900
H  48.79600 26.23500 32.69500
H  46.12300 24.90300 32.96700
H  48.50600 24.36300 33.99200
H  48.45900 23.11700 32.72600
H  47.05800 23.33600 33.84000
H  45.86100 27.11600 32.94500
H  46.93000 28.26800 32.34500
H  47.60300 28.96700 34.14800
H  48.17200 27.38700 34.74400
H  44.53700 19.71400 29.98000
H  45.64000 20.48800 31.24400
H  46.22100 19.30400 30.28600
H  44.09700 18.06500 26.89600
H  43.85000 19.09700 28.21800
H  45.36100 18.11100 28.25400
H  47.10500 23.45400 23.04700
H  49.63800 24.78400 23.18000
H  49.70100 22.37000 23.01900
H  48.21700 21.48800 22.81800
H  49.02200 21.72100 24.40300
H  47.31900 26.57700 23.59200
H  47.32800 25.51600 22.07400
H  49.92400 26.67700 22.49800
H  48.69400 27.94300 22.37500
H  48.81600 26.77200 21.08700
H  51.88200 28.88100 25.88900
H  51.39600 30.27400 26.74300
H  50.40300 29.71900 25.33300
H  48.42600 29.44100 31.03200
H  50.36600 30.01700 34.56400
H  51.69700 29.18600 33.95700
H  50.46200 28.23100 34.68000
Mg 17.17000 52.19000 25.97500
C  18.96800 50.51300 28.58700
C  14.68500 52.80600 28.28600
C  15.15900 53.54600 23.48100
C  19.42200 51.10200 23.85600
N  16.90100 51.62600 28.09900
C  17.82300 51.11600 28.99600
C  17.41300 51.31700 30.44600
C  15.88400 51.59800 30.22400
C  15.76400 52.00400 28.74000
C  15.05400 50.29400 30.49800
C  18.22300 52.55400 31.08400
C  18.34200 52.51900 32.57700
H  17.28300 51.72500 33.31900
N  15.20400 53.06700 25.85000
C  14.42400 53.24600 26.98700
C  13.23200 54.01300 26.60500
C  13.32500 54.20900 25.21700
C  14.61600 53.64900 24.76000
C  12.14400 54.48400 27.62600
C  12.34400 54.87900 24.28800
O  12.53600 55.06200 23.08800
C  11.03000 55.37900 24.88300
N  17.18500 52.29000 23.89300
C  16.38800 52.95800 23.03300
C  16.94400 52.89800 21.56000
C  18.38500 52.26000 21.81600
C  18.33400 51.84500 23.30700
C  16.02400 52.08100 20.62700
C  19.65700 53.02900 21.39700
C  20.32800 54.05500 22.28800
N  18.86700 51.06100 26.11700
C  19.73700 50.66200 25.16300
C  20.98200 50.05800 25.71900
C  20.60200 49.93500 27.06400
C  19.33600 50.50600 27.24300
C  22.19700 49.70100 24.97500
C  21.12400 49.43900 28.32800
O  22.13700 48.84800 28.57900
C  20.11300 49.95800 29.43900
C  19.70500 48.81800 30.35000
O  18.98200 47.86400 30.08300
O  20.17800 49.04900 31.64300
C  19.68700 48.03600 32.65100
H  13.93100 52.98600 29.05600
H  14.74900 53.90400 22.53400
H  20.09600 50.62800 23.13900
H  17.54100 50.36900 30.96800
H  15.52900 52.35100 30.92800
H  14.95500 49.79100 29.53600
H  14.02100 50.51000 30.77200
H  15.30900 49.60000 31.29800
H  17.80300 53.46400 30.65400
H  19.25100 52.47400 30.73100
H  18.28500 53.55600 32.90700
H  19.25200 51.96300 32.80200
H  11.18300 54.02000 27.40200
H  12.06900 55.56600 27.51700
H  12.42000 54.29900 28.66400
H  10.57100 55.96700 24.08800
H  11.19200 56.05600 25.72100
H  10.35400 54.55100 25.09800
H  17.01200 53.91500 21.17100
H  18.44800 51.29600 21.31000
H  16.58700 51.43900 19.94900
H  15.39800 52.78200 20.07600
H  15.31200 51.42500 21.12800
H  19.52500 53.57400 20.46200
H  20.36200 52.23900 21.13800
H  21.40200 53.95100 22.44100
H  19.70500 54.09600 23.18100
H  20.21000 55.05500 21.87200
H  22.54500 50.51400 24.33900
H  22.07000 48.75700 24.44500
H  22.89400 49.70600 25.81300
H  20.59600 50.72100 30.04900
H  19.74600 47.00300 32.31100
H  18.70700 48.40300 32.95700
H  20.42000 47.93500 33.45000

