158

Mg 24.70100 -7.14900 47.32400
C  27.34900 -5.26100 46.29500
C  22.95700 -6.18200 44.66000
C  22.67900 -9.84300 47.75900
C  27.05600 -8.89200 49.50600
N  25.20100 -5.96000 45.66500
C  26.28300 -5.17100 45.41100
C  26.09300 -4.30800 44.18200
C  24.67800 -4.66900 43.69400
C  24.20700 -5.60400 44.78100
C  23.71700 -3.51000 43.39700
C  27.23500 -4.41200 43.09800
C  27.87200 -3.11400 42.61100
H  27.81600 -2.71200 41.19800
N  22.89200 -7.71000 46.59300
C  22.32300 -7.16600 45.44700
C  21.03500 -7.80300 45.20000
C  20.88500 -8.75900 46.24200
C  22.15800 -8.83500 46.96600
C  20.08300 -7.22800 44.11800
C  19.65800 -9.57600 46.44300
O  18.69900 -9.46500 45.75000
C  19.60400 -10.51600 47.56200
N  24.81900 -9.09100 48.47000
C  23.81000 -9.92600 48.46500
C  24.03700 -11.12400 49.38300
C  25.34000 -10.70500 50.10900
C  25.83400 -9.60800 49.19400
C  22.92800 -11.48900 50.36200
C  26.39600 -11.80900 50.24900
C  26.72700 -12.26100 51.65900
N  26.71900 -7.01600 47.98600
C  27.55400 -7.69600 48.83600
C  28.82000 -7.07400 48.91200
C  28.77000 -6.02700 47.98900
C  27.47800 -6.05800 47.41200
C  30.08200 -7.50000 49.66900
C  29.54600 -4.94900 47.38100
O  30.69200 -4.54800 47.57800
C  28.54600 -4.38200 46.31500
C  28.25100 -2.98700 46.76200
O  28.12000 -2.51700 47.92600
O  28.16500 -2.21400 45.64000
C  27.86700 -0.80400 45.86700
H  22.28200 -5.87000 43.86000
H  22.03800 -10.72500 47.69800
H  27.72500 -9.36500 50.22700
H  26.10600 -3.27300 44.52500
H  24.69500 -5.28100 42.79200
H  23.22600 -3.61600 42.43000
H  24.24600 -2.56100 43.31100
H  22.94800 -3.53300 44.16900
H  26.81600 -4.83600 42.18500
H  27.86600 -5.20700 43.49400
H  28.93100 -3.09500 42.87200
H  27.30000 -2.29300 43.04300
H  19.14700 -7.78600 44.07600
H  20.57500 -7.21500 43.14600
H  19.75600 -6.21800 44.36600
H  20.03500 -9.95000 48.38800
H  20.10100 -11.47000 47.38600
H  18.57500 -10.61700 47.90400
H  24.20300 -11.92900 48.66700
H  24.96600 -10.25400 51.02800
H  22.45300 -10.53900 50.61000
H  23.24700 -12.08000 51.22100
H  22.21700 -12.06000 49.76500
H  27.28100 -11.48800 49.69900
H  25.93700 -12.70800 49.83600
H  26.07900 -11.78800 52.39700
H  27.78800 -12.02100 51.72700
H  26.62900 -13.34600 51.63700
H  30.04100 -8.23300 50.47500
H  30.38200 -6.65400 50.28700
H  30.89600 -7.66500 48.96400
H  29.04400 -4.29000 45.35000
H  28.41000 -0.44700 46.74100
H  26.80800 -0.62500 46.05700
H  28.20800 -0.21900 45.01200
Mg 41.56600 7.87900 30.02100
C  43.18700 9.52700 32.57400
C  39.25600 6.75500 32.22200
C  40.25300 6.33300 27.44200
C  44.45800 8.61000 28.01400
N  41.40000 8.05100 32.17000
C  42.12300 8.81400 33.02000
C  41.49600 8.78000 34.43700
C  40.27100 7.85400 34.26100
C  40.31600 7.48100 32.82900
C  40.34200 6.66400 35.18600
C  41.30000 10.09900 35.08300
C  40.28000 10.11900 36.27200
H  40.64200 11.15600 37.33700
N  39.89600 6.74700 29.85800
C  39.07800 6.33700 30.85800
C  37.99600 5.56500 30.28100
C  38.23600 5.54000 28.88800
C  39.52000 6.20900 28.64300
C  37.00000 4.75200 31.07600
C  37.35900 4.89400 27.78700
O  37.56100 4.94900 26.57900
C  36.12000 4.16900 28.17300
N  42.33100 7.39700 27.95000
C  41.49100 6.87300 27.10200
C  42.05700 6.83600 25.69500
C  43.44900 7.67600 25.83700
C  43.45200 7.90900 27.34300
C  42.15700 5.40200 25.05500
C  43.62800 8.96700 24.97800
C  42.72900 10.18000 25.43700
N  43.38600 8.90300 30.16100
C  44.48800 9.08500 29.32000
C  45.52300 9.93700 29.97100
C  44.91000 10.21500 31.18400
C  43.75200 9.49900 31.29100
C  46.75400 10.52400 29.31100
C  45.14300 10.92000 32.42500
O  46.16900 11.59100 32.70600
C  43.95800 10.48400 33.44400
C  44.64200 9.71400 34.52600
O  45.02300 8.51300 34.46100
O  44.74800 10.60200 35.56300
C  45.28600 9.95500 36.79300
H  38.37700 6.57400 32.84500
H  39.67300 5.91400 26.61700
H  45.26800 8.99500 27.39200
H  42.14800 8.22900 35.11600
H  39.40000 8.49100 34.40900
H  40.27100 5.77300 34.56300
H  39.46000 6.65400 35.82600
H  41.17600 6.52200 35.87400
H  41.10300 10.82600 34.29600
H  42.25700 10.46000 35.46100
H  40.16900 9.16100 36.78000
H  39.24500 10.31700 35.99200
H  36.00000 5.12800 30.85800
H  37.09900 5.09800 32.10500
H  36.95900 3.66900 30.95800
H  35.29400 4.08200 27.46700
H  35.61100 4.76300 28.93300
H  36.51100 3.19900 28.47800
H  41.38500 7.42300 25.06900
H  44.29700 7.00900 25.68900
H  41.50200 4.69900 25.57000
H  43.16700 4.99800 24.97800
H  41.73800 5.51600 24.05500
H  43.27900 8.65900 23.99300
H  44.62200 9.33300 24.72100
H  41.89600 10.17100 26.14000
H  42.36300 10.82300 24.63700
H  43.47600 10.82300 25.90500
H  47.48100 10.68700 30.10600
H  46.61000 11.43300 28.72700
H  47.18200 9.71200 28.72400
H  43.45300 11.36500 33.84100
H  46.32700 9.70600 36.58800
H  44.80700 9.00000 37.00700
H  45.30100 10.53900 37.71300

