158

Mg 24.99500 1.30300 30.37400
C  27.29800 1.31100 33.08100
C  22.37400 1.58500 32.67200
C  22.88000 1.06200 27.95000
C  27.71900 0.78800 28.26600
N  24.90300 1.34600 32.62200
C  25.98700 1.40000 33.51500
C  25.48000 1.73500 34.91300
C  23.96000 1.54100 34.74100
C  23.70700 1.50600 33.22800
C  23.28300 0.46800 35.58200
C  25.89400 3.16800 35.35500
C  26.62800 3.19200 36.76900
H  26.03600 4.13300 37.77800
N  22.86000 1.20200 30.31900
C  22.00200 1.34400 31.33900
C  20.65200 1.25300 30.79500
C  20.80800 1.15900 29.39500
C  22.22800 1.16000 29.14700
C  19.38600 1.30000 31.60900
C  19.67300 1.05100 28.40000
O  19.85800 0.99400 27.16700
C  18.27600 0.74400 28.78800
N  25.29500 0.92300 28.40500
C  24.22100 0.99000 27.53800
C  24.59000 0.87200 26.05000
C  26.16900 0.88600 26.12800
C  26.42700 0.79500 27.69400
C  23.85700 -0.31000 25.31800
C  26.82700 2.19200 25.37000
C  26.77600 3.54800 26.13500
N  27.12200 1.03500 30.55400
C  28.05900 0.86500 29.61200
C  29.33000 0.66700 30.26500
C  29.10000 0.95100 31.63500
C  27.75300 1.09300 31.74200
C  30.66900 0.30300 29.48700
C  29.70300 1.13300 32.94500
O  30.85900 1.05100 33.24000
C  28.54500 1.36900 33.88900
C  28.68800 0.36600 34.96700
O  28.54700 -0.82700 34.77600
O  29.20700 0.81200 36.13000
C  29.34100 -0.13900 37.29300
H  21.55700 1.79200 33.36700
H  22.19700 0.95800 27.10500
H  28.43100 0.61800 27.45700
H  25.87100 0.95900 35.57200
H  23.47200 2.46900 35.04100
H  22.66800 -0.15900 34.93700
H  22.47700 0.85500 36.20600
H  23.99400 -0.15000 36.13100
H  25.06000 3.86700 35.41700
H  26.54300 3.59600 34.59100
H  27.70000 3.37300 36.69400
H  26.46300 2.17700 37.13000
H  19.70600 1.60700 32.60500
H  18.93200 0.30900 31.59600
H  18.60700 2.00300 31.31400
H  17.77600 1.54100 29.33900
H  18.52300 -0.18100 29.30800
H  17.64100 0.39900 27.97200
H  24.27800 1.71200 25.43100
H  26.61600 -0.00900 25.69700
H  24.56500 -0.82500 24.66900
H  23.14500 0.08600 24.59300
H  23.43000 -0.99500 26.05000
H  26.46700 2.32300 24.34900
H  27.91300 2.10700 25.39900
H  26.52100 3.39500 27.18300
H  26.19300 4.30100 25.60500
H  27.73200 4.04100 26.31100
H  31.21600 1.23800 29.60500
H  30.45600 -0.02500 28.47000
H  31.21800 -0.38700 30.12800
H  28.65600 2.32900 34.39400
H  28.51600 -0.11600 38.00500
H  30.27300 0.11800 37.79800
H  29.43300 -1.16500 36.93600
Mg 49.72700 36.48400 27.52400
C  47.26300 34.84800 29.43100
C  50.05100 38.67400 29.97800
C  51.30000 38.35000 25.30500
C  48.72600 34.33900 24.72200
N  48.61400 36.77500 29.45800
C  47.99000 35.77100 30.13800
C  48.08000 36.03500 31.61200
C  48.60100 37.51100 31.73900
C  49.17700 37.72300 30.34500
C  47.52300 38.61100 32.02100
C  48.95200 35.02400 32.39700
C  48.65100 34.85700 33.87200
H  47.79400 35.94000 34.54700
N  50.55000 38.28400 27.62200
C  50.68000 39.03100 28.76400
C  51.57400 40.15200 28.50500
C  51.93000 40.04400 27.13500
C  51.25100 38.86300 26.59700
C  51.98400 41.12500 29.56400
C  52.76500 41.05600 26.32300
O  52.91400 40.96300 25.08800
C  53.62500 42.23700 27.02800
N  49.90400 36.41600 25.23500
C  50.61700 37.31700 24.63800
C  50.90700 37.01600 23.16500
C  50.35600 35.54200 23.05600
C  49.58000 35.37300 24.41500
C  50.16300 37.99000 22.15900
C  51.39700 34.34700 23.01700
C  51.02100 33.01100 22.31100
N  48.35900 34.85500 27.06000
C  48.06200 34.09100 25.92700
C  47.18000 33.02100 26.31200
C  46.70200 33.33600 27.63700
C  47.49700 34.49900 28.04100
C  46.76700 31.92100 25.40800
C  45.78200 32.96100 28.66600
O  45.02800 32.00600 28.76100
C  46.14000 34.00000 29.86100
C  46.21600 33.33400 31.18500
O  46.74500 32.25600 31.38600
O  45.41900 34.01300 32.07800
C  45.30800 33.36200 33.44600
H  50.36200 39.36600 30.76300
H  51.87900 38.85100 24.52700
H  48.50400 33.66200 23.89400
H  47.07100 35.93300 32.01100
H  49.32800 37.58300 32.54700
H  46.52700 38.24500 32.27200
H  47.51500 39.37300 31.24100
H  47.82200 39.07700 32.96000
H  50.02200 35.19200 32.27400
H  48.77900 34.02700 31.99300
H  49.62600 34.93400 34.35500
H  48.33400 33.84300 34.11400
H  51.53400 40.94200 30.54000
H  51.70900 42.13300 29.25400
H  53.06900 41.08800 29.65900
H  53.00600 42.95100 27.57100
H  54.12300 42.89300 26.31400
H  54.33900 41.77600 27.71000
H  51.98400 37.13400 23.04600
H  49.56300 35.34600 22.33400
H  50.75900 38.05600 21.24800
H  50.05400 38.93300 22.69400
H  49.17000 37.62000 21.90300
H  51.66400 34.00600 24.01700
H  52.28600 34.75300 22.53400
H  51.59200 32.81300 21.40400
H  49.97700 32.91500 22.01200
H  51.25000 32.07300 22.81600
H  46.24300 31.06500 25.83200
H  47.65100 31.46200 24.96700
H  46.24400 32.28100 24.52300
H  45.33600 34.72400 29.99100
H  44.47400 32.66300 33.51700
H  45.02300 34.20200 34.08000
H  46.22900 32.98300 33.88800

