158

Mg 1.48100 -1.23000 44.43500
C  4.87600 -0.83800 43.52500
C  0.70700 1.52500 42.55400
C  -1.72700 -2.04100 44.67900
C  2.42200 -4.25500 45.94400
N  2.62700 0.04400 43.01200
C  4.00400 0.05200 42.93000
C  4.49800 1.13900 41.94800
C  3.17200 2.09900 41.81800
C  2.09100 1.16500 42.50000
C  3.28200 3.47700 42.48100
C  5.05100 0.54900 40.60700
C  6.45700 1.27100 40.19700
H  6.49700 2.15700 39.01600
N  -0.25600 -0.38300 43.76800
C  -0.38400 0.74700 43.05100
C  -1.80400 1.05800 42.76600
C  -2.57200 -0.06100 43.26800
C  -1.51000 -0.86500 43.95400
C  -2.26300 2.31500 42.03200
C  -4.10300 -0.11400 43.24100
O  -4.80800 0.80800 42.84400
C  -4.81700 -1.34300 43.62900
N  0.44400 -2.90700 45.24900
C  -0.91200 -2.94800 45.27100
C  -1.37200 -4.24500 45.91800
C  -0.07400 -4.88200 46.47100
C  1.01500 -4.00600 45.87200
C  -2.62700 -4.18400 46.95000
C  0.14500 -6.45200 46.18800
C  0.57800 -7.16100 47.45400
N  3.23800 -2.33400 44.80100
C  3.47600 -3.51700 45.45500
C  4.86100 -3.85800 45.46700
C  5.47600 -2.73100 44.80700
C  4.39100 -1.90800 44.34700
C  5.46700 -5.05800 46.15000
C  6.71500 -2.14000 44.36700
O  7.88100 -2.46700 44.51400
C  6.34500 -0.81900 43.57300
C  6.84500 0.38300 44.35000
O  6.78500 0.58100 45.54100
O  7.32900 1.34600 43.52200
C  7.87300 2.52800 44.22000
H  0.43400 2.43700 42.01900
H  -2.79900 -2.18700 44.82300
H  2.69800 -5.06800 46.61900
H  5.35300 1.68100 42.35400
H  3.01000 2.06400 40.74000
H  2.97500 4.24800 41.77400
H  4.27400 3.71300 42.86600
H  2.59800 3.51600 43.32900
H  4.26400 0.59000 39.85400
H  5.31900 -0.48800 40.80600
H  7.31400 0.61700 40.03600
H  6.84700 1.85700 41.02900
H  -1.60500 2.35600 41.16300
H  -1.91800 3.08600 42.72100
H  -3.32900 2.34600 41.80700
H  -4.96100 -1.41100 44.70800
H  -4.17900 -2.17000 43.31800
H  -5.76200 -1.53600 43.12200
H  -1.65100 -4.85200 45.05600
H  -0.08600 -4.66000 47.53800
H  -3.04600 -3.18700 47.08800
H  -2.35400 -4.59700 47.92100
H  -3.47000 -4.74400 46.54600
H  0.77500 -6.70800 45.33600
H  -0.82800 -6.91700 46.02900
H  1.44700 -7.72600 47.11800
H  -0.25600 -7.81700 47.70100
H  1.02700 -6.62200 48.28900
H  5.59500 -5.86700 45.43100
H  4.77600 -5.58700 46.80600
H  6.43600 -4.81000 46.58300
H  6.73400 -0.63100 42.57300
H  7.12100 3.17300 44.67400
H  8.50700 3.04800 43.50100
H  8.61700 2.17500 44.93500
Mg 42.81700 4.51900 47.89900
C  40.57400 7.18200 47.33300
C  40.01500 2.33100 47.56100
C  44.84200 1.86300 47.84300
C  45.50100 6.64700 47.37800
N  40.64500 4.73100 47.50400
C  39.96400 5.90900 47.45100
C  38.46400 5.75900 47.44200
C  38.37600 4.23700 47.70300
C  39.75100 3.68000 47.59100
C  37.65900 3.82000 49.06500
C  37.67400 6.34600 46.20000
C  38.18400 6.01300 44.75200
H  38.47300 7.23400 43.93900
N  42.52100 2.34000 47.78100
C  41.28500 1.72700 47.68600
C  41.53400 0.28700 47.81200
C  42.94000 0.06700 47.75500
C  43.50600 1.43700 47.76400
C  40.49100 -0.82800 47.67700
C  43.78700 -1.23700 47.61100
O  43.22800 -2.34900 47.37100
C  45.31000 -1.36800 47.68900
N  44.88700 4.33500 47.68300
C  45.47000 3.13500 47.74000
C  47.02100 3.23200 47.67500
C  47.21200 4.85900 47.68800
C  45.79200 5.32800 47.54700
C  47.83900 2.55400 48.75900
C  48.21100 5.46500 46.61900
C  49.22100 4.64300 45.85100
N  43.06900 6.60600 47.55100
C  44.21100 7.27600 47.37400
C  43.90600 8.70200 47.12200
C  42.49000 8.72200 47.16700
C  42.06000 7.41600 47.38300
C  44.92000 9.74700 46.87400
C  41.23800 9.52000 47.09200
O  41.00900 10.74000 46.90600
C  39.98200 8.52200 47.18900
C  39.24200 8.98600 48.42800
O  39.41900 8.51200 49.57000
O  38.29300 9.90400 48.06300
C  37.53100 10.44200 49.16300
H  39.15500 1.66000 47.53700
H  45.60400 1.08400 47.90800
H  46.31800 7.36300 47.26700
H  38.14500 6.39300 48.27000
H  37.76000 3.75900 46.94000
H  38.36400 3.30100 49.71400
H  36.84300 3.12300 48.87800
H  37.29000 4.69100 49.60600
H  37.48100 7.40000 46.39900
H  36.71600 5.83900 46.32000
H  37.34100 5.50400 44.28500
H  39.04500 5.34600 44.72400
H  40.78600 -1.31000 46.74500
H  39.47900 -0.42500 47.63300
H  40.60200 -1.49800 48.52900
H  45.67600 -0.89200 48.59900
H  45.61500 -0.81600 46.80000
H  45.71600 -2.37700 47.76000
H  47.28200 2.74800 46.73400
H  47.51000 5.23500 48.66700
H  48.63800 1.97700 48.29400
H  47.27100 1.86600 49.38400
H  48.28700 3.35200 49.35100
H  48.87900 6.15100 47.14100
H  47.66100 5.94600 45.81100
H  50.23400 5.04600 45.82600
H  48.97400 4.64100 44.79000
H  49.33100 3.61200 46.18700
H  45.76200 9.69700 47.56500
H  44.45100 10.72900 46.80900
H  45.34100 9.71300 45.86900
H  39.44800 8.59300 46.24100
H  37.99800 10.43300 50.14800
H  36.57000 9.92700 49.15400
H  37.15400 11.41600 48.84800

