158

Mg 30.28700 57.63400 40.58800
C  27.53900 55.68200 40.01400
C  32.30200 55.16600 39.38200
C  32.87400 59.76700 40.65000
C  28.10500 60.41500 41.16400
N  29.93400 55.64400 39.90300
C  28.70400 55.01000 39.69900
C  28.89400 53.70800 38.93800
C  30.43700 53.41100 39.22900
C  30.96200 54.86300 39.53300
C  30.83200 52.41700 40.25300
C  28.59400 53.84100 37.42900
C  27.43600 53.13400 36.74100
H  26.75500 53.88600 35.56600
N  32.35300 57.43300 40.14200
C  32.99100 56.34800 39.72300
C  34.32200 56.54000 39.48800
C  34.52700 57.91700 39.94200
C  33.20000 58.46000 40.25700
C  35.29500 55.50300 38.84900
C  35.91300 58.50000 39.87900
O  36.90500 57.93800 39.40200
C  36.11500 59.83700 40.29100
N  30.51000 59.86500 40.79500
C  31.72200 60.44100 40.99300
C  31.54800 61.84100 41.38500
C  29.99100 61.93300 41.78300
C  29.49400 60.68700 41.17500
C  32.47100 62.29800 42.49800
C  29.23500 63.17800 41.23100
C  28.66500 63.94900 42.38200
N  28.25300 57.99400 40.73200
C  27.51200 59.15500 40.95000
C  26.13600 58.88500 40.83300
C  26.07400 57.45500 40.54000
C  27.37000 57.00700 40.47500
C  25.09700 59.90500 40.93500
C  25.20600 56.33100 40.31000
O  23.99400 56.32800 40.15600
C  26.09800 55.18200 39.83900
C  25.81300 53.98100 40.71500
O  25.82300 53.95000 41.91300
O  25.41000 52.91300 39.93400
C  24.84100 51.75800 40.66100
H  32.80600 54.34600 38.86600
H  33.70100 60.47800 40.59400
H  27.42500 61.18600 41.53300
H  28.26700 52.96900 39.43600
H  30.87000 53.15500 38.26200
H  31.22100 51.50900 39.79100
H  29.94700 52.21200 40.85500
H  31.49200 52.83300 41.01500
H  29.49100 53.52500 36.89700
H  28.35900 54.88900 37.24200
H  26.71400 52.75500 37.46400
H  27.96100 52.25200 36.37500
H  35.79300 55.99300 38.01200
H  34.77400 54.57100 38.63000
H  36.02400 55.17300 39.58900
H  35.69900 60.00600 41.28500
H  35.97200 60.59900 39.52500
H  37.18600 59.78100 40.48500
H  31.66700 62.40800 40.46200
H  29.87600 61.78700 42.85700
H  33.16900 62.98900 42.02600
H  33.11400 61.48800 42.84400
H  31.86700 62.75100 43.28400
H  28.42700 63.10200 40.50300
H  29.97800 63.85100 40.80200
H  27.70800 63.57400 42.74500
H  28.52300 64.97700 42.04800
H  29.33800 63.88600 43.23700
H  24.15400 59.56600 40.50500
H  25.32900 60.76100 40.30200
H  24.88600 60.14600 41.97800
H  25.81900 54.82400 38.84800
H  23.76800 51.62400 40.52200
H  24.98500 51.80900 41.74000
H  25.28300 50.85700 40.23400
Mg 35.28400 49.15200 24.92200
C  35.77100 47.24700 27.85700
C  34.79600 51.86200 26.85200
C  34.80600 50.81600 22.11000
C  36.21500 46.29700 23.09800
N  35.05500 49.44100 27.10000
C  35.45400 48.59500 28.09200
C  35.38800 49.30500 29.44800
C  35.26000 50.82300 29.10100
C  35.06300 50.72000 27.58200
C  34.00600 51.54300 29.75600
C  36.64300 48.94900 30.33000
C  36.38300 48.35100 31.75000
H  34.94900 48.41300 32.32900
N  34.86100 51.04900 24.57700
C  34.64900 52.04100 25.45200
C  34.49000 53.33400 24.82000
C  34.38400 53.01700 23.42900
C  34.72100 51.57200 23.30600
C  34.41600 54.60800 25.66900
C  34.10600 53.92200 22.30400
O  34.26000 53.59800 21.17400
C  33.74700 55.39300 22.40500
N  35.21900 48.53800 22.87500
C  35.15800 49.46200 21.87800
C  35.64900 48.91800 20.51300
C  36.49500 47.63000 20.98500
C  35.99800 47.48700 22.44300
C  34.32400 48.53000 19.68800
C  38.09000 47.67800 20.90500
C  38.84200 46.39700 20.35000
N  35.77400 47.18900 25.30900
C  36.14500 46.16100 24.44900
C  36.70600 45.01500 25.16400
C  36.50400 45.35000 26.56800
C  35.95400 46.67300 26.58400
C  37.23100 43.80200 24.50600
C  36.60700 44.85800 27.88600
O  37.07300 43.79600 28.37100
C  36.17500 46.10100 28.81900
C  35.08900 45.56800 29.67200
O  33.91200 45.51200 29.35700
O  35.59000 44.83200 30.76100
C  34.50700 44.25400 31.57000
H  34.63600 52.80800 27.37300
H  34.42700 51.30700 21.21100
H  36.55000 45.41000 22.55500
H  34.43200 48.90300 29.78200
H  36.22200 51.31000 29.26000
H  34.28800 52.47800 30.24000
H  33.56200 50.90900 30.52300
H  33.33400 51.93200 28.99100
H  37.09000 49.90500 30.60600
H  37.39500 48.36400 29.80100
H  37.02300 48.79100 32.51500
H  36.88700 47.38600 31.80400
H  34.25700 55.48600 25.04200
H  35.40800 54.77200 26.08800
H  33.66900 54.40500 26.43700
H  32.89600 55.55600 23.06800
H  33.43500 55.68400 21.40200
H  34.65400 55.91500 22.71000
H  36.39100 49.62200 20.13700
H  36.37500 46.71200 20.40900
H  33.53800 49.16600 20.09500
H  34.06300 47.48500 19.85900
H  34.52600 48.77800 18.64700
H  38.47700 47.94400 21.88900
H  38.25000 48.49300 20.19900
H  39.91900 46.55400 20.28800
H  38.57800 46.12000 19.32900
H  38.61000 45.46100 20.85800
H  37.94300 44.17900 23.77100
H  36.30500 43.34200 24.16100
H  37.75600 43.28400 25.30800
H  37.04500 46.22500 29.46400
H  33.95900 43.48000 31.03200
H  33.90300 45.02500 32.04600
H  35.15300 43.63800 32.19500

