158

Mg 0.89500 8.06500 25.44100
C  1.87000 9.89800 28.25000
C  1.15000 5.31000 27.36500
C  0.58600 6.23300 22.56500
C  1.08300 10.89000 23.50200
N  1.57900 7.62000 27.54900
C  1.66900 8.57100 28.50200
C  1.79300 7.90600 29.91700
C  1.67200 6.34800 29.67500
C  1.40600 6.41000 28.12300
C  2.88100 5.49500 30.00800
C  0.73300 8.40800 30.90100
C  1.19900 8.35000 32.36400
H  2.40000 7.33900 32.85600
N  0.88500 6.01400 25.05000
C  0.92500 5.01400 25.98700
C  0.82200 3.76900 25.36000
C  0.62600 4.00500 23.94800
C  0.68200 5.48100 23.75000
C  0.88800 2.51500 26.21300
C  0.47300 2.98000 22.75700
O  0.29100 3.33300 21.58600
C  0.58500 1.50000 22.97700
N  0.75300 8.52200 23.38400
C  0.57400 7.58200 22.39300
C  0.51800 8.26400 21.04400
C  0.23500 9.74200 21.37900
C  0.71200 9.69500 22.76600
C  1.91300 8.05000 20.32100
C  -1.30900 10.09300 21.29100
C  -1.66200 11.28500 20.28500
N  1.43100 10.02500 25.73500
C  1.46000 11.08200 24.83400
C  1.83400 12.30400 25.60300
C  2.06800 11.91100 26.97500
C  1.79600 10.48500 26.97000
C  1.95600 13.68900 24.97400
C  2.34200 12.40000 28.31100
O  2.53000 13.55800 28.69100
C  2.18700 11.10700 29.21800
C  3.36300 11.03300 30.16000
O  4.40800 10.41800 29.98400
O  3.09000 11.79200 31.36100
C  4.14800 11.86800 32.35100
H  1.03700 4.42000 27.98700
H  0.55500 5.59400 21.68000
H  1.02300 11.84500 22.97400
H  2.80700 8.10100 30.26600
H  0.74200 5.95400 30.08500
H  3.49800 5.98600 30.76000
H  3.50800 5.24400 29.15200
H  2.52100 4.58900 30.49400
H  -0.05600 7.65800 30.85500
H  0.38600 9.37400 30.53100
H  0.34500 8.38300 33.04100
H  1.54200 9.38100 32.45900
H  1.23100 1.74300 25.52400
H  0.00600 2.19900 26.77100
H  1.53200 2.44700 27.08900
H  1.52400 1.19900 23.44100
H  0.52700 0.99700 22.01200
H  -0.24000 1.10500 23.56900
H  -0.20400 7.72300 20.43200
H  0.90800 10.38100 20.80700
H  2.66500 7.82200 21.07700
H  2.20300 9.01700 19.91000
H  1.92400 7.23800 19.59300
H  -1.80900 10.19500 22.25500
H  -1.78700 9.24200 20.80600
H  -0.77200 11.66400 19.78200
H  -2.05300 12.21700 20.69200
H  -2.41700 10.95600 19.57000
H  1.40500 13.71800 24.03400
H  2.97500 13.93400 24.67800
H  1.62200 14.47100 25.65700
H  1.30900 11.44400 29.77000
H  4.60600 10.88700 32.47200
H  3.65400 12.22900 33.25300
H  4.97500 12.49100 32.00900
Mg 40.51100 8.71000 29.30000
C  42.27400 10.34100 31.87400
C  38.64900 7.14700 31.67200
C  38.60100 7.46200 26.92100
C  42.61900 10.14200 27.00600
N  40.45900 8.71100 31.59200
C  41.20100 9.49100 32.40000
C  40.56500 9.53200 33.82400
C  39.33400 8.49600 33.68700
C  39.53200 8.03800 32.23400
C  39.31100 7.26000 34.64800
C  40.22300 10.96100 34.20100
C  39.23000 11.18000 35.48500
H  39.84600 12.16700 36.63800
N  38.92700 7.43100 29.29600
C  38.29500 6.86500 30.35900
C  37.22700 5.97600 29.85400
C  37.20900 6.01200 28.45400
C  38.31200 6.98100 28.13400
C  36.33500 5.10600 30.82900
C  36.29100 5.20000 27.48200
O  36.48600 5.32100 26.25600
C  35.15500 4.38800 27.95000
N  40.76700 8.60200 27.21900
C  39.72600 8.15600 26.43800
C  39.92700 8.56800 24.96700
C  41.14000 9.57300 25.02900
C  41.52200 9.44200 26.49400
C  40.12600 7.38100 24.09000
C  41.04300 11.01400 24.40900
C  40.09500 11.94500 25.15300
N  42.23800 9.82400 29.38300
C  43.07000 10.30600 28.34600
C  44.18000 11.07800 28.93900
C  43.86700 11.10200 30.26800
C  42.70200 10.36500 30.51800
C  45.25300 11.76400 28.23300
C  44.33300 11.63300 31.52200
O  45.24900 12.38000 31.80400
C  43.18200 11.26300 32.58400
C  43.84200 10.56300 33.73100
O  44.57000 9.58600 33.62300
O  43.45400 11.09700 34.94600
C  43.69300 10.12300 36.14000
H  37.98000 6.67400 32.39400
H  37.89900 7.19200 26.13000
H  43.15200 10.74200 26.26500
H  41.30900 9.09800 34.49300
H  38.39900 9.05200 33.76700
H  38.49500 7.49400 35.33200
H  40.24700 7.20700 35.20400
H  39.11700 6.27600 34.22000
H  39.84700 11.44000 33.29600
H  41.14700 11.46700 34.48100
H  38.86700 10.23600 35.89100
H  38.29200 11.61000 35.13500
H  35.29100 5.14000 30.51600
H  36.35300 5.55600 31.82100
H  36.71400 4.09300 30.96400
H  34.76700 3.92900 27.04100
H  34.38700 5.00700 28.41400
H  35.58800 3.83400 28.78300
H  39.03600 9.12400 24.67800
H  42.01200 9.18200 24.50500
H  41.13600 7.13000 23.76500
H  39.36100 7.31700 23.31600
H  39.80800 6.50400 24.65400
H  40.67100 10.83600 23.40100
H  42.04400 11.44600 24.38400
H  39.67500 11.53000 26.06900
H  39.27100 12.09600 24.45600
H  40.50900 12.92800 25.37600
H  46.15100 11.16600 28.38900
H  45.46000 12.75600 28.63300
H  44.96600 11.91800 27.19300
H  42.79900 12.24800 32.85100
H  43.63100 9.08100 35.82800
H  42.87000 10.30000 36.83200
H  44.64200 10.34900 36.62700

