158

Mg 49.80000 47.05300 43.52100
C  46.48800 47.41800 42.53300
C  49.84700 43.95900 42.07800
C  53.09000 46.92000 44.15500
C  49.90800 50.55700 44.25100
N  48.32500 45.75800 42.46900
C  47.09900 46.20600 42.09100
C  46.32200 45.02000 41.40500
C  47.39500 43.83900 41.44100
C  48.61000 44.51800 42.03600
C  47.04000 42.63300 42.34900
C  45.83700 45.45700 39.94500
C  44.30500 45.33600 39.85000
H  43.67400 44.74700 38.60200
N  51.31500 45.59200 43.19000
C  51.15900 44.40700 42.61100
C  52.40100 43.75600 42.58400
C  53.35800 44.58200 43.16400
C  52.60500 45.75900 43.54200
C  52.46100 42.28300 42.07800
C  54.80900 44.22000 43.29200
O  55.21300 43.16400 42.86900
C  55.78200 45.19300 43.82300
N  51.26400 48.51700 44.09800
C  52.51400 48.18800 44.34200
C  53.28100 49.38900 44.92400
C  52.33100 50.54000 44.68200
C  51.08400 49.87500 44.28700
C  53.70700 49.04500 46.42000
C  52.74500 51.51000 43.56000
C  53.65600 52.71200 43.91400
N  48.48200 48.70900 43.51600
C  48.63800 49.99300 43.82000
C  47.41600 50.62800 43.77600
C  46.48300 49.66600 43.34200
C  47.23000 48.48100 43.10100
C  47.11900 52.08200 44.05400
C  45.06200 49.34700 43.08900
O  44.03200 50.06600 43.12600
C  45.03800 47.85600 42.54800
C  44.19300 46.98600 43.34700
O  44.52300 46.34500 44.34600
O  42.89300 47.09100 42.92100
C  41.99900 46.11800 43.47900
H  49.94500 43.00100 41.56400
H  54.06900 46.80500 44.62500
H  49.99200 51.62700 44.45300
H  45.46800 44.75100 42.02700
H  47.66700 43.48900 40.44500
H  46.24600 42.97200 43.01500
H  47.94500 42.32300 42.87200
H  46.63300 41.90200 41.65000
H  46.24900 44.86400 39.12900
H  46.11000 46.47200 39.65800
H  43.80000 46.29700 39.94700
H  43.93200 44.61900 40.58100
H  51.53400 41.83300 41.72400
H  52.90300 41.72600 42.90300
H  53.06000 42.30000 41.16700
H  55.84700 46.02700 43.12500
H  56.78400 44.77000 43.90000
H  55.53400 45.52200 44.83200
H  54.13100 49.70700 44.32000
H  52.32100 51.10400 45.61500
H  53.16200 48.17800 46.79500
H  53.48800 49.93200 47.01300
H  54.78900 48.91200 46.42900
H  51.84200 51.85800 43.06000
H  53.28600 50.91400 42.82500
H  53.70100 52.87600 44.99100
H  53.11400 53.55200 43.47800
H  54.67600 52.56700 43.55900
H  46.09500 52.30800 43.75500
H  47.76300 52.61800 43.35600
H  47.24700 52.48100 45.06000
H  44.76900 47.73700 41.49800
H  40.97000 46.32600 43.18400
H  42.01100 46.25400 44.56000
H  42.42500 45.13500 43.28200
Mg 0.56000 42.21200 26.33900
C  1.79400 42.24800 29.79600
C  -2.38000 41.10600 27.64500
C  -0.33400 41.26300 23.18700
C  3.87600 42.81600 25.25100
N  -0.14500 41.66100 28.45600
C  0.42000 41.95400 29.65500
C  -0.50500 41.73600 30.79000
C  -1.81600 41.33900 30.15500
C  -1.41100 41.34200 28.64000
C  -2.30600 39.96200 30.66700
C  -0.63700 42.94600 31.70600
C  -0.25900 42.84400 33.23100
H  -0.59700 41.49200 33.93900
N  -1.26700 41.43800 25.43600
C  -2.31600 41.11800 26.22200
C  -3.37600 40.82200 25.26100
C  -2.75700 40.73600 23.88800
C  -1.36100 41.09500 24.14800
C  -4.86700 40.80400 25.64300
C  -3.45100 40.43700 22.51600
O  -2.86700 40.49200 21.43300
C  -4.89200 39.87100 22.49600
N  1.59900 42.17800 24.53500
C  0.95600 41.79900 23.33100
C  1.90900 41.88400 22.17700
C  3.10500 42.68800 22.81100
C  2.81700 42.65600 24.30700
C  2.38500 40.53700 21.56300
C  3.17300 44.15600 22.28000
C  4.12800 44.24600 21.12700
N  2.51400 42.44200 27.24800
C  3.77200 42.69400 26.66300
C  4.70900 42.80100 27.79400
C  3.98400 42.68500 28.98300
C  2.69000 42.43800 28.63100
C  6.18100 43.11000 27.56100
C  4.21600 42.56700 30.39000
O  5.22800 42.55000 31.02800
C  2.69200 42.37600 31.02100
C  2.75000 41.15400 31.92100
O  2.58900 39.98800 31.56600
O  3.11800 41.51200 33.20400
C  3.05500 40.52100 34.30000
H  -3.34800 40.88200 28.09800
H  -0.56500 40.90800 22.18000
H  4.87400 42.90500 24.81900
H  -0.05700 40.87200 31.28100
H  -2.64000 42.01600 30.37600
H  -3.30000 40.11700 31.08700
H  -1.73300 39.44500 31.43700
H  -2.36100 39.30200 29.80100
H  -1.68700 43.21100 31.83300
H  0.00400 43.74700 31.33700
H  -0.71600 43.69200 33.74100
H  0.80100 43.08300 33.31900
H  -5.34100 41.57600 25.03700
H  -5.04400 41.12500 26.66900
H  -5.40600 39.89200 25.38600
H  -5.06200 39.22900 21.63200
H  -5.69300 40.57900 22.70800
H  -4.83600 39.19700 23.35100
H  1.55200 42.48400 21.34000
H  4.05100 42.18200 22.62400
H  2.24100 40.53200 20.48300
H  1.65400 39.80300 21.90200
H  3.36400 40.22100 21.92500
H  3.55100 44.83500 23.04500
H  2.13200 44.35500 22.02500
H  4.80800 45.02000 21.48400
H  3.69700 44.60600 20.19200
H  4.74900 43.37400 20.92500
H  6.42700 42.14600 27.11800
H  6.64900 43.36100 28.51300
H  6.46300 43.82300 26.78600
H  2.40500 43.28400 31.55200
H  4.06500 40.46100 34.70600
H  2.62600 39.59300 33.92300
H  2.40200 40.93800 35.06700

