158

Mg 50.20700 45.10100 43.47600
C  46.76900 45.23500 42.42500
C  50.18700 41.77800 42.89900
C  53.61600 45.27100 43.56200
C  50.10900 48.58300 43.53400
N  48.71000 43.70200 42.46900
C  47.29700 43.92700 42.38100
C  46.58200 42.58400 42.17500
C  47.60600 41.47300 42.68100
C  48.92900 42.34800 42.75500
C  47.44500 40.95700 44.14700
C  46.14300 42.31400 40.69000
C  46.73300 43.34100 39.63300
H  46.74800 42.81000 38.22000
N  51.71600 43.65700 43.29000
C  51.46800 42.33100 43.03800
C  52.71500 41.68700 43.08700
C  53.76600 42.67100 43.25300
C  53.10200 43.97400 43.37400
C  52.87700 40.18800 42.95400
C  55.32400 42.44300 43.21500
O  55.73900 41.30500 43.11100
C  56.36500 43.46700 43.15900
N  51.67600 46.67500 43.55200
C  52.99800 46.52500 43.68300
C  53.77800 47.86200 43.77700
C  52.59400 48.89800 43.70800
C  51.42900 47.99400 43.56600
C  54.59600 47.95700 45.04500
C  52.67100 49.90400 42.47900
C  52.39700 51.40200 42.90700
N  48.72600 46.61500 43.25900
C  48.90900 47.97000 43.22500
C  47.72600 48.63200 42.90000
C  46.81000 47.65300 42.61800
C  47.51500 46.44400 42.73200
C  47.47800 50.14500 42.86300
C  45.50500 47.30600 42.27800
O  44.56600 48.01800 42.01300
C  45.34500 45.74400 42.12100
C  44.38500 45.25800 43.13100
O  44.62200 45.16100 44.32500
O  43.17400 44.88100 42.56000
C  42.14500 44.57600 43.51900
H  50.20500 40.68900 42.97500
H  54.69400 45.38100 43.69700
H  49.98700 49.66600 43.60800
H  45.72200 42.75400 42.82300
H  47.64600 40.69700 41.91600
H  46.42400 41.10400 44.49900
H  48.00100 41.61400 44.81600
H  47.78000 39.92500 44.25300
H  45.06200 42.43200 40.61400
H  46.37400 41.28900 40.39800
H  47.75900 43.61100 39.88400
H  46.05100 44.19000 39.58500
H  53.89700 39.90900 42.68900
H  52.13500 39.83500 42.23700
H  52.60500 39.67700 43.87700
H  56.27400 43.97800 44.11700
H  56.14900 44.22700 42.40800
H  57.35700 43.10300 42.89200
H  54.47500 48.03300 42.95700
H  52.52000 49.43000 44.65700
H  55.62600 47.84000 44.70900
H  54.48400 47.16800 45.78800
H  54.44500 48.94600 45.47900
H  51.81300 49.66600 41.85000
H  53.63600 49.73000 42.00400
H  51.66900 51.79200 42.19500
H  53.37800 51.81500 42.67100
H  52.17500 51.66300 43.94100
H  47.70700 50.70700 43.76800
H  46.50300 50.46800 42.50000
H  48.11000 50.70300 42.17200
H  44.79900 45.50200 41.21000
H  42.46800 43.90400 44.31400
H  41.28400 44.20100 42.96500
H  41.87300 45.53900 43.95100
Mg 43.47700 42.54500 26.35700
C  42.44700 44.54400 28.89400
C  44.91500 40.50400 28.67800
C  44.83600 40.77200 23.82900
C  42.52100 44.95500 23.99200
N  43.53000 42.52700 28.57900
C  42.89900 43.34600 29.44700
C  43.03800 42.99200 30.93900
C  44.16300 41.81700 30.74000
C  44.20900 41.56500 29.25300
C  45.54900 42.19800 31.36400
C  41.66800 42.45900 31.61500
C  41.78000 41.92900 33.01900
H  40.93600 42.59000 34.12300
N  44.47800 40.72100 26.32400
C  45.10300 40.15200 27.30900
C  45.71100 38.95100 26.87200
C  45.50300 38.83700 25.43500
C  44.90100 40.14000 25.11300
C  46.44300 37.96200 27.81800
C  45.87000 37.74900 24.35900
O  45.52900 37.75400 23.18000
C  46.54000 36.43900 24.91900
N  43.77400 42.87700 24.27500
C  44.31500 41.94000 23.39900
C  44.29500 42.37000 21.98200
C  43.32200 43.56400 22.00100
C  43.19000 43.83100 23.48100
C  45.71100 42.71900 21.62800
C  42.04900 43.35500 21.12600
C  40.77500 42.70700 21.74600
N  42.68500 44.41000 26.41000
C  42.36900 45.29300 25.37600
C  41.84400 46.50500 25.88600
C  41.88200 46.23900 27.30800
C  42.33800 44.96300 27.53900
C  41.32900 47.69500 25.13300
C  41.40800 46.85500 28.55100
O  40.98600 48.00400 28.78600
C  41.75600 45.72400 29.59300
C  42.64100 46.35900 30.56300
O  43.86000 46.49500 30.46100
O  41.84300 46.84400 31.65900
C  42.60400 47.42100 32.81900
H  45.26700 39.88400 29.50500
H  45.20800 40.12900 23.02800
H  42.20400 45.68400 23.24300
H  43.44500 43.76700 31.58900
H  43.79900 40.88600 31.17400
H  45.64400 43.24300 31.65800
H  46.33000 42.13300 30.60700
H  45.82000 41.55100 32.19900
H  41.25400 41.62100 31.05400
H  40.98600 43.30200 31.72400
H  42.78400 41.90600 33.44200
H  41.57900 40.86300 32.90800
H  47.34400 37.61400 27.31400
H  45.77300 37.10700 27.91500
H  46.63000 38.19500 28.86600
H  47.53700 36.70600 25.26900
H  46.67100 35.71900 24.11100
H  45.86400 36.07200 25.69200
H  43.89000 41.56900 21.36200
H  43.87700 44.42200 21.62400
H  46.07600 43.72800 21.81600
H  45.83300 42.63600 20.54800
H  46.38600 42.01100 22.10900
H  42.29100 42.84400 20.19400
H  41.86900 44.38500 20.81800
H  39.96400 43.43500 21.72600
H  40.98700 42.47400 22.78900
H  40.47800 41.75100 21.31500
H  41.70100 47.63100 24.11100
H  41.62000 48.54200 25.75400
H  40.23900 47.65900 25.13300
H  40.77000 45.40100 29.92700
H  43.66300 47.59800 32.63100
H  42.51200 46.77900 33.69500
H  41.97400 48.30300 32.93100

