158

Mg 42.30400 40.81800 27.74600
C  41.14000 43.31500 29.98600
C  43.05600 38.80300 30.26300
C  43.90900 38.78400 25.50500
C  41.78600 43.25600 25.23500
N  42.18100 41.09600 29.85900
C  41.52900 42.13100 30.53800
C  41.46700 41.74200 32.04900
C  42.30100 40.39600 32.12400
C  42.49700 40.02200 30.69500
C  43.70100 40.49100 32.82700
C  40.02800 41.70000 32.64600
C  39.83100 42.50400 33.96300
H  39.33400 41.65900 35.11600
N  43.25600 39.05300 27.89300
C  43.37400 38.33300 28.99600
C  44.00600 37.09700 28.74400
C  44.28900 37.06900 27.35300
C  43.82000 38.31200 26.85300
C  43.96000 35.93500 29.73700
C  44.94500 35.91000 26.51200
O  45.16500 36.01400 25.31500
C  45.36500 34.63600 27.16100
N  42.86500 40.98900 25.68000
C  43.42900 39.95200 24.95900
C  43.22100 40.25100 23.48600
C  42.54700 41.72000 23.40700
C  42.39000 42.01600 24.90600
C  44.42500 39.98800 22.55400
C  41.23500 41.78400 22.56200
C  41.38000 42.63300 21.22900
N  41.69800 42.89600 27.59700
C  41.56700 43.75600 26.53100
C  41.00300 45.01000 26.87700
C  40.77300 44.85000 28.22300
C  41.24800 43.57000 28.60900
C  40.62700 46.16500 25.92200
C  40.23100 45.50000 29.33900
O  39.74000 46.63300 29.49600
C  40.42100 44.52600 30.54600
C  41.28100 45.28700 31.57800
O  42.51100 45.57600 31.45100
O  40.57100 45.44100 32.75200
C  41.36900 46.01800 33.87600
H  43.20700 38.17000 31.14000
H  44.18200 37.97000 24.83000
H  41.65400 43.85900 24.33500
H  42.01000 42.58800 32.47000
H  41.67000 39.64200 32.59400
H  44.01000 39.48800 33.12300
H  43.64000 41.03900 33.76800
H  44.45900 40.89000 32.15300
H  39.78400 40.68400 32.95800
H  39.31100 42.06000 31.90900
H  39.08400 43.28500 33.82000
H  40.78400 42.98100 34.19000
H  44.97800 35.57800 29.89300
H  43.33400 35.18700 29.25100
H  43.46500 36.14900 30.68500
H  46.06400 34.92400 27.94600
H  46.01500 34.25200 26.37500
H  44.51000 33.98700 27.35000
H  42.43900 39.51000 23.31700
H  43.20900 42.50000 23.03300
H  45.31500 40.11400 23.17100
H  44.54700 40.63700 21.68700
H  44.41600 39.00600 22.08000
H  40.46200 42.15300 23.23700
H  40.90900 40.78100 22.28900
H  40.99400 43.63400 21.41800
H  40.75900 42.11200 20.50100
H  42.41800 42.60900 20.89700
H  40.51000 47.09400 26.47900
H  39.73200 45.85600 25.38300
H  41.39000 46.21500 25.14500
H  39.43600 44.38600 30.99100
H  41.80100 45.13700 34.35100
H  40.66800 46.38200 34.62700
H  42.16600 46.70800 33.60000
Mg 0.39700 42.51800 24.96700
C  1.31500 42.61200 28.37700
C  -2.68000 41.22300 26.02800
C  -0.26100 42.07200 21.81600
C  3.76200 43.21300 24.15700
N  -0.49200 41.87400 27.02100
C  -0.00100 42.27400 28.20800
C  -0.98600 41.99900 29.36100
C  -2.19900 41.17500 28.68300
C  -1.79500 41.44500 27.14700
C  -2.45000 39.65600 28.87700
C  -1.41300 43.47900 29.83100
C  -1.56600 43.55400 31.34700
H  -2.04400 42.39600 32.16800
N  -1.21100 41.85700 24.06700
C  -2.41100 41.40100 24.60100
C  -3.36500 41.19000 23.55800
C  -2.70000 41.42300 22.36100
C  -1.37100 41.86200 22.71100
C  -4.77500 40.51300 23.84600
C  -3.32900 41.31900 20.99500
O  -2.63800 41.53300 19.96800
C  -4.76200 40.83900 20.75700
N  1.58800 42.60200 23.19000
C  1.10900 42.33100 21.99400
C  2.14600 42.48900 20.86600
C  3.31100 43.28400 21.61600
C  2.87400 43.10100 23.12200
C  2.52600 41.13000 20.20800
C  3.46300 44.77600 21.17000
C  4.07300 45.17900 19.87700
N  2.18300 42.88200 25.99400
C  3.48000 43.09700 25.54000
C  4.38500 43.22600 26.66800
C  3.56500 43.12600 27.83300
C  2.23400 42.88900 27.33500
C  5.90600 43.50600 26.63500
C  3.55600 43.12000 29.26400
O  4.46800 43.14200 30.04400
C  2.09500 42.90500 29.67900
C  1.93600 41.73800 30.66000
O  2.49100 40.67300 30.49500
O  1.23400 42.05000 31.83900
C  1.18600 40.90300 32.77700
H  -3.72100 41.00300 26.27700
H  -0.41800 41.87200 20.75400
H  4.78400 43.42400 23.83800
H  -0.60600 41.42400 30.20600
H  -3.19700 41.60200 28.78000
H  -1.73600 39.35400 29.64400
H  -2.28000 39.14900 27.92800
H  -3.45000 39.45100 29.25800
H  -2.34100 43.81800 29.37100
H  -0.68300 44.21400 29.49300
H  -2.25300 44.39600 31.42500
H  -0.66300 44.00700 31.75600
H  -4.95800 39.99600 24.78700
H  -4.77700 39.69400 23.12700
H  -5.56300 41.23900 23.64400
H  -4.87400 39.78400 21.00700
H  -5.00000 40.90600 19.69500
H  -5.49100 41.42700 21.31400
H  1.59600 43.10100 20.15100
H  4.17800 42.73400 21.25100
H  2.03400 41.04300 19.23900
H  2.10300 40.31900 20.80100
H  3.59800 40.94600 20.14600
H  3.96400 45.22700 22.02600
H  2.49300 45.25700 21.29700
H  4.80900 45.97200 20.01000
H  3.23300 45.51100 19.26700
H  4.52800 44.35700 19.32600
H  6.27600 42.87700 27.44500
H  6.13800 44.52900 26.93300
H  6.39800 43.19400 25.71400
H  1.79200 43.78000 30.25500
H  0.48800 40.14600 32.42000
H  0.97500 41.26300 33.78400
H  2.12700 40.42600 33.05000

