158

Mg 1.14600 8.57900 26.81900
C  1.73000 10.46100 29.71500
C  1.06800 5.66800 28.81800
C  1.16800 6.71600 24.05300
C  1.54300 11.38600 24.81900
N  1.70900 8.14100 29.00500
C  1.64100 9.10100 29.99800
C  1.47400 8.39700 31.37800
C  1.56400 6.81200 31.08300
C  1.52000 6.80900 29.49800
C  2.83200 5.94400 31.65500
C  0.18800 8.85000 32.11900
C  0.44000 9.05000 33.65900
H  1.57900 8.33000 34.41800
N  1.12700 6.50800 26.47800
C  0.97700 5.48500 27.39800
C  0.54800 4.25100 26.70100
C  0.62700 4.58000 25.29200
C  0.97700 5.98100 25.25700
C  0.18200 2.99100 27.45800
C  0.29900 3.67100 24.07600
O  0.23600 4.00700 22.88600
C  -0.04800 2.24600 24.26500
N  1.13100 8.99500 24.73100
C  1.23600 8.05000 23.79200
C  1.38800 8.69600 22.36600
C  1.08000 10.12600 22.72600
C  1.13100 10.22900 24.17200
C  2.83000 8.52100 21.85800
C  -0.14100 10.76000 22.12600
C  -1.42600 10.85300 22.90400
N  1.55600 10.55200 27.13700
C  1.71400 11.56500 26.23800
C  2.00100 12.81200 26.96700
C  2.03100 12.46000 28.28800
C  1.71500 11.05200 28.34700
C  2.26800 14.14300 26.32800
C  2.20900 12.91400 29.66300
O  2.36200 14.07300 30.02800
C  1.93400 11.62000 30.61000
C  3.10400 11.40800 31.56300
O  4.13300 10.82500 31.36900
O  2.89700 12.07200 32.72100
C  3.91300 11.90500 33.77100
H  0.87400 4.75600 29.38700
H  1.17400 6.21500 23.08300
H  1.66700 12.31500 24.26000
H  2.30100 8.66500 32.03500
H  0.65800 6.35400 31.48000
H  2.46700 5.47800 32.57000
H  3.74800 6.51500 31.80400
H  3.05100 5.17000 30.92000
H  -0.62100 8.12300 32.04200
H  -0.10400 9.83400 31.75200
H  -0.50000 8.77600 34.14000
H  0.58900 10.12200 33.78300
H  -0.83100 2.84000 27.08400
H  0.08300 3.12600 28.53500
H  0.93100 2.21100 27.32300
H  0.77300 1.75100 24.78300
H  -0.21800 1.85200 23.26200
H  -1.00400 2.15400 24.78100
H  0.66100 8.25300 21.68500
H  1.89100 10.79200 22.43200
H  3.55900 8.29600 22.63600
H  3.16300 9.39600 21.29900
H  2.95000 7.63000 21.24200
H  -0.28900 10.40300 21.10700
H  0.14400 11.79300 21.93000
H  -1.80400 11.87200 22.98600
H  -1.36100 10.41900 23.90100
H  -2.27800 10.36500 22.43000
H  1.49000 14.22100 25.56900
H  3.19800 14.10500 25.76000
H  2.25100 14.95700 27.05300
H  1.01100 11.77600 31.16800
H  4.10800 12.82100 34.33000
H  4.86300 11.46900 33.46200
H  3.55000 11.24700 34.56100
Mg 0.56000 43.70400 26.40200
C  2.46500 43.08800 29.46800
C  -2.23900 43.36100 28.29400
C  -1.03400 43.24700 23.54500
C  3.64800 43.50100 24.75700
N  0.24600 43.14000 28.62100
C  1.09000 43.10700 29.66700
C  0.30300 42.91300 30.99100
C  -1.17500 42.74800 30.42100
C  -1.03200 43.20300 29.03700
C  -1.65100 41.27300 30.45500
C  0.47300 44.02700 31.98500
C  0.54700 43.79500 33.50000
H  0.24600 42.39200 34.04600
N  -1.40700 43.46000 25.98300
C  -2.42200 43.39200 26.89400
C  -3.72300 43.40900 26.13300
C  -3.40600 43.41500 24.80300
C  -1.87000 43.26600 24.68400
C  -5.05000 43.46900 26.91300
C  -4.34000 43.43700 23.58800
O  -3.85500 43.31700 22.45500
C  -5.78200 43.50700 23.74700
N  1.19800 43.44700 24.45300
C  0.34700 43.26600 23.38500
C  1.13500 43.20900 21.99400
C  2.56000 43.45000 22.42500
C  2.50200 43.48700 23.99200
C  0.83800 41.95500 21.04100
C  3.32800 44.82000 22.04500
C  4.19900 44.77600 20.78800
N  2.62600 43.49400 26.94000
C  3.77000 43.42700 26.12800
C  4.93100 43.33500 26.95100
C  4.43900 43.15000 28.26100
C  3.06400 43.19500 28.18700
C  6.39000 43.27800 26.59200
C  4.86600 42.93800 29.64600
O  5.98500 42.86300 30.06200
C  3.58300 42.98500 30.51400
C  3.58300 41.68700 31.20300
O  3.53600 40.49400 30.81400
O  3.78300 42.01400 32.55700
C  4.21000 40.96100 33.49700
H  -3.14800 43.26700 28.89100
H  -1.59400 43.10700 22.61800
H  4.50400 43.38300 24.08900
H  0.45700 41.95200 31.48100
H  -1.90300 43.31200 31.00400
H  -0.86500 40.64100 30.86800
H  -2.03300 40.89400 29.50700
H  -2.45800 41.04900 31.15300
H  -0.29800 44.78200 31.82900
H  1.42400 44.52300 31.79400
H  -0.02800 44.57300 34.00200
H  1.55300 44.01200 33.85700
H  -5.81500 44.12500 26.49800
H  -4.91200 43.69100 27.97100
H  -5.31800 42.41700 26.81400
H  -6.28400 43.84700 22.84200
H  -5.99400 44.25500 24.51200
H  -6.10000 42.50900 24.04800
H  0.89300 44.06300 21.36200
H  3.22900 42.61400 22.22000
H  0.49600 42.30500 20.06700
H  0.03800 41.32000 21.42100
H  1.73000 41.34700 20.89000
H  3.78000 45.29400 22.91600
H  2.53500 45.55700 21.91200
H  5.14600 45.30200 20.91200
H  3.54200 45.36800 20.15100
H  4.40000 43.79100 20.36700
H  6.54500 43.89100 25.70500
H  6.62400 42.24000 26.35700
H  6.94800 43.75200 27.40000
H  3.53500 43.86500 31.15500
H  3.53000 40.12600 33.33300
H  4.02100 41.32300 34.50800
H  5.26700 40.70000 33.54200

