158

Mg 53.65700 23.73000 44.51300
C  50.91900 25.72300 43.80900
C  51.99900 21.06400 43.04800
C  56.60800 22.04600 44.40700
C  55.42600 26.56800 45.41600
N  51.74800 23.55100 43.34100
C  50.76000 24.42700 43.38900
C  49.60900 23.91500 42.49200
C  49.75500 22.33700 42.61700
C  51.28800 22.28300 43.02000
C  48.66200 21.54200 43.52700
C  49.74000 24.36900 41.03000
C  48.45200 24.36800 40.14500
H  48.03000 22.95300 39.63100
N  54.18300 21.81600 43.82800
C  53.27100 20.82900 43.41800
C  53.89800 19.56700 43.42600
C  55.25900 19.81400 43.83200
C  55.44200 21.28400 44.02000
C  53.23200 18.26500 43.14600
C  56.32600 18.71300 43.87500
O  56.09900 17.55900 43.55800
C  57.69900 18.94900 44.28300
N  55.83900 24.29600 44.53300
C  56.77100 23.39000 44.67300
C  58.15400 23.99100 44.83400
C  57.82200 25.53000 45.15200
C  56.23300 25.49700 45.05000
C  58.98000 23.22300 45.91800
C  58.48700 26.58000 44.19800
C  59.65900 27.31300 44.81400
N  53.23100 25.70700 44.75500
C  54.04300 26.73900 45.17400
C  53.28700 27.93600 45.40900
C  52.02800 27.60900 44.87400
C  52.05900 26.23900 44.47000
C  53.79800 29.07900 46.14000
C  50.69800 28.12600 44.58800
O  50.18900 29.21700 44.81500
C  50.01100 26.88000 43.73900
C  49.55700 27.42100 42.47200
O  50.27800 27.88500 41.60700
O  48.23100 27.36400 42.44100
C  47.51000 28.06300 41.35700
H  51.51000 20.14400 42.72300
H  57.52600 21.48700 44.59800
H  55.97700 27.41900 45.82200
H  48.64400 24.27000 42.85400
H  49.70500 21.88000 41.62800
H  48.63600 21.88300 44.56200
H  49.01900 20.51300 43.56900
H  47.65600 21.35500 43.15300
H  50.40200 23.69700 40.48300
H  50.11800 25.37700 40.86100
H  48.75700 25.04400 39.34700
H  47.61100 24.77400 40.70700
H  53.70300 17.50900 43.77400
H  53.41500 17.97300 42.11200
H  52.17500 18.32800 43.40700
H  58.17200 19.37900 43.40100
H  58.11700 17.98000 44.55500
H  57.71800 19.53700 45.20100
H  58.53000 23.90300 43.81500
H  57.94900 25.81000 46.19800
H  59.48600 23.84800 46.65300
H  59.66900 22.54200 45.41600
H  58.25800 22.66300 46.51200
H  57.75900 27.38000 44.06600
H  58.91000 26.22300 43.25900
H  59.30800 28.31800 45.05000
H  60.57300 27.24100 44.22500
H  59.94900 26.88300 45.77300
H  54.86700 29.29600 46.13900
H  53.58400 29.03400 47.20800
H  53.26300 29.93500 45.72800
H  49.05600 26.72900 44.24100
H  47.95400 27.70500 40.42800
H  47.79500 29.11400 41.39300
H  46.42600 27.94900 41.33700
Mg -11.26100 39.95200 41.75000
C  -10.29000 36.76400 40.87800
C  -8.23000 41.13400 40.88700
C  -12.55600 43.02100 41.77100
C  -14.60200 38.59300 42.22700
N  -9.59100 39.09300 40.76500
C  -9.33800 37.77400 40.54900
C  -7.97500 37.59400 39.91500
C  -7.25700 38.91700 40.25500
C  -8.46700 39.77400 40.62200
C  -6.03800 38.94000 41.20500
C  -8.11000 37.11700 38.44200
C  -7.12000 36.06000 38.04800
H  -5.93600 36.52300 37.16700
N  -10.46600 41.85400 41.49600
C  -9.17900 42.13200 41.18600
C  -9.00700 43.52800 41.16300
C  -10.34500 44.08300 41.23700
C  -11.20200 42.94500 41.50600
C  -7.59600 44.13800 41.00800
C  -10.61800 45.59600 41.19900
O  -9.73000 46.41600 40.97100
C  -11.95500 46.17400 41.38100
N  -13.31300 40.75800 41.94200
C  -13.52300 42.04600 41.92600
C  -15.00300 42.39500 42.25700
C  -15.60200 40.99100 42.55500
C  -14.43900 40.04600 42.23000
C  -15.21100 43.42100 43.31900
C  -16.93700 40.72300 41.90500
C  -17.96900 40.03100 42.89900
N  -12.29300 38.04400 41.65400
C  -13.61200 37.62600 41.91400
C  -13.67600 36.19200 41.90800
C  -12.38400 35.79100 41.45400
C  -11.60100 36.95600 41.34900
C  -14.87700 35.36100 42.27300
C  -11.52400 34.68800 41.12500
O  -11.70700 33.49100 41.24300
C  -10.14700 35.26700 40.64300
C  -8.98200 34.63200 41.43200
O  -8.71000 34.98900 42.54700
O  -8.50400 33.57400 40.76800
C  -7.67400 32.67500 41.60200
H  -7.21200 41.50200 40.74000
H  -12.99400 44.01900 41.69500
H  -15.57100 38.23500 42.58000
H  -7.47700 36.84200 40.52600
H  -6.94200 39.29600 39.28200
H  -6.37800 39.53000 42.05600
H  -5.17900 39.43500 40.75200
H  -5.77800 37.90500 41.42700
H  -8.03900 38.03100 37.85200
H  -9.11400 36.70100 38.35700
H  -7.61600 35.33500 37.40300
H  -6.70600 35.45300 38.85400
H  -7.50300 45.22200 40.94000
H  -7.07700 43.75700 40.12900
H  -6.95300 43.87300 41.84800
H  -12.61200 45.66600 40.67500
H  -11.85800 47.22300 41.10100
H  -12.21300 46.07700 42.43500
H  -15.43700 42.80200 41.34400
H  -15.81300 40.81000 43.60900
H  -15.50800 44.34500 42.82100
H  -14.23800 43.69600 43.72500
H  -15.96000 43.14800 44.06200
H  -16.78200 40.08400 41.03500
H  -17.41200 41.68200 41.70100
H  -18.63000 40.75300 43.37700
H  -17.51900 39.37200 43.64200
H  -18.69100 39.52900 42.25500
H  -15.59700 35.96000 42.83100
H  -14.54600 34.51900 42.88000
H  -15.49100 35.08800 41.41500
H  -9.99600 35.08600 39.57900
H  -7.40300 31.95800 40.82700
H  -8.20900 32.09400 42.35300
H  -6.80200 33.19000 42.00300

