158

Mg 17.27700 -1.62500 27.17800
C  16.14000 0.23100 29.98000
C  19.07100 -3.64400 29.18700
C  18.59900 -3.14100 24.40000
C  15.54600 0.60500 25.14700
N  17.37900 -1.79100 29.38700
C  16.90300 -0.89200 30.28500
C  17.43300 -1.26200 31.66900
C  18.57000 -2.26800 31.31300
C  18.38200 -2.60700 29.87400
C  19.99100 -1.75300 31.75500
C  16.34700 -1.61300 32.76100
C  16.66800 -1.25500 34.23800
H  18.07100 -0.82600 34.70400
N  18.44100 -3.28300 26.85400
C  19.03600 -4.03000 27.85300
C  19.50200 -5.27700 27.16100
C  19.48000 -5.06500 25.75000
C  18.83500 -3.77300 25.61900
C  20.07600 -6.35900 28.04900
C  19.83400 -6.01000 24.66700
O  19.48700 -5.83800 23.47300
C  20.66300 -7.14300 24.91600
N  17.17700 -1.15900 25.15000
C  17.88700 -1.92400 24.15400
C  17.73700 -1.26100 22.80000
C  16.55000 -0.30100 23.04200
C  16.33200 -0.32800 24.54600
C  19.05200 -0.48000 22.35600
C  15.33300 -0.64000 22.20700
C  15.17100 0.21400 20.98400
N  16.06500 0.13000 27.44900
C  15.33100 0.86000 26.49800
C  14.50000 1.80700 27.22600
C  14.86800 1.70100 28.60600
C  15.78500 0.60100 28.67600
C  13.61600 2.70900 26.59200
C  14.68500 2.18300 29.92600
O  13.88000 3.02200 30.25400
C  15.52700 1.28500 30.92300
C  16.50400 2.21100 31.67500
O  17.64700 2.46000 31.28400
O  16.02600 2.55600 32.86200
C  16.97400 3.16400 33.82000
H  19.62000 -4.25500 29.90600
H  19.05700 -3.38300 23.43800
H  15.05000 1.36100 24.53600
H  17.87600 -0.37200 32.11300
H  18.49300 -3.21200 31.85300
H  19.92500 -0.69700 32.01600
H  20.60100 -1.90500 30.86400
H  20.32300 -2.18200 32.70100
H  16.14900 -2.68200 32.67700
H  15.42100 -1.09400 32.51500
H  16.37500 -2.21900 34.65400
H  15.99500 -0.46300 34.56800
H  21.16000 -6.31300 28.15600
H  19.70100 -7.32100 27.69800
H  19.64700 -6.20100 29.03800
H  20.11300 -7.96600 25.37300
H  21.45300 -6.71600 25.53400
H  21.12100 -7.51700 24.00100
H  17.44200 -1.99400 22.04900
H  16.82600 0.71900 22.77300
H  19.72500 -0.56600 23.20900
H  18.71900 0.48700 21.97900
H  19.34200 -1.01600 21.45300
H  14.41500 -0.56400 22.79000
H  15.24500 -1.66400 21.84600
H  16.06000 0.74000 20.63600
H  14.36300 0.93500 21.11000
H  14.93200 -0.30600 20.05700
H  12.63900 2.36300 26.92900
H  13.66700 2.61400 25.50700
H  13.75600 3.72000 26.97400
H  14.83700 0.85900 31.65200
H  17.21800 4.15100 33.42800
H  17.93400 2.64800 33.79800
H  16.59600 3.04100 34.83500
Mg -10.17700 18.42500 42.75500
C  -6.77000 17.47600 42.92900
C  -9.11200 21.60400 42.18000
C  -13.29200 19.31800 42.69700
C  -11.05000 14.93500 43.06700
N  -8.11500 19.35600 42.56500
C  -6.88700 18.83300 42.73600
C  -5.78700 19.86200 42.45900
C  -6.53400 21.23000 42.53400
C  -8.04500 20.70600 42.45600
C  -6.36800 22.09400 43.85200
C  -4.80000 19.56500 41.21300
C  -5.34600 18.62600 40.08900
H  -5.23800 19.10900 38.62000
N  -11.09100 20.26500 42.38500
C  -10.47600 21.44400 42.16100
C  -11.51400 22.48300 42.05700
C  -12.80400 21.77300 42.11400
C  -12.47400 20.42600 42.43600
C  -11.10700 23.99000 41.68300
C  -14.17800 22.40600 41.74700
O  -14.36400 23.61900 41.55400
C  -15.40300 21.58500 41.60700
N  -11.94500 17.22800 42.55400
C  -13.14700 17.91000 42.76500
C  -14.28700 16.87700 42.90100
C  -13.56500 15.53000 42.73100
C  -12.09100 15.81900 42.68800
C  -15.16700 17.06200 44.25900
C  -14.08000 14.75900 41.54100
C  -15.20900 13.78500 41.86700
N  -9.17600 16.53800 42.90500
C  -9.65600 15.20800 43.06300
C  -8.52800 14.30500 43.11200
C  -7.39100 15.13300 43.03900
C  -7.79300 16.45600 42.96900
C  -8.72200 12.76300 43.31200
C  -5.94600 15.20400 43.05800
O  -5.13400 14.28100 42.93500
C  -5.49800 16.68500 43.21200
C  -5.11300 16.80300 44.61100
O  -5.94000 16.83700 45.51600
O  -3.75900 16.66500 44.79200
C  -3.18200 16.38000 46.06900
H  -8.90300 22.66800 42.04700
H  -14.36000 19.48500 42.85500
H  -11.29600 13.88500 43.23500
H  -5.16100 19.84600 43.35200
H  -6.39700 21.87100 41.66300
H  -7.07900 21.70800 44.58200
H  -6.63300 23.11900 43.59200
H  -5.37000 22.01100 44.28200
H  -3.94100 19.06300 41.65800
H  -4.37300 20.50600 40.86500
H  -6.35300 18.27900 40.32400
H  -4.65100 17.78700 40.11300
H  -11.94000 24.68100 41.81000
H  -10.46900 24.09300 40.80500
H  -10.50300 24.32300 42.52700
H  -15.93400 21.59100 42.55900
H  -15.22000 20.53900 41.35900
H  -16.09700 21.98800 40.87000
H  -14.99500 17.07000 42.09600
H  -13.81400 14.88300 43.57200
H  -14.98900 18.02200 44.74400
H  -14.96400 16.34000 45.04900
H  -16.20700 17.15600 43.94500
H  -13.29900 14.16100 41.07200
H  -14.53500 15.29600 40.70900
H  -15.95100 13.97900 41.09300
H  -15.60600 13.82100 42.88200
H  -14.86700 12.77100 41.65900
H  -9.12000 12.54400 44.30200
H  -7.73100 12.31100 43.36600
H  -9.20200 12.38300 42.41000
H  -4.68500 16.95000 42.53600
H  -2.45900 15.57100 45.96100
H  -3.95200 16.12400 46.79700
H  -2.68300 17.24800 46.49900

