158

Mg 35.95700 1.37800 29.60300
C  33.79300 2.11500 32.22200
C  38.58600 1.30700 31.82800
C  38.06500 0.73200 27.10400
C  33.36900 1.99200 27.47400
N  36.12600 1.54500 31.83500
C  35.08200 1.84600 32.70500
C  35.61700 2.03100 34.05300
C  37.15800 2.07000 33.85800
C  37.34000 1.64100 32.39900
C  37.84500 3.35000 34.21300
C  35.09900 0.92000 35.05000
C  34.82300 1.35500 36.50700
H  35.57000 2.42200 37.25100
N  38.03800 0.92700 29.47800
C  38.89300 0.87100 30.55400
C  40.25100 0.37000 30.06600
C  40.12900 0.30000 28.63000
C  38.69200 0.59800 28.35900
C  41.44300 0.20400 31.00500
C  41.25700 -0.05600 27.60600
O  41.12000 0.00400 26.40900
C  42.62000 -0.50700 28.20300
N  35.70300 1.19500 27.61800
C  36.71900 1.00500 26.74800
C  36.25300 0.94200 25.27400
C  34.72500 1.20300 25.42200
C  34.57000 1.48200 26.97200
C  36.97900 1.90700 24.27400
C  33.88700 0.06300 24.81700
C  33.17100 -0.97400 25.69900
N  34.00700 2.00100 29.75200
C  33.05200 2.20600 28.78000
C  31.73200 2.48100 29.34800
C  32.03100 2.49700 30.72500
C  33.35500 2.22800 30.88700
C  30.52900 2.63000 28.64200
C  31.45300 2.73200 32.03400
O  30.31000 3.11800 32.26000
C  32.55100 2.50800 33.04000
C  32.72200 3.70300 33.93300
O  33.07300 4.76500 33.52000
O  32.23000 3.43200 35.20800
C  32.17200 4.60500 36.09200
H  39.35700 1.24000 32.59800
H  38.84800 0.56300 26.36100
H  32.54100 2.12400 26.77400
H  35.16600 2.92600 34.48200
H  37.58700 1.33500 34.53900
H  38.57600 3.21500 35.01000
H  37.26100 4.14500 34.67500
H  38.33800 3.73600 33.32100
H  35.71500 0.02200 35.00300
H  34.10800 0.62800 34.70400
H  34.95200 0.41400 37.04200
H  33.81100 1.75900 36.49500
H  42.12100 0.91100 30.52800
H  41.88100 -0.79100 30.92700
H  41.13700 0.61400 31.96800
H  43.12000 0.38000 28.59200
H  43.25500 -0.92600 27.42300
H  42.54600 -1.23500 29.01100
H  36.32300 -0.08400 24.91400
H  34.43100 2.13500 24.94000
H  37.92500 2.29500 24.65100
H  36.45700 2.84600 24.09200
H  37.21100 1.29600 23.40200
H  34.52400 -0.42300 24.07900
H  33.05100 0.62600 24.40000
H  32.12100 -0.83000 25.44300
H  33.41100 -0.88100 26.75800
H  33.32800 -2.03500 25.50900
H  30.39200 1.84300 27.90000
H  30.41800 3.53500 28.04400
H  29.79500 2.54600 29.44300
H  32.22600 1.77800 33.78100
H  31.18800 4.65900 36.55800
H  32.33300 5.52700 35.53300
H  32.97100 4.55300 36.83100
Mg 41.16200 41.71800 26.64000
C  40.30500 43.69600 29.34000
C  42.41200 39.40500 29.03700
C  42.80300 39.95900 24.26400
C  40.87700 44.33900 24.53900
N  41.17600 41.52300 29.02200
C  40.78300 42.45800 29.85000
C  40.97100 42.02200 31.32200
C  41.69100 40.64000 31.15600
C  41.83600 40.52000 29.66500
C  42.98600 40.58000 31.92400
C  39.65500 41.95500 32.12600
C  39.59700 41.26900 33.47800
H  39.81500 42.28200 34.73500
N  42.30600 39.84500 26.68100
C  42.57000 38.98200 27.74300
C  43.15800 37.74100 27.27100
C  43.23400 37.94500 25.85500
C  42.82200 39.33500 25.56900
C  43.60400 36.62800 28.19300
C  43.69200 36.97400 24.72900
O  43.75600 37.25400 23.50700
C  44.07400 35.54200 25.14200
N  41.96600 42.17300 24.68900
C  42.46400 41.20600 23.86400
C  42.32700 41.68400 22.41000
C  41.60800 43.07800 22.50000
C  41.35700 43.13400 24.00500
C  43.65900 41.69700 21.57100
C  40.31100 43.29800 21.54500
C  38.92900 43.14300 22.18800
N  40.53600 43.59900 26.76600
C  40.45700 44.60800 25.88400
C  39.97400 45.84700 26.52100
C  39.88900 45.52400 27.86100
C  40.22000 44.11400 27.99600
C  39.85100 47.15900 25.80100
C  39.53100 46.02800 29.11800
O  39.14200 47.10300 29.41200
C  39.76000 44.89400 30.15900
C  40.70700 45.41300 31.19600
O  41.96200 45.43900 30.98300
O  40.11900 45.94500 32.33000
C  41.06700 46.46100 33.39500
H  42.83000 38.65300 29.71000
H  43.07000 39.42600 23.34900
H  40.80000 45.09600 23.75600
H  41.73400 42.69900 31.70400
H  41.12300 39.72800 31.34000
H  43.78900 40.90700 31.26400
H  43.22500 39.52300 32.04500
H  42.99200 41.01400 32.92400
H  38.90700 41.52500 31.46000
H  39.38200 42.95200 32.47100
H  40.28800 40.44000 33.63000
H  38.63700 40.75900 33.55700
H  42.93800 35.80200 27.94400
H  43.50800 36.83000 29.26000
H  44.59900 36.24700 27.96500
H  44.78100 35.48000 25.96900
H  44.55100 35.03200 24.30600
H  43.07500 35.11700 25.24700
H  41.63100 41.01600 21.90200
H  42.24900 43.94400 22.33400
H  43.68700 42.36700 20.71200
H  43.82400 40.71100 21.13400
H  44.56300 41.96600 22.11800
H  40.39300 42.57700 20.73200
H  40.35500 44.32100 21.17100
H  38.30800 42.48900 21.57500
H  38.47700 44.13500 22.17300
H  38.95500 42.81300 23.22600
H  40.14300 47.83600 26.60400
H  38.81800 47.40600 25.55600
H  40.52300 47.26000 24.94900
H  38.77900 44.82500 30.62800
H  42.08900 46.45200 33.01500
H  41.16200 45.79100 34.25000
H  40.82100 47.49800 33.62200

