158

Mg 39.78400 9.60800 29.02300
C  41.53500 11.09600 31.84200
C  37.49600 8.54600 31.16500
C  38.49900 8.15800 26.47700
C  42.68200 10.51200 27.09900
N  39.74700 9.68400 31.29500
C  40.30400 10.50500 32.18600
C  39.64300 10.55200 33.58900
C  38.52500 9.46800 33.39500
C  38.57000 9.24700 31.88100
C  38.57200 8.21500 34.30600
C  39.21700 11.98500 33.98900
C  38.90200 12.14800 35.46000
H  39.72800 13.10000 36.36100
N  38.16400 8.57400 28.87400
C  37.31900 8.17000 29.83500
C  36.25800 7.48600 29.29300
C  36.52900 7.28200 27.90100
C  37.76200 8.04700 27.68000
C  35.08000 6.97900 30.08600
C  35.71400 6.58600 26.88100
O  36.10000 6.48100 25.75700
C  34.37800 6.02100 27.19000
N  40.47700 9.53000 27.01700
C  39.70300 8.85600 26.08700
C  40.39300 8.78100 24.72600
C  41.87800 9.29100 25.06600
C  41.65400 9.89900 26.42800
C  40.25100 7.50200 23.84100
C  42.47000 10.33400 24.06200
C  41.93200 11.80500 24.28200
N  41.71800 10.49300 29.35500
C  42.79700 10.83200 28.45800
C  43.79600 11.51100 29.16100
C  43.35000 11.61900 30.49700
C  42.10700 11.02300 30.54500
C  45.04800 12.11500 28.54400
C  43.73800 12.20600 31.70000
O  44.70600 12.87000 32.04600
C  42.55100 11.86400 32.72700
C  43.06500 11.12500 33.88800
O  43.55600 9.96900 33.95100
O  42.73000 11.86800 35.03800
C  43.04400 11.25700 36.35200
H  36.72600 8.28000 31.89200
H  38.05700 7.56100 25.67600
H  43.64600 10.53300 26.58600
H  40.41500 10.23000 34.28800
H  37.65800 10.10000 33.58800
H  39.52700 8.02100 34.79500
H  38.21900 7.39400 33.68200
H  37.85700 8.40700 35.10600
H  38.39600 12.14200 33.28900
H  40.02300 12.67100 33.72800
H  39.08200 11.15900 35.88100
H  37.85600 12.45100 35.52100
H  34.12300 7.42300 29.81000
H  35.13800 7.29100 31.12900
H  34.89400 5.90500 30.05900
H  33.64900 6.82100 27.32000
H  34.62000 5.42400 28.07000
H  33.98600 5.41000 26.37800
H  39.77100 9.47600 24.16100
H  42.67500 8.54800 25.03200
H  39.45100 7.77100 23.15100
H  40.02400 6.59600 24.40300
H  41.16200 7.29500 23.28100
H  42.18300 9.96900 23.07600
H  43.55400 10.42300 23.99400
H  42.73000 12.31200 24.82500
H  41.05400 11.84300 24.92700
H  41.68600 12.24300 23.31500
H  45.29500 11.75700 27.54500
H  45.82900 11.83100 29.25000
H  44.98500 13.20200 28.49400
H  41.99200 12.73800 33.06000
H  42.35100 11.68200 37.07900
H  44.02900 11.51500 36.74100
H  42.87800 10.18000 36.33500
Mg -4.80300 25.73000 26.42100
C  -3.19500 26.85000 29.30700
C  -6.64400 23.58000 28.28300
C  -5.82000 24.29200 23.57600
C  -2.33600 27.68100 24.58300
N  -4.81600 25.18400 28.53000
C  -4.22700 25.92600 29.54700
C  -4.86600 25.58300 30.93000
C  -5.76600 24.28400 30.66300
C  -5.75100 24.30000 29.09900
C  -5.17500 22.91300 31.03500
C  -5.63300 26.69400 31.77200
C  -5.67400 26.57300 33.28400
H  -5.41900 25.24100 34.03100
N  -6.18900 24.23300 26.02200
C  -6.90400 23.48700 26.92000
C  -7.87200 22.65700 26.23700
C  -7.65400 22.86300 24.85000
C  -6.50000 23.79300 24.73800
C  -8.86300 21.88400 27.02800
C  -8.32700 22.23000 23.65400
O  -7.96100 22.34800 22.49800
C  -9.53400 21.37000 23.86100
N  -3.89400 25.72700 24.41700
C  -4.63000 25.04000 23.40100
C  -4.18200 25.60700 21.96500
C  -3.00400 26.60900 22.37900
C  -3.06200 26.67700 23.88300
C  -3.64100 24.59000 20.89000
C  -3.25400 28.04700 21.71100
C  -2.71100 28.16600 20.28200
N  -3.11500 27.07600 26.75800
C  -2.25300 27.77100 25.96100
C  -1.39300 28.55400 26.81700
C  -1.77700 28.26900 28.09800
C  -2.78400 27.33200 27.98100
C  -0.23000 29.53100 26.45500
C  -1.43900 28.53700 29.45100
O  -0.53000 29.23600 29.92100
C  -2.37200 27.64600 30.26200
C  -1.55000 26.79700 31.09500
O  -0.88900 25.77600 30.70600
O  -1.57800 27.34600 32.36500
C  -1.00200 26.46100 33.39100
H  -7.25600 23.00000 28.97700
H  -6.27900 23.99800 22.63000
H  -1.78500 28.42800 24.00800
H  -4.07800 25.23800 31.59900
H  -6.72900 24.50600 31.12300
H  -4.41800 23.03700 31.81000
H  -4.80200 22.27300 30.23600
H  -6.02600 22.44600 31.53100
H  -6.66800 26.66500 31.43300
H  -5.12500 27.61400 31.48300
H  -6.69600 26.81200 33.57600
H  -4.97300 27.33800 33.61700
H  -9.63900 22.59500 27.31400
H  -8.38000 21.52600 27.93700
H  -9.21400 20.98100 26.53000
H  -9.17100 20.61600 24.55900
H  -9.76700 21.00100 22.86200
H  -10.38900 21.97500 24.16500
H  -5.12800 25.94300 21.53900
H  -2.08000 26.22500 21.94700
H  -4.12800 24.68900 19.92000
H  -3.89900 23.56600 21.16000
H  -2.60300 24.82800 20.65900
H  -2.81500 28.91200 22.20900
H  -4.31500 28.08900 21.46100
H  -2.12100 27.28900 20.01900
H  -1.96300 28.95400 20.19400
H  -3.43100 28.52200 19.54500
H  -0.53400 30.24600 25.69100
H  0.62100 28.94000 26.11700
H  0.18500 30.09100 27.29400
H  -3.02300 28.20700 30.93300
H  0.08800 26.47200 33.37200
H  -1.41900 25.46100 33.27900
H  -1.28200 26.74100 34.40600

