158

Mg 43.26300 4.65200 46.45200
C  41.31900 7.66600 46.10900
C  40.29500 2.94700 46.10200
C  45.05000 1.97400 45.92900
C  46.11300 6.70700 46.54600
N  41.10600 5.30000 46.13400
C  40.55200 6.53400 46.24800
C  39.03800 6.45200 46.38200
C  38.71400 4.91400 46.56700
C  40.11500 4.32500 46.17400
C  38.12300 4.46800 48.02600
C  38.26100 6.97400 45.10900
C  38.69700 6.68300 43.66700
H  39.16300 7.75400 42.81600
N  42.76600 2.71300 46.02500
C  41.49700 2.20900 45.88000
C  41.53900 0.77200 45.64800
C  42.92400 0.40400 45.56800
C  43.67500 1.67400 45.84800
C  40.30700 -0.13700 45.61300
C  43.45400 -0.98200 45.27800
O  42.73300 -1.95600 45.15700
C  44.96000 -1.32200 45.21000
N  45.26600 4.40200 46.27900
C  45.73800 3.13200 46.24600
C  47.28000 3.21000 46.48500
C  47.52100 4.65000 46.93900
C  46.23600 5.31600 46.50600
C  47.88700 2.10800 47.45100
C  48.86600 5.33300 46.60700
C  49.52400 6.08300 47.77700
N  43.72200 6.75400 46.44400
C  44.93500 7.41200 46.45900
C  44.69800 8.79900 46.41400
C  43.30100 8.96600 46.36800
C  42.73600 7.66100 46.19700
C  45.80400 9.84200 46.39200
C  42.34100 9.94700 46.26300
O  42.42600 11.18200 46.28800
C  40.97500 9.14100 46.13700
C  40.14400 9.53200 47.28800
O  40.25900 9.15800 48.44500
O  38.90600 10.04400 46.80100
C  37.75600 9.96600 47.73600
H  39.30400 2.49100 46.15100
H  45.78600 1.17700 46.04900
H  47.02900 7.30000 46.59700
H  38.75600 7.07600 47.22900
H  37.93800 4.65600 45.84600
H  37.10300 4.85000 48.08000
H  38.53400 5.12100 48.79600
H  38.30500 3.42000 48.26200
H  38.22000 8.05200 45.26500
H  37.21300 6.67500 45.11800
H  37.87500 6.19300 43.14600
H  39.54500 6.01200 43.80600
H  40.42800 -0.95500 46.32200
H  40.21700 -0.63300 44.64600
H  39.33700 0.32500 45.80100
H  45.58100 -0.81600 45.95000
H  45.35800 -0.90700 44.28400
H  45.12700 -2.39900 45.16500
H  47.77300 3.08000 45.52200
H  47.48200 4.66000 48.02800
H  48.30200 1.36000 46.77500
H  47.11000 1.56300 47.98700
H  48.54900 2.71900 48.06500
H  48.75100 6.03400 45.78100
H  49.44300 4.49000 46.22600
H  50.35800 5.44800 48.07700
H  48.95800 6.47300 48.62300
H  49.75300 7.10400 47.47400
H  45.29200 10.80300 46.33000
H  46.23600 9.95200 45.39700
H  46.58500 9.72000 47.14200
H  40.53800 9.44500 45.18500
H  37.93700 10.52700 48.65300
H  37.44800 8.92700 47.85600
H  36.86500 10.38100 47.26600
Mg 0.87000 43.04100 26.03400
C  3.14500 43.38200 28.68800
C  -1.65600 42.46400 28.20400
C  -0.93800 42.06200 23.38700
C  3.65100 43.46900 23.78500
N  0.82000 42.78800 28.22200
C  1.84700 43.13000 29.10300
C  1.34000 43.00500 30.56300
C  -0.16500 42.58900 30.35100
C  -0.39000 42.69700 28.86500
C  -0.48100 41.24200 30.96000
C  1.48500 44.35100 31.33600
C  1.41000 44.28600 32.88900
H  1.32000 42.97400 33.72100
N  -1.05700 42.32800 25.82700
C  -2.02000 42.26300 26.86400
C  -3.28800 41.87600 26.29000
C  -3.08200 41.83300 24.86600
C  -1.65300 42.05400 24.63300
C  -4.51800 41.55900 27.15900
C  -4.12200 41.43400 23.77500
O  -3.83200 41.38900 22.58800
C  -5.56200 41.12600 24.12700
N  1.22700 42.88100 23.92400
C  0.38000 42.46500 23.04400
C  0.88900 42.45700 21.56100
C  2.24900 43.23900 21.79700
C  2.38300 43.27500 23.29100
C  0.94800 41.07600 20.81300
C  2.22500 44.65300 21.07000
C  1.74000 45.84700 22.02700
N  2.92800 43.52400 26.08700
C  3.90600 43.60900 25.10300
C  5.16900 43.84600 25.76000
C  4.92800 43.65800 27.13700
C  3.54000 43.51400 27.33400
C  6.48800 43.96800 25.04300
C  5.53200 43.57700 28.47600
O  6.70700 43.55800 28.70900
C  4.34800 43.50900 29.57400
C  4.55000 42.40300 30.53500
O  4.17800 41.29800 30.41100
O  5.14200 42.88500 31.62400
C  5.28900 41.97300 32.80300
H  -2.47300 42.38400 28.92400
H  -1.55500 41.89600 22.50100
H  4.47000 43.56700 23.06900
H  1.85800 42.19100 31.07100
H  -0.89600 43.22000 30.85700
H  -1.29100 40.79400 30.38500
H  -0.74100 41.30300 32.01700
H  0.39700 40.59700 30.94100
H  0.64700 44.97200 31.02100
H  2.35000 44.85300 30.90300
H  0.55200 44.91500 33.12900
H  2.33300 44.76200 33.21900
H  -4.72600 40.49400 27.25600
H  -5.42100 42.05400 26.80200
H  -4.34100 42.05700 28.11300
H  -6.18900 41.00300 23.24400
H  -5.97300 41.96400 24.69000
H  -5.65800 40.18000 24.66000
H  0.19500 42.98200 20.90500
H  3.02100 42.60100 21.36800
H  0.59200 40.30300 21.49300
H  2.00400 40.84500 20.67200
H  0.35100 40.99800 19.90500
H  1.71400 44.59700 20.10900
H  3.22800 45.05300 20.92000
H  2.57200 45.97500 22.72000
H  0.87900 45.62500 22.65700
H  1.46600 46.76300 21.50300
H  6.32700 44.08300 23.97100
H  7.10000 43.06800 25.10400
H  7.02800 44.88500 25.28100
H  4.43600 44.43300 30.14600
H  4.74100 41.03100 32.79800
H  4.94300 42.54600 33.66300
H  6.35300 41.74700 32.88100

