158

Mg 0.44000 7.93900 25.98400
C  1.41600 9.85000 28.80600
C  0.53200 5.12400 27.92000
C  -0.14100 6.19000 23.25900
C  0.47300 10.98700 24.06300
N  0.82600 7.56900 28.08100
C  1.19400 8.46800 29.01800
C  1.34000 7.80800 30.45100
C  1.48600 6.22600 29.98600
C  0.90200 6.31300 28.59700
C  2.83400 5.52000 30.25300
C  0.24800 8.15900 31.47300
C  0.45300 8.04200 33.02800
H  1.70700 7.32500 33.44500
N  0.32400 5.85100 25.59600
C  0.32800 4.89600 26.55500
C  0.18500 3.64600 25.87700
C  -0.08500 3.90000 24.42200
C  0.02900 5.33600 24.38100
C  0.17300 2.32500 26.58600
C  -0.44600 2.97900 23.28600
O  -0.74400 3.35000 22.13600
C  -0.48900 1.51600 23.49300
N  0.27300 8.60600 23.94000
C  -0.11300 7.62800 23.03500
C  -0.51500 8.29300 21.73700
C  -0.50200 9.80800 22.03200
C  0.01600 9.88000 23.49400
C  0.23300 7.74900 20.41800
C  -1.87300 10.66500 21.88100
C  -2.04100 11.79100 20.81700
N  0.98400 10.00500 26.24400
C  0.90500 11.05000 25.39800
C  1.29300 12.30800 26.09500
C  1.52000 11.82100 27.42400
C  1.26500 10.45100 27.47100
C  1.42200 13.72000 25.60700
C  1.86700 12.27000 28.72700
O  2.07200 13.40400 29.12800
C  1.59100 11.04500 29.71700
C  2.79600 10.88700 30.64600
O  3.90900 10.50800 30.30400
O  2.40900 11.23700 31.88800
C  3.26800 11.05200 33.03500
H  0.59000 4.16600 28.44300
H  -0.49400 5.60400 22.40800
H  0.45000 11.88700 23.44400
H  2.28900 8.16200 30.85200
H  0.91500 5.61000 30.68100
H  3.47500 6.26500 30.72400
H  3.21600 5.23700 29.27200
H  2.72600 4.66400 30.91900
H  -0.62300 7.52600 31.30200
H  -0.05300 9.20400 31.39500
H  -0.42500 7.48200 33.34900
H  0.37600 9.04600 33.44500
H  -0.22100 1.47200 26.03500
H  -0.44100 2.44400 27.47800
H  1.15000 2.17900 27.04800
H  -1.41900 1.28000 24.01000
H  0.27800 0.98000 24.05300
H  -0.51600 1.00500 22.53000
H  -1.54300 7.93200 21.75000
H  0.25200 10.11500 21.30700
H  0.55200 8.51200 19.70700
H  -0.50700 7.05800 20.01300
H  1.06000 7.10000 20.70300
H  -2.24500 11.06500 22.82400
H  -2.62100 9.95000 21.53700
H  -2.78100 11.57900 20.04600
H  -1.04400 11.98900 20.42400
H  -2.26300 12.66700 21.42800
H  2.32100 13.83100 25.00200
H  1.36500 14.43100 26.43200
H  0.58500 13.89800 24.93200
H  0.72900 11.35700 30.30600
H  2.64000 10.70500 33.85600
H  3.79500 11.93700 33.39200
H  3.95000 10.24500 32.76700
Mg -11.55400 38.12700 41.73900
C  -9.42000 35.56300 40.78900
C  -9.42800 40.50600 40.32700
C  -14.05100 40.42400 41.89400
C  -13.92300 35.55900 42.78200
N  -9.74100 38.07400 40.48500
C  -8.97900 36.88500 40.39100
C  -7.56300 37.22700 39.79900
C  -7.49300 38.76800 39.90600
C  -8.91300 39.19200 40.25600
C  -6.41600 39.32500 40.82200
C  -7.40200 36.59100 38.44400
C  -6.28400 35.58800 38.19400
H  -5.23800 35.98000 37.24000
N  -11.72100 40.16000 41.18000
C  -10.75400 40.96500 40.69200
C  -11.24200 42.36700 40.69800
C  -12.62400 42.37900 40.94400
C  -12.90700 40.88500 41.29600
C  -10.44600 43.66200 40.38500
C  -13.65600 43.54400 40.79100
O  -13.17600 44.66600 40.73000
C  -15.13200 43.33500 40.63500
N  -13.76200 37.95100 42.16900
C  -14.44900 39.08100 42.36100
C  -15.83200 38.87700 42.98200
C  -15.86200 37.31200 43.09400
C  -14.50300 36.83500 42.57200
C  -15.92900 39.55400 44.35800
C  -17.05700 36.56200 42.30400
C  -18.32300 36.10700 43.12600
N  -11.69800 36.02300 41.84500
C  -12.62200 35.12400 42.36000
C  -12.00300 33.81300 42.42100
C  -10.85800 33.94600 41.73500
C  -10.63500 35.32900 41.43300
C  -12.71100 32.62600 42.99000
C  -9.66000 33.15600 41.34400
O  -9.47400 31.95800 41.46600
C  -8.74700 34.23300 40.64400
C  -7.42100 34.19400 41.32400
O  -7.08600 34.89300 42.20600
O  -6.53400 33.41800 40.62000
C  -5.15100 33.37800 41.08400
H  -8.72400 41.28000 40.01400
H  -14.81200 41.20500 41.96700
H  -14.53500 34.79400 43.26500
H  -6.77700 36.79000 40.41500
H  -7.29900 39.22600 38.93600
H  -5.92100 38.48300 41.30600
H  -6.82000 40.03000 41.54800
H  -5.67200 39.77700 40.16700
H  -7.38200 37.45800 37.78400
H  -8.27300 35.96100 38.26200
H  -6.75500 34.67500 37.82900
H  -5.74200 35.59000 39.14000
H  -10.32400 44.24500 41.29900
H  -10.99300 44.30800 39.69700
H  -9.47000 43.34100 40.02400
H  -15.43000 42.36800 40.23000
H  -15.35200 44.21400 40.02900
H  -15.60900 43.50900 41.60000
H  -16.53000 39.21100 42.21500
H  -15.86700 37.05400 44.15300
H  -16.70700 40.30600 44.22600
H  -15.01700 40.05100 44.68900
H  -16.24500 38.79800 45.07700
H  -16.77100 35.67100 41.74400
H  -17.47400 37.23500 41.55500
H  -18.40300 35.02100 43.07600
H  -19.25900 36.55700 42.79400
H  -18.32000 36.25300 44.20600
H  -13.58500 32.35400 42.39800
H  -12.98800 32.78400 44.03200
H  -12.10100 31.72300 42.98400
H  -8.72500 33.89300 39.60900
H  -4.90800 34.34900 41.51600
H  -4.40500 33.22100 40.30500
H  -5.11200 32.66100 41.90400

