158

Mg 35.95000 50.25500 24.18400
C  35.78700 48.67400 27.44500
C  35.02600 53.22900 25.76500
C  36.09300 51.49500 21.26700
C  36.85400 47.05400 23.06000
N  35.48100 50.85600 26.35400
C  35.49500 50.04500 27.47800
C  35.17900 50.88800 28.81200
C  34.89200 52.33600 28.21400
C  35.15600 52.14100 26.66900
C  33.51500 52.94800 28.55100
C  36.42200 50.87200 29.83300
C  36.14600 50.56800 31.30200
H  34.73100 50.72100 31.83000
N  35.59200 52.12500 23.59600
C  35.28600 53.20600 24.38100
C  35.04900 54.33400 23.45600
C  35.37400 53.85900 22.13300
C  35.79900 52.48800 22.31800
C  34.77900 55.78500 24.00300
C  35.18300 54.56700 20.86100
O  35.48600 54.03500 19.74200
C  34.55100 55.99200 20.84700
N  36.19700 49.36900 22.48000
C  36.38500 50.09400 21.32500
C  36.79700 49.24800 20.11000
C  37.06500 47.83300 20.69700
C  36.64500 48.09800 22.18300
C  35.76800 49.15800 19.02500
C  38.53400 47.24700 20.51000
C  38.61700 45.85500 20.00400
N  36.05300 48.17000 24.97400
C  36.42100 47.03300 24.36100
C  36.54600 45.98000 25.31200
C  36.35300 46.58500 26.52700
C  36.01700 47.92900 26.29200
C  36.93800 44.51500 25.01900
C  36.30300 46.34400 27.94800
O  36.52000 45.30500 28.55700
C  35.84300 47.62400 28.64900
C  34.53400 47.42100 29.31900
O  33.43100 47.33500 28.81800
O  34.80900 47.24700 30.72100
C  33.78100 46.71700 31.63500
H  34.72400 54.19500 26.17500
H  36.18800 51.88900 20.25300
H  37.25000 46.15600 22.57900
H  34.34700 50.32600 29.23700
H  35.65200 52.99200 28.63900
H  32.95100 52.75300 27.64000
H  33.61900 53.98500 28.87000
H  33.08500 52.39700 29.38700
H  36.96800 51.81400 29.88900
H  37.09700 50.10600 29.45100
H  36.82100 51.21800 31.85800
H  36.38500 49.53200 31.53900
H  35.09000 55.92000 25.03900
H  33.72600 56.03100 24.14700
H  35.36700 56.47600 23.39900
H  34.26600 56.25400 19.82800
H  35.28600 56.65900 21.29800
H  33.58600 56.02000 21.35200
H  37.70400 49.74300 19.76200
H  36.27600 47.12800 20.43300
H  34.76700 48.91200 19.37800
H  36.12500 48.40600 18.32100
H  35.72500 50.12800 18.52700
H  39.24100 47.28200 21.34000
H  39.08900 47.87300 19.81100
H  38.74900 45.80700 18.92300
H  37.66600 45.38300 20.24900
H  39.23000 45.19100 20.61300
H  36.21200 43.99300 24.39700
H  37.10500 43.97500 25.95100
H  37.75500 44.71000 24.32400
H  36.45800 48.04500 29.44500
H  32.86000 47.30100 31.64000
H  34.14900 46.63000 32.65700
H  33.46400 45.73000 31.29900
Mg 25.93600 51.64200 25.52900
C  23.75800 52.63500 28.02500
C  28.26700 50.80800 27.72900
C  28.12000 51.18500 22.92500
C  23.48300 52.70500 23.13900
N  25.94800 51.76000 27.75500
C  24.98300 52.19100 28.50800
C  25.38200 51.87400 30.00600
C  26.83700 51.28100 29.93600
C  27.06100 51.26600 28.39000
C  27.92600 52.01600 30.71700
C  24.43200 50.81300 30.69100
C  23.49900 51.23200 31.85500
H  23.32300 50.44000 33.12200
N  27.84800 50.99700 25.38100
C  28.67000 50.72000 26.39600
C  29.97200 50.30900 25.95000
C  29.94700 50.39800 24.55800
C  28.59000 50.87400 24.20100
C  31.10900 49.90800 26.89400
C  31.06300 50.18000 23.55600
O  30.88300 50.16800 22.37200
C  32.52100 49.86200 24.04900
N  25.82700 51.93300 23.30400
C  26.85100 51.48900 22.49200
C  26.43900 51.62000 20.99200
C  25.04100 52.28800 21.04100
C  24.68500 52.21400 22.55600
C  27.43800 52.32600 20.04300
C  23.88300 51.44300 20.18800
C  23.77500 52.07700 18.77800
N  24.04200 52.65900 25.47600
C  23.16100 52.86500 24.51100
C  21.92400 53.38500 25.06500
C  22.03600 53.17300 26.47900
C  23.37900 52.75900 26.63200
C  20.80500 53.93000 24.23900
C  21.40500 53.31500 27.77700
O  20.23100 53.52200 28.07700
C  22.48700 52.96400 28.83700
C  22.74600 54.15500 29.78000
O  23.57500 55.01300 29.56400
O  21.95000 54.10800 30.91700
C  22.38000 54.86900 32.10900
H  28.91200 50.36200 28.48900
H  28.73700 51.00900 22.04200
H  22.71100 53.10000 22.47600
H  25.40600 52.74100 30.66600
H  26.85800 50.27700 30.36200
H  28.36300 52.78600 30.08200
H  28.66700 51.29500 31.06200
H  27.53400 52.48100 31.62100
H  24.98600 49.99300 31.14800
H  23.73800 50.43400 29.94200
H  22.47500 51.30600 31.48800
H  23.82300 52.24000 32.11300
H  31.42000 48.89000 26.65900
H  30.78900 49.92700 27.93600
H  31.94700 50.60200 26.82300
H  32.68300 48.83000 24.36000
H  32.88900 50.59900 24.76300
H  33.11300 49.97900 23.14200
H  26.38700 50.60600 20.59600
H  25.11000 53.31600 20.68500
H  27.04300 53.29700 19.74500
H  27.52200 51.62400 19.21300
H  28.38900 52.57100 20.51600
H  22.92400 51.40700 20.70300
H  24.17600 50.41100 19.99400
H  24.23800 51.36600 18.09400
H  24.30000 53.03100 18.72600
H  22.72600 52.31800 18.60500
H  21.16500 54.33200 23.29200
H  20.35200 54.86300 24.57600
H  20.18400 53.13300 23.83100
H  22.03400 52.17600 29.43900
H  23.28000 54.36500 32.46100
H  21.52600 54.96000 32.78000
H  22.82100 55.85800 31.97700

