158

Mg 24.12000 -4.42400 45.46700
C  26.64700 -2.41900 43.86400
C  21.81000 -3.22300 43.18900
C  21.97800 -7.00800 46.16400
C  26.56200 -5.90400 47.30000
N  24.21600 -2.97900 43.75600
C  25.33600 -2.27500 43.28000
C  24.89900 -1.31000 42.09900
C  23.29200 -1.35800 42.18900
C  23.09600 -2.58200 43.15900
C  22.78900 -0.06200 42.80700
C  25.38500 -1.85700 40.67600
C  25.90100 -0.73000 39.75500
H  25.40600 -0.76200 38.33300
N  22.11200 -4.92300 44.89700
C  21.36200 -4.29400 43.94300
C  20.03700 -4.94400 43.90400
C  20.00400 -6.04600 44.76300
C  21.36300 -6.00000 45.34700
C  18.92600 -4.38300 42.92500
C  18.85600 -7.01200 45.09200
O  17.78700 -6.81500 44.53400
C  18.92300 -8.00500 46.13500
N  24.22100 -6.24400 46.52500
C  23.19000 -7.08500 46.77300
C  23.65800 -8.28300 47.58800
C  25.03000 -7.72500 48.23100
C  25.31300 -6.49700 47.30500
C  22.54700 -8.52400 48.63100
C  26.16600 -8.85900 48.37200
C  26.82200 -9.00500 49.83000
N  26.15100 -4.23700 45.64300
C  27.03000 -4.89000 46.52100
C  28.34800 -4.27000 46.42800
C  28.21600 -3.34100 45.37200
C  26.86800 -3.33300 44.96600
C  29.50700 -4.51200 47.33200
C  28.89700 -2.30700 44.68700
O  30.08300 -2.10500 44.78700
C  27.97400 -1.71400 43.57600
C  27.87300 -0.19100 43.77900
O  27.11800 0.35300 44.64600
O  28.66100 0.48800 42.91500
C  28.90600 1.93200 43.27700
H  21.08600 -2.79100 42.49500
H  21.34600 -7.87400 46.37300
H  27.33400 -6.50500 47.78600
H  25.42600 -0.37900 42.30600
H  22.79200 -1.58200 41.24600
H  21.94900 0.27200 42.19700
H  23.54500 0.71700 42.71100
H  22.43700 -0.16900 43.83300
H  24.54100 -2.29600 40.14300
H  26.18600 -2.58100 40.82200
H  26.93600 -0.98600 39.52700
H  25.79700 0.23000 40.26000
H  19.02200 -5.18800 42.19600
H  19.13600 -3.34000 42.68500
H  17.90200 -4.47600 43.28500
H  19.35500 -7.59800 47.04900
H  19.57700 -8.78200 45.73900
H  17.89800 -8.34800 46.28000
H  23.93200 -9.16000 47.00200
H  24.75700 -7.31100 49.20100
H  22.03400 -9.44600 48.35400
H  21.85300 -7.68800 48.70700
H  22.99000 -8.68500 49.61300
H  26.98900 -8.77600 47.66100
H  25.65900 -9.78300 48.09400
H  27.88400 -9.23600 49.91000
H  26.29100 -9.88400 50.19700
H  26.48500 -8.08200 50.30200
H  29.20000 -5.24700 48.07500
H  29.77500 -3.52700 47.71600
H  30.46200 -4.74300 46.86000
H  28.35800 -1.98100 42.59200
H  28.53500 2.58000 42.48300
H  29.97600 2.14200 43.29600
H  28.49200 2.28600 44.22000
Mg 17.17300 -0.56500 27.54200
C  16.06800 1.55900 30.06700
C  19.24200 -2.22700 29.60000
C  18.66400 -1.76600 24.77400
C  15.27100 1.68600 25.35800
N  17.66800 -0.27600 29.61600
C  17.09400 0.58600 30.45800
C  17.61900 0.34000 31.86700
C  18.68300 -0.88000 31.74700
C  18.56800 -1.15900 30.23400
C  20.15800 -0.62000 32.35800
C  16.55900 0.08800 32.91700
C  16.71700 0.68300 34.28400
H  18.03600 1.03800 34.85100
N  18.59000 -2.01900 27.24200
C  19.37400 -2.60800 28.23100
C  20.24200 -3.51700 27.63700
C  20.04000 -3.41100 26.21800
C  19.06000 -2.37100 25.98400
C  21.02100 -4.41700 28.53200
C  20.73100 -4.23200 25.07700
O  20.47100 -4.11700 23.86300
C  21.71900 -5.33300 25.43700
N  16.95600 -0.13800 25.39300
C  17.65600 -0.82900 24.50600
C  17.41400 -0.35100 23.11100
C  16.23200 0.61300 23.21700
C  16.20000 0.81600 24.74700
C  18.66600 0.16400 22.40600
C  14.88400 0.08100 22.61100
C  13.75700 -0.27900 23.56200
N  15.85800 1.17600 27.68300
C  15.10400 1.97600 26.69400
C  14.30100 3.01800 27.34700
C  14.72300 2.88100 28.68300
C  15.61400 1.80200 28.79200
C  13.39900 4.08900 26.86100
C  14.55400 3.51200 29.98000
O  13.93400 4.57900 30.27400
C  15.39500 2.63400 30.92000
C  16.35400 3.47200 31.67000
O  17.50800 3.62300 31.33100
O  15.75500 4.01400 32.74500
C  16.45500 5.06200 33.45800
H  19.84900 -2.85000 30.26000
H  19.16500 -2.08500 23.85800
H  14.56700 2.30000 24.79200
H  18.25800 1.20600 32.03500
H  18.36200 -1.81000 32.21500
H  20.12800 0.26900 32.98900
H  20.97500 -0.42000 31.66400
H  20.45700 -1.49000 32.94300
H  16.38900 -0.98800 32.93600
H  15.63700 0.52300 32.52900
H  16.42400 -0.08900 34.99500
H  16.11600 1.59200 34.33000
H  21.09500 -5.44100 28.16700
H  20.66000 -4.62400 29.53900
H  21.99600 -3.97300 28.73100
H  21.22400 -6.27000 25.69300
H  22.43700 -5.11500 26.22700
H  22.42000 -5.64500 24.66200
H  17.09100 -1.22200 22.54100
H  16.42000 1.56600 22.72100
H  19.41700 0.70600 22.98000
H  18.38200 0.77400 21.54800
H  19.24300 -0.73800 22.20400
H  15.07800 -0.52500 21.72600
H  14.34400 0.87400 22.09300
H  13.35400 0.60100 24.06500
H  14.09200 -0.95600 24.34700
H  12.94600 -0.73200 22.99000
H  12.63100 4.19600 27.62700
H  13.05500 3.99500 25.83200
H  13.95400 5.02700 26.88500
H  14.71200 2.26100 31.68300
H  17.34300 4.64400 33.93300
H  15.87300 5.50800 34.26500
H  16.69100 5.79400 32.68500

