158

Mg 40.40800 9.19800 29.26800
C  42.33700 10.60400 31.93100
C  38.28500 7.92100 31.62200
C  38.92900 7.54600 26.86300
C  42.94900 10.19400 27.06700
N  40.34700 9.33700 31.49900
C  41.12400 10.01800 32.37900
C  40.61800 9.90400 33.87800
C  39.36600 8.99000 33.63500
C  39.27800 8.73900 32.17300
C  39.32300 7.63500 34.53600
C  40.32000 11.26800 34.46500
C  39.36100 11.38200 35.69200
H  39.62700 12.30100 36.83600
N  38.82700 7.87300 29.22600
C  37.99500 7.54200 30.25500
C  36.87200 6.85700 29.73100
C  36.91700 6.80600 28.31300
C  38.27200 7.42700 28.10900
C  35.80600 6.29800 30.57600
C  35.93100 6.22400 27.20200
O  36.28300 6.24000 25.97100
C  34.55700 5.58700 27.57800
N  40.97100 8.76900 27.27800
C  40.20900 8.05100 26.49100
C  40.68200 8.01400 25.02900
C  42.02800 8.85800 25.05200
C  41.97300 9.31500 26.51800
C  40.81300 6.59400 24.55600
C  42.21600 9.94700 23.93400
C  41.62700 11.31700 24.24200
N  42.23200 10.24100 29.45900
C  43.17400 10.54100 28.43900
C  44.27400 11.25700 28.99500
C  43.89200 11.38000 30.41900
C  42.68700 10.68400 30.61200
C  45.51300 11.79600 28.20200
C  44.30400 11.90600 31.69700
O  45.26700 12.58100 31.99900
C  43.30400 11.37900 32.77800
C  43.98000 10.57200 33.81400
O  44.72500 9.66200 33.65200
O  43.58500 11.01900 35.03600
C  44.13500 10.43000 36.22500
H  37.54800 7.61500 32.36700
H  38.38300 7.11400 26.02100
H  43.61800 10.59900 26.30400
H  41.27600 9.36200 34.55800
H  38.41100 9.41500 33.94400
H  38.94600 6.75700 34.01200
H  38.88400 7.68300 35.53300
H  40.38400 7.39500 34.60000
H  39.99700 12.03400 33.76000
H  41.21300 11.66500 34.94700
H  39.30400 10.35300 36.04800
H  38.38700 11.66300 35.29400
H  35.67600 6.46000 31.64600
H  35.62400 5.23200 30.44400
H  34.98900 6.90200 30.18100
H  34.64700 4.51300 27.41300
H  33.73900 6.04900 27.02600
H  34.28800 5.69200 28.62900
H  39.97300 8.48900 24.35200
H  42.93500 8.25400 25.01800
H  40.11100 5.88500 24.99600
H  41.76900 6.13800 24.81600
H  40.76900 6.58100 23.46700
H  41.66400 9.71800 23.02300
H  43.26500 9.96300 23.63800
H  40.80800 11.60400 23.58300
H  42.43800 12.02900 24.09000
H  41.15200 11.38700 25.22000
H  45.21400 12.28900 27.27700
H  46.34500 11.15300 27.91500
H  46.00300 12.60300 28.74700
H  42.90300 12.28000 33.24000
H  45.15200 10.77900 36.40400
H  43.93700 9.35800 36.23400
H  43.55600 10.83500 37.05400
Mg -0.19800 42.62500 26.35600
C  2.04100 42.77400 29.04900
C  -2.76400 42.02100 28.56400
C  -2.20200 42.04500 23.75900
C  2.55100 43.02000 24.21800
N  -0.30800 42.40800 28.61800
C  0.70900 42.61600 29.49000
C  0.10000 42.87000 30.95500
C  -1.39500 42.49200 30.69800
C  -1.51900 42.32300 29.20400
C  -1.80900 41.18100 31.41900
C  0.41700 44.25800 31.48600
C  0.86000 44.33700 33.00800
H  0.66800 43.09500 33.86100
N  -2.16700 42.19300 26.15000
C  -3.12200 42.00700 27.16900
C  -4.43000 41.85800 26.62700
C  -4.26500 41.85600 25.17600
C  -2.82700 42.00600 24.99900
C  -5.73500 41.66000 27.46400
C  -5.28100 41.72100 24.13700
O  -5.00100 41.58200 22.96200
C  -6.74600 41.77100 24.46100
N  0.19700 42.43000 24.28000
C  -0.82100 42.20600 23.40800
C  -0.28500 42.29000 21.92300
C  1.21900 42.68100 22.06700
C  1.35600 42.70200 23.62700
C  -0.54500 40.88100 21.27600
C  1.48200 44.10900 21.37700
C  0.97800 45.30800 22.19900
N  1.86300 42.81700 26.55200
C  2.84700 43.03500 25.58900
C  4.13200 43.24000 26.21600
C  3.85300 43.02800 27.59300
C  2.48000 42.85300 27.73100
C  5.39700 43.64100 25.60100
C  4.49400 42.90200 28.85400
O  5.68200 42.88400 29.11600
C  3.32100 42.75000 29.85700
C  3.52400 41.38300 30.49000
O  2.70700 40.49800 30.33100
O  4.42900 41.42200 31.46200
C  4.15900 40.51400 32.59900
H  -3.60100 42.04000 29.26400
H  -2.73100 42.06400 22.80400
H  3.42900 43.28900 23.62600
H  0.58400 42.06600 31.50800
H  -2.10300 43.26900 30.98400
H  -1.12200 40.88200 32.21100
H  -1.87200 40.24900 30.85700
H  -2.73600 41.38500 31.95300
H  -0.45000 44.88400 31.27700
H  1.24500 44.54800 30.83900
H  0.24400 45.16200 33.36500
H  1.86900 44.72400 33.15100
H  -6.13200 42.67200 27.54300
H  -5.53400 41.22500 28.44300
H  -6.39300 40.90800 27.02700
H  -7.34000 42.02800 23.58400
H  -6.80000 42.45000 25.31200
H  -7.13500 40.77500 24.67100
H  -0.81800 42.98000 21.27000
H  1.90700 41.99700 21.57000
H  0.35200 40.41300 20.87000
H  -1.16200 41.11000 20.40700
H  -1.13900 40.20800 21.89400
H  0.99000 44.09800 20.40400
H  2.52200 44.19400 21.06400
H  1.76000 46.02900 22.44000
H  0.46300 44.88800 23.06200
H  0.24200 45.66800 21.48000
H  5.39900 44.72300 25.73700
H  5.37500 43.37900 24.54400
H  6.32900 43.21100 25.96700
H  3.38300 43.50000 30.64500
H  4.12200 39.44700 32.38000
H  3.19200 40.77900 33.02600
H  4.86500 40.73100 33.40100

