158

Mg 42.93400 4.49600 47.89900
C  40.99300 7.42300 48.01100
C  40.08000 2.56700 47.73100
C  44.80800 1.86200 47.07600
C  45.79200 6.56500 47.63000
N  40.83300 5.03300 47.64900
C  40.25300 6.29500 47.81000
C  38.75000 6.22200 47.91700
C  38.57300 4.70700 48.16400
C  39.89700 4.02600 47.71500
C  38.36100 4.37800 49.63400
C  37.99300 6.72000 46.66100
C  38.73500 6.62400 45.26900
H  38.98900 7.67500 44.28300
N  42.47500 2.51600 47.49000
C  41.32000 1.89800 47.60600
C  41.42600 0.45100 47.43200
C  42.82200 0.19900 47.23500
C  43.44100 1.57900 47.25000
C  40.22900 -0.42000 47.46400
C  43.41700 -1.14800 47.10000
O  42.69600 -2.14100 47.16700
C  44.92700 -1.39400 46.85100
N  45.01600 4.29000 47.42100
C  45.49900 3.07100 47.04500
C  46.99600 3.11000 46.93200
C  47.37000 4.59500 47.23400
C  45.99500 5.21300 47.43100
C  47.70100 2.07900 47.85300
C  48.28500 5.25700 46.13700
C  49.60700 5.81400 46.60000
N  43.38500 6.54600 47.92100
C  44.62100 7.24900 47.86000
C  44.30800 8.69100 47.95600
C  42.94500 8.76000 47.97100
C  42.42900 7.49000 47.98200
C  45.41700 9.78200 47.99900
C  41.89500 9.74000 48.17300
O  41.92200 10.97300 48.32900
C  40.58500 8.86900 48.11100
C  39.78100 9.10500 49.28900
O  40.09900 8.71700 50.40600
O  38.75600 9.94400 48.98100
C  37.94900 10.32700 50.15100
H  39.19800 1.93400 47.85100
H  45.47100 1.02200 46.85700
H  46.69200 7.18200 47.58000
H  38.54400 6.94400 48.70600
H  37.75200 4.17300 47.68400
H  37.76200 5.14000 50.13300
H  39.31100 4.27300 50.15800
H  37.70600 3.50800 49.68700
H  37.85300 7.79700 46.75600
H  37.00200 6.27300 46.73200
H  38.18400 5.82000 44.78200
H  39.77400 6.30100 45.33200
H  39.48300 -0.15600 46.71400
H  39.65100 -0.32100 48.38300
H  40.38100 -1.48600 47.29700
H  45.59300 -1.05500 47.64400
H  45.21700 -0.83500 45.96100
H  44.93300 -2.46000 46.62000
H  47.25900 2.78400 45.92500
H  47.81100 4.72500 48.22200
H  47.03000 1.45900 48.44700
H  48.37600 2.70500 48.43700
H  48.29700 1.38200 47.26300
H  47.70200 6.09100 45.74600
H  48.41500 4.51600 45.34800
H  49.61700 6.81000 46.15700
H  50.49600 5.38900 46.13400
H  49.66800 5.88200 47.68700
H  46.42500 9.38200 47.88500
H  45.34000 10.35900 48.92000
H  45.33000 10.40500 47.10900
H  39.99200 9.08800 47.22400
H  36.89600 10.04900 50.12200
H  37.82100 11.40700 50.22200
H  38.30800 10.01800 51.13300
Mg 26.75500 50.61700 26.21700
C  24.44200 51.53100 28.83500
C  29.07600 49.79600 28.51300
C  28.75500 49.87200 23.70400
C  24.38500 51.77200 23.97700
N  26.76900 50.83500 28.45300
C  25.70400 51.08600 29.28800
C  25.99700 50.72800 30.72000
C  27.50000 50.25700 30.62200
C  27.85400 50.31200 29.07200
C  28.65700 50.96200 31.44900
C  25.01000 49.71000 31.33900
C  24.24800 50.33700 32.57500
H  24.11500 49.49700 33.87100
N  28.68300 50.04100 26.16800
C  29.52100 49.76900 27.21500
C  30.79600 49.31400 26.76600
C  30.82300 49.43900 25.39500
C  29.35700 49.84500 24.98400
C  31.77800 48.76400 27.66000
C  31.98700 49.34300 24.47100
O  31.85300 49.47700 23.29500
C  33.34900 49.14000 25.01000
N  26.53900 50.84200 24.13900
C  27.47700 50.21900 23.29700
C  27.04800 50.27600 21.84800
C  25.63900 50.92500 21.91300
C  25.47300 51.16500 23.43300
C  28.08700 51.12100 21.04200
C  24.61400 50.00200 21.27700
C  24.22600 50.22400 19.81900
N  24.84100 51.56800 26.33600
C  24.07400 51.96500 25.30300
C  22.82700 52.46900 25.82900
C  22.86300 52.33800 27.18200
C  24.11400 51.71800 27.50300
C  21.72500 53.04800 25.08000
C  22.25600 52.55700 28.49900
O  21.11900 53.03400 28.74600
C  23.25000 52.04700 29.61400
C  23.52400 53.10100 30.55900
O  24.35600 53.90800 30.30400
O  22.77500 52.91100 31.71700
C  23.07100 53.78600 32.85300
H  29.59500 49.36900 29.37300
H  29.35500 49.54400 22.85300
H  23.62500 51.91300 23.20500
H  26.12400 51.65700 31.27600
H  27.59100 49.25100 31.03000
H  29.61500 50.98100 30.93000
H  28.79000 50.52600 32.43900
H  28.44900 52.02600 31.56600
H  25.42900 48.88500 31.91500
H  24.31400 49.32400 30.59400
H  23.20600 50.49600 32.29600
H  24.61100 51.31600 32.88900
H  32.31000 47.88800 27.29000
H  31.37500 48.32500 28.57300
H  32.45300 49.56900 27.95400
H  33.93700 49.09400 24.09300
H  33.44900 48.17700 25.51200
H  33.61000 49.94400 25.69800
H  27.06600 49.27100 21.42600
H  25.46200 51.80700 21.29700
H  27.57600 51.91000 20.49000
H  28.64400 50.41100 20.43200
H  28.79600 51.57100 21.73600
H  23.70600 50.10500 21.87100
H  24.96400 48.96900 21.29200
H  24.74900 51.06500 19.36200
H  23.16000 50.44300 19.74600
H  24.61700 49.39300 19.23200
H  20.77600 52.97300 25.61000
H  21.63100 52.69600 24.05200
H  21.91500 54.11900 25.13700
H  22.91500 51.23800 30.26400
H  23.38000 54.78400 32.54400
H  23.82200 53.29300 33.47100
H  22.17400 53.89000 33.46400

