158

Mg 30.79700 58.39100 40.10900
C  27.98300 56.36300 39.46300
C  32.83800 55.91900 38.60200
C  33.43200 60.59100 40.06100
C  28.65500 60.96900 40.97800
N  30.39100 56.46200 38.96700
C  29.20800 55.77200 38.98400
C  29.37200 54.30600 38.43600
C  30.96200 54.11900 38.39100
C  31.46200 55.60400 38.69100
C  31.49400 53.04200 39.41600
C  28.64100 53.91900 37.10700
C  29.13700 54.95700 36.03000
H  28.11700 55.52900 34.96600
N  32.88300 58.26100 39.45100
C  33.53400 57.13300 38.96700
C  34.98300 57.40500 38.95000
C  35.14800 58.80700 39.38900
C  33.78100 59.32100 39.58900
C  36.04400 56.36700 38.61300
C  36.51700 59.53900 39.50800
O  37.52800 58.88700 39.36900
C  36.61400 61.00300 39.78300
N  31.00500 60.64400 40.31300
C  32.23000 61.21400 40.50300
C  32.09800 62.67500 40.96700
C  30.57700 62.72400 41.38500
C  30.01100 61.34400 40.93900
C  33.16700 63.29200 41.99100
C  29.73300 63.94000 40.94700
C  29.01600 64.64800 42.07500
N  28.77700 58.65000 40.26500
C  27.99900 59.74700 40.58600
C  26.62700 59.35500 40.75800
C  26.57900 58.04600 40.35600
C  27.87900 57.69700 39.98600
C  25.44200 60.19200 41.20500
C  25.68900 56.88100 40.09400
O  24.50900 56.74100 40.38700
C  26.49800 55.82700 39.33900
C  26.32600 54.54900 39.96200
O  26.76100 54.15800 40.98000
O  25.44300 53.76800 39.19500
C  25.45100 52.31700 39.48800
H  33.51400 55.08700 38.39600
H  34.27400 61.28500 40.10700
H  28.11300 61.63600 41.65200
H  28.88900 53.72100 39.21900
H  31.23500 53.80700 37.38300
H  32.10400 52.35900 38.82500
H  30.70100 52.48600 39.91700
H  32.03900 53.56900 40.19900
H  27.57100 53.79800 37.27500
H  29.05700 52.98000 36.74100
H  29.89300 54.46500 35.41800
H  29.46000 55.89600 36.47800
H  36.84400 56.87100 38.06900
H  35.64400 55.60900 37.94000
H  36.45200 55.92800 39.52300
H  36.25600 61.48700 38.87500
H  37.64600 61.31300 39.95000
H  36.06000 61.34000 40.65900
H  32.19700 63.38800 40.14900
H  30.48200 62.65700 42.46900
H  32.70200 63.82500 42.82000
H  33.84900 63.92800 41.42800
H  33.69900 62.41300 42.35600
H  29.02600 63.65100 40.17000
H  30.50300 64.55200 40.47800
H  29.13500 65.72900 42.00900
H  29.23300 64.30000 43.08500
H  27.97400 64.37700 41.90300
H  25.69300 60.83100 42.05100
H  24.57400 59.54900 41.35200
H  25.29000 60.95900 40.44500
H  25.88800 55.81400 38.43600
H  25.56500 51.89300 38.49000
H  24.46500 52.04800 39.86700
H  26.19900 52.00900 40.21900
Mg -11.90600 15.30600 41.90200
C  -9.02100 13.39100 41.58700
C  -10.49800 17.85200 40.32300
C  -15.00300 16.69100 41.66100
C  -13.57400 12.18100 42.72000
N  -10.12400 15.42500 40.80300
C  -9.02500 14.61700 40.94500
C  -7.82400 15.27400 40.31000
C  -8.15400 16.72600 40.34200
C  -9.73700 16.68300 40.43000
C  -7.68400 17.56700 41.53100
C  -7.35300 14.68700 38.92800
C  -5.89000 14.79700 38.64300
H  -5.44100 15.46600 37.38800
N  -12.67000 17.12800 41.17400
C  -11.85300 18.08600 40.70800
C  -12.64800 19.31300 40.60100
C  -13.99400 19.02100 40.91900
C  -13.95700 17.60700 41.26500
C  -12.10900 20.64100 40.31900
C  -15.18400 19.91200 41.06200
O  -15.10200 21.12800 40.82600
C  -16.60900 19.43600 41.47200
N  -13.89600 14.50900 42.01000
C  -14.97600 15.35500 42.04300
C  -16.31600 14.61700 42.30800
C  -15.83800 13.14200 42.32100
C  -14.31800 13.28700 42.33900
C  -17.09400 15.18200 43.55100
C  -16.24400 12.28200 41.12000
C  -17.00300 11.01100 41.39800
N  -11.39300 13.27100 42.31100
C  -12.15000 12.16500 42.71500
C  -11.32200 10.95500 42.93000
C  -10.05700 11.46300 42.58300
C  -10.21200 12.81700 42.09700
C  -11.78200 9.44800 43.33800
C  -8.67300 11.06700 42.46500
O  -8.05500 10.08900 42.88100
C  -7.96400 12.30500 41.77300
C  -6.94700 12.80600 42.66400
O  -7.10000 13.40200 43.74800
O  -5.76700 12.57800 42.01200
C  -4.68600 13.43400 42.51600
H  -9.94600 18.72500 39.96800
H  -15.97800 17.16800 41.77500
H  -13.97300 11.17800 42.88500
H  -6.99500 15.02000 40.97100
H  -7.72600 17.20900 39.46400
H  -7.47100 16.93000 42.38900
H  -8.34200 18.38700 41.82000
H  -6.70300 17.89400 41.18700
H  -7.98700 15.23900 38.23500
H  -7.67500 13.66600 38.72400
H  -5.36900 13.83900 38.66000
H  -5.47200 15.24100 39.54700
H  -12.17400 20.86600 39.25500
H  -11.08300 20.47200 40.64800
H  -12.49500 21.39000 41.01000
H  -17.35700 20.20800 41.29500
H  -16.52600 19.18600 42.53000
H  -16.83800 18.56000 40.86600
H  -16.93700 14.82800 41.43700
H  -16.22700 12.61800 43.19300
H  -17.83100 15.93100 43.26300
H  -16.44400 15.62500 44.30600
H  -17.57800 14.34700 44.05700
H  -15.32600 11.99800 40.60600
H  -16.81200 12.92000 40.44300
H  -16.50300 10.04400 41.33800
H  -17.68600 11.02800 40.55000
H  -17.57400 10.97400 42.32600
H  -12.85900 9.44500 43.50500
H  -11.27300 9.27500 44.28600
H  -11.45200 8.76100 42.55900
H  -7.72800 11.96200 40.76600
H  -3.89600 13.42300 41.76500
H  -4.21400 13.14500 43.45600
H  -4.98000 14.47800 42.61800

