158

Mg 47.23600 25.59600 27.63400
C  48.41600 27.61400 30.34300
C  46.39300 23.13200 30.12900
C  46.81900 23.32100 25.15900
C  48.76500 27.70000 25.56600
N  47.36900 25.41700 30.03800
C  47.79100 26.46500 30.87100
C  47.51200 26.09900 32.30200
C  46.92700 24.61000 32.23900
C  46.88600 24.35700 30.75900
C  47.77400 23.60500 32.96700
C  46.57700 27.17200 32.95700
C  47.16500 27.92000 34.17800
H  46.23500 28.07500 35.30200
N  46.58000 23.50100 27.66000
C  46.26100 22.68600 28.77400
C  45.72600 21.42700 28.22100
C  45.81500 21.56900 26.78500
C  46.40400 22.85100 26.48100
C  45.12000 20.34100 29.02900
C  45.33700 20.46000 25.75300
O  45.33300 20.65300 24.54600
C  44.91500 19.06700 26.14400
N  47.87800 25.46200 25.69100
C  47.50100 24.44300 24.84200
C  47.90300 24.73700 23.39700
C  48.24000 26.27800 23.56500
C  48.23400 26.50800 25.00900
C  49.22600 23.85400 23.04300
C  47.19500 27.18600 22.83400
C  45.83300 27.24100 23.60400
N  48.37700 27.31000 27.81900
C  48.83800 28.12900 26.87900
C  49.49500 29.31700 27.46100
C  49.32700 29.12700 28.80100
C  48.68000 27.89300 28.99200
C  50.27200 30.49100 26.74900
C  49.66200 29.66500 30.11500
O  50.27700 30.67400 30.42000
C  49.06900 28.64100 31.16900
C  50.17300 28.16400 32.01000
O  50.98600 27.32700 31.66400
O  50.33100 28.92800 33.12800
C  51.61700 28.73200 33.85700
H  45.98800 22.41000 30.84100
H  46.62800 22.61600 24.34800
H  49.04700 28.50600 24.88500
H  48.44700 26.03600 32.85800
H  45.94300 24.71000 32.69600
H  47.15100 22.76000 33.25900
H  48.36800 24.06200 33.75800
H  48.44300 23.14900 32.23700
H  45.56800 26.82000 33.17300
H  46.31400 27.93300 32.22100
H  47.40300 28.93400 33.85600
H  48.12700 27.51600 34.49100
H  45.21400 20.47400 30.10600
H  45.69400 19.44700 28.78700
H  44.06300 20.35200 28.76200
H  45.80200 18.59000 26.56000
H  44.83800 18.40300 25.28300
H  44.05400 19.06600 26.81300
H  47.09900 24.45500 22.71800
H  49.25400 26.40800 23.18500
H  50.11100 24.45700 22.84200
H  48.92700 23.19600 22.22700
H  49.44100 23.38700 24.00500
H  46.89500 26.76500 21.87500
H  47.63900 28.17100 22.69100
H  45.82200 27.97600 24.40900
H  45.65300 26.28700 24.09900
H  45.02300 27.30100 22.87700
H  50.92000 30.09600 25.96600
H  50.87400 30.98900 27.50900
H  49.52300 31.10000 26.24200
H  48.41400 29.20400 31.83400
H  51.52100 28.13600 34.76400
H  51.91800 29.70600 34.24400
H  52.51800 28.47800 33.29800
Mg 17.61000 51.49000 25.74000
C  19.38900 50.14800 28.40100
C  15.22100 52.46700 28.00600
C  15.89000 52.79700 23.15500
C  19.80000 50.06500 23.46300
N  17.44400 51.50600 28.04100
C  18.30400 50.88100 28.90000
C  17.75400 50.85500 30.30800
C  16.34400 51.59800 30.17200
C  16.25200 51.82300 28.63200
C  15.14300 50.74800 30.57500
C  18.65000 51.54200 31.39500
C  18.45800 51.06200 32.83800
H  17.50400 51.78100 33.84800
N  15.89300 52.43200 25.61800
C  15.03000 52.72500 26.60500
C  13.83000 53.33900 26.11400
C  13.99800 53.54300 24.64300
C  15.30100 52.93700 24.42400
C  12.76500 53.80700 27.02200
C  13.09600 54.24600 23.60800
O  13.24300 54.31100 22.38600
C  11.90100 54.85800 24.20700
N  17.73300 51.31000 23.59900
C  16.97100 52.00700 22.73400
C  17.27900 51.75000 21.20700
C  18.59400 50.99000 21.39200
C  18.79900 50.79200 22.90700
C  16.15400 51.07700 20.33500
C  19.85800 51.67500 20.73600
C  20.83200 52.60800 21.52600
N  19.18300 50.32600 25.83200
C  20.01400 49.73800 24.84800
C  21.03600 48.99100 25.52400
C  20.80600 49.10100 26.90800
C  19.73100 49.92700 27.02500
C  22.14400 48.29100 24.81600
C  21.29100 48.70700 28.16800
O  22.23000 48.00300 28.47900
C  20.35500 49.41000 29.22700
C  19.88500 48.38500 30.12200
O  19.18400 47.39000 29.87200
O  20.51400 48.55800 31.36300
C  20.24400 47.57500 32.43100
H  14.42500 52.77900 28.68600
H  15.36800 53.14300 22.26000
H  20.40500 49.51400 22.74000
H  17.61100 49.80200 30.55400
H  16.21600 52.56300 30.66300
H  14.28600 50.94300 29.93100
H  14.76000 50.80500 31.59400
H  15.20600 49.74500 30.15200
H  18.34200 52.58600 31.44100
H  19.70100 51.39600 31.14600
H  19.48700 51.08400 33.19500
H  18.20500 50.00500 32.75300
H  11.74800 53.64500 26.66500
H  13.00700 54.86300 27.14400
H  12.73100 53.19700 27.92500
H  11.36500 55.38700 23.41900
H  12.19800 55.49500 25.04000
H  11.07500 54.19500 24.46400
H  17.58000 52.68200 20.72800
H  18.42700 49.99500 20.98200
H  16.55800 50.46600 19.52900
H  15.61700 51.91500 19.88900
H  15.60900 50.43600 21.02800
H  19.58800 52.20900 19.82500
H  20.46200 50.86900 20.31900
H  21.76700 52.12100 21.80100
H  20.32800 52.91000 22.44400
H  21.05400 53.44400 20.86300
H  22.83400 49.06400 24.47900
H  21.73900 47.95800 23.86100
H  22.66400 47.51200 25.37200
H  20.96400 50.06500 29.84900
H  19.90600 46.62400 32.02100
H  19.54200 47.80600 33.23300
H  21.23700 47.51300 32.87700

