158

Mg 47.40100 16.00900 28.19300
C  45.68100 15.37300 31.20100
C  49.73700 17.75100 30.11200
C  48.99600 16.80000 25.42100
C  45.01600 14.26100 26.39500
N  47.62800 16.46900 30.43700
C  46.82500 16.05800 31.46300
C  47.20600 16.69400 32.78000
C  48.50300 17.55100 32.36500
C  48.70900 17.25600 30.83500
C  48.59500 19.05900 32.72800
C  47.33700 15.66000 34.01000
C  48.52200 15.81200 34.96700
H  48.61300 17.12600 35.74900
N  49.10900 17.25100 27.80300
C  49.94700 17.82900 28.71100
C  50.96000 18.62000 27.96500
C  50.59300 18.47100 26.57500
C  49.49300 17.49600 26.52700
C  51.99200 19.47100 28.60100
C  51.08900 19.17100 25.34800
O  50.66600 18.83800 24.22200
C  52.12700 20.19800 25.47300
N  47.07300 15.45900 26.19300
C  47.89400 15.94200 25.23700
C  47.32300 15.60800 23.78500
C  46.05200 14.64600 24.11400
C  46.07400 14.76400 25.65800
C  46.97400 16.80100 22.87500
C  46.04800 13.25300 23.48700
C  45.36300 13.19900 22.09800
N  45.75000 14.90900 28.64200
C  44.85600 14.29200 27.79200
C  43.74200 13.84700 28.62500
C  44.00600 14.16200 29.95900
C  45.27200 14.81700 29.92900
C  42.52400 13.20900 28.17900
C  43.52300 14.10400 31.27600
O  42.46600 13.65200 31.69500
C  44.55100 14.86600 32.12500
C  43.84100 15.96200 32.83300
O  43.29900 16.89300 32.34100
O  43.89300 15.88000 34.24500
C  43.37900 16.93400 35.06600
H  50.48700 18.34100 30.64300
H  49.34800 16.97000 24.40200
H  44.17500 13.95600 25.76900
H  46.45800 17.47200 32.93100
H  49.33400 17.00200 32.80800
H  47.78900 19.58000 32.21100
H  49.62000 19.28300 32.43000
H  48.43200 19.19500 33.79700
H  47.51000 14.72500 33.47700
H  46.39900 15.79200 34.54900
H  49.45000 15.68900 34.40800
H  48.55700 14.93400 35.61200
H  52.92100 19.43800 28.03000
H  52.03100 19.17100 29.64800
H  51.68000 20.51300 28.66800
H  51.77100 20.97100 26.15500
H  52.09800 20.73600 24.52600
H  53.11200 19.80600 25.72600
H  48.11600 14.97200 23.39300
H  45.09200 15.04900 23.79100
H  47.18200 17.75300 23.36500
H  45.93500 16.82000 22.54600
H  47.59700 16.81500 21.98100
H  45.65400 12.59700 24.26400
H  47.08500 12.92800 23.41100
H  46.18600 13.15700 21.38300
H  44.73500 14.06300 21.88200
H  44.71700 12.32100 22.11700
H  42.49300 12.93500 27.12400
H  41.61500 13.77500 28.38100
H  42.40900 12.32600 28.80800
H  44.93900 14.14500 32.84400
H  43.16300 17.84100 34.50200
H  44.14500 17.10800 35.82100
H  42.50600 16.69100 35.67100
Mg 48.34500 24.69900 27.53800
C  49.26700 26.98200 29.85800
C  47.66900 22.42000 30.04600
C  47.65100 22.35400 25.14000
C  49.76300 26.70700 25.04300
N  48.38300 24.70300 29.76400
C  48.82900 25.74800 30.51600
C  48.52200 25.58200 32.05500
C  48.23300 24.00500 32.09300
C  48.12100 23.61600 30.53900
C  49.29800 23.12900 32.80200
C  47.27400 26.41300 32.43800
C  46.69300 26.05000 33.76400
H  46.52200 27.14800 34.82300
N  47.67500 22.70200 27.54800
C  47.44300 21.95000 28.64200
C  46.81700 20.69000 28.27000
C  46.70200 20.71700 26.81500
C  47.30200 22.01000 26.42800
C  46.36800 19.68600 29.26000
C  46.13100 19.69700 25.86600
O  46.03600 19.97300 24.67800
C  45.54700 18.43200 26.41200
N  48.71900 24.61000 25.41900
C  48.25800 23.53700 24.71800
C  48.50100 23.73600 23.18800
C  49.03900 25.24700 23.09100
C  49.19400 25.56700 24.54300
C  49.54900 22.73000 22.42200
C  48.04400 26.20200 22.37600
C  48.67300 27.36700 21.57100
N  49.16200 26.49000 27.41200
C  49.73600 27.19800 26.36200
C  50.19700 28.45300 26.88200
C  49.95800 28.46000 28.20900
C  49.38200 27.23200 28.49700
C  50.85600 29.53100 26.03400
C  50.11600 29.18000 29.42400
O  50.56700 30.29400 29.62600
C  49.63100 28.27100 30.55500
C  50.70000 28.10400 31.51800
O  51.72900 27.49600 31.23500
O  50.33800 28.60000 32.77900
C  51.32900 28.44100 33.85700
H  47.27300 21.81600 30.86400
H  47.38300 21.63600 24.36100
H  49.95100 27.40400 24.22300
H  49.35700 25.93900 32.65900
H  47.22000 23.73900 32.39400
H  48.89600 22.19000 33.18200
H  49.92500 23.63400 33.53700
H  49.93300 22.91400 31.94300
H  46.48700 26.22700 31.70700
H  47.58200 27.45800 32.44900
H  47.28900 25.26400 34.22800
H  45.72100 25.61500 33.53400
H  45.39200 19.21400 29.14800
H  46.51600 20.05200 30.27600
H  47.02100 18.81300 29.27800
H  45.51300 17.77000 25.54700
H  44.54600 18.66100 26.78000
H  46.24200 17.93000 27.08500
H  47.57200 23.58100 22.64000
H  50.03600 25.32100 22.65500
H  50.41300 23.37200 22.25100
H  49.17500 22.27500 21.50600
H  49.80200 22.02600 23.21500
H  47.51500 26.75900 23.14900
H  47.34800 25.57300 21.82100
H  48.40000 28.34400 21.96800
H  48.50500 27.24700 20.50100
H  49.76100 27.42600 21.52700
H  50.92800 29.20800 24.99500
H  51.88000 29.84400 26.24200
H  50.08400 30.29700 26.09900
H  48.80100 28.86000 30.94400
H  52.33900 28.23100 33.50500
H  50.98200 27.58000 34.42700
H  51.43500 29.34200 34.46100

