158

Mg 45.17500 5.26800 47.15000
C  43.15700 8.15200 46.51600
C  42.60700 3.27900 46.21000
C  47.39500 2.69400 47.10200
C  47.96800 7.44000 47.07600
N  43.11900 5.72200 46.41600
C  42.46100 6.93900 46.31200
C  41.05600 6.77100 45.81500
C  40.87400 5.20700 45.90700
C  42.28400 4.63300 46.18100
C  39.76100 4.80100 46.91800
C  40.78700 7.59400 44.48100
C  40.20200 6.74700 43.32800
H  39.90900 7.60500 42.08500
N  45.00800 3.23900 46.81400
C  43.82600 2.58600 46.51700
C  44.06000 1.18100 46.65600
C  45.44700 0.96000 46.87300
C  46.04400 2.29600 46.92500
C  42.96600 0.17500 46.27500
C  46.06500 -0.40600 46.86200
O  45.34600 -1.38100 46.79000
C  47.57800 -0.58800 46.91100
N  47.40700 5.12200 47.05400
C  48.04500 3.92500 47.10300
C  49.61800 4.00900 47.09300
C  49.77800 5.55000 46.89900
C  48.29200 6.14000 47.05600
C  50.28400 3.20900 48.25600
C  50.50000 6.10600 45.61300
C  49.97500 5.56400 44.26500
N  45.49100 7.34400 47.07600
C  46.72300 8.10500 47.09000
C  46.41900 9.49300 47.06100
C  45.05200 9.53500 46.92800
C  44.51000 8.27000 46.87700
C  47.41300 10.53600 47.00600
C  43.95400 10.44500 46.72800
O  43.91500 11.69100 46.66800
C  42.69100 9.53300 46.46000
C  41.64900 9.88500 47.48500
O  41.52700 9.31600 48.57300
O  40.90900 10.99700 47.03200
C  39.83700 11.36400 47.97800
H  41.76400 2.65400 45.90800
H  48.18600 1.94100 47.11800
H  48.80000 8.14400 47.14500
H  40.43200 7.19000 46.60500
H  40.55300 4.79400 44.95100
H  39.31700 5.65800 47.42400
H  40.09700 4.10100 47.68400
H  38.99500 4.26600 46.35700
H  41.63800 8.19000 44.15300
H  39.94600 8.23600 44.74500
H  39.31900 6.21600 43.68500
H  41.02500 6.08700 43.05400
H  42.05100 0.61400 46.67300
H  43.06000 -0.75000 46.84300
H  42.91500 -0.14700 45.23500
H  47.80500 -1.65100 46.82600
H  47.95800 -0.23800 47.87100
H  48.11100 -0.11500 46.08600
H  49.83400 3.51000 46.14900
H  50.30900 5.78200 47.82200
H  51.20900 3.71700 48.53100
H  50.55500 2.20500 47.93100
H  49.65200 2.97800 49.11300
H  51.57100 5.91700 45.68800
H  50.50000 7.19500 45.64200
H  48.95600 5.20800 44.41300
H  50.59200 4.69100 44.05500
H  50.07700 6.14600 43.34900
H  48.19200 10.55400 47.76800
H  46.83800 11.46100 47.00000
H  47.93000 10.46000 46.04900
H  42.27100 9.86500 45.51100
H  39.35100 12.21100 47.49500
H  40.15800 11.67300 48.97200
H  39.09900 10.56200 47.96700
Mg 34.37800 3.21600 29.10000
C  32.25800 4.33900 31.60800
C  36.82900 2.73800 31.31200
C  36.38100 2.26900 26.60700
C  31.73600 3.44600 26.83600
N  34.50700 3.54100 31.25300
C  33.49100 3.89200 32.08900
C  33.91900 3.83900 33.55500
C  35.46300 3.63900 33.37500
C  35.60500 3.27000 31.88200
C  36.34500 4.85400 33.65900
C  33.20700 2.79000 34.32300
C  32.86800 3.03100 35.79800
H  33.70400 4.07500 36.54000
N  36.38800 2.59400 29.01000
C  37.24200 2.47800 30.00300
C  38.50100 1.97000 29.50500
C  38.35100 1.76300 28.15000
C  36.95700 2.22700 27.86100
C  39.61900 1.69100 30.37400
C  39.33300 1.15300 27.14500
O  39.07700 1.02700 25.94700
C  40.68600 0.60700 27.60200
N  34.06700 2.73700 27.06300
C  35.08400 2.55000 26.22000
C  34.59600 2.35800 24.77300
C  32.99400 2.42900 24.89100
C  32.90600 2.90100 26.32000
C  35.18800 3.18300 23.71200
C  32.33100 1.01200 24.78200
C  31.01300 1.10200 23.87900
N  32.40600 3.82800 29.10900
C  31.46300 3.86000 28.13300
C  30.19400 4.36200 28.72300
C  30.46100 4.56500 30.08200
C  31.82400 4.23200 30.21400
C  28.87100 4.38100 27.99800
C  29.85200 4.87200 31.34500
O  28.70200 5.21000 31.58500
C  30.99900 4.79400 32.35800
C  31.19200 6.14900 32.88700
O  31.19800 7.20900 32.18100
O  31.10400 6.04400 34.29400
C  30.92700 7.32800 34.98100
H  37.58400 2.70200 32.10000
H  37.06800 1.97800 25.80900
H  30.94500 3.49200 26.08400
H  33.75300 4.82600 33.98700
H  35.80100 2.79700 33.97800
H  35.75900 5.52500 34.28700
H  36.67000 5.25800 32.70000
H  37.23700 4.44900 34.13700
H  33.83300 1.90200 34.40100
H  32.45700 2.37300 33.65000
H  33.07000 2.17000 36.43600
H  31.81200 3.27600 35.90700
H  39.34300 1.96300 31.39300
H  40.45100 2.29700 30.01400
H  39.80400 0.61700 30.37600
H  41.51600 0.34900 26.94400
H  40.40400 -0.20500 28.27300
H  41.24700 1.37800 28.12900
H  35.02500 1.37700 24.56600
H  32.62400 3.17000 24.18300
H  36.11900 3.61900 24.07500
H  34.45100 3.93500 23.43200
H  35.36200 2.60000 22.80700
H  32.18700 0.53500 25.75200
H  33.10800 0.37100 24.36400
H  30.55000 2.08900 23.88600
H  30.24500 0.42500 24.25100
H  31.18300 0.91000 22.81900
H  28.82700 3.59700 27.24100
H  28.82200 5.41400 27.65500
H  28.05200 4.13400 28.67400
H  30.82700 4.14200 33.21400
H  31.76300 7.94600 34.65500
H  30.96200 7.19200 36.06200
H  30.04300 7.85200 34.61700

