158

Mg 34.90300 1.06800 29.34200
C  33.01000 2.21400 32.05600
C  37.77100 1.63100 31.49400
C  37.04300 0.45700 26.69900
C  32.25900 1.02600 27.38200
N  35.31500 1.63300 31.60200
C  34.35200 2.00700 32.48800
C  34.91700 2.28500 33.85800
C  36.44300 2.45600 33.58000
C  36.51700 1.95400 32.10300
C  36.99600 3.87900 33.78600
C  34.50500 1.33200 35.01600
C  33.86100 1.97100 36.31300
H  34.35800 3.30900 36.86300
N  37.05200 1.03400 29.13200
C  38.00200 1.23400 30.15600
C  39.32600 0.95800 29.58800
C  39.11300 0.53200 28.22200
C  37.68600 0.67200 27.92400
C  40.49400 1.00800 30.42400
C  40.11200 0.07700 27.17900
O  39.86200 -0.25200 26.02400
C  41.63700 -0.12700 27.51600
N  34.63800 0.82700 27.35300
C  35.61100 0.42500 26.51700
C  35.07000 0.23800 25.12800
C  33.51400 0.14900 25.36500
C  33.40700 0.65400 26.77500
C  35.52600 1.35600 24.12700
C  32.88400 -1.24000 25.11300
C  33.47300 -2.38500 25.99000
N  32.95700 1.52600 29.55700
C  31.92000 1.49300 28.68600
C  30.71800 1.83600 29.30400
C  31.06700 2.12800 30.58700
C  32.45900 1.94400 30.76100
C  29.34900 1.82400 28.70100
C  30.47300 2.47900 31.87600
O  29.32400 2.73600 32.24900
C  31.78600 2.68500 32.83400
C  31.85100 4.11300 33.29900
O  32.24000 5.06500 32.60500
O  31.42100 4.19300 34.62300
C  31.38000 5.60100 35.09400
H  38.62700 1.69200 32.16900
H  37.59400 0.22800 25.78400
H  31.45600 1.01800 26.64100
H  34.39900 3.22200 34.06200
H  36.98100 1.77000 34.23400
H  36.34300 4.53400 34.36300
H  37.37500 4.38700 32.89900
H  37.90500 3.75700 34.37500
H  35.39000 0.76600 35.30600
H  33.80100 0.65700 34.52800
H  33.68600 1.16200 37.02200
H  32.86200 2.20600 35.94500
H  40.27300 0.61600 31.41800
H  40.71300 2.06300 30.58900
H  41.40000 0.47800 30.13200
H  42.07500 0.84000 27.76300
H  42.16900 -0.66100 26.72800
H  41.73100 -0.76600 28.39400
H  35.42300 -0.71300 24.73000
H  32.85900 0.79400 24.77900
H  36.33400 1.99300 24.48600
H  34.70300 1.95300 23.73400
H  35.88800 0.83800 23.23900
H  32.81400 -1.39200 24.03600
H  31.86300 -1.29500 25.49200
H  34.51400 -2.15600 26.21600
H  33.48700 -3.30400 25.40400
H  32.93000 -2.53200 26.92500
H  29.25100 1.02300 27.96800
H  29.00400 2.79800 28.35600
H  28.65100 1.59200 29.50600
H  31.63700 2.12000 33.75500
H  31.11800 5.59900 36.15200
H  30.72400 6.21500 34.47700
H  32.42100 5.92100 35.05400
Mg -8.19600 39.52200 42.69900
C  -7.02600 36.38800 41.78400
C  -5.52100 41.00000 41.22100
C  -9.63300 42.40400 43.32500
C  -11.25900 37.98200 43.59700
N  -6.54400 38.81000 41.54000
C  -6.19500 37.48100 41.39300
C  -4.98800 37.37800 40.54600
C  -4.37500 38.84200 40.72800
C  -5.53700 39.64800 41.24700
C  -3.09600 38.96200 41.58900
C  -5.32300 37.01800 39.01300
C  -4.59000 35.72100 38.55800
H  -3.76100 35.75600 37.33000
N  -7.58600 41.52200 42.38900
C  -6.50400 41.92500 41.72800
C  -6.38400 43.35500 41.79200
C  -7.58500 43.82200 42.41000
C  -8.37800 42.64000 42.83300
C  -5.16000 44.12600 41.15800
C  -7.88400 45.28200 42.57500
O  -7.13500 46.12500 42.18600
C  -9.03300 45.72700 43.44700
N  -10.36900 40.17300 43.08500
C  -10.54000 41.41900 43.45800
C  -11.94900 41.66500 43.94100
C  -12.47100 40.18000 43.96200
C  -11.27200 39.33900 43.54900
C  -12.19000 42.42400 45.26500
C  -13.72300 39.97600 43.10500
C  -15.07500 40.43000 43.47400
N  -9.02500 37.54900 42.68000
C  -10.27100 37.11000 43.12800
C  -10.31400 35.64000 43.10100
C  -9.01900 35.33400 42.57000
C  -8.31800 36.54700 42.30900
C  -11.52500 34.78200 43.50100
C  -8.02900 34.27300 42.26000
O  -8.17300 33.10200 42.37300
C  -6.73800 34.90200 41.74700
C  -5.70800 34.57200 42.72300
O  -5.28100 35.33600 43.63000
O  -5.16300 33.29500 42.50100
C  -4.09600 32.84100 43.33900
H  -4.64000 41.45000 40.75800
H  -10.10800 43.37200 43.49700
H  -12.14700 37.54800 44.06300
H  -4.35100 36.61700 40.99600
H  -4.07400 39.27900 39.77600
H  -2.93500 38.00200 42.08100
H  -3.28600 39.69800 42.37000
H  -2.28000 39.28100 40.94100
H  -4.94300 37.82900 38.39100
H  -6.40600 37.08700 38.91000
H  -5.34900 34.98500 38.29400
H  -3.98000 35.32300 39.36900
H  -5.21100 45.21300 41.09900
H  -5.04200 43.79900 40.12500
H  -4.23400 43.88500 41.68000
H  -9.14400 46.81100 43.42900
H  -9.05600 45.35100 44.47000
H  -9.87200 45.36800 42.85100
H  -12.48800 42.26000 43.20400
H  -12.79400 39.88300 44.95900
H  -12.87200 43.26500 45.14600
H  -11.29100 42.80800 45.74800
H  -12.64100 41.69200 45.93400
H  -13.76900 38.89200 43.00400
H  -13.58000 40.38800 42.10600
H  -15.46800 41.06600 42.68200
H  -15.03500 41.03600 44.38000
H  -15.70100 39.54500 43.59000
H  -11.18500 33.75600 43.64400
H  -12.35300 34.90900 42.80300
H  -11.81100 35.21500 44.45900
H  -6.43600 34.50700 40.77700
H  -4.43100 32.99900 44.36500
H  -3.29000 33.56000 43.19300
H  -3.74500 31.83100 43.12900

