158

Mg 40.79100 9.64400 29.43000
C  42.80000 10.76600 32.18700
C  38.61300 8.23500 31.47900
C  39.16400 8.50500 26.69200
C  43.46600 10.54500 27.37900
N  40.87300 9.37200 31.64300
C  41.66900 10.01500 32.54800
C  41.01600 9.92400 33.93900
C  39.81400 8.90200 33.68600
C  39.70000 8.85300 32.15700
C  39.90400 7.52200 34.36500
C  40.48000 11.28900 34.54800
C  40.07500 11.30100 36.05800
H  40.99200 12.09300 37.07200
N  39.14700 8.51900 29.09800
C  38.27800 8.05600 30.12700
C  37.11700 7.44800 29.57900
C  37.25500 7.67600 28.20700
C  38.53000 8.21800 27.95200
C  36.05700 6.70800 30.46000
C  36.17300 7.40200 27.12900
O  36.35100 7.47200 25.86800
C  34.85100 7.08900 27.58600
N  41.31600 9.41400 27.42500
C  40.40500 9.07900 26.45400
C  41.05200 9.03300 25.04500
C  42.25700 10.03900 25.27300
C  42.41000 9.91300 26.80600
C  41.33400 7.59400 24.60100
C  42.07100 11.56100 24.80700
C  40.68200 12.21100 25.18500
N  42.62500 10.66400 29.67500
C  43.60500 10.99200 28.69500
C  44.70000 11.79800 29.33600
C  44.40700 11.61700 30.73900
C  43.19100 10.93300 30.86900
C  45.98100 12.24200 28.70800
C  44.90300 11.92400 32.09300
O  45.97100 12.47800 32.37600
C  43.81800 11.41600 33.09400
C  44.31900 10.61900 34.20900
O  44.78000 9.50800 34.06000
O  43.97400 11.22200 35.41900
C  44.26500 10.27600 36.54100
H  37.74200 7.99200 32.09000
H  38.58600 8.41600 25.77000
H  44.10300 11.02000 26.63100
H  41.78700 9.47200 34.56200
H  38.86700 9.28800 34.06100
H  39.94200 6.82100 33.53100
H  39.00200 7.27600 34.92600
H  40.77200 7.47300 35.02100
H  39.69300 11.79900 33.99200
H  41.39400 11.88000 34.48700
H  40.02000 10.29700 36.47900
H  39.10200 11.78700 35.99000
H  36.51300 6.30400 31.36400
H  35.66100 5.84500 29.92400
H  35.28500 7.41000 30.77300
H  34.63900 7.78500 28.39800
H  34.89000 6.09400 28.02800
H  34.15800 7.17200 26.74900
H  40.48100 9.51200 24.25000
H  43.18200 9.59400 24.90600
H  40.90300 6.91200 25.33300
H  42.42100 7.51400 24.59800
H  40.93900 7.30000 23.62800
H  42.45000 11.66100 23.79000
H  42.82500 12.12500 25.35600
H  40.38400 12.67800 24.24600
H  40.90800 13.01300 25.88700
H  39.95000 11.49000 25.55000
H  45.96100 13.24700 28.28600
H  46.24900 11.48000 27.97600
H  46.66900 12.12300 29.54400
H  43.43500 12.29800 33.60700
H  43.85000 10.61400 37.49000
H  45.33400 10.17300 36.72600
H  43.78000 9.32300 36.32700
Mg -0.71800 33.79000 25.87300
C  -2.67200 32.42000 28.31000
C  0.46000 36.19200 28.29900
C  0.78900 35.50600 23.41300
C  -2.34700 31.79600 23.50400
N  -1.07200 34.24000 28.08600
C  -1.91100 33.41900 28.85300
C  -1.72800 33.92900 30.33100
C  -0.93700 35.29300 30.27100
C  -0.48300 35.25900 28.79200
C  -1.77300 36.58800 30.56800
C  -1.23700 32.92600 31.32700
C  -1.86000 33.05300 32.74700
H  -0.87500 32.93800 33.92800
N  0.39100 35.50000 25.88200
C  0.81100 36.30900 26.90000
C  1.66300 37.37100 26.41700
C  1.76300 37.20000 25.02200
C  0.94700 36.02800 24.67400
C  2.24600 38.35700 27.35700
C  2.59900 38.01100 24.01300
O  2.43900 37.95200 22.79700
C  3.69100 38.91600 24.51300
N  -0.73000 33.60300 23.71200
C  -0.04800 34.41600 22.92300
C  -0.18500 34.06600 21.43000
C  -1.03100 32.81800 21.50400
C  -1.36500 32.66600 22.96900
C  -0.65100 35.27300 20.53100
C  -0.26400 31.56900 20.96900
C  0.49100 30.55300 21.86800
N  -2.16000 32.34700 25.84700
C  -2.75300 31.62900 24.80700
C  -3.81200 30.75200 25.43200
C  -3.71200 31.03800 26.78300
C  -2.74700 32.02000 26.96100
C  -4.58400 29.64500 24.79500
C  -4.37000 30.66300 27.99300
O  -5.27000 29.87700 28.19400
C  -3.67500 31.47600 29.06000
C  -4.60400 32.14800 29.90700
O  -5.18500 33.13400 29.55100
O  -4.96000 31.43500 31.05600
C  -5.85600 32.02600 32.05000
H  0.89100 36.88000 29.02900
H  1.29900 36.10700 22.65900
H  -2.91400 31.19100 22.79400
H  -2.74300 34.29100 30.49700
H  -0.03500 35.26200 30.88200
H  -2.60500 36.28900 31.20500
H  -2.16000 36.95300 29.61700
H  -1.19400 37.42400 30.96200
H  -0.16100 33.07300 31.42300
H  -1.28700 31.90300 30.95400
H  -2.55200 32.21300 32.80100
H  -2.46700 33.95700 32.78500
H  2.96200 37.85100 28.00500
H  1.45900 38.59800 28.07100
H  2.69500 39.22500 26.87400
H  4.19500 38.39300 25.32600
H  3.43500 39.89300 24.92200
H  4.40200 39.07700 23.70200
H  0.86400 33.89800 21.18500
H  -1.93000 32.87800 20.89100
H  -1.57300 35.01400 20.00900
H  0.17700 35.55400 19.88000
H  -0.95800 36.08200 21.19300
H  0.41000 31.82500 20.15100
H  -0.94800 30.84200 20.53200
H  1.46900 30.27500 21.47400
H  -0.04100 29.60200 21.90900
H  0.70500 30.92900 22.86900
H  -4.61000 29.93000 23.74400
H  -5.61200 29.60000 25.15700
H  -4.12000 28.66200 24.88300
H  -3.10700 30.88300 29.77600
H  -5.22700 32.61100 32.72100
H  -6.24300 31.18400 32.62300
H  -6.76500 32.51900 31.70500

