158

Mg 0.15700 7.97400 26.95600
C  0.79300 9.93700 29.86300
C  0.28000 5.19600 28.86300
C  -0.28600 6.24700 24.13300
C  0.41600 10.95800 25.08300
N  0.50000 7.60100 29.11900
C  0.63800 8.55500 30.15000
C  0.60000 7.89400 31.55300
C  0.52300 6.36700 31.13700
C  0.37100 6.37900 29.62700
C  1.73000 5.51800 31.62200
C  -0.62500 8.34400 32.48200
C  -0.16800 8.90700 33.84500
H  0.77100 8.08700 34.67200
N  0.04300 5.99000 26.55100
C  0.12800 4.98900 27.44700
C  -0.05700 3.77100 26.76800
C  -0.37400 4.03700 25.40700
C  -0.26100 5.46800 25.30000
C  0.24800 2.37800 27.42200
C  -0.76600 3.09000 24.31700
O  -0.91900 3.53100 23.17300
C  -0.93200 1.69100 24.64400
N  0.01500 8.56200 24.92300
C  -0.13100 7.67300 23.93700
C  -0.01300 8.43000 22.50900
C  -0.14500 9.90300 22.89700
C  0.01100 9.80200 24.39400
C  1.24900 8.05800 21.69000
C  -1.53500 10.53500 22.51900
C  -1.75100 10.75800 20.95900
N  0.65000 10.00200 27.34100
C  0.75800 11.10000 26.46100
C  0.99700 12.36900 27.22100
C  1.04200 11.88500 28.57200
C  0.84900 10.48900 28.59800
C  1.15200 13.76300 26.83000
C  1.25200 12.35300 29.95200
O  1.59800 13.41700 30.31900
C  1.03500 11.17200 30.84300
C  2.24600 11.05800 31.64800
O  3.23100 10.35600 31.31000
O  2.19700 11.77700 32.76000
C  3.27600 11.51700 33.75400
H  0.46900 4.27400 29.41900
H  -0.53300 5.70200 23.21900
H  0.52800 11.91000 24.56100
H  1.51800 8.25000 32.01900
H  -0.34900 5.84200 31.52600
H  2.25000 5.03400 30.79500
H  1.44300 4.78800 32.37900
H  2.43900 6.15400 32.15300
H  -1.25100 7.48600 32.72600
H  -1.22000 9.04400 31.89600
H  -0.98700 9.13700 34.52700
H  0.32800 9.87300 33.74600
H  0.93700 1.81500 26.79100
H  -0.64600 1.78700 27.61800
H  0.86600 2.42900 28.31800
H  0.08000 1.28700 24.64900
H  -1.35600 1.25700 23.73900
H  -1.54100 1.57100 25.54000
H  -0.84800 8.08000 21.90300
H  0.67200 10.48800 22.47300
H  0.85200 7.39900 20.91800
H  1.95400 7.55000 22.34800
H  1.69400 8.90800 21.17300
H  -1.68500 11.49000 23.02400
H  -2.21900 9.89100 23.07100
H  -1.16800 10.16500 20.25400
H  -1.56900 11.80600 20.71900
H  -2.79900 10.59400 20.71100
H  0.22800 14.17200 27.23600
H  1.55300 13.74700 25.81600
H  1.80500 14.38200 27.44500
H  0.23400 11.36200 31.55700
H  3.65200 12.48200 34.09500
H  4.05600 10.90700 33.29800
H  2.80600 10.91000 34.52700
Mg 26.92700 49.93400 26.30300
C  24.72500 50.96100 28.77300
C  29.16500 49.16700 28.62700
C  29.14700 49.52800 23.73600
C  24.66900 51.34800 23.90600
N  26.97100 50.16200 28.47600
C  25.93000 50.47900 29.25500
C  26.23200 50.17000 30.75200
C  27.72900 49.59800 30.72500
C  27.95900 49.66500 29.19700
C  28.82500 50.34800 31.53100
C  25.26000 49.06600 31.26800
C  25.17200 48.85900 32.76000
H  25.87000 49.79800 33.79400
N  28.79700 49.25100 26.21500
C  29.66900 49.07800 27.27100
C  30.98000 48.79900 26.82000
C  30.91300 48.81100 25.41300
C  29.53700 49.20700 25.05500
C  32.12000 48.49800 27.79300
C  32.04500 48.57300 24.44400
O  31.91300 48.70100 23.25600
C  33.37600 48.18400 24.93800
N  26.99500 50.45300 24.18800
C  27.98100 50.09100 23.31200
C  27.58100 50.17100 21.81300
C  26.24300 50.95400 21.89900
C  25.87400 50.82000 23.40200
C  28.60900 51.06700 21.03600
C  25.14800 50.27000 20.97800
C  24.45900 51.17100 19.85000
N  25.05600 51.01300 26.28300
C  24.25800 51.43500 25.26200
C  23.08800 52.14100 25.87100
C  23.27700 52.05300 27.25100
C  24.44900 51.27800 27.46400
C  22.07600 52.85100 25.10300
C  22.68400 52.39000 28.53300
O  21.67800 53.03300 28.83700
C  23.60300 51.65400 29.57900
C  23.95800 52.61800 30.58000
O  24.89200 53.41800 30.50100
O  23.06500 52.61200 31.59800
C  23.23900 53.69100 32.57700
H  29.89200 48.86900 29.38600
H  29.79900 49.31700 22.88600
H  23.98600 51.73100 23.14400
H  26.40600 51.03800 31.38800
H  27.81500 48.61700 31.19100
H  29.51500 50.94700 30.93700
H  29.43400 49.65400 32.11000
H  28.44700 51.01800 32.30400
H  25.61600 48.09000 30.93800
H  24.25800 49.22500 30.86900
H  25.22400 47.80100 33.02000
H  24.16400 49.12900 33.07800
H  32.13900 47.40800 27.76300
H  31.81600 48.84100 28.78200
H  33.14000 48.86000 27.66100
H  33.20400 47.39700 25.67300
H  33.75600 49.11200 25.36500
H  33.95700 47.89600 24.06100
H  27.56300 49.15900 21.40700
H  26.31000 52.01100 21.64000
H  28.83900 50.56700 20.09500
H  29.52400 51.20700 21.61100
H  28.21000 52.03500 20.73000
H  24.57500 49.64000 21.65900
H  25.63200 49.53600 20.33300
H  25.11100 51.93900 19.43400
H  23.62900 51.78200 20.20400
H  24.18900 50.50000 19.03400
H  21.62300 52.26200 24.30600
H  22.42700 53.75800 24.61100
H  21.20800 53.05000 25.73100
H  22.89800 50.90900 29.94900
H  22.38000 53.91400 33.20900
H  23.48100 54.62300 32.06800
H  23.95200 53.35500 33.33000

