158

Mg 34.22900 3.76800 29.61500
C  32.17300 4.74300 32.25900
C  36.88100 3.56500 31.75900
C  36.13000 2.84500 27.02300
C  31.47200 4.29700 27.41300
N  34.49400 4.29500 31.66600
C  33.51100 4.49200 32.60700
C  34.08600 4.37500 34.06500
C  35.59300 4.40200 33.79700
C  35.65800 3.99200 32.32000
C  36.27100 5.76500 34.25800
C  33.44500 3.19400 34.86800
C  33.34200 3.22500 36.35500
H  33.97200 4.40400 37.08700
N  36.21000 3.37600 29.36700
C  37.15500 3.29400 30.37000
C  38.43100 2.94100 29.77100
C  38.27100 2.65700 28.42400
C  36.77700 2.94200 28.22700
C  39.75200 2.91100 30.54000
C  39.31200 2.28500 27.37500
O  39.06500 2.44800 26.19600
C  40.59200 1.65400 27.75100
N  33.76000 3.38900 27.61000
C  34.80000 3.08100 26.69700
C  34.30700 3.10600 25.29100
C  32.85200 3.61300 25.36100
C  32.64200 3.73300 26.90300
C  35.17000 3.94100 24.34900
C  31.96100 2.61000 24.57900
C  31.39000 1.37000 25.28100
N  32.22400 4.31900 29.78500
C  31.23700 4.54000 28.81500
C  29.97600 4.92400 29.42600
C  30.26200 5.02200 30.83500
C  31.62200 4.66700 30.98100
C  28.61200 5.18100 28.68000
C  29.76600 5.28200 32.16700
O  28.61800 5.58200 32.51000
C  30.99500 5.18000 33.14100
C  31.10500 6.49000 33.82200
O  31.25500 7.60600 33.27000
O  31.04000 6.32600 35.13000
C  31.41400 7.47800 35.97800
H  37.79800 3.45200 32.34000
H  36.81700 2.58600 26.21500
H  30.70400 4.60000 26.69800
H  33.62000 5.22300 34.56600
H  35.94600 3.55000 34.37800
H  37.00800 5.56500 35.03600
H  35.42900 6.39300 34.54800
H  36.69400 6.19200 33.34900
H  33.96400 2.28700 34.55800
H  32.44100 3.01000 34.48500
H  33.73000 2.29200 36.76500
H  32.27700 3.30400 36.57400
H  39.64400 3.56100 31.40900
H  40.60300 3.20400 29.92500
H  40.07900 1.90500 30.80100
H  40.99400 1.02000 26.96100
H  40.40800 0.99400 28.59900
H  41.37800 2.37300 27.98100
H  34.40800 2.09000 24.90800
H  32.82300 4.56700 24.83400
H  35.92000 4.51000 24.89800
H  34.61600 4.67600 23.76600
H  35.69300 3.30800 23.63200
H  32.40200 2.33000 23.62300
H  31.09500 3.19200 24.26200
H  31.37600 0.54100 24.57300
H  30.36800 1.56500 25.60500
H  32.10900 1.00100 26.01300
H  27.87100 5.40900 29.44700
H  28.23100 4.31000 28.14800
H  28.71900 6.01100 27.98100
H  30.80100 4.35900 33.83200
H  31.61300 7.05000 36.96100
H  30.65800 8.26300 35.96200
H  32.35500 7.87900 35.60100
Mg 17.36300 52.41000 25.97500
C  19.34200 50.87700 28.41800
C  15.24500 53.58300 28.53700
C  15.33500 53.80900 23.66900
C  19.62500 51.31600 23.58500
N  17.35800 52.36000 28.15800
C  18.26300 51.68500 28.95900
C  17.96600 51.84900 30.42600
C  16.48100 52.28800 30.40100
C  16.34200 52.87000 28.96000
C  15.44800 51.20200 30.76300
C  19.01500 52.81200 31.09600
C  19.25600 52.48600 32.62300
H  18.17700 51.79100 33.47400
N  15.46300 53.47400 26.08200
C  14.78500 53.88300 27.24900
C  13.67600 54.76200 26.85100
C  13.68200 54.86900 25.42000
C  14.86100 54.01900 25.01500
C  12.79800 55.36100 27.87200
C  12.75900 55.63400 24.48300
O  12.80700 55.54500 23.30000
C  11.89300 56.69200 25.04900
N  17.43100 52.47100 23.93800
C  16.47600 53.09200 23.18800
C  16.78500 53.09400 21.66900
C  18.15100 52.25900 21.67400
C  18.43800 52.03700 23.18100
C  15.66900 52.52600 20.81800
C  19.42500 52.98400 20.92800
C  19.90200 54.28900 21.57600
N  19.14800 51.22300 25.93200
C  19.95000 50.89400 24.91500
C  20.97500 50.03800 25.37500
C  20.77100 49.87000 26.76800
C  19.63900 50.71600 27.06000
C  22.06000 49.38000 24.64900
C  21.24200 49.35900 28.01100
O  22.17600 48.63700 28.21100
C  20.28100 49.95000 29.16700
C  19.65000 48.92800 30.02200
O  19.07500 47.93500 29.60000
O  19.96000 49.13600 31.38000
C  19.75500 48.13300 32.35400
H  14.60000 53.93000 29.34800
H  14.75200 54.28000 22.87400
H  20.30200 50.89900 22.83600
H  18.04200 50.85700 30.87300
H  16.43400 53.11100 31.11500
H  14.69800 51.07000 29.98300
H  15.06800 51.44700 31.75400
H  15.87300 50.21100 30.92700
H  18.64000 53.83100 31.19300
H  19.98000 52.85100 30.58900
H  19.46500 53.43200 33.12200
H  20.12800 51.84700 32.76300
H  12.95200 54.74500 28.75800
H  11.74300 55.22200 27.63400
H  13.02800 56.39500 28.12600
H  11.15200 56.32900 25.76300
H  11.29400 57.07400 24.22200
H  12.57700 57.49200 25.33100
H  16.97100 54.10500 21.30500
H  17.96200 51.26600 21.26500
H  14.78300 53.05200 21.17500
H  15.42100 51.48200 21.00700
H  15.76400 52.74000 19.75300
H  19.14900 53.20300 19.89600
H  20.34200 52.39800 20.86800
H  19.74100 55.04000 20.80200
H  20.92400 54.28700 21.95400
H  19.23200 54.62200 22.36900
H  22.26100 50.12400 23.87800
H  21.57600 48.49000 24.24700
H  22.87000 49.23200 25.36200
H  20.75200 50.61700 29.89000
H  18.98800 48.47300 33.04900
H  20.66200 47.99900 32.94400
H  19.46700 47.21600 31.84100

