158

Mg 35.80300 50.04800 25.14600
C  36.12100 47.98000 27.96400
C  34.19800 52.47800 27.07900
C  35.30200 51.81700 22.34300
C  37.08200 47.41500 23.14400
N  35.27900 50.22700 27.32200
C  35.59200 49.24100 28.25300
C  35.21500 49.83800 29.59000
C  34.35800 51.20800 29.31100
C  34.53200 51.29600 27.78100
C  32.92600 51.15000 29.87600
C  36.64400 50.22500 30.23200
C  36.76200 50.25300 31.83900
H  35.41900 50.13400 32.69000
N  34.85300 51.89700 24.77200
C  34.44000 52.82000 25.69700
C  34.11700 54.03100 25.00100
C  34.49700 53.91200 23.69500
C  34.87500 52.45200 23.54500
C  33.41300 55.17000 25.70800
C  34.50400 54.93000 22.59900
O  34.70100 54.65200 21.39800
C  34.07800 56.34800 22.78300
N  35.91100 49.61000 22.93300
C  35.85400 50.56900 22.07300
C  36.05600 50.11200 20.64300
C  36.78400 48.74400 20.88900
C  36.58700 48.54900 22.40700
C  34.74900 49.97600 19.75300
C  38.34700 48.74900 20.40600
C  39.44900 49.12100 21.49300
N  36.49900 48.08700 25.40700
C  37.04300 47.15200 24.55000
C  37.64100 46.06600 25.34100
C  37.21400 46.31900 26.68200
C  36.51100 47.53600 26.65000
C  38.44300 44.93800 24.78900
C  37.23700 45.77400 28.02900
O  37.61500 44.67700 28.35600
C  36.49800 46.88900 28.95700
C  35.32900 46.41000 29.76100
O  34.15200 46.64300 29.45000
O  35.75300 45.74800 30.85200
C  34.95400 45.76300 32.11900
H  33.69400 53.19500 27.73000
H  35.29500 52.45400 21.45600
H  37.58400 46.65900 22.53600
H  34.65000 49.11000 30.17300
H  34.75000 52.05900 29.86700
H  32.78200 50.13900 30.25700
H  32.27800 51.28000 29.01000
H  32.68700 51.85900 30.66900
H  36.89500 51.17400 29.75800
H  37.45200 49.58000 29.88800
H  37.18200 51.23600 32.05200
H  37.42800 49.49600 32.25300
H  32.41900 55.36700 25.30600
H  33.97100 56.05200 25.39300
H  33.42600 55.08300 26.79400
H  34.12300 56.93500 21.86600
H  34.88100 56.75300 23.39900
H  33.08200 56.45100 23.21200
H  36.73100 50.77600 20.10200
H  36.12700 48.04900 20.36700
H  34.81500 49.29300 18.90600
H  34.55500 50.99200 19.41100
H  33.88700 49.83800 20.40600
H  38.41500 49.59000 19.71600
H  38.46100 47.75800 19.96600
H  40.01100 48.19400 21.60200
H  39.00400 49.53500 22.39800
H  40.02300 49.91100 21.00800
H  37.78700 44.07400 24.68100
H  39.29600 44.73000 25.43500
H  38.83000 45.28700 23.83100
H  37.35800 47.14300 29.57800
H  33.92700 46.11800 32.03800
H  35.48700 46.40200 32.82300
H  35.07900 44.80100 32.61600
Mg 1.97400 41.45500 24.87200
C  2.99500 41.72500 28.26200
C  -0.98100 40.06900 26.03100
C  1.04400 40.84200 21.77300
C  5.11700 42.50800 23.92000
N  1.19400 40.85500 26.92400
C  1.70600 41.28500 28.15100
C  0.62800 41.03500 29.26600
C  -0.52100 40.21900 28.55000
C  -0.04200 40.48700 27.07900
C  -0.68600 38.77400 28.93300
C  0.11500 42.42100 29.89900
C  0.00900 42.35200 31.45700
H  -0.81400 41.17100 32.04000
N  0.25200 40.62200 24.04600
C  -0.89100 40.09500 24.64300
C  -1.83300 39.78600 23.63100
C  -1.27100 40.09800 22.37100
C  0.04500 40.62100 22.65900
C  -3.22800 39.31400 23.92700
C  -1.89600 39.95700 20.91800
O  -1.26900 40.33300 19.90800
C  -3.25200 39.33100 20.72700
N  2.95600 41.43500 23.10500
C  2.34600 41.30100 21.94700
C  3.37700 41.38300 20.79800
C  4.41300 42.32200 21.49900
C  4.19500 42.05300 22.93700
C  3.90500 40.03500 20.29500
C  4.44000 43.81200 21.04300
C  3.81600 44.90700 22.03600
N  3.73600 42.04400 25.84500
C  4.93900 42.54900 25.33900
C  5.82300 42.90500 26.43400
C  5.05600 42.56600 27.57200
C  3.81500 42.03900 27.16500
C  7.21000 43.44600 26.37100
C  5.11500 42.80600 28.97400
O  5.92500 43.35000 29.71200
C  3.77500 42.14700 29.51700
C  4.25200 41.08200 30.33700
O  4.21900 39.90200 30.13600
O  4.74100 41.63900 31.52300
C  4.96600 40.60900 32.52600
H  -1.92500 39.60200 26.31900
H  0.91800 40.73800 20.69300
H  6.02500 42.94000 23.49400
H  1.03900 40.29000 29.94700
H  -1.49400 40.70600 28.60900
H  0.12900 38.52100 29.61000
H  -0.73700 38.05500 28.11500
H  -1.67100 38.69600 29.39400
H  -0.84800 42.68500 29.46000
H  0.92000 43.15300 29.83300
H  -0.40700 43.32300 31.72600
H  0.99200 42.25600 31.91900
H  -3.95400 40.10900 23.75900
H  -3.27800 38.87000 24.92100
H  -3.45300 38.44000 23.31500
H  -3.38400 39.29300 19.64500
H  -4.09000 39.86400 21.17500
H  -3.23100 38.34500 21.19000
H  2.99000 42.00000 19.98700
H  5.42400 41.95200 21.32800
H  3.45700 39.28000 20.94000
H  4.98600 39.92100 20.21600
H  3.53900 39.86100 19.28300
H  3.96500 43.94500 20.07100
H  5.49100 44.07700 20.92600
H  3.43400 44.57900 23.00300
H  2.91400 45.35600 21.62000
H  4.59400 45.64800 22.21900
H  7.32800 44.14900 25.54600
H  7.97300 42.67000 26.32600
H  7.40900 43.94200 27.32100
H  3.32900 42.98600 30.05100
H  4.26400 39.78900 32.37800
H  4.83100 41.07300 33.50300
H  5.98600 40.23600 32.62000

