158

Mg 8.19500 3.50600 27.81900
C  9.82300 1.98400 30.53300
C  5.98000 5.03200 30.20000
C  6.36400 4.71900 25.38900
C  9.68500 1.33100 25.77900
N  7.86000 3.39400 30.12000
C  8.72800 2.78500 30.96500
C  8.46000 3.28400 32.39200
C  7.29800 4.27500 32.31200
C  6.98100 4.18100 30.76700
C  6.07900 4.16100 33.26300
C  9.70600 3.84400 33.23600
C  9.41700 4.55600 34.56200
H  10.27900 4.33700 35.75600
N  6.45500 4.75200 27.80100
C  5.76200 5.27700 28.81200
C  4.68000 6.12500 28.33200
C  4.73200 6.05500 26.87600
C  5.84200 5.21400 26.58200
C  3.87500 7.00700 29.20900
C  3.86800 6.72100 25.82200
O  4.01900 6.65200 24.62800
C  2.65300 7.54400 26.16000
N  7.95400 3.00100 25.84000
C  7.19300 3.65900 25.02800
C  7.47900 3.36700 23.54200
C  8.71100 2.40000 23.64800
C  8.83600 2.19600 25.16100
C  6.19900 3.04700 22.61700
C  10.06600 2.90500 23.11900
C  10.98200 3.91900 24.01300
N  9.60100 1.96500 28.06400
C  10.13500 1.20200 27.10400
C  11.16700 0.34400 27.66100
C  11.12800 0.75900 29.04700
C  10.09000 1.65300 29.21600
C  12.17700 -0.48400 26.85700
C  11.64500 0.43700 30.30700
O  12.56600 -0.31200 30.60600
C  10.78100 1.11500 31.33500
C  10.03600 0.16500 32.20300
O  9.22000 -0.67200 31.83000
O  10.36400 0.32100 33.51900
C  9.68500 -0.64200 34.38300
H  5.40700 5.63700 30.90600
H  5.94800 5.11200 24.45900
H  10.33800 0.68100 25.19200
H  8.13100 2.31200 32.76000
H  7.67000 5.28400 32.49100
H  5.18600 3.94600 32.67700
H  5.85600 5.00900 33.91100
H  6.13800 3.33100 33.96700
H  10.42400 4.37000 32.60700
H  10.25300 2.95100 33.54100
H  8.35300 4.38000 34.71500
H  9.52100 5.62300 34.36500
H  3.83900 7.93200 28.63300
H  4.34900 7.31600 30.14000
H  2.91200 6.55300 29.44500
H  2.07300 7.00000 26.90500
H  1.96200 7.72500 25.33700
H  3.12900 8.48800 26.42700
H  7.89700 4.27800 23.11300
H  8.36100 1.46400 23.21400
H  5.28700 3.26900 23.17200
H  6.30800 1.99600 22.34800
H  6.25600 3.73000 21.77000
H  9.86900 3.40100 22.16800
H  10.64000 1.99200 22.95600
H  10.30100 4.52300 24.61100
H  11.53400 4.58100 23.34500
H  11.62900 3.33200 24.66500
H  12.79200 -1.02400 27.57600
H  12.66800 0.24800 26.21500
H  11.65900 -1.20500 26.22600
H  11.48200 1.61800 32.00000
H  10.48500 -1.35500 34.58300
H  8.87000 -1.18800 33.90700
H  9.32000 -0.23300 35.32500
Mg 10.14600 47.73500 24.53400
C  7.62800 48.40500 26.77900
C  12.42900 48.90400 26.86900
C  12.43900 47.06000 22.27000
C  7.57000 46.97300 22.06500
N  9.99500 48.45600 26.61400
C  8.87600 48.59900 27.35100
C  9.23700 48.84300 28.82400
C  10.68500 49.43400 28.70300
C  11.08800 48.83200 27.31400
C  10.67200 50.92300 28.66600
C  9.26400 47.54700 29.70200
C  8.95200 47.81200 31.18300
H  8.45800 46.67100 32.01400
N  12.13500 47.87200 24.58000
C  12.88800 48.43700 25.56400
C  14.30600 48.33900 25.18100
C  14.37400 47.70600 23.88600
C  12.94800 47.55000 23.51800
C  15.47200 48.78400 26.14000
C  15.58600 47.28900 23.06400
O  15.49500 46.98000 21.93500
C  16.93200 47.36600 23.71200
N  9.98300 47.01800 22.52400
C  11.17100 46.70800 21.79900
C  10.87500 46.05000 20.39300
C  9.33200 46.03200 20.44300
C  8.91100 46.76400 21.72500
C  11.36600 46.92000 19.20100
C  8.70100 44.57300 20.32000
C  8.64000 43.75300 21.67100
N  8.03000 47.60400 24.40500
C  7.09000 47.37800 23.34700
C  5.75700 47.62900 23.83000
C  5.92100 48.06500 25.16800
C  7.29100 48.06700 25.48300
C  4.49700 47.48800 23.03400
C  5.27200 48.56800 26.36000
O  4.07000 48.83800 26.55100
C  6.34600 48.79100 27.42300
C  5.90500 47.95700 28.53400
O  5.96200 46.71600 28.60400
O  5.32000 48.75700 29.54400
C  4.74900 47.95100 30.64300
H  13.07100 49.32000 27.64700
H  13.20200 46.82900 21.52400
H  6.89300 46.80800 21.22400
H  8.45100 49.51200 29.17400
H  11.42200 49.02700 29.39600
H  11.67400 51.22700 28.96800
H  9.90500 51.34000 29.31900
H  10.50100 51.31300 27.66300
H  10.26100 47.11100 29.76800
H  8.63200 46.73200 29.35100
H  8.28300 48.64400 31.40500
H  9.95600 47.91200 31.59300
H  16.15900 47.94800 26.27000
H  15.12900 48.94000 27.16300
H  16.08300 49.59400 25.74200
H  17.32900 48.28000 24.15400
H  17.66000 47.03300 22.97300
H  17.02800 46.52600 24.40100
H  11.20000 45.01900 20.25500
H  8.93600 46.47100 19.52700
H  11.59900 47.93900 19.51000
H  10.63900 47.02900 18.39700
H  12.31500 46.51800 18.84600
H  9.27400 44.07200 19.54000
H  7.72200 44.84900 19.92700
H  9.22700 44.17500 22.48600
H  9.09900 42.80200 21.40200
H  7.62400 43.52800 21.99700
H  4.09000 46.48000 23.12100
H  4.67100 47.65100 21.97000
H  3.71500 48.13800 23.42600
H  6.27900 49.86800 27.57800
H  5.48800 47.46700 31.28200
H  4.05800 47.17000 30.32700
H  4.25000 48.59600 31.36700

