158

Mg 44.09500 4.81900 46.48800
C  41.88100 7.55800 46.10000
C  41.52200 2.69400 46.09600
C  46.35000 2.26700 46.18800
C  46.70600 7.11300 46.20000
N  41.92100 5.09800 45.89800
C  41.24100 6.27500 45.95500
C  39.73300 6.06100 45.86300
C  39.61100 4.48500 45.95200
C  41.11400 4.03600 46.04100
C  38.64900 3.96100 47.08100
C  39.02700 6.76000 44.66600
C  39.83500 6.78500 43.41400
H  39.10400 7.25000 42.12200
N  43.90100 2.65800 46.34700
C  42.72400 2.07300 46.14200
C  42.92400 0.60200 45.97400
C  44.38800 0.50900 45.85600
C  44.94400 1.84200 46.10600
C  41.85500 -0.48100 45.71500
C  45.17300 -0.75900 45.46300
O  44.52600 -1.81100 45.37500
C  46.65300 -0.79000 45.23500
N  46.25800 4.63200 46.30500
C  46.93600 3.51800 46.23800
C  48.44900 3.66300 46.12000
C  48.51400 5.24300 46.09200
C  47.09100 5.71400 46.23800
C  49.24900 3.04200 47.32600
C  49.08800 5.72800 44.72000
C  50.59500 5.49800 44.61100
N  44.27300 6.89400 46.26400
C  45.41600 7.71800 46.20900
C  45.00200 9.11600 45.98700
C  43.63200 9.05900 46.16200
C  43.21400 7.75100 46.20900
C  45.88400 10.31300 45.79700
C  42.45500 9.93300 46.26000
O  42.40600 11.15200 46.32600
C  41.20600 8.95000 46.10300
C  40.22900 9.14300 47.25300
O  40.22100 8.50200 48.32100
O  39.32800 10.13000 46.92900
C  38.49200 10.66500 47.97200
H  40.70000 2.01800 45.85200
H  46.97300 1.37100 46.21200
H  47.59100 7.71600 45.98600
H  39.44700 6.55700 46.79000
H  39.25600 4.08900 45.00100
H  39.32800 3.38400 47.70900
H  37.85600 3.37600 46.61500
H  38.22100 4.81300 47.60900
H  39.08100 7.82700 44.88300
H  38.00300 6.46500 44.43500
H  40.20300 5.79500 43.14500
H  40.73000 7.39200 43.55200
H  41.93100 -1.36800 46.34300
H  41.97200 -0.82200 44.68600
H  40.86600 -0.05900 45.89600
H  47.21500 -0.79700 46.16900
H  46.75300 0.04900 44.54700
H  46.88900 -1.72100 44.72000
H  48.74000 3.29300 45.13700
H  49.14200 5.50900 46.94300
H  48.63200 3.10700 48.22200
H  50.24800 3.46600 47.43400
H  49.36400 1.97500 47.13400
H  48.97300 6.80600 44.60800
H  48.66800 5.15300 43.89500
H  51.00700 5.00800 45.49300
H  51.03600 6.49000 44.51100
H  50.83200 4.99100 43.67600
H  46.01100 10.48700 44.72800
H  46.80200 10.09200 46.34200
H  45.38800 11.21100 46.16300
H  40.75500 9.21100 45.14500
H  38.81800 11.59100 48.44700
H  38.48100 9.99500 48.83200
H  37.51500 10.74400 47.49500
Mg 42.45400 41.48500 26.63400
C  41.43400 43.67200 29.10000
C  43.22300 39.24400 29.21300
C  44.12200 39.62700 24.46800
C  41.97200 43.99400 24.25700
N  42.25200 41.44600 28.92600
C  41.79500 42.48200 29.68100
C  41.78600 42.19700 31.19500
C  42.38500 40.76200 31.23400
C  42.62600 40.40800 29.70800
C  43.63300 40.56400 32.12200
C  40.32500 42.25600 31.74700
C  40.04300 42.96700 33.04600
H  39.31200 42.25900 34.17600
N  43.52300 39.62300 26.83100
C  43.71400 38.83400 27.93100
C  44.36100 37.60200 27.51400
C  44.71200 37.76000 26.19800
C  44.18500 39.06400 25.81700
C  44.46000 36.39700 28.40200
C  45.36100 36.83000 25.16200
O  45.63900 37.02500 24.00300
C  45.67800 35.43000 25.59900
N  42.93900 41.82600 24.60000
C  43.62100 40.84600 23.88000
C  43.55800 41.10000 22.36500
C  42.77100 42.47600 22.29400
C  42.46400 42.76500 23.78800
C  44.91200 40.97700 21.55300
C  41.39100 42.46500 21.55000
C  40.43000 41.37700 22.00700
N  41.77800 43.46200 26.63100
C  41.67500 44.37600 25.58300
C  41.23500 45.61900 26.13700
C  41.10000 45.45800 27.54500
C  41.48600 44.08300 27.71600
C  40.86500 46.85900 25.41500
C  40.81000 46.07500 28.73600
O  40.56900 47.25800 29.00400
C  41.01600 45.01300 29.81100
C  42.03000 45.51500 30.77200
O  43.23200 45.34700 30.59200
O  41.51100 45.98900 31.90600
C  42.44900 46.22600 33.03600
H  43.33600 38.59100 30.08100
H  44.71100 39.08000 23.72900
H  41.84000 44.74200 23.47300
H  42.39000 42.94300 31.71000
H  41.68900 39.99300 31.57000
H  44.52700 40.71200 31.51700
H  43.74900 39.57300 32.56100
H  43.46400 41.32400 32.88500
H  39.91600 41.24700 31.80200
H  39.69800 42.73400 30.99400
H  39.39500 43.82200 32.85500
H  41.02400 43.23200 33.44100
H  43.84200 36.50000 29.29400
H  45.49900 36.15800 28.63100
H  44.07500 35.50100 27.91500
H  46.14700 34.87100 24.78900
H  44.75700 34.87600 25.77900
H  46.32900 35.43500 26.47300
H  42.80000 40.41100 21.99300
H  43.37300 43.35300 22.05400
H  44.91400 41.95400 21.06900
H  44.79000 40.12300 20.88600
H  45.83700 40.89000 22.12400
H  41.51900 42.41000 20.46900
H  40.87700 43.40600 21.74900
H  40.65300 40.79700 22.90200
H  40.25300 40.72500 21.15100
H  39.45100 41.72300 22.34000
H  39.92800 47.12500 25.90500
H  40.84000 46.66000 24.34300
H  41.63100 47.57600 25.71100
H  40.08000 44.91400 30.35900
H  43.06800 45.34500 33.20800
H  41.86000 46.50800 33.90800
H  43.11200 47.06400 32.82000

