158

Mg 35.03800 2.14100 29.56300
C  33.06300 3.27900 32.15900
C  37.67800 2.06100 31.75800
C  37.05600 1.32700 26.93100
C  32.38900 2.87100 27.38700
N  35.32000 2.56100 31.73300
C  34.38000 3.05600 32.58200
C  34.91000 3.23900 34.03600
C  36.46900 3.15200 33.83600
C  36.52700 2.57900 32.34700
C  37.06400 4.52700 33.87600
C  34.41200 2.16100 34.95900
C  34.33600 2.40200 36.49500
H  34.95200 3.60500 37.12300
N  37.07500 1.70500 29.35600
C  37.98700 1.73600 30.42700
C  39.24700 1.18500 29.95500
C  39.09900 0.97700 28.56000
C  37.71500 1.39400 28.20100
C  40.44900 0.94600 30.80900
C  40.16300 0.56500 27.56200
O  39.98200 0.56100 26.39900
C  41.52300 0.17600 28.06800
N  34.86600 2.38200 27.44900
C  35.80800 1.88500 26.54700
C  35.33500 2.10800 25.10800
C  33.85200 2.49800 25.31300
C  33.63200 2.59000 26.81500
C  36.27400 3.08200 24.30700
C  32.86900 1.66100 24.42700
C  32.49800 0.29300 25.04100
N  33.10900 2.83200 29.68200
C  32.15400 3.10800 28.73800
C  30.93900 3.65300 29.34400
C  31.24000 3.67200 30.76000
C  32.59700 3.26400 30.81300
C  29.64900 3.87200 28.55900
C  30.65000 3.87200 32.06900
O  29.49600 4.19600 32.41000
C  31.89000 3.81000 33.05500
C  32.06000 5.18400 33.47500
O  32.24200 6.11200 32.74900
O  31.99100 5.23000 34.84500
C  32.03200 6.55100 35.47300
H  38.47700 2.14100 32.49800
H  37.69800 0.94300 26.13500
H  31.56000 3.11800 26.72100
H  34.49300 4.15600 34.45200
H  36.98600 2.45100 34.49200
H  36.37700 5.15700 34.44000
H  37.21100 4.99200 32.90100
H  38.03000 4.48700 34.37900
H  34.93300 1.21400 34.81700
H  33.39400 1.91200 34.65900
H  34.81400 1.63800 37.10900
H  33.25800 2.35100 36.65200
H  40.33800 1.47400 31.75600
H  41.32600 1.43700 30.38700
H  40.53900 -0.12900 30.96600
H  42.06600 -0.26200 27.23100
H  41.39500 -0.68800 28.72000
H  42.07300 1.01500 28.49600
H  35.52600 1.17400 24.58000
H  33.71200 3.51700 24.95100
H  35.62000 3.90000 24.00500
H  36.75900 2.53200 23.50100
H  37.09400 3.50700 24.88700
H  33.42800 1.62400 23.49200
H  31.98600 2.29000 24.31200
H  32.66600 -0.41100 24.22700
H  31.44900 0.11300 25.27900
H  32.99100 -0.17500 25.89300
H  28.77200 3.97700 29.19800
H  29.52400 3.02800 27.88000
H  29.68000 4.73300 27.89100
H  31.58100 3.11400 33.83500
H  30.99700 6.89400 35.44500
H  32.66300 7.27900 34.96500
H  32.32800 6.52900 36.52200
Mg 46.32100 17.32400 29.10400
C  44.41600 16.90200 31.89000
C  48.68700 18.91900 30.90000
C  47.90200 17.70700 26.16000
C  43.72100 15.65400 27.24500
N  46.49900 17.95500 31.13100
C  45.56600 17.69000 32.10800
C  46.00900 18.16900 33.47800
C  47.37300 18.96200 33.10800
C  47.54100 18.58900 31.63200
C  47.26200 20.47400 33.41900
C  46.37500 16.97100 34.47200
C  46.53900 17.10600 35.99000
H  46.21300 18.47400 36.63700
N  48.04900 18.30700 28.61300
C  48.93000 18.82600 29.46000
C  50.09400 19.24600 28.70600
C  49.98700 18.73200 27.35300
C  48.55800 18.25200 27.36200
C  51.20900 20.02400 29.32900
C  50.92800 18.74400 26.16800
O  50.63600 18.24700 25.05200
C  52.35200 19.24800 26.41400
N  45.87200 16.82500 27.09100
C  46.65600 17.17200 26.00900
C  46.00600 16.88000 24.67700
C  44.86700 15.92000 25.14500
C  44.83700 16.15100 26.60900
C  45.65000 18.16400 23.93200
C  45.12300 14.36200 24.92400
C  44.49300 13.83100 23.69400
N  44.35000 16.61400 29.41300
C  43.43200 15.93700 28.61600
C  42.26700 15.64600 29.41700
C  42.62800 15.99500 30.73100
C  43.90800 16.51400 30.67900
C  41.03300 15.03800 28.90400
C  42.19400 15.95700 32.13300
O  41.13300 15.54400 32.62100
C  43.37300 16.54600 32.95000
C  42.81600 17.64700 33.74500
O  42.57500 18.73600 33.28100
O  42.35000 17.23500 35.00900
C  41.84300 18.24600 35.96700
H  49.39100 19.48400 31.51400
H  48.37000 17.95100 25.20400
H  42.87700 15.14100 26.78100
H  45.23700 18.82400 33.88200
H  48.28400 18.61400 33.59500
H  46.26400 20.86200 33.62500
H  47.61100 21.06400 32.57100
H  47.79400 20.68300 34.34600
H  47.21300 16.41400 34.05300
H  45.67700 16.14300 34.35000
H  47.57400 16.90600 36.27100
H  45.89000 16.37800 36.47700
H  51.09800 20.26000 30.38800
H  51.48900 20.94700 28.82200
H  52.07600 19.36400 29.31000
H  52.45100 20.19400 26.94700
H  52.66800 19.40700 25.38300
H  52.85300 18.41700 26.91100
H  46.78900 16.33500 24.15000
H  43.97000 16.30200 24.65800
H  46.55700 18.68800 23.62900
H  44.98200 18.77800 24.53500
H  44.91100 17.90200 23.17500
H  44.71500 13.78400 25.75300
H  46.20300 14.21400 24.89700
H  44.17400 14.67600 23.08400
H  43.64500 13.15500 23.80300
H  45.27100 13.36000 23.09300
H  40.84400 15.43600 27.90700
H  40.24900 15.45100 29.54000
H  40.94300 13.95200 28.89400
H  43.57900 15.80000 33.71800
H  40.78800 18.09800 36.20000
H  41.89400 19.29200 35.66900
H  42.33000 18.03300 36.91900

