158

Mg -1.43000 17.81700 27.40900
C  -1.99800 15.85000 30.04700
C  -2.41800 20.48000 29.28700
C  -1.01000 19.74600 24.66700
C  -1.23700 14.99200 25.38800
N  -2.20100 18.14200 29.42300
C  -2.33100 17.17800 30.37900
C  -2.69700 17.75100 31.80900
C  -3.11600 19.22800 31.39600
C  -2.54100 19.29100 29.95300
C  -4.68300 19.47200 31.37400
C  -1.51300 17.63500 32.79500
C  -1.87800 16.88100 34.11000
H  -0.79600 16.73600 35.23800
N  -1.47900 19.88500 27.07400
C  -1.94700 20.84300 28.00800
C  -1.88700 22.17900 27.36300
C  -1.52800 21.91400 25.99300
C  -1.28800 20.48800 25.85500
C  -2.25200 23.50200 28.09200
C  -1.47000 22.98100 24.88700
O  -1.09100 22.73900 23.74800
C  -1.97100 24.34100 25.17200
N  -1.16100 17.47100 25.38300
C  -1.00700 18.42000 24.36400
C  -0.93600 17.84700 22.97800
C  -0.68800 16.34600 23.33900
C  -1.12800 16.23000 24.79700
C  -2.32800 18.08500 22.22400
C  0.80800 15.97900 23.19200
C  1.80900 16.52100 24.26000
N  -1.61000 15.82400 27.59000
C  -1.40200 14.75900 26.74800
C  -1.62900 13.54200 27.47100
C  -1.77100 13.91500 28.78500
C  -1.73700 15.31400 28.77900
C  -1.69500 12.18000 26.83400
C  -1.91500 13.33600 30.11400
O  -1.97900 12.14700 30.43700
C  -2.01900 14.57500 31.01300
C  -0.79800 14.50900 31.76400
O  0.25100 14.86800 31.30500
O  -0.97100 13.87100 32.97500
C  0.37300 13.75500 33.67600
H  -2.74300 21.38700 29.80100
H  -0.97300 20.48900 23.86700
H  -1.24200 14.12900 24.71800
H  -3.56800 17.21300 32.18400
H  -2.60200 20.01500 31.94800
H  -4.95500 19.74800 32.39300
H  -5.13700 18.50500 31.15700
H  -5.00400 20.17600 30.60600
H  -1.20400 18.63700 33.09200
H  -0.62300 17.26200 32.28700
H  -2.16100 15.91900 33.68400
H  -2.77900 17.28800 34.57000
H  -2.46100 23.23900 29.12800
H  -3.17700 23.95600 27.73400
H  -1.47400 24.24600 27.91700
H  -3.04100 24.28600 25.37100
H  -1.84800 24.84900 24.21600
H  -1.44100 24.91400 25.93300
H  -0.05300 18.10500 22.39200
H  -1.27200 15.59900 22.80100
H  -2.95000 18.64100 22.92500
H  -2.93800 17.19000 22.10500
H  -2.29200 18.65100 21.29300
H  1.16600 16.36100 22.23600
H  0.84700 14.89200 23.12700
H  1.31700 16.97700 25.11900
H  2.42200 17.27900 23.77200
H  2.38700 15.74300 24.75700
H  -2.71200 11.98600 26.49500
H  -1.36300 11.53200 27.64500
H  -1.00100 11.98500 26.01600
H  -2.92600 14.59200 31.61800
H  0.68600 14.72000 34.07400
H  1.09400 13.38500 32.94800
H  0.30200 12.99900 34.45800
Mg 48.16100 16.18100 28.49700
C  46.12000 15.86500 31.20100
C  50.21400 18.18400 30.30200
C  49.91700 16.62800 25.63800
C  45.59500 14.62900 26.49500
N  48.17700 17.01500 30.46600
C  47.32700 16.56100 31.45400
C  47.73500 17.03200 32.84700
C  48.81000 18.06000 32.51300
C  49.07000 17.76500 30.99900
C  48.26400 19.48600 32.72000
C  48.04300 15.85500 33.82200
C  47.49300 15.92400 35.24300
H  47.22600 17.29000 35.88200
N  49.98900 17.10300 28.11100
C  50.62700 17.96100 28.95900
C  51.78300 18.44000 28.34300
C  51.75600 18.00400 26.96500
C  50.50000 17.26600 26.82700
C  52.84900 19.36300 29.00500
C  52.80100 18.37700 25.79300
O  52.64900 17.95500 24.66900
C  54.07200 19.05000 26.12400
N  47.84000 15.65600 26.29700
C  48.76700 15.85000 25.39100
C  48.40900 15.24900 24.05400
C  47.14600 14.42000 24.40000
C  46.84700 14.86300 25.84000
C  48.33000 16.33600 22.90000
C  47.25100 12.91000 24.13000
C  46.02200 12.19600 23.64800
N  46.20600 15.42000 28.71000
C  45.31300 14.78900 27.90800
C  44.12700 14.37500 28.63000
C  44.37500 14.82000 29.93000
C  45.68200 15.36900 29.94300
C  43.01500 13.61200 27.98500
C  43.90200 14.89500 31.23700
O  42.78700 14.53000 31.68000
C  45.05700 15.49800 32.18000
C  44.48900 16.61900 32.93200
O  44.29600 17.76900 32.49800
O  44.16800 16.12900 34.16500
C  43.43200 17.04500 35.10500
H  50.88900 18.78500 30.91600
H  50.52800 16.95900 24.79600
H  44.89000 14.05100 25.89300
H  46.82300 17.54600 33.14900
H  49.76600 17.94200 33.02300
H  48.98200 19.93900 33.40500
H  47.29100 19.56300 33.20500
H  48.08200 20.06000 31.81200
H  49.11100 15.67100 33.94100
H  47.65800 14.96000 33.33300
H  48.22100 15.44400 35.89700
H  46.54600 15.39100 35.33300
H  53.22400 20.15500 28.35700
H  53.56000 18.57000 29.23800
H  52.41800 19.79100 29.91000
H  54.53700 18.46300 26.91700
H  54.06600 20.12700 26.29200
H  54.61700 18.86100 25.19900
H  49.23100 14.58500 23.78700
H  46.32200 14.78000 23.78300
H  47.38700 16.16500 22.38000
H  49.13500 16.25000 22.17000
H  48.27600 17.35600 23.28000
H  47.48100 12.44700 25.09000
H  48.02100 12.68200 23.39300
H  46.20900 11.88500 22.62000
H  45.15600 12.82600 23.84900
H  45.98900 11.30100 24.26900
H  43.19400 12.56600 28.23600
H  42.99800 13.75000 26.90400
H  42.06300 13.95300 28.39100
H  45.41000 14.69000 32.82100
H  42.40200 17.21400 34.79100
H  43.95700 17.99300 34.98900
H  43.58300 16.54100 36.06000

