158

Mg 6.49900 55.01500 40.72300
C  5.15700 51.65600 40.15300
C  9.37100 54.02300 39.20300
C  7.15500 58.34200 40.24400
C  3.16800 55.81900 41.61200
N  7.12600 53.04100 39.85700
C  6.45400 51.85000 39.61500
C  7.33700 50.91300 38.74400
C  8.77000 51.48900 38.98200
C  8.46700 52.91500 39.41400
C  9.65200 50.71700 40.01600
C  6.91600 50.90300 37.25700
C  6.85500 49.48800 36.56200
H  7.60600 49.45000 35.25800
N  8.07200 56.02600 39.85800
C  9.21900 55.42800 39.43200
C  10.22000 56.47600 39.23900
C  9.58300 57.70500 39.46600
C  8.19600 57.39600 39.93400
C  11.67200 56.24300 38.90600
C  10.30600 58.94900 39.29400
O  11.41500 59.04400 38.77500
C  9.80700 60.22500 40.05600
N  5.25300 56.82200 40.72100
C  5.80700 58.09900 40.70800
C  4.81300 59.17500 41.19400
C  3.57100 58.30900 41.47200
C  4.05900 56.90400 41.37300
C  5.21300 60.17800 42.41600
C  2.35900 58.53000 40.59700
C  1.17800 59.16800 41.34100
N  4.67500 53.92200 41.17000
C  3.46200 54.45400 41.61000
C  2.60300 53.33800 41.89800
C  3.16100 52.20700 41.22500
C  4.42600 52.66200 40.81400
C  1.22700 53.38100 42.57200
C  2.99200 50.79100 40.92000
O  2.09300 50.01100 41.12700
C  4.35100 50.40400 40.30400
C  4.15100 49.60200 39.05200
O  4.02000 50.02200 37.93500
O  4.21700 48.26900 39.29800
C  3.87700 47.36000 38.11800
H  10.37900 53.67900 38.96000
H  7.43500 59.38500 40.08300
H  2.12700 56.09700 41.79300
H  7.34700 49.90900 39.16600
H  9.31900 51.50400 38.04000
H  9.42800 49.66000 39.87100
H  9.47600 50.98000 41.06000
H  10.69600 50.94300 39.80200
H  7.53400 51.59900 36.69100
H  5.95200 51.41200 37.26700
H  5.84200 49.08700 36.52200
H  7.35600 48.82800 37.27000
H  12.00200 56.85300 38.06500
H  11.99000 55.22000 38.70500
H  12.24200 56.58600 39.76900
H  10.63000 60.89500 40.30900
H  9.41200 59.72400 40.94000
H  9.07800 60.64900 39.36600
H  4.62800 59.78500 40.31000
H  3.24500 58.48300 42.49800
H  6.17800 59.89000 42.83100
H  4.53600 60.13900 43.27000
H  5.39200 61.19300 42.06200
H  1.92800 57.72900 39.99600
H  2.66400 59.24700 39.83500
H  1.37500 60.23600 41.43800
H  1.01700 58.93900 42.39500
H  0.29400 58.98100 40.73000
H  0.49400 53.34000 41.76600
H  1.12500 54.32000 43.11500
H  1.08600 52.53200 43.24200
H  4.88100 49.64600 40.88200
H  2.80100 47.22700 38.22600
H  4.40900 46.41800 38.24900
H  4.11400 47.61900 37.08600
Mg -12.31600 16.64600 41.01700
C  -9.65600 14.41600 40.83700
C  -10.55000 19.04500 39.19500
C  -15.10300 18.39700 40.75900
C  -14.12900 13.87200 42.46900
N  -10.34900 16.69200 40.06000
C  -9.39800 15.70000 40.17900
C  -8.08500 16.13700 39.59500
C  -8.35800 17.71300 39.35400
C  -9.85600 17.87600 39.47000
C  -7.60900 18.69900 40.17900
C  -7.65300 15.42600 38.25700
C  -6.10300 15.36200 37.96400
H  -5.61000 16.13900 36.73300
N  -12.79000 18.51700 40.14800
C  -11.88600 19.35000 39.45900
C  -12.67900 20.42600 38.92400
C  -13.97400 20.31200 39.48100
C  -14.03700 19.00900 40.08900
C  -12.26200 21.41800 37.97100
C  -15.03500 21.56500 39.45200
O  -14.66100 22.63400 39.01600
C  -16.48100 21.45000 39.98900
N  -14.23400 16.18800 41.57500
C  -15.24100 17.12100 41.37500
C  -16.57000 16.73000 42.14200
C  -16.20400 15.36400 42.79300
C  -14.80200 15.05200 42.23100
C  -16.99800 17.78600 43.17700
C  -17.22000 14.27700 42.45000
C  -17.77600 13.57800 43.77800
N  -11.97600 14.57600 41.58400
C  -12.82600 13.59800 42.07700
C  -12.06700 12.44600 42.46900
C  -10.77400 12.70900 42.04500
C  -10.82300 14.01800 41.42600
C  -12.57900 11.16700 43.15000
C  -9.40200 12.25500 41.83100
O  -8.90800 11.18700 42.21300
C  -8.64000 13.33200 41.02700
C  -7.41300 13.87200 41.80400
O  -7.57900 14.57000 42.80700
O  -6.22600 13.58400 41.15900
C  -4.99600 14.22200 41.68000
H  -9.98900 19.71000 38.53500
H  -16.04700 18.94100 40.68300
H  -14.74700 13.15100 43.00800
H  -7.24800 16.15300 40.29200
H  -8.12600 17.96900 38.32100
H  -7.46400 19.63300 39.63500
H  -6.64300 18.24500 40.40100
H  -8.14700 18.87100 41.11100
H  -8.19000 15.82800 37.39700
H  -8.03800 14.41400 38.38400
H  -5.69900 14.34900 37.97900
H  -5.63600 15.87900 38.80200
H  -12.82500 21.41100 37.03800
H  -11.17600 21.39400 37.87700
H  -12.23400 22.37800 38.48500
H  -17.06900 20.62300 39.59200
H  -17.08900 22.34300 39.84700
H  -16.43000 21.31200 41.06900
H  -17.43300 16.71800 41.47500
H  -16.21400 15.50300 43.87400
H  -17.66400 18.52100 42.72400
H  -16.15700 18.43700 43.41500
H  -17.51200 17.45100 44.07800
H  -16.74000 13.53500 41.81200
H  -18.04200 14.76900 41.92900
H  -18.61200 14.15500 44.17200
H  -17.08000 13.47100 44.61000
H  -18.00100 12.54500 43.51200
H  -12.80500 10.48100 42.33300
H  -13.49500 11.34600 43.71300
H  -11.81100 10.73600 43.79300
H  -8.35200 13.08000 40.00700
H  -4.11000 13.62600 41.46300
H  -4.92400 14.29100 42.76500
H  -4.68900 15.17600 41.25100

