158

Mg 40.44700 9.61900 29.69700
C  42.20200 10.88400 32.43100
C  38.04800 8.74600 31.83000
C  38.90100 8.21700 27.04600
C  42.95600 10.70000 27.51700
N  40.10800 9.94200 31.87400
C  40.88200 10.50000 32.77500
C  40.30300 10.50900 34.15000
C  38.91600 9.72700 33.99900
C  39.02800 9.38800 32.48100
C  38.73100 8.54600 34.97500
C  40.22400 11.89100 34.80700
C  39.53600 11.90800 36.24700
H  40.33000 12.52800 37.34300
N  38.76100 8.54700 29.50100
C  37.86900 8.41100 30.46800
C  36.79100 7.59000 30.01500
C  36.92200 7.42500 28.62400
C  38.19400 8.06500 28.29700
C  35.62900 7.03400 30.92700
C  36.01200 6.73300 27.58400
O  36.29900 6.50100 26.42000
C  34.63200 6.29000 28.00100
N  40.95600 9.38200 27.57400
C  40.09200 8.86700 26.67800
C  40.47900 9.11500 25.19600
C  41.69100 10.09900 25.41300
C  41.86700 10.08400 26.91800
C  40.84500 7.75700 24.41200
C  41.44700 11.55800 24.93200
C  40.29300 12.33500 25.60500
N  42.23800 10.55000 29.94700
C  43.17700 10.90700 28.89100
C  44.32200 11.53100 29.58700
C  43.95600 11.56800 30.94200
C  42.70200 10.91700 31.11800
C  45.56200 11.97400 28.92600
C  44.39200 11.96500 32.21300
O  45.40400 12.58700 32.51000
C  43.33600 11.45000 33.29200
C  43.97700 10.48100 34.28900
O  44.26700 9.30200 34.17200
O  44.02600 11.04500 35.52000
C  44.33500 10.25100 36.75800
H  37.26900 8.52700 32.56300
H  38.24100 7.91600 26.23000
H  43.65700 11.00300 26.73600
H  40.97600 9.98100 34.82600
H  38.11300 10.42800 34.22600
H  37.83300 8.77300 35.54900
H  39.53500 8.46300 35.70700
H  38.57100 7.57800 34.49900
H  39.78200 12.56300 34.07100
H  41.22600 12.29400 34.95400
H  39.22100 10.92600 36.60000
H  38.73900 12.59000 35.94900
H  35.81800 5.96200 30.98800
H  34.64700 7.37200 30.59600
H  35.68000 7.39000 31.95600
H  34.05500 5.95200 27.14000
H  33.99700 6.98500 28.54900
H  34.99900 5.50000 28.65700
H  39.64600 9.58600 24.67200
H  42.57400 9.64200 24.96800
H  40.32700 7.64700 23.46000
H  40.70000 6.80200 24.91700
H  41.91000 7.69100 24.18700
H  41.25000 11.56300 23.86000
H  42.38600 12.06800 25.15000
H  39.71900 11.59100 26.15800
H  39.64000 12.88400 24.92600
H  40.71400 13.05700 26.30500
H  45.74000 11.42900 27.99900
H  46.38900 11.78100 29.60900
H  45.55100 13.05100 28.75900
H  42.99600 12.35000 33.80300
H  45.36800 10.33300 37.09500
H  44.07600 9.19800 36.64700
H  43.65100 10.69400 37.48200
Mg 47.63400 16.71700 29.07900
C  45.55800 16.22200 31.93700
C  49.95200 18.16300 31.04800
C  49.31700 17.39900 26.24000
C  44.78600 15.68200 27.13000
N  47.62200 17.12800 31.21600
C  46.73800 16.86500 32.23500
C  47.32500 17.20500 33.58900
C  48.46300 18.17800 33.16200
C  48.75700 17.78700 31.73100
C  48.21000 19.69300 33.35500
C  47.70900 15.85900 34.25100
C  47.49500 15.87100 35.71800
H  47.31000 17.26200 36.35400
N  49.33700 17.67300 28.73100
C  50.20300 18.21500 29.64800
C  51.32700 18.86100 29.00900
C  51.06600 18.65800 27.58600
C  49.83200 17.94700 27.45100
C  52.44200 19.38200 29.84600
C  51.88200 19.13200 26.40200
O  51.58400 19.09500 25.25700
C  53.22100 19.77500 26.68700
N  47.16900 16.54000 27.01800
C  48.06200 16.82300 26.06200
C  47.49400 16.54700 24.69600
C  46.04500 16.07100 24.95600
C  45.98200 16.06100 26.45600
C  47.57000 17.76000 23.75500
C  45.71200 14.73500 24.30600
C  44.53100 14.77200 23.28000
N  45.62300 15.90000 29.41000
C  44.63400 15.56100 28.59000
C  43.43600 15.13900 29.38400
C  43.81300 15.37000 30.68300
C  45.07600 15.91700 30.64000
C  42.15600 14.54300 28.93900
C  43.33900 15.21300 32.05200
O  42.37800 14.66500 32.46200
C  44.40200 15.89500 32.91700
C  43.69100 17.02600 33.62400
O  43.36300 18.08700 33.09000
O  43.66400 16.86200 35.01200
C  42.98300 17.96100 35.74600
H  50.75000 18.60800 31.64600
H  49.89600 17.45600 25.31600
H  43.90400 15.38700 26.55800
H  46.48000 17.62700 34.13300
H  49.42200 17.92000 33.61100
H  48.99900 20.09600 33.99100
H  47.25700 19.90800 33.83900
H  48.34700 20.25800 32.43300
H  48.73400 15.55000 34.04400
H  47.16800 14.97900 33.90300
H  48.33500 15.34800 36.17400
H  46.75900 15.16700 36.10500
H  52.08600 20.20800 30.46100
H  53.29100 19.71800 29.25200
H  52.70200 18.72100 30.67300
H  53.97700 19.08900 27.06600
H  53.22600 20.57000 27.43300
H  53.49600 20.20800 25.72500
H  48.09500 15.73900 24.28100
H  45.33900 16.81200 24.58200
H  48.38500 17.63400 23.04300
H  47.77100 18.66400 24.32900
H  46.65500 17.94400 23.19100
H  45.49500 14.02900 25.10700
H  46.60300 14.38800 23.78300
H  44.83200 15.11800 22.29100
H  43.82000 15.52000 23.63000
H  44.19600 13.74200 23.15200
H  42.26900 13.46100 28.87300
H  41.92100 14.79800 27.90600
H  41.33400 14.87100 29.57500
H  44.73000 15.24300 33.72600
H  41.91800 17.95600 35.51700
H  43.36400 18.97200 35.60700
H  43.12500 17.67300 36.78800

