158

Mg 27.17800 50.63600 26.26800
C  25.16000 51.53600 29.05100
C  29.42000 49.29600 28.45300
C  29.13000 49.66800 23.56400
C  24.82300 51.99000 24.21800
N  27.34500 50.57700 28.58000
C  26.36700 50.82000 29.51700
C  26.88800 50.63600 30.94600
C  28.25400 49.98300 30.69700
C  28.35600 49.89300 29.14800
C  29.54300 50.69300 31.30900
C  25.89800 49.81400 31.79800
C  25.40900 50.52600 33.00800
H  24.89100 49.75400 34.24400
N  28.99800 49.55100 26.00100
C  29.80300 49.18300 27.06000
C  31.08900 48.71700 26.47800
C  30.85600 48.65600 25.08000
C  29.59600 49.31100 24.79700
C  32.18600 48.09500 27.38200
C  31.89600 48.12800 24.05500
O  31.67500 47.99100 22.86100
C  33.31600 47.80300 24.53000
N  27.11000 50.98900 24.16800
C  27.94800 50.41900 23.28300
C  27.55700 50.89200 21.87600
C  26.14100 51.45500 22.07500
C  25.99100 51.48500 23.55900
C  28.60700 51.75700 21.14100
C  24.93000 50.67300 21.37000
C  24.05400 49.66600 22.12500
N  25.38400 51.70100 26.51600
C  24.54700 52.20000 25.60600
C  23.29300 52.64000 26.22900
C  23.49800 52.51500 27.63500
C  24.82900 51.95400 27.69700
C  22.03800 53.13000 25.53000
C  23.02900 52.73300 28.95400
O  21.94300 53.16200 29.33400
C  24.03000 52.17800 29.91100
C  24.59100 53.23500 30.80800
O  25.64700 53.79600 30.67400
O  23.64400 53.55300 31.76700
C  23.98400 54.68300 32.60100
H  30.16400 48.91100 29.15400
H  29.62000 49.40500 22.62500
H  24.12800 52.51200 23.55800
H  26.99100 51.61400 31.41600
H  28.18700 48.94800 31.03300
H  29.14000 51.33600 32.09100
H  29.91100 51.35800 30.52600
H  30.26300 49.96900 31.69000
H  26.25800 48.84500 32.14400
H  25.10800 49.51200 31.11000
H  24.58000 51.14800 32.67200
H  26.12300 51.16000 33.53300
H  32.21800 47.00500 27.36300
H  32.02100 48.33900 28.43200
H  33.18600 48.48100 27.18500
H  33.79700 48.76100 24.73000
H  33.71100 47.31200 23.64100
H  33.29600 47.03800 25.30500
H  27.43500 49.97800 21.29600
H  26.15900 52.48800 21.72700
H  29.55900 51.72600 21.67100
H  28.18600 52.73900 20.92600
H  28.88000 51.34000 20.17200
H  25.34000 50.19100 20.48300
H  24.31400 51.46000 20.93500
H  23.99600 48.78700 21.48300
H  23.06000 50.04500 22.36300
H  24.46600 49.41000 23.10100
H  21.14400 52.73700 26.01500
H  21.98000 52.72200 24.52100
H  22.05700 54.21700 25.46400
H  23.53400 51.41500 30.51100
H  23.16600 55.04700 33.22300
H  24.39600 55.50800 32.01900
H  24.76400 54.35400 33.28800
Mg -2.26600 34.11900 25.96700
C  -4.18100 32.91600 28.77100
C  -1.18000 36.62900 28.12500
C  -1.02300 35.55600 23.29600
C  -4.03700 31.79900 23.98100
N  -2.75600 34.70900 28.24900
C  -3.32000 33.92700 29.16400
C  -2.88500 34.35700 30.56900
C  -2.14400 35.72000 30.33700
C  -1.89100 35.63700 28.81900
C  -2.73900 37.02900 30.77500
C  -1.98000 33.27300 31.25300
C  -2.50700 32.75100 32.60800
H  -2.80200 33.77900 33.65200
N  -1.15400 35.87000 25.73000
C  -0.87400 36.75000 26.68800
C  -0.13600 37.83100 26.06200
C  -0.11600 37.55300 24.68000
C  -0.73200 36.28500 24.48100
C  0.45800 38.94300 26.90700
C  0.53300 38.30500 23.56500
O  0.69600 37.86900 22.44800
C  1.10900 39.67000 23.79400
N  -2.52100 33.73200 23.96800
C  -1.78600 34.42500 23.04400
C  -2.02900 33.87300 21.60500
C  -2.76000 32.52900 21.88100
C  -3.14100 32.68600 23.34700
C  -2.82700 34.80000 20.69500
C  -1.96200 31.22800 21.57500
C  -0.43400 31.05600 21.84900
N  -3.77300 32.66100 26.24900
C  -4.34600 31.79500 25.35500
C  -5.33900 31.01500 25.99900
C  -5.18100 31.35400 27.32700
C  -4.31700 32.41000 27.45600
C  -6.35700 30.11400 25.40400
C  -5.69900 31.04700 28.67600
O  -6.56000 30.18100 29.06200
C  -4.94900 31.95800 29.62900
C  -5.93000 32.63200 30.56000
O  -6.38100 33.72600 30.45400
O  -6.11800 31.87700 31.70800
C  -7.00300 32.47800 32.67100
H  -0.79700 37.27400 28.91900
H  -0.61700 36.03000 22.40000
H  -4.62000 31.08500 23.39500
H  -3.70400 34.62600 31.23600
H  -1.14800 35.70900 30.77800
H  -2.99200 37.84300 30.09500
H  -2.10700 37.22700 31.64100
H  -3.75600 36.86600 31.13200
H  -0.94500 33.61500 31.29200
H  -2.00900 32.34000 30.69000
H  -1.62900 32.22100 32.97700
H  -3.37000 32.09500 32.49300
H  0.09700 39.92000 26.58600
H  1.54300 38.99600 26.81700
H  0.24400 38.84200 27.97100
H  1.67300 39.51700 24.71300
H  0.25800 40.35100 23.78100
H  1.77400 39.85200 22.95000
H  -1.10100 33.54400 21.13700
H  -3.73900 32.44500 21.41000
H  -3.25100 35.66600 21.20400
H  -3.71700 34.41100 20.20000
H  -2.21100 35.28400 19.93700
H  -1.89200 31.18000 20.48800
H  -2.66000 30.45000 21.88300
H  -0.16900 30.20600 22.47700
H  -0.10500 31.94700 22.38300
H  0.14700 31.00600 20.92800
H  -7.04100 30.61200 24.71700
H  -6.97600 29.85000 26.26200
H  -5.94500 29.16900 25.04900
H  -4.30700 31.41700 30.32300
H  -8.00600 32.41200 32.24900
H  -6.70800 33.50800 32.87000
H  -6.94500 31.86100 33.56800

