158

Mg 9.39500 47.49300 25.74400
C  7.39800 47.68100 28.55200
C  11.89200 49.03700 27.44700
C  11.22900 47.68300 22.85400
C  6.54700 47.03900 23.80500
N  9.60000 48.25100 27.78300
C  8.68900 48.08400 28.86100
C  9.30800 48.54000 30.18500
C  10.68100 49.20300 29.70400
C  10.72200 48.83600 28.22800
C  10.78000 50.78900 29.98300
C  9.54100 47.36000 31.12000
C  9.32300 47.59700 32.58800
H  8.89100 46.43600 33.41000
N  11.37800 48.11500 25.19600
C  12.29400 48.67800 26.13900
C  13.56000 48.76300 25.47700
C  13.39900 48.29700 24.13300
C  12.00900 48.02000 24.00300
C  14.82400 49.29700 26.04200
C  14.41300 48.20100 22.97500
O  14.06600 47.85700 21.82400
C  15.94000 48.26300 23.20400
N  8.94800 47.35100 23.73800
C  9.81900 47.56900 22.73200
C  9.22800 47.01800 21.30200
C  7.76700 46.77300 21.59100
C  7.76600 47.04200 23.12900
C  9.58600 47.84300 20.03800
C  7.38000 45.27800 21.33100
C  8.15100 44.26500 22.23400
N  7.31900 47.31700 26.03200
C  6.27100 47.19200 25.15800
C  5.03100 46.94100 25.91100
C  5.41400 47.18300 27.22000
C  6.80200 47.47300 27.26800
C  3.68600 46.73500 25.44000
C  4.91800 47.19600 28.58300
O  3.73700 47.04300 28.98100
C  6.21000 47.41900 29.55200
C  6.31700 46.11500 30.14500
O  6.81900 45.14500 29.67100
O  5.71600 46.18900 31.37600
C  5.44400 44.85800 31.99000
H  12.78400 49.37200 27.98000
H  11.74400 47.47400 21.91400
H  5.60100 46.79600 23.31600
H  8.54000 49.24600 30.50300
H  11.57100 48.71900 30.10600
H  9.98000 51.19500 30.60100
H  10.67300 51.30000 29.02600
H  11.75900 51.03500 30.39500
H  10.59500 47.11800 30.98300
H  9.16000 46.44100 30.67600
H  8.57300 48.38700 32.54300
H  10.18400 48.06000 33.06900
H  14.61900 49.78700 26.99400
H  15.52300 49.96800 25.54400
H  15.42200 48.39600 26.17600
H  16.20700 47.42700 23.85000
H  16.24400 49.24000 23.57900
H  16.44500 48.16100 22.24300
H  9.64600 46.01400 21.21800
H  7.12800 47.46300 21.03900
H  8.72900 48.46800 19.79000
H  10.02100 47.34800 19.16900
H  10.36400 48.49100 20.44100
H  7.66200 45.21600 20.28000
H  6.30500 45.10200 21.31300
H  8.63200 43.46700 21.67000
H  7.28600 43.84600 22.74900
H  8.81800 44.70500 22.97500
H  3.56800 46.37300 24.41900
H  3.29600 47.75000 25.36800
H  3.21100 46.03100 26.12400
H  5.84200 48.21400 30.20100
H  4.37500 44.68500 31.86800
H  5.69500 44.95100 33.04700
H  6.03100 44.04600 31.56200
Mg -12.50600 38.31000 41.15000
C  -10.24400 35.62800 40.41600
C  -10.44100 40.35300 39.50200
C  -14.96000 40.39000 41.27300
C  -14.54500 35.90500 42.73700
N  -10.71700 38.01200 39.87500
C  -9.95200 36.84100 39.75900
C  -8.71000 37.12200 38.88900
C  -8.66000 38.64400 38.86200
C  -10.00600 39.03600 39.48500
C  -7.48900 39.21100 39.58600
C  -8.72400 36.35200 37.54900
C  -7.71300 35.20400 37.21200
H  -6.57900 35.59400 36.20300
N  -12.67000 40.13700 40.55700
C  -11.67400 40.88300 39.97100
C  -12.11500 42.26700 39.82700
C  -13.39600 42.33700 40.46700
C  -13.77300 40.90000 40.75300
C  -11.38000 43.32900 39.18500
C  -14.13600 43.59100 40.70100
O  -13.71400 44.66600 40.37300
C  -15.40600 43.64700 41.40900
N  -14.52000 38.06600 41.72200
C  -15.32800 39.15500 41.79500
C  -16.66800 38.98900 42.50900
C  -16.51800 37.53700 42.92400
C  -15.06500 37.12000 42.53400
C  -16.84600 40.09000 43.66000
C  -17.41800 36.49700 42.18400
C  -18.68500 36.10400 42.95900
N  -12.46500 36.08000 41.49200
C  -13.34300 35.40700 42.29900
C  -12.76100 34.07700 42.46700
C  -11.58900 34.05300 41.66600
C  -11.47400 35.31100 41.05200
C  -13.38900 32.95900 43.27700
C  -10.43900 33.24500 41.18600
O  -10.24900 32.03200 41.31200
C  -9.44400 34.34900 40.51500
C  -8.12400 34.39500 41.19900
O  -7.29000 33.49600 41.10700
O  -7.98300 35.62300 41.84800
C  -6.71700 35.65800 42.67000
H  -9.88300 41.12200 38.96300
H  -15.69900 41.18500 41.39500
H  -15.13800 35.21100 43.33500
H  -7.94500 36.79400 39.59300
H  -8.76700 38.97800 37.83000
H  -7.51700 38.80800 40.59800
H  -7.35900 40.28400 39.72800
H  -6.66300 38.77200 39.02500
H  -8.57100 37.07500 36.74800
H  -9.71400 35.99300 37.26600
H  -8.23500 34.31400 36.86000
H  -7.14300 34.85200 38.07200
H  -11.82400 43.91400 38.38000
H  -10.46900 43.12400 38.62200
H  -11.20600 44.03500 39.99700
H  -15.48000 44.69100 41.71300
H  -15.37800 43.14300 42.37500
H  -16.29100 43.28700 40.88300
H  -17.28200 39.10500 41.61600
H  -16.53800 37.41000 44.00700
H  -17.13800 39.79300 44.66700
H  -17.67900 40.63000 43.21000
H  -15.97400 40.74300 43.68400
H  -16.96100 35.53700 41.94300
H  -17.87200 36.97400 41.31600
H  -18.76100 35.01900 42.88400
H  -19.57900 36.29100 42.36500
H  -18.74100 36.43300 43.99700
H  -13.00800 31.98600 42.96900
H  -14.46800 33.11100 43.26300
H  -13.03600 33.08900 44.30000
H  -9.17700 34.07000 39.49600
H  -6.72200 36.65300 43.11400
H  -5.88600 35.58800 41.96700
H  -6.63600 35.08400 43.59300

