158

Mg 9.45100 4.21500 28.08500
C  10.66200 2.64000 30.92600
C  7.58700 6.33000 30.18800
C  8.17900 5.75200 25.38500
C  10.73400 1.69700 26.11600
N  9.15500 4.39500 30.29000
C  9.77300 3.66000 31.26100
C  9.38700 4.05500 32.71200
C  8.54100 5.37700 32.38500
C  8.42700 5.39500 30.83100
C  7.17700 5.52400 33.17000
C  10.55300 4.34000 33.71300
C  10.29200 5.26200 34.87100
H  10.76200 4.79500 36.22500
N  7.96800 5.82100 27.84100
C  7.33900 6.52800 28.81700
C  6.39600 7.40000 28.18900
C  6.66600 7.32300 26.82400
C  7.59800 6.25700 26.62100
C  5.48600 8.31200 29.00400
C  6.12800 8.21000 25.80000
O  6.38500 8.04400 24.59800
C  5.00500 9.17000 26.07900
N  9.48200 3.77300 26.01800
C  8.96000 4.61700 25.09700
C  9.37700 4.16500 23.70000
C  10.09100 2.78800 23.92400
C  10.17800 2.77500 25.44400
C  8.19100 4.14400 22.68500
C  11.50700 2.61500 23.18600
C  11.50800 1.55300 22.16500
N  10.50500 2.49200 28.42800
C  11.00200 1.58200 27.51000
C  11.88000 0.63600 28.18000
C  11.67500 0.98900 29.53500
C  10.88000 2.17900 29.62400
C  12.54300 -0.60200 27.56200
C  12.03600 0.58300 30.85400
O  12.65200 -0.34100 31.19900
C  11.38700 1.62500 31.87600
C  10.47500 0.91400 32.82200
O  9.37400 0.38000 32.56500
O  11.02900 0.97800 34.07300
C  10.28900 0.33600 35.12100
H  7.20000 7.03200 30.92900
H  7.88200 6.26800 24.46900
H  11.09300 0.88900 25.47500
H  8.82800 3.19700 33.08700
H  9.16500 6.23000 32.65200
H  6.93400 4.69800 33.83900
H  6.37300 5.55200 32.43500
H  7.23300 6.49900 33.65200
H  11.41300 4.63300 33.11100
H  10.89500 3.41500 34.17900
H  9.25700 5.60000 34.91400
H  10.91600 6.12100 34.62100
H  5.49400 7.98200 30.04300
H  4.48600 8.25600 28.57300
H  5.90800 9.31400 28.92600
H  4.09000 8.76500 26.51000
H  4.86900 9.61400 25.09200
H  5.30100 10.03200 26.67800
H  10.13900 4.92900 23.54900
H  9.36400 2.03200 23.62600
H  7.26500 4.00200 23.24300
H  8.21800 3.38000 21.90800
H  8.12400 5.07900 22.13000
H  12.35600 2.44600 23.84800
H  11.61200 3.56700 22.66600
H  11.25300 1.93100 21.17500
H  10.76200 0.77400 22.32400
H  12.45800 1.02000 22.12300
H  12.77700 -0.46900 26.50600
H  11.93500 -1.50600 27.60300
H  13.52100 -0.82300 27.99000
H  12.09700 2.22200 32.44800
H  10.23800 1.07900 35.91600
H  10.96200 -0.46400 35.43000
H  9.30700 -0.09700 34.93000
Mg 9.44100 48.03200 25.08900
C  7.28300 48.58300 27.74100
C  12.02100 48.94300 27.19300
C  11.55200 47.65100 22.64100
C  6.73000 47.76500 22.92300
N  9.63600 48.57800 27.28400
C  8.58900 48.67300 28.18400
C  9.10000 48.94500 29.53900
C  10.56200 49.42900 29.26400
C  10.79500 48.96100 27.81900
C  10.72000 50.96200 29.43300
C  8.98600 47.82800 30.57200
C  9.47700 48.13800 31.97600
H  8.94900 47.20700 33.10500
N  11.56400 48.26100 25.00200
C  12.43800 48.65300 25.90400
C  13.81600 48.50200 25.37600
C  13.73000 47.93100 24.03100
C  12.25400 47.92600 23.83900
C  14.95400 48.73400 26.19700
C  14.77900 47.44900 23.07200
O  14.45300 47.00000 21.94900
C  16.17400 47.41400 23.54600
N  9.20400 47.69500 23.13500
C  10.21600 47.61700 22.24200
C  9.76600 47.11700 20.85200
C  8.20200 47.30100 20.89700
C  7.99800 47.54100 22.39900
C  10.52700 47.69100 19.57500
C  7.44500 46.03000 20.34500
C  6.53100 46.34600 19.11400
N  7.34500 48.22900 25.23300
C  6.36100 47.98300 24.27200
C  5.04700 48.39700 24.89700
C  5.42200 48.43300 26.22400
C  6.82600 48.34600 26.38400
C  3.65900 48.33700 24.30800
C  4.83900 48.59900 27.54300
O  3.66500 48.73400 27.85500
C  6.02100 48.65500 28.62400
C  5.83200 47.43300 29.42500
O  6.02600 46.29800 28.95700
O  5.45600 47.72800 30.69800
C  5.30400 46.56800 31.54800
H  12.72100 49.38300 27.90700
H  12.25800 47.47700 21.82700
H  5.97900 47.83200 22.13300
H  8.46700 49.76200 29.88500
H  11.30200 48.90800 29.87300
H  9.76300 51.39700 29.72200
H  11.21600 51.46600 28.60300
H  11.37500 51.16100 30.28000
H  9.35600 46.97200 30.00800
H  7.95000 47.60300 30.82700
H  9.06200 49.12300 32.18900
H  10.56200 48.13600 31.86800
H  14.66000 48.75300 27.24700
H  15.35900 49.68200 25.84200
H  15.73000 48.00400 25.96700
H  16.62900 46.71600 22.84300
H  16.33200 46.95200 24.52100
H  16.65500 48.37700 23.37600
H  9.98700 46.05300 20.93700
H  7.85600 48.20100 20.38900
H  9.73100 47.91500 18.86600
H  11.08400 46.88700 19.09500
H  11.20300 48.50700 19.83300
H  6.89100 45.54300 21.14700
H  8.16700 45.33300 19.92100
H  5.53700 45.91200 19.22500
H  6.92200 45.89100 18.20500
H  6.35600 47.42000 19.03800
H  3.25300 49.31300 24.57300
H  3.08600 47.51300 24.73400
H  3.46900 48.50500 23.24800
H  5.83400 49.47600 29.31500
H  4.26900 46.24200 31.64900
H  5.70500 46.76200 32.54300
H  5.90400 45.69100 31.30500

