158

Mg -1.81600 17.07400 27.18000
C  -2.56000 14.94100 30.09900
C  -2.57300 19.66500 29.11200
C  -1.67100 18.80400 24.47300
C  -1.62600 14.10900 25.30800
N  -2.62900 17.22100 29.47700
C  -2.62800 16.29300 30.46800
C  -3.02800 16.91500 31.84000
C  -3.01800 18.55300 31.43700
C  -2.69400 18.48700 29.91700
C  -4.22600 19.46800 31.92900
C  -2.12800 16.46800 33.05800
C  -1.46800 17.42800 34.05900
H  -1.14500 16.80100 35.42600
N  -1.81700 19.03900 26.88400
C  -2.17400 19.90400 27.78900
C  -2.24900 21.23000 27.09600
C  -1.83600 21.02000 25.75000
C  -1.76500 19.56900 25.62800
C  -2.86200 22.45200 27.69400
C  -1.62200 22.01800 24.64600
O  -1.43300 21.72400 23.48700
C  -1.55600 23.36200 25.06500
N  -1.66900 16.50400 25.25100
C  -1.61000 17.42400 24.22900
C  -1.33500 16.86400 22.79900
C  -1.09500 15.39100 23.20300
C  -1.43300 15.31600 24.69400
C  -2.43700 17.02400 21.68600
C  0.31800 14.80100 22.95000
C  1.65000 15.38700 23.51200
N  -2.19600 14.98800 27.58000
C  -2.03500 13.87300 26.67900
C  -2.25200 12.66300 27.41100
C  -2.36900 12.98600 28.74200
C  -2.32200 14.44800 28.79900
C  -2.17600 11.29600 26.75000
C  -2.61400 12.46600 30.04200
O  -2.76300 11.29400 30.36700
C  -2.51800 13.77100 30.97700
C  -1.22900 13.81700 31.70200
O  -0.17000 14.26700 31.32300
O  -1.53500 13.27700 32.89500
C  -0.49500 13.18000 33.92700
H  -2.81200 20.58000 29.65800
H  -1.52500 19.30300 23.51300
H  -1.32200 13.21300 24.76200
H  -4.05800 16.69200 32.11800
H  -2.21000 19.13100 31.88700
H  -4.61300 19.88100 30.99800
H  -3.72200 20.29000 32.43800
H  -5.05500 19.03000 32.48500
H  -1.21500 16.18500 32.53500
H  -2.51900 15.59500 33.58100
H  -2.07500 18.32600 34.16700
H  -0.55700 17.68700 33.51900
H  -2.14800 23.26400 27.82700
H  -3.31000 22.29200 28.67500
H  -3.62500 22.74800 26.97500
H  -0.83700 23.42200 25.88200
H  -2.59100 23.66800 25.21500
H  -1.31300 24.02300 24.23400
H  -0.41800 17.30000 22.40200
H  -1.76800 14.71500 22.67600
H  -3.00800 17.94700 21.79000
H  -3.05900 16.12900 21.65600
H  -2.01000 17.00800 20.68300
H  0.51500 14.90400 21.88300
H  0.16000 13.73200 23.09400
H  2.19100 15.78700 22.65500
H  2.38000 14.69100 23.92400
H  1.34200 16.21200 24.15400
H  -1.57300 11.40000 25.84800
H  -3.16000 11.05600 26.34700
H  -1.68300 10.48500 27.28700
H  -3.40100 13.90500 31.60100
H  0.20300 14.01600 33.96700
H  0.00100 12.22200 33.77000
H  -0.97400 13.07700 34.90000
Mg 36.23300 49.03300 25.40900
C  36.40900 46.96600 28.23000
C  34.78700 51.41400 27.49000
C  35.90400 50.95700 22.68900
C  37.22400 46.29400 23.44800
N  35.49300 49.06100 27.61600
C  35.96400 48.25600 28.55800
C  35.57600 48.74800 29.99900
C  34.91400 50.17500 29.68700
C  35.03000 50.19600 28.14400
C  33.43000 50.47300 30.20800
C  36.81600 48.85000 30.89600
C  36.57000 48.44700 32.35500
H  36.67300 49.52400 33.51000
N  35.56500 50.97100 25.16500
C  34.92400 51.77800 26.11400
C  34.60300 53.03800 25.39800
C  35.10500 52.95400 24.05400
C  35.51400 51.55000 23.91800
C  33.95000 54.18500 26.20500
C  34.99700 54.03900 23.02400
O  35.39100 53.84100 21.89800
C  34.35800 55.36900 23.33900
N  36.53900 48.64500 23.36800
C  36.29500 49.62000 22.47500
C  36.56600 48.97300 21.06700
C  37.23400 47.61300 21.32000
C  37.04000 47.52700 22.81100
C  35.35400 48.86200 20.11800
C  38.66000 47.57700 20.83800
C  39.11500 46.17100 20.34300
N  36.79000 46.99000 25.74300
C  37.14600 45.98300 24.81100
C  37.46900 44.72800 25.56500
C  37.10200 45.01400 26.90700
C  36.75500 46.39500 26.96800
C  38.03900 43.44100 24.89700
C  37.07700 44.53100 28.24600
O  37.48500 43.45000 28.70500
C  36.65100 45.80200 29.20200
C  35.45700 45.45200 30.02300
O  34.29400 45.46400 29.63100
O  35.91600 45.26600 31.32100
C  34.99600 44.79500 32.32900
H  34.44000 52.21900 28.14000
H  35.70500 51.53400 21.78300
H  37.52200 45.44700 22.82700
H  34.81900 48.03700 30.32800
H  35.57900 50.95400 30.06000
H  32.87100 49.65700 30.66500
H  32.88400 50.78200 29.31700
H  33.41000 51.42700 30.73600
H  37.31700 49.81100 31.01500
H  37.55100 48.12700 30.54200
H  37.31200 47.69800 32.63200
H  35.60900 47.95000 32.49600
H  33.00600 54.57500 25.82500
H  34.67100 54.99900 26.27200
H  33.68700 53.90100 27.22400
H  34.69300 56.06200 22.56700
H  34.88000 55.60300 24.26700
H  33.28300 55.33300 23.51300
H  37.24800 49.68900 20.60800
H  36.72100 46.78400 20.83100
H  34.64700 49.58800 20.52100
H  34.97800 47.85900 19.92000
H  35.71400 49.35200 19.21300
H  39.32100 47.93100 21.63000
H  38.82700 48.28700 20.02700
H  39.88000 45.80000 21.02400
H  39.61700 46.38400 19.39900
H  38.29900 45.46300 20.20100
H  38.79000 43.60200 24.12400
H  37.28900 42.75500 24.50400
H  38.47100 42.88300 25.72700
H  37.51400 46.01200 29.83500
H  34.33500 44.06900 31.85600
H  34.39200 45.60700 32.73600
H  35.59200 44.36400 33.13400

