158

Mg 49.06100 45.81500 43.15200
C  45.63000 45.74900 42.21900
C  49.09400 42.51800 42.28600
C  52.49400 46.06300 42.97000
C  48.80900 49.27500 43.63100
N  47.55000 44.34300 42.23100
C  46.23800 44.50900 41.99000
C  45.42300 43.18900 41.64900
C  46.54700 42.21000 41.88600
C  47.78900 43.06100 42.31200
C  46.28700 41.05600 42.82300
C  44.70700 43.07000 40.23000
C  45.39600 43.76200 39.03000
H  45.24600 42.91700 37.75000
N  50.59800 44.50800 42.59600
C  50.38800 43.17100 42.39500
C  51.62300 42.50800 42.23400
C  52.63600 43.49100 42.37600
C  51.95400 44.74700 42.63700
C  51.77100 41.01000 41.86300
C  54.11100 43.18300 42.33400
O  54.45800 41.98700 42.10100
C  55.09200 44.29900 42.46900
N  50.39100 47.50100 43.14000
C  51.78200 47.27700 43.16200
C  52.52100 48.62900 43.33900
C  51.33200 49.63400 43.56900
C  50.11600 48.77500 43.46000
C  53.67500 48.67000 44.32500
C  51.21700 50.73400 42.50600
C  50.74400 52.15800 42.94700
N  47.48100 47.24800 43.17300
C  47.55300 48.61900 43.38800
C  46.22800 49.17500 43.27700
C  45.41000 48.13300 42.76600
C  46.21600 46.94300 42.76500
C  45.82600 50.68500 43.46600
C  44.12100 47.77700 42.16600
O  43.11500 48.44000 41.95600
C  44.15200 46.21500 41.84200
C  43.07000 45.48600 42.62300
O  42.37900 44.53900 42.30200
O  42.90200 46.12100 43.86900
C  41.94400 45.45600 44.76800
H  49.17700 41.47600 41.97100
H  53.56800 46.22300 43.08400
H  48.64800 50.30000 43.97200
H  44.66500 43.15200 42.43100
H  46.84600 41.83000 40.90900
H  46.53100 40.13900 42.28700
H  45.24800 41.05900 43.15400
H  46.82300 41.26800 43.74800
H  43.64900 43.32600 40.29800
H  44.69200 42.00000 40.02500
H  46.47700 43.71900 39.16000
H  45.06000 44.77800 38.82200
H  51.96400 41.01300 40.79000
H  50.96700 40.32000 42.11800
H  52.64800 40.64700 42.40000
H  55.02100 44.69500 41.45600
H  56.06100 43.80100 42.50400
H  54.95600 44.88800 43.37600
H  52.92600 48.87600 42.35700
H  51.39400 50.01500 44.58800
H  53.38500 49.39700 45.08400
H  54.52200 49.00600 43.72800
H  53.81400 47.68200 44.76500
H  50.46100 50.41600 41.78900
H  52.20800 50.90500 42.08500
H  50.41400 52.13200 43.98600
H  49.89400 52.40300 42.31000
H  51.48900 52.93000 42.75600
H  46.66000 51.26300 43.06800
H  45.75400 50.80200 44.54700
H  44.89400 50.82300 42.91700
H  44.10600 45.87300 40.80800
H  42.07400 45.77400 45.80300
H  42.42400 44.47800 44.74400
H  40.93300 45.49600 44.36300
Mg 48.25000 35.13600 27.82700
C  46.43000 33.68200 30.42200
C  48.72000 37.81200 29.67500
C  49.50400 36.54200 25.02900
C  47.82000 32.12800 25.91900
N  47.66500 35.71800 29.83800
C  46.99200 34.90700 30.74800
C  46.99800 35.68400 32.09900
C  47.26200 37.19400 31.72800
C  47.81800 36.96800 30.31500
C  45.98600 38.06900 31.68600
C  48.29200 35.07800 32.77000
C  48.19300 34.93100 34.32100
H  47.42300 35.92600 35.08600
N  49.00700 36.94200 27.42500
C  49.21800 37.92000 28.29200
C  49.98100 39.01500 27.68100
C  50.29600 38.62900 26.33300
C  49.61300 37.34000 26.20100
C  50.42400 40.19100 28.50400
C  51.09800 39.36000 25.32500
O  51.14400 39.01400 24.16500
C  51.73400 40.60500 25.66900
N  48.47800 34.44700 25.66000
C  49.05900 35.30400 24.71700
C  49.34800 34.55100 23.39500
C  49.02000 33.02600 23.79100
C  48.45100 33.13700 25.19600
C  48.55200 35.15800 22.21500
C  50.28500 32.12800 23.69100
C  50.86600 32.00600 22.26200
N  47.27300 33.32700 28.05400
C  47.18300 32.18900 27.20000
C  46.40600 31.10700 27.82700
C  46.08700 31.69900 29.04000
C  46.63400 33.01900 29.16000
C  46.13200 29.70900 27.38400
C  45.37400 31.48100 30.26500
O  44.75200 30.47200 30.53900
C  45.54900 32.70300 31.22500
C  45.97400 32.34600 32.59600
O  46.99800 31.73200 32.91000
O  45.04100 32.76700 33.46200
C  45.07800 32.48000 34.82000
H  48.99800 38.70900 30.23200
H  49.98300 37.00100 24.16200
H  47.64200 31.18700 25.39500
H  46.15400 35.58700 32.78200
H  47.88500 37.80000 32.38400
H  45.14600 37.67500 32.25800
H  45.65500 38.13700 30.64900
H  46.24600 39.05300 32.07500
H  49.24000 35.56000 32.53200
H  48.26800 34.02600 32.48500
H  49.20300 35.02400 34.72000
H  47.77400 33.96700 34.61000
H  51.44400 40.16300 28.88700
H  49.66100 40.58800 29.17400
H  50.16200 40.98500 27.80400
H  52.17900 40.51800 26.66000
H  50.97500 41.37700 25.53900
H  52.45300 40.95600 24.92800
H  50.40700 34.65400 23.15900
H  48.29200 32.55500 23.13100
H  49.30900 35.41000 21.47400
H  47.99200 36.05400 22.48100
H  47.85100 34.44800 21.77500
H  49.96800 31.13600 24.01400
H  51.00600 32.51700 24.41000
H  50.17400 32.45700 21.55100
H  50.78600 30.95600 21.98100
H  51.88100 32.40400 22.25000
H  46.49600 29.41900 26.39800
H  45.08400 29.45300 27.53700
H  46.70400 29.14500 28.12100
H  44.53500 33.10200 31.23000
H  44.34000 31.72700 35.09400
H  44.79100 33.41600 35.29800
H  46.08000 32.17000 35.11700

