158

Mg 2.01400 8.46800 27.25800
C  2.50400 10.55500 30.19300
C  1.92100 5.83900 29.62300
C  1.90800 6.37400 24.78400
C  2.64300 11.12600 25.26200
N  2.03400 8.23200 29.68700
C  2.13500 9.29400 30.60100
C  1.84800 8.80500 32.03200
C  1.76300 7.20000 31.83900
C  1.88600 7.06400 30.34300
C  2.92700 6.45700 32.62500
C  0.49900 9.39000 32.62600
C  0.27700 9.00500 34.05900
H  1.38800 8.48800 35.00600
N  1.93400 6.47500 27.18500
C  1.90400 5.55900 28.23200
C  1.71500 4.23300 27.75300
C  1.63900 4.34200 26.29400
C  1.89800 5.75200 26.02100
C  1.47600 2.99900 28.57500
C  1.44000 3.30100 25.20000
O  1.31000 3.58800 24.01700
C  1.21800 1.84700 25.56100
N  2.42200 8.67900 25.36000
C  2.20300 7.69300 24.47900
C  2.06900 8.24000 23.08500
C  1.96400 9.79300 23.24100
C  2.37200 9.85500 24.72200
C  3.37200 7.88300 22.27600
C  0.64600 10.46300 22.82600
C  0.81800 11.56900 21.78200
N  2.47500 10.45300 27.60300
C  2.77900 11.40100 26.62600
C  3.01900 12.63900 27.35100
C  3.13600 12.30600 28.69600
C  2.70400 10.94300 28.83900
C  3.12400 13.96200 26.76400
C  3.38200 12.94200 29.96200
O  3.55400 14.13400 30.30700
C  2.85900 11.75600 31.00700
C  3.97700 11.40700 31.97700
O  5.05300 10.84500 31.75600
O  3.58700 11.91300 33.18400
C  4.56000 11.66200 34.28200
H  1.63600 5.07300 30.34800
H  2.03800 5.81200 23.85700
H  2.64400 11.91000 24.50300
H  2.69400 9.09500 32.65500
H  0.82200 6.75000 32.15500
H  2.65500 5.75300 33.41100
H  3.60900 7.13500 33.13800
H  3.59800 5.96700 31.91900
H  -0.26200 9.00800 31.94600
H  0.24700 10.44700 32.54500
H  -0.54800 8.29600 34.12600
H  -0.13200 9.86800 34.58500
H  0.39500 2.86000 28.58500
H  1.75200 3.00600 29.62900
H  1.92100 2.09000 28.17000
H  0.78300 1.37500 24.67900
H  0.67500 1.70900 26.49600
H  2.19500 1.37700 25.66900
H  1.12200 7.87600 22.68700
H  2.74300 10.32300 22.69400
H  3.98600 8.78100 22.21200
H  3.05900 7.55800 21.28400
H  3.97300 7.12800 22.78200
H  0.10400 10.77500 23.71900
H  0.05800 9.70200 22.31300
H  1.71900 11.35900 21.20500
H  0.78800 12.56900 22.21600
H  0.00100 11.54300 21.06000
H  2.10100 14.25200 26.52300
H  3.62200 13.82200 25.80500
H  3.63900 14.66000 27.42400
H  1.94000 12.16700 31.42600
H  4.39400 12.26500 35.17500
H  5.56700 11.98400 34.01500
H  4.59700 10.57800 34.39600
Mg 46.86200 34.90700 26.21800
C  45.37700 33.77600 29.00400
C  47.59100 37.91400 27.74200
C  48.12400 36.06800 23.25100
C  46.10800 31.85400 24.59000
N  46.46000 35.74600 28.09500
C  46.04500 35.00300 29.13000
C  46.12200 35.80900 30.43300
C  46.65900 37.23000 29.97100
C  46.95900 36.88100 28.53800
C  45.67500 38.46600 30.05400
C  47.10900 35.11000 31.40600
C  46.81400 35.09700 32.89000
H  45.95800 36.21200 33.49000
N  47.77200 36.79400 25.57200
C  47.88100 37.88900 26.33700
C  48.49400 38.92900 25.56600
C  48.72900 38.41200 24.25000
C  48.27700 37.02200 24.33100
C  48.83900 40.24600 26.13600
C  49.34000 39.12000 23.01900
O  49.52400 38.60300 21.87600
C  50.04700 40.41900 23.22200
N  46.94600 34.14300 24.16200
C  47.68700 34.78800 23.18100
C  47.73700 33.93200 21.92400
C  46.95700 32.59000 22.29100
C  46.74700 32.80100 23.78400
C  47.25700 34.57800 20.63200
C  47.87500 31.34100 22.08300
C  48.56700 31.18100 20.71300
N  45.91200 33.14100 26.63800
C  45.66600 31.98200 25.88800
C  44.95100 31.11400 26.69000
C  44.72600 31.75500 27.87700
C  45.39100 32.99700 27.83300
C  44.62100 29.73800 26.27700
C  44.14400 31.58600 29.17500
O  43.46000 30.70800 29.64700
C  44.59900 32.95400 29.97600
C  45.17800 32.37500 31.20100
O  46.26700 31.81300 31.35700
O  44.20900 32.54000 32.16100
C  44.40900 31.69300 33.33800
H  47.89400 38.78600 28.32400
H  48.42500 36.52300 22.30400
H  45.88500 30.92800 24.05600
H  45.13400 35.83100 30.89200
H  47.53700 37.60800 30.49500
H  44.69300 38.25500 30.47700
H  45.51100 38.91200 29.07300
H  46.08000 39.25100 30.69300
H  48.10100 35.56200 31.38100
H  47.18200 34.09100 31.02700
H  47.81200 35.16100 33.32500
H  46.36100 34.15400 33.19400
H  48.38800 41.11700 25.66000
H  49.89700 40.47900 26.25200
H  48.38000 40.34800 27.12000
H  49.31500 41.22500 23.16700
H  50.84700 40.64800 22.51800
H  50.50000 40.48800 24.21100
H  48.80700 33.81100 21.75200
H  46.05300 32.44200 21.70000
H  46.63400 35.42700 20.91100
H  46.62700 33.81400 20.17400
H  48.08300 34.87400 19.98600
H  47.30300 30.44000 22.30600
H  48.64600 31.30900 22.85200
H  49.28900 30.36800 20.78800
H  49.18900 32.03900 20.45900
H  47.79800 31.03700 19.95400
H  43.60000 29.77500 25.89900
H  44.62800 28.97700 27.05800
H  45.35200 29.40500 25.54000
H  43.67400 33.49100 30.18500
H  44.63100 32.48400 34.05400
H  45.12200 30.86800 33.31000
H  43.40500 31.31700 33.53500

