158

Mg 48.03700 16.41100 28.68200
C  46.09400 16.16900 31.64100
C  50.33500 18.17300 30.39600
C  49.54800 16.70600 25.74200
C  45.18400 14.83700 27.06500
N  48.14300 17.11300 30.73500
C  47.31900 16.83700 31.78800
C  47.82400 17.32500 33.16300
C  49.04100 18.22000 32.70000
C  49.20900 17.82900 31.16300
C  48.98600 19.73000 33.03600
C  48.11000 16.03400 34.06800
C  47.94200 16.14700 35.61600
H  47.49400 17.50000 36.22900
N  49.76700 17.20900 28.13200
C  50.62200 17.90800 29.00200
C  51.90100 18.15300 28.32900
C  51.72900 17.70500 26.95700
C  50.37200 17.19600 26.91400
C  53.18400 18.74000 29.06300
C  52.69200 17.72700 25.87800
O  52.38100 17.26400 24.78400
C  54.06700 18.19600 26.07400
N  47.45000 15.75900 26.75600
C  48.30000 16.12200 25.69100
C  47.64200 15.71600 24.33900
C  46.34500 14.96800 24.75400
C  46.31400 15.19000 26.26600
C  47.52200 16.82600 23.35800
C  46.25700 13.41600 24.50500
C  46.04600 12.95600 23.06400
N  46.14900 15.53300 29.29100
C  45.12000 14.98200 28.45000
C  43.94600 14.78300 29.25800
C  44.30100 15.18000 30.53000
C  45.59500 15.67300 30.47500
C  42.57700 14.25700 28.69000
C  43.75600 15.28900 31.83000
O  42.66500 14.99800 32.38400
C  45.01900 15.77800 32.64600
C  44.57700 16.96100 33.36900
O  44.13800 18.00700 32.87600
O  44.45100 16.60700 34.70700
C  43.50300 17.24100 35.66300
H  51.07600 18.75000 30.95400
H  50.03200 16.71100 24.76300
H  44.34000 14.51200 26.45300
H  46.96800 17.86600 33.56700
H  49.94000 17.78200 33.13400
H  48.86700 20.44100 32.21800
H  49.86200 19.96600 33.64000
H  48.08400 19.89000 33.62600
H  49.13100 15.73500 33.83100
H  47.48500 15.23200 33.67500
H  48.91400 15.91600 36.05300
H  47.17400 15.38000 35.71100
H  53.93800 17.95900 29.15300
H  53.05400 19.05700 30.09700
H  53.47100 19.61900 28.48700
H  54.61500 18.04400 25.14400
H  54.38500 17.56100 26.90200
H  54.01700 19.25700 26.32000
H  48.33700 15.04000 23.84100
H  45.49100 15.51700 24.35800
H  48.21200 16.62800 22.53800
H  47.89800 17.71900 23.85800
H  46.48900 17.00200 23.06000
H  45.77000 12.85400 25.30200
H  47.26700 13.07200 24.72700
H  46.49000 11.96900 22.93000
H  46.47100 13.66400 22.35300
H  44.96200 12.93300 22.95200
H  42.20000 14.77100 27.80600
H  41.87000 14.45100 29.49800
H  42.68400 13.19100 28.48900
H  45.25500 14.99700 33.36700
H  42.80500 16.43800 35.89800
H  42.88800 17.98100 35.15000
H  43.90800 17.60100 36.60900
Mg 5.76200 53.86400 41.26800
C  5.49800 50.44700 40.60200
C  8.99400 53.76700 40.24500
C  5.74900 57.14600 41.45600
C  2.32800 53.86800 42.05700
N  6.99400 52.32000 40.30500
C  6.72700 50.98900 40.18900
C  7.92300 50.31400 39.55300
C  9.11800 51.25700 39.89900
C  8.35000 52.52600 40.11000
C  10.11100 50.79300 40.98700
C  7.96500 49.94000 38.04200
C  7.18000 50.83800 37.05400
H  6.26400 50.12300 36.03200
N  7.13700 55.27000 40.63800
C  8.42400 55.00700 40.41100
C  9.15800 56.28200 40.21800
C  8.25500 57.27800 40.61500
C  6.96700 56.57900 40.91400
C  10.64700 56.36900 39.91200
C  8.55500 58.73400 40.73500
O  9.70200 59.11100 40.57600
C  7.52900 59.86100 41.21500
N  4.22700 55.25500 41.56000
C  4.55900 56.55200 41.79600
C  3.39200 57.29600 42.44200
C  2.24100 56.34700 42.03000
C  3.00300 55.05100 41.95600
C  3.54200 57.65700 43.93900
C  1.56200 56.62300 40.68300
C  -0.02100 56.84100 40.70000
N  4.22300 52.43600 41.44000
C  2.90400 52.60200 41.91500
C  2.29200 51.32100 41.93700
C  3.25500 50.44700 41.45100
C  4.38100 51.18000 41.11200
C  0.89400 50.92000 42.54600
C  3.52400 49.02200 41.22400
O  2.82600 48.04800 41.43700
C  4.98300 48.95800 40.75100
C  5.14700 47.96700 39.70400
O  4.67000 48.01700 38.61400
O  5.66600 46.80700 40.27000
C  5.60100 45.61200 39.38400
H  10.04700 53.59000 40.01700
H  5.75100 58.20200 41.73300
H  1.25300 53.90400 42.24000
H  7.93800 49.42600 40.18500
H  9.82900 51.46300 39.09900
H  9.70800 49.84100 41.33300
H  10.19300 51.38700 41.89700
H  11.07400 50.78100 40.47600
H  7.55600 48.92900 38.03000
H  8.96800 49.95500 37.61700
H  7.96800 51.22900 36.41000
H  6.76500 51.75700 37.46800
H  10.78100 57.21300 39.23500
H  11.02600 55.45400 39.45700
H  11.18600 56.53700 40.84400
H  6.87000 60.05800 40.36900
H  8.09800 60.75100 41.48400
H  7.01000 59.59700 42.13600
H  3.23100 58.26500 41.96800
H  1.46500 56.28500 42.79300
H  3.62500 58.73600 44.06900
H  4.51200 57.38100 44.35200
H  2.71200 57.19000 44.47000
H  1.58900 55.69400 40.11400
H  1.95200 57.49100 40.15200
H  -0.48900 55.87600 40.50700
H  -0.25300 57.46200 39.83500
H  -0.33300 57.37700 41.59700
H  0.51300 51.90300 42.82300
H  0.93800 50.14000 43.30600
H  0.21900 50.61800 41.74500
H  5.52000 48.54800 41.60600
H  6.10400 45.84200 38.44500
H  4.54400 45.40800 39.21200
H  6.15100 44.78900 39.84000

