158

Mg 44.58400 5.45300 47.88300
C  42.35700 8.06600 47.38400
C  42.12200 3.27000 46.91900
C  46.92400 2.87000 47.57400
C  47.25600 7.70600 47.75500
N  42.52500 5.67500 47.07500
C  41.77600 6.81000 47.08000
C  40.35300 6.54300 46.67900
C  40.18300 5.04300 46.62100
C  41.67500 4.61100 46.78000
C  39.13300 4.53200 47.71700
C  39.90100 7.23500 45.33000
C  38.45600 7.50900 45.27200
H  37.75400 6.97500 43.99800
N  44.51300 3.25800 47.52800
C  43.36100 2.65500 47.17400
C  43.71100 1.18300 47.08400
C  45.11700 1.08500 47.09200
C  45.57500 2.44600 47.40200
C  42.73900 0.08500 46.95400
C  45.95400 -0.25400 46.96500
O  45.35400 -1.31100 46.91600
C  47.50000 -0.30400 46.91600
N  46.78200 5.28900 47.64400
C  47.47000 4.10400 47.81100
C  49.00800 4.34600 48.11100
C  48.98800 5.89300 48.32000
C  47.59500 6.33200 47.83400
C  49.57300 3.53800 49.40000
C  50.12500 6.70000 47.67800
C  50.99800 7.51700 48.62400
N  44.80000 7.53800 47.75000
C  45.95200 8.33700 47.77900
C  45.52900 9.77000 47.68100
C  44.13500 9.65800 47.65900
C  43.74700 8.31700 47.63700
C  46.50600 10.84100 47.66200
C  42.89500 10.44600 47.72100
O  42.67500 11.62700 47.77500
C  41.65600 9.36900 47.54300
C  40.84200 9.51600 48.72200
O  41.24500 9.09300 49.80700
O  39.71900 10.13700 48.49700
C  38.91000 10.45100 49.73100
H  41.32000 2.57000 46.67300
H  47.78100 2.25600 47.28900
H  48.04800 8.45800 47.77100
H  39.77900 6.96100 47.50600
H  39.73900 4.58000 45.74000
H  38.30000 5.21700 47.87600
H  39.55800 4.38800 48.71100
H  38.58200 3.64500 47.40700
H  40.18500 6.50400 44.57400
H  40.44500 8.15400 45.11000
H  38.18400 8.55600 45.40500
H  37.92400 6.98600 46.06700
H  42.90900 -0.53100 47.83700
H  42.98000 -0.65600 46.19300
H  41.74900 0.52900 46.84400
H  47.66400 -1.36600 46.73100
H  47.89900 -0.06500 47.90200
H  47.74300 0.28900 46.03500
H  49.61000 4.07800 47.24400
H  48.83700 5.94300 49.39900
H  48.81700 2.92600 49.89100
H  50.11700 4.14600 50.12300
H  50.39100 2.96500 48.96200
H  49.71200 7.23700 46.82300
H  50.88500 6.11700 47.15800
H  50.59000 7.49800 49.63500
H  50.99100 8.58700 48.41600
H  51.99200 7.07800 48.70100
H  47.14200 10.62500 48.52000
H  46.02400 11.81100 47.78000
H  46.97900 10.71500 46.68800
H  41.00800 9.60800 46.70000
H  39.01500 9.76000 50.56800
H  37.85700 10.54900 49.46700
H  39.13500 11.46300 50.06700
Mg 0.79100 43.96700 25.47500
C  2.58300 43.93800 28.50000
C  -2.10600 43.46700 27.31600
C  -0.87300 43.70600 22.53400
C  3.75400 44.61100 23.75300
N  0.29700 43.56400 27.63000
C  1.21700 43.72700 28.70700
C  0.57400 43.40300 30.03300
C  -0.91200 43.12500 29.57000
C  -0.95700 43.42900 28.09100
C  -1.43300 41.61700 29.77500
C  0.64300 44.65500 31.03500
C  1.33900 44.48900 32.40500
H  1.00000 43.25900 33.19000
N  -1.16400 43.62000 24.99300
C  -2.23200 43.61100 25.87900
C  -3.47900 43.37400 25.12900
C  -3.14400 43.31600 23.75100
C  -1.70000 43.57800 23.71400
C  -4.87600 43.38300 25.67900
C  -4.04300 43.21800 22.54900
O  -3.58400 43.07200 21.42800
C  -5.56900 43.25800 22.64400
N  1.34400 44.15200 23.45300
C  0.50000 43.90600 22.38200
C  1.29300 43.93700 21.04000
C  2.58500 44.72800 21.51500
C  2.60700 44.50200 23.01400
C  1.53200 42.56400 20.61800
C  2.61300 46.18900 21.03900
C  2.85400 46.29300 19.52300
N  2.72000 44.19000 25.96700
C  3.84000 44.42500 25.19800
C  5.09300 44.51800 25.93400
C  4.65200 44.33400 27.28500
C  3.21700 44.14000 27.21700
C  6.44900 44.76700 25.50700
C  5.06400 44.21800 28.71500
O  6.20400 44.16100 29.22400
C  3.72600 44.10200 29.51700
C  3.94800 42.88100 30.34700
O  3.60400 41.71900 30.09800
O  4.57500 43.29600 31.52200
C  4.97200 42.25500 32.55200
H  -3.00500 43.25500 27.89900
H  -1.33500 43.71900 21.54500
H  4.66100 44.79800 23.17400
H  1.05300 42.51800 30.45400
H  -1.67700 43.67500 30.11800
H  -0.64900 41.08900 30.31800
H  -1.72000 41.08500 28.86800
H  -2.32700 41.82600 30.36200
H  -0.35900 44.98700 31.30500
H  1.20300 45.39000 30.45600
H  1.01900 45.35900 32.97900
H  2.42400 44.57200 32.34100
H  -5.52500 44.17900 25.31600
H  -4.97100 43.22400 26.75300
H  -5.35500 42.46200 25.34400
H  -6.03400 42.34900 23.02600
H  -6.01900 43.32600 21.65400
H  -5.78900 44.09100 23.31200
H  0.78400 44.48300 20.24600
H  3.54300 44.25600 21.29600
H  2.26100 42.53100 19.80900
H  0.61200 42.11500 20.24100
H  1.88700 41.87800 21.38600
H  3.51900 46.53000 21.54000
H  1.72000 46.75400 21.30300
H  3.83900 46.70500 19.30300
H  2.23100 47.03700 19.02800
H  2.78700 45.28000 19.12800
H  7.12800 43.99600 25.87100
H  6.71600 45.76300 25.85900
H  6.48700 44.91800 24.42800
H  3.58700 45.03200 30.06900
H  4.55700 42.58200 33.50500
H  6.06100 42.27500 32.51800
H  4.58100 41.26500 32.31900

