158

Mg 47.43500 34.93100 28.26400
C  45.81400 32.87400 30.67100
C  47.37000 37.43900 30.46100
C  48.37000 36.87500 25.78500
C  46.55900 32.36500 25.93100
N  46.64400 35.07700 30.31700
C  46.16300 34.15600 31.16100
C  46.03900 34.62700 32.57900
C  46.12000 36.21200 32.38300
C  46.73800 36.29400 30.92100
C  44.83300 37.11000 32.49300
C  47.18000 34.08100 33.47600
C  46.66600 33.84600 34.94200
H  47.13100 34.84600 35.90000
N  47.94000 36.90800 28.22100
C  48.03500 37.74100 29.24800
C  48.85700 38.89400 28.94200
C  49.16500 38.76400 27.56700
C  48.44300 37.53900 27.09900
C  49.27900 39.86200 30.04800
C  49.95300 39.64400 26.65900
O  50.13700 39.27900 25.51300
C  50.46900 40.95600 27.23400
N  47.21800 34.71200 26.11100
C  47.84300 35.64500 25.30500
C  48.10200 35.16900 23.91100
C  47.49300 33.72300 23.99500
C  47.04500 33.54800 25.40100
C  47.53600 36.09400 22.83300
C  48.55600 32.69000 23.51400
C  49.46700 32.02200 24.56400
N  46.52000 32.96700 28.25600
C  46.23300 32.06200 27.28600
C  45.61200 30.88800 27.78300
C  45.41300 31.13600 29.16900
C  46.02600 32.40400 29.40800
C  45.06600 29.65300 27.01700
C  44.84200 30.73000 30.35300
O  44.28400 29.68700 30.61700
C  44.90500 31.83900 31.34700
C  45.37900 31.31700 32.69200
O  46.55200 30.95200 33.00600
O  44.34900 31.20900 33.56600
C  44.63100 30.62000 34.87300
H  47.37200 38.21300 31.23100
H  48.71700 37.45600 24.92700
H  46.35000 31.57800 25.20300
H  45.06600 34.22500 32.86000
H  46.77200 36.56800 33.18000
H  44.72500 37.58800 31.52000
H  44.78700 37.91100 33.23100
H  44.07200 36.37800 32.76400
H  48.01000 34.78400 33.40900
H  47.65200 33.13300 33.21600
H  47.12300 32.88700 35.18700
H  45.57700 33.80500 34.96300
H  48.98200 39.68600 31.08200
H  48.70100 40.77500 29.91100
H  50.35200 40.05300 30.06800
H  51.13400 41.31400 26.44900
H  51.15400 40.75700 28.05800
H  49.58700 41.59600 27.26700
H  49.18800 35.16000 23.81900
H  46.76500 33.57200 23.19800
H  48.29800 36.70600 22.35000
H  46.90300 36.79600 23.37700
H  47.02200 35.51700 22.06400
H  49.24800 33.13000 22.79700
H  48.06900 31.86500 22.99300
H  49.11000 32.30300 25.55400
H  50.47700 32.41200 24.43400
H  49.45400 30.93300 24.50600
H  44.50800 29.88300 26.10900
H  44.47500 29.17900 27.80000
H  45.91400 29.02700 26.74000
H  43.92000 32.30300 31.40800
H  44.70200 31.51300 35.49400
H  45.59700 30.11400 34.89300
H  43.81900 29.94100 35.13300
Mg 6.93000 53.52900 41.52600
C  6.33900 50.17000 41.00000
C  9.94800 53.20600 40.07900
C  7.04300 56.84600 41.20600
C  3.74900 53.82300 42.91900
N  7.90100 51.88000 40.54100
C  7.58900 50.61500 40.52900
C  8.71600 49.70600 40.12300
C  9.95300 50.67700 40.33500
C  9.28200 51.98900 40.29400
C  10.83300 50.20000 41.57800
C  8.60700 49.10500 38.63800
C  8.39400 50.16400 37.56700
H  6.97200 50.43600 37.06000
N  8.36200 54.93900 40.84600
C  9.53500 54.57100 40.19900
C  10.23500 55.77600 39.80400
C  9.33700 56.97200 40.01100
C  8.16600 56.27100 40.66400
C  11.62900 55.78700 39.11200
C  9.56300 58.39700 39.53600
O  10.44700 58.69100 38.72100
C  8.62800 59.41500 40.00200
N  5.49000 55.14900 41.80700
C  5.87600 56.41300 41.71200
C  4.78900 57.36300 42.03700
C  3.74800 56.44900 42.67400
C  4.27100 55.03600 42.39500
C  5.17100 58.65500 42.85400
C  2.29200 56.50200 42.02900
C  1.13600 56.32100 43.01400
N  5.31900 52.22200 41.97500
C  4.08500 52.46300 42.52000
C  3.40000 51.21500 42.71500
C  4.16500 50.30800 41.97300
C  5.33100 50.95000 41.63400
C  1.98700 50.98100 43.34800
C  4.25200 48.91300 41.57600
O  3.51000 47.94100 41.66800
C  5.71800 48.77600 40.90600
C  5.45200 48.26400 39.51600
O  4.93100 48.94100 38.60700
O  5.78900 46.89200 39.47200
C  5.78400 46.26200 38.12900
H  10.91300 53.19200 39.57000
H  6.96000 57.91700 41.00900
H  2.81700 53.88700 43.48300
H  8.70900 48.84200 40.78800
H  10.62100 50.56500 39.48000
H  10.52600 49.29400 42.10000
H  10.68200 50.91400 42.38700
H  11.88700 50.25500 41.30700
H  7.82000 48.35800 38.73600
H  9.48300 48.52100 38.35400
H  9.00300 49.95200 36.68800
H  8.86900 51.09400 37.87900
H  12.20200 54.99200 39.58900
H  12.16000 56.70700 39.35800
H  11.45800 55.61500 38.05000
H  7.61600 59.39400 39.59800
H  9.16000 60.35700 39.87000
H  8.64800 59.44300 41.09100
H  4.42900 57.70500 41.06700
H  3.82600 56.47400 43.76100
H  4.60800 58.74500 43.78400
H  4.84300 59.50400 42.25300
H  6.24300 58.71100 43.04400
H  2.30200 55.73700 41.25300
H  2.18900 57.40800 41.43300
H  0.29600 55.69600 42.71000
H  0.72100 57.31500 43.18100
H  1.49900 55.95600 43.97500
H  1.25200 51.78500 43.37900
H  2.22000 50.87800 44.40800
H  1.59400 50.04900 42.94300
H  6.29900 48.06800 41.49600
H  6.71000 45.82700 37.75300
H  5.34300 46.87600 37.34400
H  5.05300 45.45600 38.20200

