158

Mg 54.03900 23.75900 44.82200
C  51.60200 26.16300 43.90400
C  51.97000 21.30400 43.82900
C  56.72700 21.60000 44.81600
C  56.12900 26.45800 45.62100
N  52.11200 23.79200 43.89100
C  51.29600 24.83800 43.52900
C  49.97200 24.35100 42.98000
C  49.99000 22.84300 43.42600
C  51.45400 22.60300 43.70600
C  49.08300 22.35900 44.66600
C  49.84400 24.51000 41.41400
C  48.34800 24.45500 40.96200
H  48.06400 24.11300 39.49000
N  54.32300 21.67300 44.46900
C  53.27400 20.87700 44.15800
C  53.72000 19.51700 44.30200
C  55.14200 19.50000 44.44100
C  55.48200 20.97800 44.61600
C  52.78000 18.39400 44.33900
C  56.12900 18.36900 44.30800
O  55.68600 17.24600 44.17800
C  57.69000 18.48300 44.15900
N  56.18500 24.05500 44.96500
C  56.98900 22.98300 45.10600
C  58.42700 23.47300 45.34100
C  58.21200 24.95200 45.67700
C  56.73700 25.22200 45.36200
C  59.21800 22.58000 46.41000
C  59.12100 25.94200 44.86900
C  60.24100 26.53700 45.74600
N  53.90100 25.91500 45.02200
C  54.80500 26.85300 45.35600
C  54.22200 28.20100 45.34400
C  52.92400 27.92900 44.78700
C  52.85000 26.52400 44.51200
C  54.70700 29.46400 45.83700
C  51.68900 28.61900 44.38200
O  51.23500 29.77500 44.53500
C  50.84100 27.47700 43.69400
C  50.78200 27.73800 42.29700
O  51.76000 27.85300 41.57800
O  49.48300 27.96800 41.88100
C  49.31600 28.36800 40.48200
H  51.26700 20.47400 43.72300
H  57.53500 20.87300 44.92500
H  56.81900 27.24600 45.93100
H  49.17800 24.88100 43.50600
H  49.68300 22.14700 42.64500
H  49.64100 21.82800 45.43600
H  48.36900 21.59000 44.37000
H  48.57800 23.28300 44.94800
H  50.36500 23.70100 40.90100
H  50.31300 25.46200 41.16600
H  47.91600 25.38500 41.33000
H  47.97200 23.58900 41.50600
H  53.20400 17.52300 44.83800
H  52.36500 18.22100 43.34600
H  51.88400 18.72500 44.86400
H  58.14300 19.16000 43.43600
H  57.88800 17.46400 43.82700
H  58.18600 18.44000 45.12900
H  59.02300 23.45200 44.42800
H  58.42300 25.04600 46.74300
H  59.38800 23.17500 47.30700
H  60.19600 22.30700 46.01300
H  58.66700 21.71100 46.77000
H  58.53800 26.78700 44.50300
H  59.56200 25.53200 43.96100
H  61.21100 26.48900 45.25200
H  60.20400 26.23400 46.79200
H  60.00900 27.60000 45.66900
H  54.12200 30.23900 45.34100
H  55.68200 29.69800 45.41000
H  54.53800 29.46800 46.91300
H  49.82600 27.42900 44.08900
H  48.69300 27.59000 40.03900
H  50.22300 28.44300 39.88300
H  48.81200 29.33400 40.48100
Mg 6.93400 55.18800 40.33800
C  6.07700 51.78400 40.26200
C  10.19500 54.44900 39.63100
C  7.57800 58.46100 39.65700
C  3.48300 55.96600 40.46400
N  7.94000 53.37200 39.89600
C  7.40300 52.10500 39.91200
C  8.55100 51.07200 39.70300
C  9.78700 51.91300 39.93500
C  9.32500 53.36800 39.90800
C  10.67300 51.59500 41.20000
C  8.48600 50.40100 38.27900
C  8.14400 51.35900 37.08500
H  6.78200 51.10300 36.35000
N  8.61100 56.32000 39.83900
C  9.86000 55.81900 39.55000
C  10.75400 56.84100 39.16400
C  10.01200 58.04900 39.09800
C  8.67100 57.65100 39.60800
C  12.19700 56.60700 38.90900
C  10.63600 59.40100 38.69400
O  11.72300 59.55600 38.13700
C  9.86900 60.77700 38.88200
N  5.70100 56.96100 40.01700
C  6.16400 58.23500 39.85900
C  5.01000 59.21200 39.56000
C  3.80000 58.37300 39.80700
C  4.34400 57.00700 40.06100
C  5.02800 60.49800 40.51600
C  2.85200 58.35900 38.58100
C  1.64300 59.37600 38.56000
N  5.11500 54.15200 40.47300
C  3.77200 54.57300 40.68900
C  2.96600 53.44100 40.93500
C  3.84100 52.24500 40.79500
C  5.13700 52.73700 40.51400
C  1.51900 53.47200 41.37700
C  3.97900 50.85000 40.88400
O  3.13500 49.99100 41.22100
C  5.40400 50.44400 40.64300
C  5.49300 49.40600 39.51900
O  5.15800 49.54500 38.39000
O  5.94300 48.19000 40.09600
C  5.80700 46.98800 39.32500
H  11.20600 54.20200 39.30000
H  7.75000 59.49700 39.35700
H  2.41900 56.20000 40.37900
H  8.33500 50.30100 40.44300
H  10.43200 51.72100 39.07700
H  10.12000 50.87400 41.80200
H  10.88900 52.46900 41.81300
H  11.63900 51.14000 40.98100
H  7.77900 49.58200 38.41300
H  9.42000 49.89800 38.02800
H  8.91400 51.21900 36.32600
H  8.20700 52.40200 37.39400
H  12.33800 56.88800 37.86600
H  12.55500 55.60100 39.12900
H  12.87500 57.28900 39.42200
H  10.53100 61.61700 38.67300
H  9.43400 60.86700 39.87700
H  9.04600 60.87900 38.17500
H  5.09300 59.49600 38.51200
H  3.30700 58.71700 40.71600
H  4.04300 60.67300 40.94600
H  5.36400 61.41500 40.03100
H  5.72200 60.48100 41.35600
H  2.31000 57.41300 38.58800
H  3.40200 58.50400 37.65100
H  1.95700 60.22300 37.95100
H  1.32100 59.78100 39.52000
H  0.89000 58.85800 37.96600
H  1.08600 52.47200 41.40700
H  1.04100 54.20400 40.72700
H  1.58600 53.69900 42.44100
H  5.82300 50.04700 41.56700
H  6.41400 46.84700 38.43100
H  4.73900 46.85100 39.15500
H  6.15200 46.18600 39.97800

