158

Mg 1.68300 -1.39800 44.18100
C  5.05900 -0.94300 43.24300
C  0.92200 1.03800 41.88000
C  -1.40000 -2.42700 44.40800
C  2.81500 -4.16000 46.12800
N  2.87600 -0.14300 42.60700
C  4.21200 -0.07100 42.45700
C  4.65000 0.90200 41.37300
C  3.27200 1.70000 41.10300
C  2.24700 0.84900 41.92000
C  3.30500 3.22500 41.27100
C  5.39200 0.28100 40.10400
C  6.87700 0.62000 40.11000
H  7.48600 0.91400 38.72200
N  -0.03100 -0.72600 43.33400
C  -0.16600 0.28300 42.43200
C  -1.57900 0.53700 42.31900
C  -2.27900 -0.30900 43.13200
C  -1.22100 -1.26700 43.66300
C  -2.11700 1.50300 41.23100
C  -3.82700 -0.29800 43.34200
O  -4.51100 0.41000 42.62100
C  -4.45400 -1.19800 44.29900
N  0.84200 -3.32300 44.85400
C  -0.45900 -3.37800 45.07100
C  -0.84200 -4.60800 45.68100
C  0.52900 -5.24700 46.32500
C  1.49700 -4.21300 45.66100
C  -1.94800 -4.52300 46.75500
C  0.87400 -6.68100 45.75900
C  1.00000 -7.72500 46.92900
N  3.52900 -2.37000 44.61200
C  3.77500 -3.39400 45.52100
C  5.20400 -3.67100 45.53400
C  5.75500 -2.61300 44.72300
C  4.69000 -1.95500 44.15800
C  5.92200 -4.87100 46.12600
C  6.94200 -2.08000 44.21700
O  8.09800 -2.50100 44.35400
C  6.55400 -0.89300 43.26900
C  7.04800 0.32300 43.91800
O  6.76900 0.71300 45.04100
O  7.85200 1.02100 42.98300
C  8.25000 2.38300 43.32700
H  0.68100 1.98300 41.38900
H  -2.43500 -2.66600 44.66000
H  3.24600 -4.93300 46.76800
H  5.32600 1.65600 41.77800
H  3.01200 1.56300 40.05400
H  2.70300 3.56100 42.11600
H  2.98700 3.68100 40.33300
H  4.29900 3.50600 41.61800
H  4.94800 0.79100 39.24900
H  5.29000 -0.80400 40.10200
H  7.53100 -0.15900 40.50200
H  7.02100 1.53600 40.68300
H  -2.66700 0.93500 40.48000
H  -1.34600 2.10500 40.74900
H  -2.71200 2.25600 41.74700
H  -5.43600 -0.85400 44.62400
H  -3.87900 -1.32200 45.21700
H  -4.53100 -2.14000 43.75700
H  -1.17400 -5.26000 44.87400
H  0.47000 -5.34000 47.41000
H  -1.63800 -4.65300 47.79200
H  -2.79800 -5.19600 46.64800
H  -2.41300 -3.54400 46.64100
H  1.84800 -6.54300 45.29100
H  0.15700 -6.94300 44.98200
H  2.04400 -8.03600 46.94000
H  0.42700 -8.60600 46.63900
H  0.61800 -7.30800 47.86100
H  5.87800 -5.54200 45.26800
H  5.27500 -5.18900 46.94300
H  6.94300 -4.75700 46.49200
H  7.00000 -1.00900 42.28100
H  7.39900 3.01700 43.07700
H  9.07800 2.68100 42.68400
H  8.55700 2.58000 44.35400
Mg -12.01900 38.25300 42.14600
C  -10.01300 35.55600 41.51100
C  -9.59500 40.35200 40.77500
C  -14.20500 40.75200 42.38500
C  -14.59200 35.91800 42.88500
N  -10.06900 37.93600 41.15100
C  -9.52400 36.75000 40.95000
C  -8.15300 36.87700 40.29900
C  -7.86600 38.47300 40.29300
C  -9.24100 38.99600 40.74900
C  -6.66600 38.98300 41.14100
C  -8.01500 36.23700 38.84600
C  -6.62700 35.62900 38.56100
H  -5.87900 36.34500 37.41400
N  -11.87500 40.32000 41.74200
C  -10.81400 40.97000 41.26000
C  -11.03100 42.38600 41.28500
C  -12.36200 42.61100 41.64800
C  -12.90400 41.21700 41.93000
C  -10.06600 43.51200 40.86700
C  -13.09600 43.99100 41.69500
O  -12.59800 45.08500 41.36800
C  -14.52600 43.98000 42.18000
N  -14.17000 38.29100 42.38700
C  -14.76000 39.48900 42.63700
C  -16.23300 39.32100 43.10700
C  -16.30100 37.74500 43.18800
C  -14.94500 37.24400 42.70100
C  -16.66700 40.10100 44.36600
C  -17.52200 37.13900 42.37200
C  -18.37000 36.10200 43.14600
N  -12.30200 36.07600 42.31800
C  -13.32400 35.31300 42.73000
C  -12.90200 33.90200 42.88900
C  -11.54200 34.01200 42.45500
C  -11.25200 35.33300 42.08400
C  -13.62100 32.68800 43.42800
C  -10.39400 33.19200 42.24900
O  -10.18600 31.97800 42.43000
C  -9.32100 34.22300 41.64900
C  -8.20800 34.19500 42.61100
O  -8.13900 35.03400 43.45100
O  -7.24400 33.29000 42.38900
C  -5.99800 33.23000 43.23600
H  -8.83600 40.97300 40.29400
H  -14.94400 41.49100 42.70000
H  -15.35500 35.22500 43.24700
H  -7.42000 36.38800 40.93900
H  -7.78300 38.86800 39.28100
H  -6.04800 38.14700 41.46800
H  -6.87200 39.61100 42.00800
H  -6.00900 39.58300 40.51200
H  -8.30500 37.07300 38.21000
H  -8.79900 35.48400 38.93200
H  -6.76300 34.55200 38.46000
H  -6.02100 35.67500 39.46600
H  -9.11900 43.03700 40.60900
H  -10.01400 44.21600 41.69800
H  -10.53900 44.15200 40.12300
H  -15.06500 43.24300 41.58400
H  -14.88800 44.97800 41.93400
H  -14.68900 43.84800 43.25000
H  -16.83000 39.71600 42.28500
H  -16.37900 37.42400 44.22700
H  -15.89900 40.75200 44.78400
H  -17.13400 39.54800 45.18100
H  -17.47400 40.76000 44.04500
H  -17.17100 36.61400 41.48400
H  -18.22500 37.87800 41.98700
H  -17.95800 35.80800 44.11100
H  -18.62500 35.15500 42.67100
H  -19.31800 36.54600 43.45100
H  -14.70100 32.82100 43.35300
H  -13.46200 32.51100 44.49200
H  -13.25700 31.76100 42.98500
H  -9.01300 33.81300 40.68700
H  -5.08100 33.08100 42.66600
H  -6.06300 32.41300 43.95500
H  -5.93400 34.15300 43.81100

