158

Mg -2.11900 16.56300 26.92800
C  -2.43000 14.43900 29.60300
C  -2.56400 19.24700 28.92700
C  -2.07900 18.64600 24.13900
C  -1.74900 13.82400 24.80100
N  -2.68800 16.75000 29.03900
C  -2.57100 15.77700 30.00400
C  -2.75400 16.37400 31.43100
C  -2.94900 17.88200 31.04600
C  -2.63500 17.97400 29.58400
C  -4.37800 18.48700 31.45200
C  -1.58700 16.06400 32.38600
C  -1.32100 16.96100 33.57000
H  -0.80700 16.39000 34.87500
N  -2.29900 18.74700 26.61300
C  -2.46400 19.66700 27.56700
C  -2.50500 21.01900 27.00000
C  -2.38300 20.82900 25.55200
C  -2.30700 19.36500 25.38000
C  -2.53400 22.31000 27.82600
C  -2.38900 21.90700 24.47100
O  -2.52100 21.67500 23.25500
C  -2.40300 23.34000 24.84200
N  -1.79200 16.33800 24.88700
C  -1.91000 17.33800 23.90800
C  -1.70400 16.75500 22.49800
C  -1.38100 15.22800 22.74900
C  -1.63200 15.07500 24.23800
C  -2.86300 16.94200 21.41100
C  -0.01900 14.74800 22.17100
C  0.09800 13.31400 21.61400
N  -2.09300 14.57500 27.10900
C  -1.91000 13.59100 26.14300
C  -2.05800 12.32300 26.83200
C  -2.18800 12.60200 28.15500
C  -2.13700 13.96600 28.29400
C  -2.21300 11.00200 26.11700
C  -2.36900 12.03900 29.44300
O  -2.37400 10.85700 29.75900
C  -2.45100 13.20500 30.46800
C  -1.28100 13.05400 31.34600
O  -0.17500 13.47900 31.12900
O  -1.59800 12.27800 32.44800
C  -0.44800 11.92000 33.26200
H  -2.50300 20.13200 29.56400
H  -2.07000 19.29600 23.26300
H  -1.72500 12.94500 24.15400
H  -3.66200 16.09800 31.96700
H  -2.18000 18.37900 31.63600
H  -4.18100 19.30300 32.14800
H  -5.01600 17.76900 31.96600
H  -4.89100 19.02100 30.65200
H  -0.70300 15.92400 31.76400
H  -1.90800 15.12000 32.82600
H  -2.29100 17.43900 33.71200
H  -0.58100 17.71300 33.29800
H  -2.80400 22.17200 28.87300
H  -3.31500 22.96100 27.43400
H  -1.57200 22.76100 27.58300
H  -3.31600 23.44400 25.42800
H  -2.48200 24.07000 24.03600
H  -1.68400 23.56300 25.63000
H  -0.74300 17.15700 22.17800
H  -2.12400 14.54200 22.34000
H  -3.68500 16.22700 21.42700
H  -2.36300 16.83300 20.44900
H  -3.20900 17.96400 21.56800
H  0.70200 14.80200 22.98700
H  0.47100 15.45000 21.49600
H  0.48400 13.32800 20.59500
H  -0.82700 12.74400 21.53400
H  0.82000 12.69200 22.14300
H  -2.72300 10.29000 26.76600
H  -1.23300 10.67100 25.77400
H  -2.85500 11.23000 25.26600
H  -3.39600 12.98900 30.96700
H  0.42900 11.55500 32.72800
H  -0.85200 11.21700 33.99100
H  -0.05000 12.85800 33.65100
Mg 30.71800 58.26100 40.63000
C  27.87400 56.64100 39.61400
C  32.69200 55.88300 39.14800
C  33.44500 60.27900 41.00300
C  28.66800 61.10000 41.31000
N  30.30100 56.54500 39.50800
C  29.04500 55.98200 39.31200
C  29.22500 54.66900 38.51800
C  30.71800 54.28200 38.69900
C  31.25400 55.61200 39.18900
C  30.98800 53.07400 39.66600
C  28.82800 54.93700 36.99500
C  27.85800 53.99600 36.30800
H  27.97100 53.94100 34.76200
N  32.84700 58.10300 40.17400
C  33.40500 56.98100 39.62100
C  34.83200 57.23500 39.47700
C  35.10400 58.41400 40.17700
C  33.76100 58.97400 40.55600
C  35.76700 56.24300 38.79600
C  36.57900 58.85400 40.48300
O  37.51600 58.32400 39.98000
C  36.90200 60.03600 41.36900
N  30.99300 60.40700 41.16400
C  32.24500 60.95000 41.26900
C  32.17000 62.47200 41.52400
C  30.62900 62.65600 41.84300
C  30.00200 61.34800 41.34400
C  33.12800 63.00800 42.64200
C  29.95700 63.89200 41.27900
C  30.77600 65.17700 41.47600
N  28.63600 58.79700 40.56300
C  27.96600 59.91100 40.91000
C  26.51900 59.61700 40.79500
C  26.40900 58.32000 40.31800
C  27.71500 57.90500 40.13700
C  25.38200 60.51000 41.23100
C  25.42800 57.22500 39.94500
O  24.20300 57.15000 40.01100
C  26.45900 56.14900 39.35100
C  26.25800 54.79600 40.02100
O  26.77300 54.36900 41.05000
O  25.21200 54.12400 39.33400
C  24.80600 52.80300 39.95700
H  33.28400 55.06000 38.74300
H  34.36500 60.86700 40.97800
H  28.01600 61.91200 41.63700
H  28.51800 54.01400 39.02700
H  31.06100 53.92700 37.72800
H  30.98000 53.40200 40.70500
H  32.01500 52.77000 39.46300
H  30.25000 52.30500 39.43900
H  29.70100 54.96700 36.34400
H  28.31800 55.90000 37.01500
H  26.86200 54.39300 36.50400
H  27.95100 53.02200 36.78800
H  35.63000 56.25300 37.71500
H  35.55100 55.22700 39.12700
H  36.78100 56.41900 39.15500
H  36.52800 60.90500 40.82600
H  37.97300 60.21100 41.46500
H  36.50600 60.05100 42.38400
H  32.39100 62.90500 40.54900
H  30.48800 62.70700 42.92300
H  33.89900 62.25200 42.79100
H  32.50100 63.10300 43.52800
H  33.56800 63.98000 42.41900
H  29.08700 64.06800 41.91100
H  29.49800 63.84300 40.29100
H  31.48300 65.40200 40.67800
H  31.28200 65.18300 42.44100
H  30.13800 66.05800 41.54900
H  24.92700 61.01600 40.37900
H  25.73500 61.25800 41.94100
H  24.66200 59.92400 41.80200
H  26.33600 56.11300 38.26800
H  24.88700 52.68700 41.03800
H  25.16900 51.86700 39.53100
H  23.76800 52.71300 39.63600

