158

Mg -0.05000 7.56300 26.76900
C  0.55500 9.76300 29.40500
C  0.48900 4.91000 29.09400
C  0.00500 5.35400 24.25400
C  0.24400 10.18600 24.53000
N  0.51000 7.37600 28.95400
C  0.54900 8.42400 29.81500
C  0.49000 8.00500 31.25800
C  0.92400 6.48100 31.09000
C  0.62800 6.19800 29.62100
C  2.40200 6.14600 31.49700
C  -1.01200 8.22500 31.89000
C  -1.17800 8.09500 33.43700
H  0.04900 7.89300 34.42300
N  0.10100 5.40300 26.68500
C  0.30100 4.52800 27.73500
C  0.25600 3.16100 27.27900
C  0.16300 3.24400 25.82800
C  0.11000 4.69600 25.52500
C  0.40900 1.93200 28.18400
C  0.05700 2.12400 24.80600
O  -0.06800 2.29500 23.59900
C  0.33000 0.68700 25.19700
N  0.19600 7.70400 24.72900
C  -0.06000 6.66600 23.92300
C  -0.35800 7.06500 22.38900
C  -0.19100 8.58100 22.54700
C  0.08700 8.87200 24.03600
C  0.66900 6.43100 21.36800
C  -1.31300 9.42400 21.86700
C  -2.58700 9.63500 22.64800
N  0.23700 9.61800 26.85500
C  0.36400 10.56700 25.93600
C  0.39300 11.87000 26.58400
C  0.49300 11.60700 27.96300
C  0.39800 10.21600 28.08100
C  0.49300 13.22700 25.82400
C  0.60300 12.19900 29.26100
O  0.95400 13.34800 29.47500
C  0.62800 11.01400 30.30500
C  1.85500 11.15100 31.16300
O  2.94000 10.81800 30.80200
O  1.46200 11.68300 32.39600
C  2.52800 11.96300 33.36700
H  0.59600 4.15200 29.87300
H  -0.08300 4.66700 23.40900
H  0.24200 11.05500 23.86800
H  1.13000 8.60600 31.90400
H  0.21500 5.88000 31.66100
H  2.93600 7.03600 31.83100
H  2.84800 5.62000 30.65300
H  2.23200 5.51400 32.36900
H  -1.58300 7.39000 31.48400
H  -1.44900 9.14400 31.50000
H  -1.77700 7.23200 33.72600
H  -1.70500 9.00600 33.72300
H  -0.42100 1.30600 27.85500
H  0.21000 2.23000 29.21400
H  1.39500 1.47100 28.12600
H  -0.46000 0.00500 25.51200
H  1.04000 0.82800 26.01200
H  0.68000 0.10400 24.34500
H  -1.38400 6.77300 22.16600
H  0.63100 8.86100 21.88700
H  1.15200 7.14600 20.70200
H  0.18900 5.72600 20.68900
H  1.37000 5.78500 21.89700
H  -1.61100 9.12800 20.86200
H  -0.78000 10.37500 21.87200
H  -2.60300 10.62600 23.10000
H  -2.67100 8.89300 23.44200
H  -3.48600 9.57900 22.03400
H  0.66100 13.08400 24.75600
H  1.33900 13.70600 26.31600
H  -0.40900 13.78500 26.07300
H  -0.11200 10.97600 31.10400
H  2.82100 13.01200 33.40500
H  3.45200 11.38400 33.37200
H  1.99000 11.78400 34.29800
Mg 7.77700 2.93200 26.89700
C  9.21700 1.68800 29.99500
C  5.55800 4.59700 28.86600
C  6.33500 3.91100 24.06300
C  9.60700 0.48900 25.22800
N  7.54600 3.21500 29.16300
C  8.20300 2.62200 30.23100
C  7.63300 3.04700 31.57100
C  6.29900 3.84400 31.18400
C  6.42900 3.83500 29.61300
C  4.96300 3.08700 31.64600
C  8.62400 3.80700 32.38700
C  8.54200 3.51500 33.92100
H  9.37800 4.45000 34.85400
N  6.36500 4.32500 26.51900
C  5.55300 4.86400 27.45200
C  4.68700 5.85100 26.81500
C  4.94100 5.72800 25.39100
C  5.92100 4.62400 25.21400
C  3.65700 6.72700 27.50300
C  4.49700 6.64700 24.17600
O  4.75300 6.35200 23.02000
C  3.66400 7.91600 24.54400
N  8.00300 2.30400 24.94000
C  7.20000 2.80600 23.91100
C  7.49100 2.09600 22.57600
C  8.68600 1.13100 22.95700
C  8.82200 1.32900 24.45200
C  6.26100 1.32300 22.14300
C  10.06100 1.51700 22.21200
C  10.71100 0.23000 21.66300
N  9.18700 1.49600 27.42000
C  9.78700 0.57000 26.61500
C  10.69600 -0.20600 27.39100
C  10.53400 0.21600 28.74100
C  9.58900 1.26200 28.67100
C  11.62300 -1.32000 26.90200
C  11.02200 0.01300 30.07600
O  11.92600 -0.68200 30.60600
C  10.03900 0.93200 30.95200
C  9.32400 0.01200 31.96300
O  8.23800 -0.55700 31.69500
O  9.98800 -0.02500 33.22100
C  9.16300 -0.67400 34.27800
H  4.93700 5.25200 29.48200
H  5.96400 4.32200 23.12100
H  10.19400 -0.28500 24.73000
H  7.43000 2.13900 32.13800
H  6.32100 4.86600 31.56200
H  5.16100 2.21000 32.26200
H  4.32200 2.85700 30.79500
H  4.37900 3.71200 32.32200
H  8.59100 4.89000 32.26500
H  9.64200 3.54700 32.09600
H  9.01200 2.54000 34.04800
H  7.51800 3.46800 34.29200
H  2.70300 6.44700 27.05600
H  3.68600 7.81500 27.44900
H  3.48100 6.43400 28.53800
H  4.32500 8.65300 24.99800
H  2.80800 7.73400 25.19400
H  3.16500 8.21200 23.62100
H  7.64900 2.89600 21.85200
H  8.43800 0.08700 22.76900
H  5.38800 1.50900 22.77000
H  6.34200 0.25600 21.93500
H  5.90800 1.55800 21.13900
H  10.68900 2.08300 22.90000
H  9.80600 2.20700 21.40900
H  11.41100 0.60500 20.91500
H  10.02400 -0.47200 21.19100
H  11.18700 -0.41600 22.40100
H  11.10500 -1.67400 26.01000
H  11.53100 -2.15900 27.59200
H  12.60500 -0.93100 26.63300
H  10.64900 1.56900 31.59300
H  8.51300 0.11900 34.64700
H  9.85000 -0.87400 35.10100
H  8.57600 -1.56600 34.06000

