158

Mg 8.23900 2.52100 28.43300
C  9.96700 1.32700 31.38800
C  6.16500 4.16500 30.54000
C  6.77000 3.63700 25.78000
C  9.91000 -0.00000 26.68600
N  8.05300 2.62900 30.66200
C  8.93100 2.19200 31.57700
C  8.63600 2.77700 32.92800
C  7.22200 3.37400 32.76300
C  7.07600 3.39300 31.19700
C  6.13200 2.55400 33.46000
C  9.72400 3.82300 33.33400
C  9.63900 4.49700 34.64500
H  10.53200 3.94100 35.77800
N  6.63900 3.79600 28.18200
C  5.90700 4.43800 29.18800
C  5.02300 5.42600 28.62100
C  5.21100 5.26500 27.22000
C  6.17900 4.22200 26.94800
C  4.11600 6.26200 29.38200
C  4.43500 6.08100 26.09800
O  4.62200 5.88300 24.90500
C  3.42200 7.08000 26.44100
N  8.28000 1.89300 26.48100
C  7.62400 2.56800 25.51300
C  7.87800 1.99400 24.12400
C  8.81000 0.72200 24.51400
C  9.11000 0.94400 25.94600
C  6.53500 1.69500 23.26100
C  9.99600 0.53100 23.41700
C  10.94900 1.70500 23.41300
N  9.63000 1.00200 28.88500
C  10.29200 0.10000 28.05200
C  11.34900 -0.65100 28.71500
C  11.25000 -0.16400 30.00000
C  10.14500 0.77100 30.09800
C  12.33800 -1.61400 28.00900
C  11.77600 -0.33800 31.37800
O  12.64000 -1.11400 31.80300
C  11.03600 0.67900 32.29600
C  10.32000 -0.04600 33.38600
O  9.31100 -0.67800 33.28200
O  11.02500 0.07100 34.53200
C  10.51300 -0.37700 35.80000
H  5.54100 4.71700 31.24600
H  6.35800 4.00600 24.83900
H  10.38000 -0.70400 25.99500
H  8.70100 1.91000 33.58500
H  7.19800 4.37700 33.19100
H  5.99400 1.54300 33.07800
H  5.17500 3.06700 33.36100
H  6.30100 2.42700 34.52900
H  9.64600 4.56600 32.54000
H  10.73900 3.42800 33.34800
H  8.63700 4.31000 35.03200
H  9.85600 5.56300 34.57500
H  4.32700 6.09800 30.43900
H  3.06800 5.96800 29.33300
H  4.22900 7.33700 29.23800
H  2.95600 7.36600 25.49800
H  4.03900 7.84200 26.91500
H  2.68800 6.68900 27.14600
H  8.44400 2.73000 23.55200
H  8.28000 -0.23100 24.52200
H  5.64800 1.84700 23.87500
H  6.43400 0.64600 22.98400
H  6.51200 2.27100 22.33500
H  9.51900 0.63500 22.44200
H  10.52900 -0.42000 23.40300
H  11.96300 1.33300 23.55900
H  10.60300 2.47100 24.10600
H  10.91500 2.36400 22.54500
H  13.22200 -1.72900 28.63700
H  12.62900 -1.40500 26.98000
H  11.88700 -2.60700 28.02500
H  11.81500 1.31600 32.71400
H  9.84000 0.35600 36.24400
H  11.39700 -0.48500 36.42800
H  9.91600 -1.27800 35.65900
Mg 49.58700 46.69600 42.25100
C  46.33200 46.65600 40.97900
C  50.13500 43.60100 40.97900
C  52.79000 47.15100 43.02300
C  48.78800 49.94900 43.53300
N  48.35400 45.33300 41.20200
C  47.13300 45.52700 40.68200
C  46.67500 44.34100 39.76700
C  47.76800 43.30600 39.99000
C  48.81500 44.10800 40.77400
C  47.39400 41.76700 40.36300
C  46.45700 44.76800 38.27400
C  45.04200 44.70300 37.71500
H  44.87300 43.96000 36.36400
N  51.26200 45.47400 42.01700
C  51.28000 44.22200 41.51400
C  52.59700 43.67100 41.67400
C  53.40200 44.59400 42.35100
C  52.51600 45.80300 42.46400
C  52.97700 42.20100 41.35500
C  54.79000 44.35400 42.75100
O  55.31200 43.26600 42.58700
C  55.63100 45.42100 43.32000
N  50.59200 48.34100 43.05400
C  51.98100 48.28300 43.31500
C  52.52500 49.61700 43.92900
C  51.18900 50.44800 44.01800
C  50.10300 49.43300 43.57600
C  53.26100 49.34200 45.24700
C  51.15500 51.76100 43.14000
C  51.22200 53.06700 43.97900
N  47.95100 48.17800 42.25300
C  47.76900 49.41000 42.78900
C  46.50300 49.97300 42.41300
C  45.91600 48.92100 41.68800
C  46.79700 47.82500 41.63000
C  45.84000 51.25700 42.86100
C  44.71200 48.46400 41.09400
O  43.59900 48.91300 41.11300
C  45.01600 47.05700 40.46200
C  43.96700 46.10500 40.85100
O  43.66300 45.70400 41.94800
O  43.20100 45.99800 39.70900
C  41.88500 45.47700 39.87400
H  50.28400 42.66400 40.43900
H  53.84000 47.29100 43.29000
H  48.56500 50.90100 44.01800
H  45.77500 43.93200 40.22600
H  48.27500 43.20600 39.03000
H  47.99100 41.21000 39.64000
H  46.30900 41.67100 40.33400
H  47.86900 41.53000 41.31500
H  47.04600 44.20100 37.55200
H  46.77800 45.79500 38.10200
H  44.65500 45.72200 37.70300
H  44.48900 44.13500 38.46300
H  53.49400 42.19600 40.39500
H  52.00800 41.75500 41.13100
H  53.38300 41.63600 42.19300
H  56.61600 45.12900 43.68400
H  55.08300 45.79000 44.18700
H  55.52100 46.28800 42.67000
H  53.17700 50.10200 43.20200
H  51.05700 50.78000 45.04800
H  52.83300 49.96800 46.03000
H  54.32700 49.53700 45.12400
H  53.27700 48.32100 45.62800
H  50.24800 51.79400 42.53600
H  51.99200 51.70500 42.44500
H  51.88600 52.93700 44.83400
H  50.19700 53.25400 44.29900
H  51.58200 53.95700 43.46300
H  44.79400 51.29700 42.55700
H  46.36300 52.18100 42.61500
H  45.78600 51.31300 43.94900
H  45.05800 47.13200 39.37600
H  41.88600 44.47300 39.45000
H  41.13300 45.98100 39.26700
H  41.53100 45.52400 40.90400

