158

Mg 8.72500 47.93100 26.56500
C  6.73500 48.03700 29.37700
C  11.45300 49.13000 28.57100
C  10.70500 48.09200 23.80900
C  5.98900 47.03200 24.67600
N  9.06900 48.51200 28.76100
C  8.08200 48.45700 29.69600
C  8.63300 48.69600 31.08800
C  10.01900 49.35800 30.64500
C  10.25200 48.86700 29.32100
C  10.06600 50.94700 30.70800
C  8.84300 47.37600 31.92200
C  8.98900 47.55600 33.46500
H  8.67800 46.46900 34.39800
N  10.81500 48.47500 26.26200
C  11.76900 48.91400 27.16700
C  13.00200 49.15600 26.45200
C  12.83100 48.93300 25.09900
C  11.38000 48.52800 25.00500
C  14.25400 49.55900 27.12600
C  13.76900 49.02300 23.96400
O  13.49600 48.78600 22.80300
C  15.19800 49.18400 24.31100
N  8.41200 47.69600 24.51600
C  9.39500 47.67300 23.56300
C  8.81200 47.27400 22.21300
C  7.35300 46.88400 22.51700
C  7.19800 47.24700 24.01600
C  9.08400 48.36100 21.11400
C  6.98800 45.44200 22.20500
C  6.04500 45.25200 20.99100
N  6.79600 47.71900 26.91900
C  5.74900 47.33500 26.04300
C  4.53700 47.33900 26.71500
C  4.84700 47.58200 28.08000
C  6.24400 47.72600 28.15900
C  3.23200 46.83700 26.14400
C  4.30800 47.66000 29.42000
O  3.10600 47.57900 29.79100
C  5.55500 47.80200 30.36300
C  5.65900 46.47700 30.98100
O  5.77200 45.42900 30.39000
O  5.49800 46.65800 32.35600
C  5.55400 45.33200 32.98700
H  12.23600 49.56600 29.19500
H  11.31900 48.08800 22.90600
H  5.15500 46.68800 24.06100
H  7.97500 49.39900 31.60000
H  10.82100 49.02600 31.30400
H  10.77700 51.14200 31.51000
H  9.07400 51.29200 31.00000
H  10.47700 51.42600 29.81900
H  9.75200 46.86800 31.60100
H  8.07500 46.63100 31.71600
H  8.47100 48.48400 33.71100
H  10.06700 47.65700 33.59200
H  14.13200 49.72800 28.19600
H  14.56300 50.50500 26.68100
H  15.03500 48.80800 27.01000
H  15.47200 48.31100 24.90300
H  15.27100 50.18100 24.74600
H  15.76900 49.30900 23.39100
H  9.31600 46.34800 21.93500
H  6.60900 47.47700 21.98400
H  8.16000 48.86300 20.82400
H  9.52400 47.81400 20.28000
H  9.83000 49.12200 21.34300
H  6.59900 44.98000 23.11200
H  7.87100 44.81600 22.08000
H  6.59000 44.71100 20.21700
H  5.85100 46.20400 20.49600
H  5.18100 44.62800 21.21800
H  2.90900 47.27900 25.20200
H  2.46300 46.94500 26.91000
H  3.27100 45.75500 26.01700
H  5.43600 48.65500 31.03100
H  5.39800 45.36500 34.06500
H  6.49900 44.88400 32.68000
H  4.69600 44.82900 32.54000
Mg -11.44600 38.21900 42.73100
C  -9.39400 35.53800 41.49200
C  -9.27700 40.41400 41.33400
C  -13.92400 40.42700 43.18600
C  -13.71600 35.62800 43.57600
N  -9.63100 37.97700 41.54200
C  -8.92800 36.83800 41.14300
C  -7.70100 37.08900 40.25600
C  -7.59400 38.62800 40.53300
C  -8.92200 39.06000 41.17300
C  -6.36600 38.99700 41.33400
C  -8.01700 36.69900 38.76400
C  -7.18500 35.62600 38.06400
H  -6.14500 35.90900 36.97800
N  -11.56800 40.17600 42.30200
C  -10.54400 40.95900 41.78200
C  -10.96600 42.36800 41.93300
C  -12.25300 42.35000 42.56500
C  -12.64400 40.96100 42.68400
C  -10.07400 43.55400 41.59700
C  -12.97400 43.64600 42.89200
O  -12.62900 44.78800 42.58300
C  -14.18700 43.49900 43.62100
N  -13.52600 38.04500 43.30700
C  -14.30600 39.14200 43.47500
C  -15.78900 38.81000 43.73400
C  -15.69900 37.24400 43.98600
C  -14.24900 36.94500 43.52100
C  -16.35800 39.43800 45.04700
C  -16.74800 36.35900 43.39800
C  -18.03000 36.42600 44.25000
N  -11.48900 36.01500 42.83000
C  -12.50100 35.16800 43.16600
C  -11.96500 33.77800 43.14900
C  -10.75700 33.84600 42.40000
C  -10.50000 35.29100 42.27300
C  -12.52500 32.53800 43.72500
C  -9.57800 33.13500 41.84300
O  -9.30500 31.98500 41.86500
C  -8.61000 34.21600 41.26200
C  -7.14800 34.09700 41.58700
O  -6.60700 34.39700 42.64700
O  -6.40900 33.42000 40.65600
C  -5.03600 33.02800 40.98200
H  -8.45300 41.12600 41.24700
H  -14.86100 40.97900 43.28000
H  -14.33800 34.82100 43.96800
H  -6.83300 36.58400 40.67900
H  -7.51500 39.16700 39.58800
H  -6.62700 39.56600 42.22700
H  -5.64400 39.48400 40.67800
H  -5.84300 38.10800 41.68600
H  -8.18500 37.55800 38.11400
H  -8.99600 36.24200 38.90800
H  -7.88500 34.86500 37.71900
H  -6.57500 35.13400 38.82200
H  -10.56700 44.15900 40.83500
H  -9.07400 43.25800 41.27900
H  -9.89600 44.07300 42.53800
H  -14.90400 42.91400 43.04400
H  -14.59200 44.50200 43.75800
H  -14.13000 43.04200 44.60900
H  -16.40700 39.05500 42.87000
H  -15.57900 37.03200 45.04900
H  -16.72000 38.70200 45.76500
H  -17.25800 40.00100 44.80200
H  -15.65700 40.09200 45.56600
H  -16.55200 35.28800 43.35000
H  -16.85000 36.78100 42.39800
H  -17.88300 36.89700 45.22200
H  -18.56100 35.47600 44.31800
H  -18.80500 37.02900 43.77600
H  -11.72700 31.99200 44.22800
H  -13.17400 31.99100 43.04100
H  -13.27300 32.74600 44.49100
H  -8.66500 33.84100 40.24000
H  -4.85400 32.97100 42.05500
H  -4.47000 33.87900 40.60500
H  -4.61800 32.18900 40.42500

