158

Mg 48.01000 24.59000 27.88200
C  48.79000 26.72200 30.46800
C  47.43400 22.06800 30.11900
C  47.24300 22.57100 25.38300
C  49.41100 26.90400 25.59600
N  47.97700 24.44000 30.04600
C  48.39000 25.43400 30.92200
C  48.21600 25.02500 32.41500
C  47.76700 23.51900 32.21200
C  47.81900 23.28500 30.70200
C  48.64500 22.49700 33.04500
C  47.27900 26.02800 33.14300
C  46.91300 25.61100 34.61100
H  46.99500 26.68300 35.72500
N  47.41700 22.57500 27.82400
C  47.15100 21.71100 28.81400
C  46.74200 20.40500 28.39200
C  46.59700 20.51800 26.96200
C  47.06300 21.94800 26.65400
C  46.41100 19.20300 29.32500
C  46.24800 19.46200 25.94900
O  46.13200 19.67700 24.70200
C  45.96700 18.05600 26.43600
N  48.13200 24.75400 25.78400
C  47.75300 23.71800 24.96900
C  47.91200 24.15200 23.52900
C  48.67500 25.45900 23.56100
C  48.78300 25.72400 25.02900
C  48.69900 23.12000 22.72100
C  47.91600 26.71000 22.89900
C  48.69100 27.46700 21.86200
N  48.87900 26.52000 27.94900
C  49.44400 27.23700 26.99200
C  49.80100 28.49300 27.56100
C  49.71800 28.31200 28.97500
C  48.97000 27.12900 29.10600
C  50.49600 29.61000 26.87100
C  50.04700 28.93900 30.25300
O  50.65400 29.99000 30.49800
C  49.32600 27.92500 31.23600
C  50.27900 27.51400 32.34600
O  51.15500 26.64100 32.26100
O  49.93500 28.09100 33.57800
C  50.80900 27.64100 34.63600
H  47.10300 21.33600 30.85900
H  46.84600 21.93500 24.58900
H  49.84200 27.60500 24.87800
H  49.18300 25.00600 32.91800
H  46.71200 23.50900 32.48500
H  47.98500 22.08800 33.81000
H  49.50400 23.01100 33.47500
H  49.01800 21.67800 32.43100
H  46.41100 26.07800 32.48600
H  47.75600 26.99100 33.32800
H  47.45800 24.73700 34.96900
H  45.90200 25.20300 34.62400
H  46.30900 19.50500 30.36800
H  47.20500 18.45600 29.34300
H  45.52100 18.67100 28.98900
H  46.73000 17.65100 27.10000
H  45.71100 17.40500 25.60000
H  45.04400 18.09400 27.01500
H  46.86100 24.20300 23.24600
H  49.68000 25.30100 23.16900
H  49.54900 22.66900 23.23300
H  48.95400 23.31900 21.68000
H  47.94900 22.33000 22.74900
H  47.58600 27.46800 23.61000
H  47.03400 26.34300 22.37300
H  48.74900 28.52800 22.10800
H  48.26800 27.27800 20.87500
H  49.71300 27.09000 21.88700
H  49.73900 30.33000 26.55900
H  51.09900 29.26300 26.03200
H  51.24500 30.08500 27.50600
H  48.43200 28.38900 31.65300
H  50.49900 26.69900 35.08900
H  50.76700 28.40500 35.41200
H  51.85700 27.65400 34.33500
Mg -11.52200 38.27500 42.33400
C  -9.03600 35.83500 41.74700
C  -9.55900 40.53900 40.77500
C  -14.10200 40.42500 42.43300
C  -13.59900 35.71600 43.34300
N  -9.44300 38.11200 41.24300
C  -8.77100 36.96300 40.99800
C  -7.53200 37.26400 40.13900
C  -7.67500 38.89800 39.90400
C  -9.02100 39.23500 40.62800
C  -6.47100 39.65700 40.46300
C  -7.70600 36.42200 38.85300
C  -6.43100 35.62400 38.55600
H  -5.67700 36.16600 37.34000
N  -11.70000 40.26500 41.84300
C  -10.69900 41.05300 41.36000
C  -11.10400 42.45100 41.54000
C  -12.45700 42.43700 41.88400
C  -12.81100 41.02600 42.12700
C  -10.31500 43.64500 41.03300
C  -13.32700 43.67200 42.04600
O  -12.87900 44.79400 42.00700
C  -14.83000 43.57600 42.32000
N  -13.64700 38.05400 42.62200
C  -14.52200 39.10900 42.58300
C  -15.92700 38.64600 42.59400
C  -15.76900 37.08600 42.98100
C  -14.21000 36.87400 42.99900
C  -16.96600 39.35000 43.52600
C  -16.54400 36.36300 41.85700
C  -15.92700 35.64800 40.61400
N  -11.36500 36.17600 42.68600
C  -12.26800 35.32400 43.26200
C  -11.58800 34.03900 43.50000
C  -10.32000 34.18600 42.87500
C  -10.23300 35.50400 42.53500
C  -12.24700 32.77500 43.85800
C  -9.05200 33.52900 42.51900
O  -8.64600 32.38900 42.74700
C  -8.18800 34.52300 41.73300
C  -6.88700 34.53800 42.49500
O  -6.00700 33.72100 42.43700
O  -6.76500 35.78700 43.20400
C  -5.51300 35.95300 43.95100
H  -8.87300 41.30600 40.41000
H  -14.88400 41.18700 42.40800
H  -14.17300 34.86800 43.72300
H  -6.58500 37.08900 40.65000
H  -7.94000 39.20700 38.89300
H  -6.21900 40.27300 39.60000
H  -5.56100 39.15400 40.79100
H  -6.70300 40.38500 41.24100
H  -7.85200 37.17500 38.07900
H  -8.59400 35.80500 38.99100
H  -6.66600 34.57600 38.37100
H  -5.66100 35.53000 39.32200
H  -10.74600 44.19400 40.19600
H  -9.28800 43.34400 40.82500
H  -10.25600 44.34500 41.86600
H  -15.44600 43.20000 41.50300
H  -15.22500 44.58700 42.41700
H  -15.03100 43.07300 43.26600
H  -16.21700 38.84300 41.56200
H  -16.04800 36.79300 43.99300
H  -16.53900 40.17200 44.10100
H  -17.40300 38.57600 44.15700
H  -17.72500 39.68600 42.81900
H  -17.32700 37.07800 41.60200
H  -17.13900 35.65700 42.43700
H  -16.03200 34.56400 40.65900
H  -14.84200 35.71200 40.54000
H  -16.37000 36.09600 39.72400
H  -12.72000 32.83900 44.83800
H  -11.49600 32.00000 44.00800
H  -12.83000 32.56000 42.96200
H  -7.97100 34.16700 40.72600
H  -5.69600 36.65500 44.76400
H  -4.66300 36.18100 43.30700
H  -5.21100 35.00800 44.40300

