158

Mg 24.86400 -4.81000 45.87500
C  26.97100 -2.53000 44.54700
C  22.26500 -3.60300 43.80600
C  23.11000 -7.75200 46.19600
C  27.67700 -6.37800 47.46300
N  24.62700 -3.30500 44.38300
C  25.67500 -2.46900 43.95200
C  25.21300 -1.52600 42.81200
C  23.66100 -1.72100 42.69900
C  23.47900 -2.95600 43.67900
C  22.74600 -0.47900 43.20400
C  26.07600 -1.53700 41.43500
C  25.63600 -0.55800 40.30100
H  25.93400 -0.92600 38.82200
N  22.89000 -5.53900 45.23300
C  21.94900 -4.84500 44.44500
C  20.69800 -5.55900 44.48000
C  20.97100 -6.75800 45.20700
C  22.37600 -6.78200 45.54900
C  19.45600 -5.18600 43.69400
C  19.86900 -7.83200 45.49400
O  18.75700 -7.64200 45.06200
C  20.14300 -9.04200 46.28000
N  25.35100 -6.84100 46.66200
C  24.42400 -7.80500 46.67000
C  25.11100 -9.08500 47.39800
C  26.54500 -8.58900 47.80100
C  26.51100 -7.18500 47.25300
C  24.44200 -9.61700 48.65600
C  27.79300 -9.38700 47.38500
C  28.73700 -9.78300 48.51700
N  26.96800 -4.38100 46.11400
C  27.97100 -5.09100 46.81500
C  29.21800 -4.25000 46.76800
C  28.81600 -3.25000 45.82600
C  27.44900 -3.44100 45.49400
C  30.51200 -4.53200 47.39500
C  29.27000 -2.03600 45.17600
O  30.39000 -1.49200 45.34300
C  28.12100 -1.60000 44.19100
C  27.84000 -0.20600 44.41600
O  27.17800 0.22600 45.34300
O  28.53600 0.56000 43.48600
C  28.18600 1.93100 43.61400
H  21.41200 -3.25100 43.22000
H  22.53300 -8.66100 46.38000
H  28.49000 -6.84500 48.02300
H  25.42900 -0.55700 43.26400
H  23.49400 -2.10700 41.69300
H  22.21900 -0.17500 42.30000
H  23.44800 0.29200 43.52100
H  21.93000 -0.68500 43.89700
H  26.02800 -2.55500 41.04800
H  27.14600 -1.43200 41.61100
H  26.25300 0.28200 40.62100
H  24.58600 -0.30700 40.44900
H  19.12400 -5.77600 42.84000
H  19.64700 -4.14900 43.41600
H  18.55800 -5.04700 44.29600
H  19.28000 -9.68800 46.44400
H  20.65900 -8.68100 47.17000
H  20.88400 -9.60400 45.71200
H  25.14000 -9.82700 46.60000
H  26.53200 -8.46800 48.88400
H  23.75200 -8.81300 48.91200
H  25.03100 -9.79300 49.55500
H  23.92200 -10.55700 48.46700
H  28.42400 -8.84300 46.68100
H  27.46700 -10.32700 46.94000
H  28.29100 -9.58100 49.49100
H  29.64900 -9.19100 48.44100
H  28.96700 -10.84600 48.44200
H  31.00200 -3.56800 47.53300
H  31.17100 -5.13300 46.76900
H  30.44600 -5.09300 48.32700
H  28.50100 -1.72700 43.17700
H  27.10000 2.02000 43.61200
H  28.45000 2.37800 42.65600
H  28.76300 2.38100 44.42200
Mg 54.63000 24.84300 44.07900
C  51.87900 26.97100 43.73300
C  52.44200 22.17500 43.62200
C  57.30300 22.95200 43.89100
C  56.75800 27.72400 43.95700
N  52.38200 24.63200 43.54900
C  51.46200 25.64400 43.64800
C  50.07900 25.05000 43.76400
C  50.32600 23.57100 43.95700
C  51.78000 23.42800 43.64100
C  49.90600 22.98500 45.35600
C  49.03500 25.45400 42.76500
C  49.31800 24.87700 41.33200
H  49.49100 25.88400 40.20100
N  54.85500 22.85200 43.69500
C  53.81500 21.89700 43.62600
C  54.39800 20.57700 43.36200
C  55.81400 20.80000 43.37900
C  56.04200 22.23100 43.61600
C  53.53400 19.33400 43.04000
C  56.80600 19.59300 43.30800
O  56.44600 18.43200 43.17000
C  58.30200 19.85900 43.36300
N  56.67500 25.23700 43.96200
C  57.61500 24.23800 44.00000
C  59.05800 24.73900 44.09300
C  58.88500 26.28000 44.14200
C  57.30900 26.44300 44.00600
C  59.84400 24.16400 45.34300
C  59.82000 26.95200 43.06800
C  60.77400 28.05000 43.61500
N  54.43900 26.92400 43.95900
C  55.38800 27.94400 44.08500
C  54.59900 29.17600 44.37000
C  53.24800 28.88000 44.25300
C  53.19500 27.49000 43.92800
C  55.24100 30.45700 44.81500
C  51.86700 29.38000 44.30100
O  51.46600 30.50200 44.55400
C  50.89500 28.16900 43.92000
C  50.24400 28.53000 42.68300
O  50.76200 28.44400 41.58400
O  48.94100 28.91500 43.00200
C  47.98800 29.13900 41.92100
H  51.71300 21.36200 43.62600
H  58.16800 22.28700 43.83400
H  57.52700 28.49700 44.01000
H  49.72200 25.35100 44.74900
H  49.75100 22.96900 43.25300
H  49.53800 23.64000 46.14600
H  50.75200 22.51300 45.85600
H  49.20600 22.16600 45.19200
H  48.86700 26.53000 42.74500
H  48.14200 25.01900 43.21500
H  48.52800 24.21000 40.98600
H  50.17900 24.21000 41.38700
H  54.09400 18.39900 43.03000
H  53.33000 19.32600 41.96900
H  52.61500 19.29100 43.62400
H  58.59000 20.44100 42.48800
H  58.78900 18.88600 43.30000
H  58.66900 20.30500 44.28700
H  59.60500 24.39900 43.21300
H  59.17800 26.63600 45.13000
H  59.13500 23.87000 46.11700
H  60.61500 24.76300 45.82700
H  60.28600 23.25500 44.93500
H  59.26000 27.47300 42.29200
H  60.49400 26.21200 42.63600
H  60.70800 28.03400 44.70300
H  60.43800 29.03100 43.27900
H  61.82300 27.93100 43.34400
H  54.53400 31.28100 44.72000
H  56.05100 30.64800 44.11000
H  55.65700 30.58300 45.81400
H  50.18700 28.05100 44.74000
H  47.24000 29.83000 42.31000
H  47.39100 28.28600 41.60000
H  48.54800 29.47700 41.04900

