158

Mg 34.89700 2.96300 29.80000
C  32.69600 4.12400 32.31400
C  37.27500 2.59800 32.18700
C  37.13300 2.17400 27.39100
C  32.42800 3.60000 27.52600
N  34.94000 3.29200 32.07600
C  33.92900 3.73900 32.89200
C  34.39500 3.75300 34.36600
C  35.92900 3.55200 34.22500
C  36.13200 3.17800 32.71400
C  36.85400 4.76800 34.62900
C  33.60300 2.58400 35.15400
C  33.36900 2.70200 36.72300
H  33.89400 4.06100 37.38800
N  36.97400 2.37000 29.77500
C  37.71600 2.25300 30.86600
C  39.05000 1.69500 30.50300
C  39.04800 1.49300 29.05300
C  37.70300 2.06500 28.67200
C  40.09900 1.32700 31.44400
C  40.05800 0.91300 28.05500
O  39.79200 0.81900 26.86200
C  41.27100 0.24200 28.53500
N  34.82400 3.07400 27.72400
C  35.85700 2.60200 26.95100
C  35.45500 2.74000 25.45200
C  33.90200 2.96300 25.55400
C  33.70200 3.22400 27.05000
C  36.18500 3.88600 24.69200
C  32.96500 1.79400 25.00500
C  31.53900 2.22700 24.51700
N  32.93400 3.66900 29.89700
C  32.05700 3.81900 28.86600
C  30.78200 4.31100 29.28000
C  30.99800 4.46300 30.67500
C  32.33700 4.06500 31.02300
C  29.47900 4.33300 28.49400
C  30.38000 4.79700 31.94000
O  29.28900 5.22000 32.20200
C  31.38900 4.51900 33.10400
C  31.67100 5.82600 33.79600
O  32.29500 6.78400 33.37000
O  31.07600 5.83000 35.06100
C  31.30400 7.05200 35.82800
H  38.10700 2.46500 32.88100
H  37.95400 2.08500 26.67700
H  31.61600 3.78500 26.82000
H  34.17600 4.75200 34.74400
H  36.20500 2.72000 34.87300
H  37.36100 4.57400 35.57400
H  36.35700 5.72500 34.78800
H  37.68600 4.91100 33.93900
H  34.19900 1.69100 34.96400
H  32.59900 2.42800 34.75900
H  33.89300 1.90300 37.24800
H  32.32100 2.56200 36.98900
H  41.02700 1.86400 31.24400
H  40.22800 0.24500 31.41700
H  39.72400 1.50600 32.45100
H  40.97200 -0.37100 29.38600
H  41.92200 1.00000 28.97200
H  41.79800 -0.33600 27.77500
H  35.54700 1.77400 24.95600
H  33.62500 3.86200 25.00400
H  37.11400 4.21400 25.15800
H  35.56900 4.78400 24.65100
H  36.56800 3.62100 23.70600
H  33.02200 1.04600 25.79600
H  33.53100 1.46400 24.13400
H  31.30400 2.13700 23.45600
H  31.48300 3.31600 24.52200
H  30.81700 1.89700 25.26300
H  28.66300 4.52700 29.18900
H  29.20100 3.41200 27.98100
H  29.53100 5.04100 27.66600
H  31.11000 3.71800 33.78800
H  30.55700 7.83100 35.67400
H  32.27400 7.53400 35.71100
H  31.24400 6.60800 36.82200
Mg 1.53100 42.62300 26.41700
C  2.99800 42.63400 29.75400
C  -1.34200 41.42600 27.77300
C  0.40900 41.84400 23.30400
C  4.64300 43.36000 25.11900
N  0.98100 42.00800 28.54700
C  1.58700 42.31000 29.76400
C  0.62200 42.13200 30.93300
C  -0.66300 41.78600 30.21700
C  -0.33000 41.76300 28.71100
C  -1.36000 40.50000 30.78200
C  0.51200 43.51800 31.69000
C  0.99300 43.37900 33.12600
H  0.52100 42.20200 33.97800
N  -0.30600 41.91200 25.64000
C  -1.35900 41.40700 26.36500
C  -2.38300 40.99800 25.41500
C  -1.94700 41.14600 24.08000
C  -0.57600 41.67400 24.29200
C  -3.69700 40.49000 25.94800
C  -2.61600 40.80800 22.71800
O  -1.99200 40.80200 21.67300
C  -4.06800 40.71100 22.73400
N  2.38700 42.57200 24.48500
C  1.67800 42.37000 23.32700
C  2.62500 42.28300 22.14500
C  3.98200 42.95600 22.72600
C  3.71300 43.02400 24.22600
C  2.71600 40.81300 21.61600
C  4.28200 44.40000 22.11300
C  4.96100 44.42200 20.67200
N  3.46300 42.90300 27.21200
C  4.61100 43.24600 26.53100
C  5.66600 43.34300 27.49900
C  5.06200 43.13700 28.75000
C  3.77200 42.85900 28.58200
C  7.11600 43.59100 27.10700
C  5.40800 43.01800 30.17900
O  6.45600 43.15700 30.85900
C  3.96000 42.83400 30.88000
C  4.15100 41.59100 31.72300
O  4.17100 40.43900 31.31400
O  4.57500 41.95000 32.97500
C  5.08700 40.82700 33.83200
H  -2.36100 41.19500 28.09200
H  0.10600 41.58500 22.28700
H  5.63600 43.55400 24.70800
H  0.94900 41.31500 31.57700
H  -1.40700 42.57500 30.33400
H  -1.13500 40.46700 31.84800
H  -1.12700 39.56500 30.27400
H  -2.44600 40.59500 30.80000
H  -0.52600 43.82000 31.83100
H  1.05900 44.31400 31.18500
H  0.75600 44.30700 33.64500
H  2.08300 43.33800 33.14300
H  -4.32000 41.37500 26.07700
H  -3.58500 39.91900 26.87000
H  -4.19200 39.77700 25.28900
H  -4.45400 41.46800 23.41600
H  -4.37500 39.68600 22.94100
H  -4.37400 41.10400 21.76500
H  2.14700 42.79200 21.30700
H  4.85800 42.30900 22.68300
H  3.74400 40.56200 21.35600
H  2.22600 40.54400 20.68000
H  2.37400 40.04700 22.31200
H  4.99000 44.93400 22.74700
H  3.35400 44.96800 22.04900
H  5.01400 43.36800 20.39900
H  6.02400 44.66300 20.66900
H  4.43100 45.09700 20.00000
H  7.62200 42.73500 26.65900
H  7.58300 44.04500 27.98100
H  6.99300 44.44500 26.44100
H  3.77300 43.72900 31.47200
H  5.27200 41.23300 34.82700
H  6.03900 40.63300 33.33700
H  4.47300 39.92900 33.89600

