158

Mg 42.03300 40.83600 26.78900
C  41.19000 43.01900 29.44900
C  42.79900 38.51800 29.07500
C  42.79600 38.96700 24.19500
C  41.21100 43.54900 24.60300
N  41.95700 40.82800 29.01700
C  41.55700 41.77000 29.91100
C  41.55000 41.27200 31.39700
C  42.06400 39.78100 31.23200
C  42.29700 39.68200 29.71300
C  43.21800 39.30100 32.06600
C  40.06700 41.43200 31.97400
C  39.63600 40.65100 33.24300
H  39.33800 41.44000 34.44100
N  42.76300 39.01700 26.68500
C  42.95000 38.17800 27.72900
C  43.33400 36.86700 27.25500
C  43.51700 37.01400 25.77700
C  42.90500 38.37800 25.49400
C  43.63100 35.72700 28.11000
C  43.98400 35.95400 24.71400
O  43.97200 36.20800 23.50600
C  44.42500 34.60600 25.10200
N  42.03700 41.28600 24.71600
C  42.32400 40.26600 23.88400
C  42.21800 40.77600 22.36800
C  41.46700 42.09800 22.46500
C  41.63800 42.37800 24.00300
C  43.60800 40.77800 21.62500
C  39.99800 41.92200 22.07500
C  39.03100 40.97500 22.93600
N  41.41600 42.93000 26.91400
C  41.09000 43.88500 25.95100
C  40.69100 45.10400 26.60400
C  40.74600 44.81800 27.96700
C  41.18000 43.48500 28.10000
C  40.22600 46.29100 25.93000
C  40.54100 45.34600 29.23800
O  40.15500 46.44400 29.65400
C  40.70600 44.19200 30.24300
C  41.65300 44.67500 31.27500
O  42.86000 44.74500 31.15700
O  40.88000 45.03200 32.38200
C  41.58800 45.68800 33.47900
H  42.88100 37.62800 29.70200
H  43.16900 38.39700 23.34200
H  40.88600 44.31600 23.89600
H  42.25300 41.96500 31.85700
H  41.15000 39.20100 31.36200
H  43.34000 39.91600 32.95700
H  44.14200 39.10200 31.52500
H  42.93600 38.34400 32.50600
H  39.26800 41.38200 31.23400
H  39.96100 42.48500 32.23500
H  40.43600 39.92800 33.40400
H  38.75900 40.02500 33.08200
H  43.13000 34.91300 27.58600
H  43.20700 35.72200 29.11400
H  44.67900 35.43800 28.19300
H  45.16000 34.62200 25.90700
H  44.92800 34.10000 24.27800
H  43.65200 33.88200 25.35900
H  41.61700 40.14200 21.71500
H  41.90800 42.91300 21.89200
H  44.44900 40.92800 22.30100
H  43.82700 41.56200 20.90000
H  43.74400 39.82200 21.11900
H  40.01300 41.56700 21.04400
H  39.67900 42.96300 22.02000
H  39.40400 40.19400 23.59900
H  38.37500 40.50000 22.20600
H  38.39000 41.65400 23.49800
H  41.07000 46.74700 25.41400
H  40.08400 46.96300 26.77600
H  39.22900 46.24800 25.49200
H  39.72000 43.98600 30.65800
H  42.58000 46.01000 33.16300
H  41.62000 44.95200 34.28300
H  40.99100 46.54200 33.80000
Mg -13.18800 38.46100 41.51000
C  -11.05600 35.77100 40.51400
C  -11.11700 40.58500 39.99500
C  -15.59800 40.76700 41.91000
C  -15.60900 35.94400 42.54900
N  -11.31000 38.28300 40.42000
C  -10.64900 37.04600 40.07600
C  -9.35600 37.33800 39.28500
C  -9.48900 38.87600 39.14200
C  -10.69700 39.28000 39.94500
C  -8.21500 39.71600 39.43200
C  -9.12900 36.48800 38.00000
C  -7.66600 35.92300 37.80100
H  -6.67900 36.73800 36.99700
N  -13.29200 40.45500 41.08800
C  -12.33300 41.14600 40.43300
C  -12.78600 42.49300 40.27000
C  -14.17900 42.55200 40.66200
C  -14.44700 41.21200 41.22600
C  -11.97700 43.57800 39.59300
C  -15.16600 43.66100 40.40900
O  -14.74700 44.75300 39.98000
C  -16.56200 43.42300 40.55100
N  -15.33900 38.34400 42.18600
C  -16.10800 39.46900 42.23800
C  -17.57800 39.21400 42.64200
C  -17.51300 37.65800 42.93100
C  -16.06000 37.25500 42.55000
C  -18.09900 40.07700 43.84000
C  -18.71300 36.93600 42.33200
C  -18.56600 36.60500 40.82900
N  -13.30200 36.36100 41.65900
C  -14.30100 35.53300 42.17100
C  -13.82200 34.16000 42.13300
C  -12.51700 34.25400 41.66800
C  -12.28300 35.60200 41.25800
C  -14.53200 32.88600 42.70700
C  -11.39600 33.44300 41.28500
O  -11.39700 32.15300 41.21100
C  -10.40200 34.39000 40.59300
C  -9.17500 34.42000 41.47900
O  -9.05400 35.00500 42.53800
O  -8.10900 33.72200 40.84600
C  -6.88200 33.52100 41.66000
H  -10.44200 41.30100 39.52100
H  -16.45400 41.44000 42.00000
H  -16.26800 35.13300 42.86500
H  -8.58500 37.17900 40.03900
H  -9.89900 38.99400 38.13900
H  -7.93000 40.31000 38.56400
H  -7.39000 39.02000 39.58100
H  -8.35900 40.38800 40.27800
H  -9.45200 37.11900 37.17200
H  -9.84200 35.66500 37.94600
H  -7.67800 34.93500 37.34200
H  -7.20400 35.75400 38.77400
H  -11.83900 44.36800 40.33200
H  -12.32800 44.03600 38.66800
H  -11.00900 43.16000 39.31700
H  -16.83100 42.48200 40.07300
H  -17.15300 44.13900 39.98000
H  -16.81900 43.51300 41.60700
H  -18.15500 39.41900 41.74000
H  -17.47800 37.52500 44.01300
H  -18.43100 39.51200 44.71100
H  -18.95100 40.67100 43.50900
H  -17.33600 40.82100 44.06900
H  -19.65500 37.44300 42.53900
H  -18.77900 35.98700 42.86300
H  -19.52700 36.79300 40.35100
H  -18.25000 35.56700 40.72800
H  -17.68100 37.16400 40.52600
H  -14.28700 31.99600 42.12800
H  -15.59300 33.12000 42.80400
H  -14.08700 32.78900 43.69700
H  -10.06900 34.09300 39.59800
H  -6.00900 33.63200 41.01700
H  -6.79700 32.60000 42.23700
H  -6.73200 34.41600 42.26500

