158

Mg 24.78400 -4.25400 45.79700
C  26.78400 -1.84100 44.24900
C  22.05100 -3.05300 43.71500
C  23.15200 -7.24500 46.07800
C  27.64200 -5.65800 47.32600
N  24.39000 -2.60000 44.15300
C  25.50900 -1.82600 43.69600
C  24.98900 -0.81300 42.69600
C  23.36700 -0.92900 42.83700
C  23.21100 -2.30800 43.56900
C  22.70000 0.24600 43.67800
C  25.68000 -1.07400 41.33000
C  24.75000 -1.26500 40.08800
H  25.41000 -1.32300 38.71300
N  22.78300 -4.99900 45.17700
C  21.88200 -4.37200 44.31200
C  20.68100 -5.19000 44.23700
C  20.93300 -6.36900 45.02700
C  22.34500 -6.28200 45.40900
C  19.55400 -4.95500 43.33300
C  19.97500 -7.43600 45.28800
O  18.86400 -7.36900 44.80700
C  20.34600 -8.59000 46.18300
N  25.22300 -6.10700 46.71500
C  24.36500 -7.18000 46.67400
C  25.10300 -8.42200 47.25900
C  26.54400 -7.98500 47.56400
C  26.48900 -6.51600 47.17900
C  24.35900 -9.06900 48.48200
C  27.62000 -8.89100 46.81000
C  28.72300 -9.54100 47.64300
N  26.76000 -3.68500 45.98000
C  27.80600 -4.36200 46.68800
C  29.01500 -3.56500 46.52400
C  28.70200 -2.59100 45.61000
C  27.32200 -2.73300 45.23700
C  30.34000 -3.83600 47.15800
C  29.17100 -1.45200 44.81300
O  30.24300 -0.88300 44.79700
C  27.94000 -1.00400 43.87000
C  27.56600 0.42300 43.94700
O  27.09000 0.91100 44.93700
O  27.87100 1.09900 42.77900
C  27.52400 2.53100 42.89400
H  21.16900 -2.55500 43.30700
H  22.66900 -8.21200 46.23300
H  28.50100 -6.03700 47.88300
H  25.19000 0.18100 43.09400
H  22.84000 -1.08500 41.89600
H  22.38300 0.89800 42.86400
H  23.39100 0.88100 44.23300
H  21.84900 0.04400 44.32800
H  26.39700 -1.89500 41.34600
H  26.28800 -0.18700 41.15400
H  23.95700 -0.51900 40.13100
H  24.30900 -2.24100 40.29100
H  18.66600 -4.77700 43.93900
H  19.41000 -5.67700 42.52900
H  19.66300 -4.05100 42.73300
H  19.41900 -9.09900 46.44900
H  20.90500 -8.48100 47.11300
H  20.64500 -9.42300 45.54600
H  25.02600 -9.11800 46.42300
H  26.74800 -7.97900 48.63400
H  24.79300 -8.93700 49.47300
H  24.30700 -10.15200 48.37100
H  23.32700 -8.73800 48.60000
H  28.06100 -8.24500 46.05100
H  27.15100 -9.62700 46.15600
H  28.94300 -8.92300 48.51400
H  29.60800 -9.73600 47.03900
H  28.51800 -10.53400 48.04400
H  31.06800 -3.92200 46.35100
H  30.40400 -4.71900 47.79400
H  30.48000 -3.00000 47.84300
H  28.18000 -1.26500 42.84000
H  28.08700 3.07700 42.13800
H  28.11300 2.89600 43.73500
H  26.43800 2.60500 42.95100
Mg 54.31800 24.95700 46.07300
C  51.73800 26.92500 44.90900
C  52.86400 22.25500 44.24400
C  57.31000 23.14700 46.29700
C  55.84700 27.59800 47.49700
N  52.57100 24.68900 44.66200
C  51.62100 25.61900 44.32000
C  50.51600 24.98900 43.49900
C  50.68600 23.52800 43.72000
C  52.11700 23.41900 44.37400
C  49.66900 22.86200 44.66100
C  50.76900 25.28500 41.96300
C  52.18000 25.78900 41.49500
H  53.30400 24.75900 41.39900
N  55.01100 23.04000 45.42200
C  54.23200 22.13900 44.64400
C  54.98900 20.90300 44.41500
C  56.24300 21.10400 45.12200
C  56.27600 22.44800 45.59000
C  54.45800 19.67500 43.74600
C  57.35400 20.03900 45.09500
O  57.15600 18.98900 44.55600
C  58.78900 20.28200 45.55400
N  56.37200 25.24600 46.82900
C  57.39600 24.39300 46.85300
C  58.69000 25.05000 47.38700
C  58.24100 26.54400 47.70800
C  56.68500 26.42500 47.40600
C  59.32500 24.29300 48.60200
C  58.89700 27.65300 46.83700
C  58.73600 27.52000 45.35200
N  53.94100 26.82800 46.29400
C  54.59000 27.74700 46.99300
C  53.75300 28.93000 46.96000
C  52.56700 28.66800 46.15300
C  52.78900 27.31400 45.71300
C  54.05800 30.24100 47.61400
C  51.35200 29.19000 45.64400
O  50.85100 30.29800 45.74300
C  50.69900 28.04600 44.75800
C  50.68100 28.64400 43.42700
O  51.61900 29.12500 42.76900
O  49.39600 28.31700 42.84200
C  49.24000 28.49800 41.38000
H  52.22900 21.45600 43.85700
H  58.24400 22.61700 46.49700
H  56.32600 28.53200 47.79600
H  49.54900 25.41900 43.75900
H  50.63200 22.92900 42.81000
H  48.75700 23.42400 44.46000
H  49.83700 22.82300 45.73700
H  49.55900 21.85100 44.27100
H  50.09400 26.08500 41.65700
H  50.45700 24.48500 41.29200
H  52.42900 26.67100 42.08500
H  52.17300 26.10400 40.45200
H  55.16100 19.31100 42.99700
H  53.48100 19.82000 43.28500
H  54.32500 18.87300 44.47300
H  59.42000 19.46100 45.21400
H  58.87600 20.39800 46.63400
H  59.23000 21.12800 45.02600
H  59.40700 24.98100 46.56800
H  58.50400 26.76700 48.74200
H  59.22500 24.92300 49.48600
H  60.34200 24.09700 48.26100
H  58.76600 23.38300 48.81900
H  59.93500 27.34500 46.96300
H  58.82200 28.68000 47.19300
H  57.79800 26.99700 45.16600
H  59.52000 27.03300 44.77200
H  58.51700 28.47800 44.88000
H  54.87200 30.21200 48.33900
H  53.17100 30.72600 48.02200
H  54.41200 31.01200 46.92900
H  49.69000 27.68300 44.95500
H  50.19100 28.35900 40.86500
H  48.75000 29.45600 41.20800
H  48.50300 27.76200 41.06000

