158

Mg 44.95900 3.65500 46.62700
C  42.86500 6.31700 46.55100
C  42.30300 1.53300 46.39900
C  47.10700 1.06400 46.08100
C  47.73300 5.80200 46.26500
N  42.78400 3.94500 46.55900
C  42.13800 5.11600 46.61800
C  40.57900 4.89800 46.49000
C  40.46400 3.33000 46.51400
C  41.93500 2.84400 46.58800
C  39.63400 2.78300 47.75200
C  39.84100 5.57000 45.32300
C  40.52700 5.53600 43.90100
H  39.62700 5.70500 42.65900
N  44.66000 1.54000 46.29600
C  43.46100 0.84200 46.28600
C  43.76800 -0.57100 46.22900
C  45.15900 -0.70800 46.02400
C  45.71800 0.64400 46.10900
C  42.73900 -1.71400 46.34000
C  45.80500 -1.96700 45.86500
O  45.21600 -3.06400 45.82300
C  47.30200 -2.11100 45.78000
N  47.11700 3.51000 46.09100
C  47.71100 2.31400 46.14300
C  49.20300 2.49500 46.29100
C  49.43100 3.97000 46.03900
C  48.03800 4.46100 46.13300
C  49.74200 1.92100 47.63200
C  50.23700 4.41200 44.72800
C  49.43300 4.43500 43.45100
N  45.30000 5.65300 46.28500
C  46.44600 6.39800 46.24600
C  46.08600 7.78500 46.13000
C  44.69100 7.79800 46.21900
C  44.23700 6.47500 46.37100
C  47.06200 8.89500 46.13900
C  43.53600 8.63800 46.34200
O  43.39200 9.84200 46.23300
C  42.27400 7.67400 46.38200
C  41.33300 7.99500 47.39700
O  41.45900 7.61400 48.53200
O  40.29800 8.86600 46.94400
C  39.33900 9.25000 47.92300
H  41.41100 0.90800 46.32400
H  47.78300 0.21200 46.18300
H  48.50800 6.57100 46.24600
H  40.10900 5.18200 47.43100
H  39.96300 3.09800 45.57500
H  39.05800 3.48400 48.35600
H  40.35500 2.25500 48.37600
H  38.95100 1.97400 47.49400
H  39.71000 6.62900 45.54400
H  38.82100 5.18800 45.28700
H  41.12400 4.65000 43.68600
H  41.17700 6.40200 43.77500
H  41.98900 -1.43900 47.08200
H  43.10400 -2.70900 46.59500
H  42.20800 -1.63400 45.39200
H  47.77600 -1.89400 46.73700
H  47.58700 -1.45600 44.95700
H  47.64400 -3.10700 45.50100
H  49.72200 1.92000 45.52400
H  49.94200 4.38600 46.90700
H  50.19900 0.96600 47.37400
H  48.95700 1.64100 48.33500
H  50.54000 2.57900 47.97700
H  51.00000 3.64000 44.62000
H  50.77500 5.34100 44.91600
H  48.37400 4.39200 43.70600
H  49.67100 3.49500 42.95300
H  49.52300 5.34200 42.85400
H  47.78000 8.74000 45.33400
H  47.73200 8.90700 46.99900
H  46.49400 9.79300 45.89600
H  41.77800 7.70200 45.41200
H  38.37800 8.80100 47.67500
H  39.25300 10.33600 47.93900
H  39.64400 8.98800 48.93600
Mg 0.43600 43.04800 25.83900
C  2.46000 43.27300 28.56200
C  -2.29000 42.20600 28.01300
C  -1.58100 42.72400 23.12700
C  3.10500 44.03700 23.75300
N  0.06800 42.89800 28.01100
C  1.08800 43.10400 28.95900
C  0.56900 43.07400 30.34700
C  -0.79100 42.22600 30.19200
C  -1.06800 42.49500 28.61400
C  -0.81200 40.72900 30.53800
C  0.40100 44.37500 30.97900
C  0.58800 44.44900 32.54800
H  0.32600 43.19600 33.39800
N  -1.72200 42.63200 25.62300
C  -2.60400 42.25000 26.64500
C  -3.84700 41.87500 25.97500
C  -3.59000 41.87200 24.58600
C  -2.27100 42.49400 24.35300
C  -4.98800 41.34200 26.77600
C  -4.43300 41.45000 23.42100
O  -4.25000 41.80800 22.28100
C  -5.72500 40.70700 23.79600
N  0.70100 43.48400 23.71100
C  -0.31000 43.27600 22.85800
C  0.25600 43.40100 21.49000
C  1.70700 43.99200 21.60600
C  1.84900 43.91300 23.13400
C  0.27200 42.07000 20.73400
C  1.82000 45.52900 21.13400
C  3.06800 45.82000 20.25900
N  2.42900 43.42400 26.01100
C  3.40700 43.75100 25.13300
C  4.68500 43.86300 25.78300
C  4.32500 43.65300 27.17300
C  2.93600 43.43200 27.27400
C  6.01300 44.26300 25.17200
C  4.93800 43.70600 28.45700
O  6.13100 43.80500 28.84000
C  3.68600 43.47000 29.42900
C  3.91800 42.36500 30.33100
O  3.63600 41.22000 30.16800
O  4.29000 42.96100 31.50100
C  4.34700 42.02600 32.61900
H  -3.07300 41.85100 28.68500
H  -2.17200 42.45800 22.24800
H  3.79000 44.56200 23.08300
H  1.27900 42.46300 30.90400
H  -1.67200 42.72800 30.59200
H  -1.56100 40.21100 29.94000
H  -0.97700 40.70300 31.61500
H  0.17600 40.31500 30.33500
H  -0.59100 44.75600 30.73800
H  1.23400 45.00000 30.65700
H  -0.02400 45.24500 32.97200
H  1.56100 44.88800 32.77100
H  -5.93500 41.83000 26.54500
H  -4.90200 41.72300 27.79300
H  -5.05200 40.25700 26.85800
H  -5.35000 39.98100 24.51800
H  -6.07300 40.13300 22.93700
H  -6.55300 41.40700 23.90800
H  -0.44500 44.08400 21.01000
H  2.55800 43.45200 21.19100
H  -0.28900 42.31700 19.83300
H  -0.20800 41.30100 21.33900
H  1.26300 41.73800 20.42500
H  2.00100 46.11700 22.03400
H  0.94500 45.98100 20.66700
H  3.57900 44.88600 20.02600
H  3.73000 46.46400 20.83800
H  2.71100 46.26400 19.33000
H  5.92700 44.41800 24.09700
H  6.73500 43.45000 25.25700
H  6.40400 45.13800 25.69100
H  3.44400 44.37800 29.98100
H  4.48800 42.65700 33.49700
H  5.18700 41.34700 32.47600
H  3.41500 41.46200 32.61000

