158

Mg 39.62800 10.31400 29.95500
C  41.52500 11.35800 32.67600
C  37.40300 8.89400 32.30600
C  37.72300 8.90600 27.43300
C  42.12700 11.14600 27.75900
N  39.58100 10.06400 32.18400
C  40.33200 10.73100 33.08300
C  39.87900 10.69700 34.52500
C  38.71700 9.66400 34.33600
C  38.53200 9.58200 32.84500
C  38.88500 8.21800 35.00000
C  39.50900 12.11100 35.09800
C  40.31700 12.74100 36.27500
H  39.55200 13.19900 37.47900
N  37.82700 9.03800 29.90600
C  37.00300 8.67400 30.96100
C  35.74900 7.98300 30.41300
C  35.83500 7.99100 29.01200
C  37.17700 8.63100 28.73700
C  34.78100 7.34500 31.42300
C  34.82100 7.43300 27.99800
O  34.99400 7.46900 26.80500
C  33.51000 6.88800 28.56900
N  39.91400 9.98500 27.94100
C  38.99100 9.45900 27.03800
C  39.54900 9.61800 25.55100
C  40.78300 10.61400 25.72900
C  40.96900 10.57900 27.24900
C  39.84000 8.29700 24.76200
C  40.47200 12.11700 25.39500
C  41.75000 12.80800 24.73600
N  41.45600 11.06100 30.08800
C  42.35300 11.42200 29.14900
C  43.47200 11.97700 29.75300
C  43.17700 12.10700 31.12700
C  41.96800 11.41700 31.29700
C  44.68400 12.42000 29.00300
C  43.62200 12.65900 32.42200
O  44.65500 13.26600 32.65600
C  42.63700 12.13900 33.47200
C  43.33500 11.20600 34.46400
O  43.76000 10.09800 34.20800
O  43.49400 11.89100 35.68500
C  43.99800 11.10800 36.83000
H  36.70900 8.67300 33.12000
H  37.17800 8.57800 26.54500
H  42.92300 11.38200 27.05000
H  40.73000 10.18900 34.97900
H  37.84300 10.13300 34.78800
H  38.00700 7.88800 35.55600
H  39.73500 8.43800 35.64500
H  39.29600 7.48900 34.30200
H  38.45700 12.01300 35.36800
H  39.59500 12.84500 34.29700
H  40.86400 13.63200 35.96800
H  41.05600 11.97400 36.50400
H  34.36700 6.43700 30.98400
H  33.92000 8.00900 31.50300
H  35.33300 7.12900 32.33700
H  33.23400 7.68700 29.25800
H  33.80000 6.01100 29.14800
H  32.71800 6.60700 27.87500
H  38.82100 10.07500 24.88100
H  41.64200 10.30800 25.13200
H  40.92600 8.25500 24.67900
H  39.35800 7.96400 23.84300
H  39.57000 7.46800 25.41800
H  40.10200 12.70500 26.23500
H  39.65400 12.20700 24.68000
H  41.42900 12.98100 23.70900
H  42.60300 12.13500 24.81900
H  41.94600 13.77400 25.20100
H  44.58800 12.02200 27.99200
H  45.65300 12.10400 29.38600
H  44.86000 13.49500 28.96200
H  42.27200 13.02900 33.98400
H  43.49200 11.27900 37.78000
H  45.07800 11.24400 36.88700
H  43.74100 10.05400 36.72300
Mg 30.79700 58.39100 40.10900
C  27.98300 56.36300 39.46300
C  32.83800 55.91900 38.60200
C  33.43200 60.59100 40.06100
C  28.65500 60.96900 40.97800
N  30.39100 56.46200 38.96700
C  29.20800 55.77200 38.98400
C  29.37200 54.30600 38.43600
C  30.96200 54.11900 38.39100
C  31.46200 55.60400 38.69100
C  31.49400 53.04200 39.41600
C  28.64100 53.91900 37.10700
C  29.13700 54.95700 36.03000
H  28.11700 55.52900 34.96600
N  32.88300 58.26100 39.45100
C  33.53400 57.13300 38.96700
C  34.98300 57.40500 38.95000
C  35.14800 58.80700 39.38900
C  33.78100 59.32100 39.58900
C  36.04400 56.36700 38.61300
C  36.51700 59.53900 39.50800
O  37.52800 58.88700 39.36900
C  36.61400 61.00300 39.78300
N  31.00500 60.64400 40.31300
C  32.23000 61.21400 40.50300
C  32.09800 62.67500 40.96700
C  30.57700 62.72400 41.38500
C  30.01100 61.34400 40.93900
C  33.16700 63.29200 41.99100
C  29.73300 63.94000 40.94700
C  29.01600 64.64800 42.07500
N  28.77700 58.65000 40.26500
C  27.99900 59.74700 40.58600
C  26.62700 59.35500 40.75800
C  26.57900 58.04600 40.35600
C  27.87900 57.69700 39.98600
C  25.44200 60.19200 41.20500
C  25.68900 56.88100 40.09400
O  24.50900 56.74100 40.38700
C  26.49800 55.82700 39.33900
C  26.32600 54.54900 39.96200
O  26.76100 54.15800 40.98000
O  25.44300 53.76800 39.19500
C  25.45100 52.31700 39.48800
H  33.51400 55.08700 38.39600
H  34.27400 61.28500 40.10700
H  28.11300 61.63600 41.65200
H  28.88900 53.72100 39.21900
H  31.23500 53.80700 37.38300
H  32.10400 52.35900 38.82500
H  30.70100 52.48600 39.91700
H  32.03900 53.56900 40.19900
H  27.57100 53.79800 37.27500
H  29.05700 52.98000 36.74100
H  29.89300 54.46500 35.41800
H  29.46000 55.89600 36.47800
H  36.84400 56.87100 38.06900
H  35.64400 55.60900 37.94000
H  36.45200 55.92800 39.52300
H  36.25600 61.48700 38.87500
H  37.64600 61.31300 39.95000
H  36.06000 61.34000 40.65900
H  32.19700 63.38800 40.14900
H  30.48200 62.65700 42.46900
H  32.70200 63.82500 42.82000
H  33.84900 63.92800 41.42800
H  33.69900 62.41300 42.35600
H  29.02600 63.65100 40.17000
H  30.50300 64.55200 40.47800
H  29.13500 65.72900 42.00900
H  29.23300 64.30000 43.08500
H  27.97400 64.37700 41.90300
H  25.69300 60.83100 42.05100
H  24.57400 59.54900 41.35200
H  25.29000 60.95900 40.44500
H  25.88800 55.81400 38.43600
H  25.56500 51.89300 38.49000
H  24.46500 52.04800 39.86700
H  26.19900 52.00900 40.21900

