158

Mg 36.12400 1.96500 29.53400
C  34.04200 2.85300 32.24400
C  38.73200 1.97000 31.81900
C  38.18200 1.70800 26.97500
C  33.47600 2.53000 27.39000
N  36.34400 2.32200 31.86800
C  35.33700 2.60700 32.72500
C  35.83700 2.67000 34.17800
C  37.42000 2.49500 34.05600
C  37.55100 2.27600 32.46200
C  38.24200 3.68800 34.71000
C  35.15000 1.55700 35.14500
C  34.89300 1.92200 36.61000
H  35.68700 3.06900 37.33600
N  38.17500 1.72700 29.39200
C  39.06500 1.58900 30.45600
C  40.39300 1.28500 30.00400
C  40.22600 1.25700 28.59900
C  38.84300 1.61300 28.23700
C  41.64500 0.96400 30.81800
C  41.25000 0.89400 27.52700
O  40.87500 0.70900 26.34000
C  42.76700 0.69500 27.78800
N  35.82200 2.00100 27.54400
C  36.86600 1.88700 26.64800
C  36.50500 2.17800 25.23900
C  34.91900 2.16700 25.32000
C  34.67300 2.22900 26.85400
C  37.22200 3.45000 24.61700
C  34.25000 0.97900 24.55800
C  34.02100 -0.33800 25.35500
N  34.15700 2.56600 29.73600
C  33.20900 2.75700 28.75700
C  31.92900 3.13200 29.40600
C  32.18200 3.20500 30.81600
C  33.59600 2.87500 30.91500
C  30.61000 3.61100 28.72200
C  31.66300 3.40700 32.08600
O  30.48800 3.67300 32.45100
C  32.75200 3.09600 33.08200
C  32.80900 4.22800 34.05000
O  33.40200 5.27000 33.79100
O  32.12500 3.92600 35.20400
C  32.06300 5.19800 36.05900
H  39.52900 1.91100 32.56200
H  38.79200 1.58700 26.07800
H  32.67800 2.83400 26.71000
H  35.68900 3.60400 34.72000
H  37.69300 1.59400 34.60700
H  39.06800 3.28100 35.29400
H  37.72700 4.33100 35.42300
H  38.63800 4.34400 33.93400
H  35.76200 0.65600 35.11000
H  34.23400 1.27000 34.63000
H  34.94700 0.98100 37.15800
H  33.82700 2.14900 36.64100
H  42.15700 0.12100 30.35400
H  41.31000 0.62000 31.79600
H  42.23700 1.87100 30.94400
H  43.19500 0.61700 26.78800
H  42.73700 -0.27500 28.28400
H  43.16700 1.56400 28.31000
H  36.77700 1.30100 24.65200
H  34.65700 3.12500 24.87200
H  37.79500 3.91800 25.41700
H  36.53300 4.22200 24.27600
H  37.83900 3.15200 23.76900
H  34.93300 0.81500 23.72300
H  33.31600 1.31900 24.11000
H  32.97800 -0.34200 25.66900
H  34.59900 -0.44400 26.27300
H  34.25600 -1.22000 24.76000
H  29.90800 2.79300 28.56300
H  30.71600 4.14700 27.77800
H  30.15300 4.24100 29.48400
H  32.51600 2.16000 33.58800
H  31.37100 5.19200 36.90000
H  31.83400 6.00300 35.36000
H  33.04400 5.51300 36.41300
Mg 16.93700 52.34300 26.90200
C  18.95700 50.64700 29.12500
C  14.65000 52.97000 29.28600
C  14.91500 54.03000 24.53000
C  18.90500 51.28100 24.22600
N  16.88300 51.82500 28.88400
C  17.75100 51.17600 29.63800
C  17.41800 51.42800 31.14100
C  15.92200 51.78700 31.13000
C  15.81300 52.22500 29.68300
C  15.04000 50.74600 31.68700
C  18.38200 52.52400 31.79000
C  18.81300 52.10500 33.19800
H  17.83400 51.46100 34.18700
N  15.03100 53.33000 27.00300
C  14.29600 53.44100 28.10200
C  13.18200 54.24300 27.78700
C  13.24900 54.65400 26.42500
C  14.47900 53.99700 25.93000
C  12.04700 54.52600 28.80700
C  12.39100 55.60500 25.64400
O  12.60500 55.88100 24.45800
C  11.07000 56.06800 26.31800
N  16.91200 52.55800 24.64700
C  15.98200 53.28500 23.98300
C  16.10000 53.13900 22.44100
C  17.58700 52.47400 22.34000
C  17.82500 52.07000 23.81700
C  15.08400 52.14000 21.78000
C  18.68600 53.41900 21.88200
C  19.62800 52.87900 20.81900
N  18.61100 51.15800 26.59600
C  19.28300 50.71500 25.48900
C  20.37500 49.81400 25.92700
C  20.29600 49.82700 27.31300
C  19.22300 50.67200 27.67600
C  21.36100 49.14500 24.92800
C  20.94600 49.22400 28.52800
O  21.88400 48.48800 28.80800
C  20.14000 49.91100 29.75100
C  19.68800 48.96600 30.80300
O  18.75400 48.13600 30.71100
O  20.36200 49.18600 31.97000
C  19.93500 48.39600 33.17300
H  14.08100 53.11900 30.20600
H  14.27900 54.55800 23.81600
H  19.43900 50.92500 23.34200
H  17.50500 50.49000 31.68900
H  15.66200 52.72800 31.61500
H  14.65800 51.01600 32.67200
H  15.51500 49.78400 31.87900
H  14.16800 50.65500 31.04000
H  17.95500 53.52000 31.67900
H  19.22100 52.55000 31.09600
H  19.17900 52.98700 33.72400
H  19.68800 51.46100 33.11100
H  11.08100 54.29000 28.36200
H  12.12500 55.55400 29.16200
H  12.24500 53.90300 29.67900
H  10.64900 56.60200 25.46600
H  11.35500 56.80000 27.07300
H  10.47300 55.18600 26.54900
H  15.94300 54.16400 22.10400
H  17.50900 51.58600 21.71200
H  15.58300 51.58100 20.98800
H  14.23600 52.58500 21.25800
H  14.75100 51.42800 22.53500
H  19.23800 53.71100 22.77500
H  18.19500 54.22000 21.33100
H  20.61600 52.65900 21.22400
H  19.82500 53.58100 20.00900
H  19.25800 51.97800 20.33100
H  21.01100 48.87200 23.93300
H  21.47300 48.19700 25.45400
H  22.37200 49.54500 24.99500
H  20.83600 50.61100 30.21300
H  20.14000 49.04400 34.02500
H  20.48700 47.49300 33.43300
H  18.86000 48.21700 33.14900

