158

Mg 8.50500 3.15400 27.79900
C  9.82200 1.59300 30.68100
C  6.34300 4.89500 29.85500
C  7.18900 4.58500 25.04200
C  10.21500 0.92500 25.85300
N  8.06500 3.16800 30.00600
C  8.82300 2.58100 30.95900
C  8.45100 3.12100 32.39600
C  7.22600 3.97300 32.08800
C  7.21100 4.06200 30.54900
C  5.94500 3.51000 32.79800
C  9.59400 3.73600 33.17400
C  9.12500 4.39000 34.47300
H  10.03500 4.00500 35.61600
N  7.02700 4.58300 27.45900
C  6.24300 5.18500 28.46600
C  5.34600 6.11400 27.86900
C  5.45700 5.95600 26.44900
C  6.61200 5.03100 26.25900
C  4.35500 6.94700 28.73400
C  4.61000 6.64500 25.37800
O  4.78900 6.32500 24.21400
C  3.43400 7.63600 25.72400
N  8.81900 2.92600 25.68300
C  8.13800 3.50800 24.69900
C  8.57100 3.08500 23.31000
C  9.56600 1.96100 23.61000
C  9.58300 1.93500 25.12900
C  7.33700 2.64400 22.47900
C  10.96400 2.09300 23.06300
C  11.85200 3.28000 23.63500
N  9.60000 1.52100 28.14400
C  10.28000 0.74000 27.20400
C  11.13700 -0.15600 27.93500
C  10.97300 0.15900 29.31300
C  10.05500 1.14400 29.39400
C  12.02900 -1.29800 27.35900
C  11.43300 -0.18500 30.67000
O  12.23400 -1.09300 30.98400
C  10.79200 0.87200 31.63200
C  10.11700 0.00300 32.61000
O  9.06000 -0.58500 32.45300
O  10.83000 0.02900 33.70000
C  10.25500 -0.20200 35.03900
H  5.58100 5.33700 30.50100
H  6.80500 5.03300 24.12300
H  10.73300 0.15200 25.28200
H  8.02700 2.23900 32.87500
H  7.44600 5.01400 32.32600
H  6.22400 2.75900 33.53700
H  5.29200 3.04700 32.05900
H  5.47900 4.29900 33.38800
H  10.00800 4.55700 32.58900
H  10.43500 3.07700 33.39100
H  8.07900 4.12300 34.62300
H  9.19800 5.47400 34.37700
H  4.38400 7.98600 28.40700
H  4.49900 7.08500 29.80600
H  3.44500 6.38100 28.53500
H  2.90700 7.83300 24.79100
H  3.72100 8.61500 26.10900
H  2.71500 7.00400 26.24500
H  9.01000 3.92100 22.76500
H  9.09000 1.02400 23.32300
H  6.45100 2.61100 23.11400
H  7.40200 1.66500 22.00400
H  7.23300 3.45500 21.75900
H  10.89700 2.19500 21.98000
H  11.46100 1.14000 23.24000
H  12.22000 3.85000 22.78200
H  12.74600 2.83000 24.06600
H  11.39100 3.75500 24.50000
H  12.01900 -1.34900 26.27000
H  11.79500 -2.19300 27.93500
H  13.05100 -0.97200 27.55300
H  11.70000 1.30900 32.04700
H  9.18900 -0.42700 35.09200
H  10.39700 0.68000 35.66400
H  10.83500 -0.97500 35.54200
Mg 48.31000 15.80600 28.75600
C  46.42900 15.14000 31.67300
C  50.37700 17.65400 30.59400
C  50.08000 16.37700 25.91200
C  45.94000 14.10200 26.90900
N  48.34800 16.39300 30.85600
C  47.56200 15.87000 31.94400
C  48.14800 16.28800 33.26700
C  49.25400 17.32600 32.97800
C  49.36500 17.18300 31.40000
C  49.03800 18.77100 33.43000
C  48.42000 15.08200 34.25100
C  48.21000 15.40900 35.72000
H  47.89000 16.76100 36.31000
N  50.01700 16.83100 28.31200
C  50.74000 17.54400 29.18300
C  51.91900 18.16000 28.52200
C  51.96700 17.65000 27.19200
C  50.68100 16.84000 27.08200
C  52.94000 18.98900 29.21800
C  52.85500 17.92600 26.04000
O  52.58700 17.47400 24.89900
C  53.93600 18.96900 26.14600
N  47.95500 15.39000 26.71600
C  48.85300 15.70900 25.79300
C  48.41000 15.20100 24.42400
C  47.40100 14.07400 24.83600
C  46.99500 14.57200 26.21800
C  47.80100 16.21900 23.47200
C  48.05600 12.58500 25.04700
C  47.82000 11.58700 23.86400
N  46.55500 14.91400 29.11400
C  45.69700 14.17800 28.29800
C  44.56700 13.68300 29.09300
C  44.80800 14.08100 30.40500
C  46.06500 14.73400 30.40500
C  43.34500 13.04500 28.62800
C  44.34200 13.96500 31.76700
O  43.35600 13.41700 32.28000
C  45.34100 14.63600 32.65000
C  44.64600 15.85600 33.13300
O  44.31600 16.84200 32.50900
O  44.61600 15.74000 34.55700
C  43.94500 16.83900 35.23700
H  51.07100 18.26700 31.17300
H  50.57300 16.58100 24.95900
H  45.18000 13.60100 26.30600
H  47.26500 16.82600 33.61100
H  50.19100 17.05200 33.46300
H  48.03700 19.08800 33.72300
H  49.19400 19.41900 32.56700
H  49.78200 19.10100 34.15500
H  49.46700 14.85400 34.05000
H  47.91500 14.18000 33.90400
H  49.14400 15.05100 36.15100
H  47.38800 14.71900 35.91100
H  53.87000 18.44800 29.39300
H  52.51900 19.43100 30.12100
H  53.19400 19.87100 28.63100
H  53.55100 19.98700 26.09700
H  54.61800 18.79800 25.31300
H  54.62700 18.76700 26.96500
H  49.19300 14.63000 23.92500
H  46.50300 14.00600 24.22200
H  47.65300 15.76100 22.49400
H  48.44200 17.10000 23.42500
H  46.84700 16.56700 23.86800
H  47.71000 12.07800 25.94900
H  49.14500 12.61700 25.07800
H  48.00100 12.02000 22.88000
H  46.84400 11.11400 23.97500
H  48.50300 10.73900 23.90800
H  43.10600 13.51200 27.67200
H  42.54400 13.24300 29.34000
H  43.42000 11.97000 28.46600
H  45.64200 13.98500 33.47000
H  42.86100 16.81500 35.11800
H  44.19700 17.87700 35.02200
H  44.08300 16.67400 36.30600

