158

Mg -9.94900 39.16000 39.63000
C  -8.53900 36.07900 39.38100
C  -6.73300 40.38200 38.57600
C  -11.39900 42.13800 38.77900
C  -13.03400 37.82400 40.05700
N  -7.75000 38.38900 39.24400
C  -7.54700 37.06100 39.09400
C  -6.02200 36.77300 38.70600
C  -5.45200 38.19700 38.94200
C  -6.69800 39.05200 38.92100
C  -4.61800 38.31400 40.30500
C  -5.87000 36.01100 37.37000
C  -5.16700 36.72600 36.22200
H  -5.65600 36.33400 34.76500
N  -9.20600 41.01200 38.91800
C  -7.87100 41.24700 38.47300
C  -7.79100 42.67600 38.10100
C  -9.09200 43.21400 38.15600
C  -9.98700 42.11400 38.57600
C  -6.52000 43.40400 37.71600
C  -9.42800 44.59800 37.60000
O  -8.61100 45.36100 37.15000
C  -10.86600 45.03700 37.55200
N  -11.97800 39.90200 39.27900
C  -12.29200 41.18500 39.13000
C  -13.84200 41.35800 39.08500
C  -14.32500 39.92800 39.50400
C  -13.06800 39.11800 39.60700
C  -14.43800 42.57800 39.88400
C  -15.45600 39.39700 38.63100
C  -15.12200 38.95500 37.23100
N  -10.64600 37.38400 39.83100
C  -11.91300 36.96000 40.17100
C  -11.81300 35.55700 40.45200
C  -10.56100 35.16600 39.99500
C  -9.85100 36.27700 39.67100
C  -12.92500 34.62300 40.86900
C  -9.74200 33.98000 39.70600
O  -9.92600 32.79700 39.74900
C  -8.38300 34.52800 39.21900
C  -7.36700 33.69800 39.99400
O  -7.27100 33.57600 41.20400
O  -6.60100 33.01500 39.09400
C  -5.53200 32.31400 39.70300
H  -5.80600 40.82900 38.21000
H  -12.00000 43.03900 38.63900
H  -13.98200 37.33700 40.29600
H  -5.51500 36.16900 39.45900
H  -4.75700 38.58100 38.19500
H  -4.25400 37.40500 40.78300
H  -5.28200 38.65000 41.10100
H  -3.75400 38.96500 40.16800
H  -6.84900 35.69600 37.01000
H  -5.31300 35.09200 37.55000
H  -4.10900 36.49800 36.35100
H  -5.38400 37.79300 36.27200
H  -6.33100 43.22200 36.65800
H  -5.66700 43.06200 38.30200
H  -6.55100 44.49300 37.73100
H  -11.26100 45.02100 38.56700
H  -11.44400 44.35100 36.93200
H  -10.95300 46.05200 37.16400
H  -13.95600 41.56100 38.02000
H  -14.81000 39.98600 40.47900
H  -15.10100 42.19000 40.65700
H  -15.10600 43.17000 39.25900
H  -13.68300 43.21000 40.35200
H  -16.25700 40.13100 38.53900
H  -15.89400 38.52700 39.12100
H  -15.59300 39.71600 36.61000
H  -15.51600 37.95300 37.06100
H  -14.08600 38.76300 36.94900
H  -12.67600 33.60300 40.57400
H  -13.84100 34.80400 40.30700
H  -13.24100 34.74000 41.90500
H  -8.37700 34.42100 38.13500
H  -5.93700 31.57700 40.39700
H  -4.83400 32.89600 40.30500
H  -4.86000 31.77700 39.03300
Mg -4.34900 25.87200 26.16100
C  -3.36600 27.33900 28.98600
C  -6.23000 23.74200 28.04100
C  -5.33500 24.18300 23.38300
C  -2.38000 27.94800 24.20700
N  -4.86000 25.61400 28.25000
C  -4.38200 26.41400 29.20800
C  -4.91500 26.07100 30.55500
C  -5.72700 24.74300 30.32500
C  -5.62600 24.69200 28.78100
C  -5.29100 23.46500 31.05800
C  -5.76900 27.24200 31.19400
C  -5.83500 27.20300 32.75300
H  -5.40000 25.98100 33.56300
N  -5.74000 24.32900 25.78400
C  -6.41600 23.57800 26.68400
C  -7.47300 22.79800 26.12100
C  -7.17000 22.82700 24.68300
C  -6.02400 23.78500 24.50700
C  -8.50300 22.00800 26.89400
C  -7.84900 22.06900 23.50700
O  -7.59600 22.23700 22.31900
C  -8.96600 21.09800 23.68200
N  -3.74200 25.95900 24.09000
C  -4.34700 25.15500 23.13500
C  -3.68100 25.36800 21.78000
C  -3.00400 26.80600 21.95800
C  -3.09000 26.94600 23.50500
C  -2.79500 24.15600 21.28700
C  -3.67300 28.06500 21.28500
C  -2.89600 28.66700 20.13600
N  -3.06900 27.28400 26.49400
C  -2.25700 28.05900 25.58600
C  -1.34000 28.82800 26.41900
C  -1.77800 28.71700 27.76400
C  -2.83800 27.73900 27.69500
C  -0.18400 29.70600 25.99000
C  -1.56400 29.11600 29.09100
O  -0.76700 29.94900 29.58900
C  -2.50100 28.20700 29.94400
C  -1.60200 27.41500 30.76300
O  -0.65800 26.76800 30.39700
O  -1.81800 27.73500 32.02600
C  -1.23700 27.04700 33.17300
H  -6.90800 23.15200 28.66100
H  -5.74200 23.65700 22.51700
H  -1.73000 28.64900 23.67900
H  -4.03000 25.73700 31.09700
H  -6.78300 24.72100 30.59700
H  -6.11600 23.00900 31.60600
H  -4.55900 23.83400 31.77600
H  -4.87900 22.68200 30.42200
H  -6.73300 27.04300 30.72400
H  -5.31200 28.18100 30.88100
H  -6.84600 27.55200 32.96200
H  -5.34400 28.12600 33.06300
H  -8.16900 21.67800 27.87800
H  -8.66000 21.10400 26.30600
H  -9.44400 22.55700 26.93600
H  -9.61300 20.93700 22.82000
H  -9.66800 21.46000 24.43300
H  -8.48100 20.14900 23.91500
H  -4.51900 25.50600 21.09700
H  -1.93700 26.71500 21.75500
H  -1.90800 24.60000 20.83600
H  -3.41600 23.60200 20.58400
H  -2.51000 23.55000 22.14600
H  -3.91000 28.88000 21.96900
H  -4.62300 27.85200 20.79300
H  -2.05800 28.00800 19.90600
H  -2.53100 29.68100 20.29700
H  -3.59000 28.62800 19.29700
H  -0.44900 30.76200 25.94800
H  0.21600 29.22100 25.10000
H  0.59300 29.60300 26.74700
H  -3.14900 28.85800 30.53100
H  -0.26200 27.47200 33.40900
H  -1.03900 25.98500 33.03200
H  -1.82900 27.25700 34.06400

