158

Mg 25.39400 -7.26800 47.94600
C  27.54200 -4.95300 46.51300
C  23.10700 -6.67600 45.47700
C  23.60800 -10.09300 48.83700
C  28.11000 -8.40700 49.88000
N  25.52900 -6.05100 46.10800
C  26.36800 -5.02800 45.83700
C  25.85300 -4.09000 44.77100
C  24.34100 -4.64100 44.57100
C  24.33700 -5.96700 45.35700
C  23.25400 -3.72500 45.19600
C  26.70600 -4.13700 43.49400
C  26.80900 -2.75200 42.79500
H  26.41600 -2.72700 41.31300
N  23.51800 -8.14700 47.41100
C  22.68900 -7.62700 46.42800
C  21.46100 -8.30300 46.40700
C  21.54200 -9.40000 47.28400
C  22.96300 -9.26500 47.92700
C  20.34800 -7.93000 45.44700
C  20.57700 -10.42900 47.49900
O  19.53900 -10.38700 46.89600
C  20.61600 -11.55300 48.49300
N  25.82800 -8.99400 49.20600
C  24.87200 -9.94200 49.46700
C  25.34200 -10.93100 50.50700
C  26.76700 -10.39600 50.91000
C  26.97000 -9.22000 49.91300
C  24.28300 -11.12600 51.67800
C  27.85300 -11.53300 50.72500
C  28.34500 -11.82200 49.30000
N  27.37000 -6.71100 48.33800
C  28.33300 -7.20900 49.16000
C  29.47300 -6.32700 49.16900
C  29.12000 -5.38300 48.19100
C  27.89700 -5.72000 47.65200
C  30.71000 -6.47500 50.04400
C  29.60200 -4.16400 47.48000
O  30.63300 -3.51800 47.70600
C  28.64600 -3.90700 46.32800
C  28.17800 -2.48700 46.49700
O  28.65500 -1.52800 45.86600
O  27.14100 -2.31600 47.38100
C  26.57900 -0.94700 47.52000
H  22.32400 -6.31800 44.80500
H  22.93700 -10.86800 49.21400
H  28.94900 -8.78500 50.46700
H  25.83300 -3.09200 45.20900
H  24.15900 -4.78300 43.50600
H  23.56700 -2.68100 45.17500
H  22.90800 -3.92400 46.21000
H  22.34900 -3.95500 44.63500
H  26.32900 -4.84900 42.76000
H  27.73300 -4.31600 43.81400
H  27.85000 -2.44100 42.88200
H  26.22600 -2.04800 43.38900
H  19.40400 -8.41600 45.69300
H  20.62800 -8.13800 44.41400
H  20.12000 -6.86600 45.50200
H  21.44900 -12.25000 48.40100
H  19.73000 -12.11400 48.19500
H  20.58700 -11.16400 49.51100
H  25.46300 -11.96400 50.18200
H  26.71500 -10.06500 51.94700
H  24.64700 -11.08000 52.70500
H  23.69800 -12.01300 51.43700
H  23.56800 -10.30400 51.63200
H  27.36700 -12.46200 51.02300
H  28.64800 -11.15700 51.37000
H  29.43300 -11.79700 49.23900
H  27.92400 -11.11300 48.58700
H  28.06200 -12.85800 49.11700
H  30.60600 -5.79300 50.88800
H  31.36100 -6.15700 49.23000
H  30.99400 -7.51500 50.20400
H  29.15900 -4.00000 45.37100
H  25.63100 -0.94700 46.98100
H  27.28500 -0.17200 47.22200
H  26.28700 -0.76600 48.55400
Mg 29.42300 58.88600 40.07800
C  26.88400 56.70200 38.78600
C  31.85200 56.40300 39.00200
C  31.83000 61.25800 40.34700
C  26.89100 61.29900 40.33900
N  29.42800 56.84200 38.88200
C  28.17300 56.14200 38.58200
C  28.56800 54.77700 37.96400
C  30.08200 54.66500 38.29700
C  30.50600 56.05200 38.76600
C  30.43700 53.61900 39.40100
C  28.30200 54.88000 36.38500
C  27.04000 54.08600 36.00500
H  26.22700 54.58800 34.80400
N  31.56100 58.80000 39.82300
C  32.33500 57.71000 39.37800
C  33.65900 58.18400 39.47500
C  33.79000 59.52200 39.99900
C  32.36300 59.94400 40.06600
C  34.74100 57.20800 38.98400
C  35.07900 60.30300 40.35900
O  36.23000 59.93800 40.11400
C  35.04800 61.63900 40.99400
N  29.33500 60.92200 40.19300
C  30.47800 61.68700 40.33000
C  30.08400 63.16700 40.57100
C  28.55700 63.24500 40.59500
C  28.22200 61.69500 40.39400
C  30.79700 63.75700 41.85500
C  27.88300 64.20200 39.59800
C  27.39900 65.61600 39.98400
N  27.34100 58.95400 39.84500
C  26.49700 59.99300 40.05400
C  25.08800 59.53300 40.00600
C  25.23600 58.27300 39.48300
C  26.55900 57.97700 39.39000
C  23.84100 60.31800 40.34200
C  24.47200 57.10400 39.02300
O  23.23300 56.96800 38.86300
C  25.51200 56.05800 38.58700
C  25.28900 54.85400 39.48600
O  25.57400 54.86900 40.67800
O  24.62600 53.85300 38.80100
C  24.31200 52.57900 39.40900
H  32.53300 55.58700 38.75000
H  32.52300 62.08600 40.51100
H  26.11500 62.04800 40.51100
H  28.04900 53.98400 38.50200
H  30.66900 54.37200 37.42700
H  31.04800 52.84900 38.93000
H  29.56600 53.04500 39.71500
H  30.95700 54.01800 40.27200
H  29.08900 54.56600 35.69800
H  28.05700 55.89500 36.07400
H  26.44600 53.86500 36.89200
H  27.33100 53.05300 35.82000
H  35.09000 56.46700 39.70300
H  35.64900 57.80100 38.87100
H  34.45700 56.63400 38.10200
H  34.61800 62.43200 40.38300
H  36.09500 61.82700 41.23600
H  34.45900 61.51000 41.90200
H  30.48500 63.75500 39.74600
H  28.25100 63.65800 41.55600
H  30.52400 63.37200 42.83800
H  30.58100 64.82400 41.80500
H  31.87300 63.64500 41.72300
H  27.09800 63.68300 39.04600
H  28.52200 64.36700 38.73100
H  27.82500 66.28400 39.23500
H  27.73900 65.79600 41.00400
H  26.31200 65.64200 39.90700
H  23.14600 59.63600 40.83200
H  23.29500 60.64600 39.45800
H  24.08900 61.13800 41.01600
H  25.34700 55.60900 37.60800
H  23.42100 52.24600 38.87600
H  24.09900 52.61500 40.47700
H  25.14800 51.91000 39.20300

