158

Mg 48.47600 15.64700 29.34700
C  46.32800 15.29300 32.13700
C  50.61100 17.37600 31.33300
C  50.33500 15.99900 26.63700
C  45.77700 14.38200 27.29700
N  48.53300 16.12800 31.43100
C  47.60500 15.83900 32.43100
C  48.04400 16.19300 33.84600
C  49.29700 17.10800 33.58600
C  49.49500 16.94700 32.04500
C  49.15700 18.59700 33.95500
C  48.34900 14.89800 34.52800
C  48.04700 14.93100 36.05700
H  47.85200 16.22500 36.83000
N  50.28100 16.45500 29.04300
C  51.06400 17.10500 30.03700
C  52.27200 17.46600 29.44500
C  52.30200 16.98400 28.08200
C  50.92300 16.43600 27.85200
C  53.44300 18.08100 30.19500
C  53.44400 17.00100 27.01200
O  53.26400 16.55700 25.85900
C  54.79100 17.48800 27.45200
N  48.11600 15.19700 27.28100
C  49.10900 15.37100 26.41400
C  48.59600 14.87400 25.00000
C  47.25900 14.16100 25.29000
C  47.00300 14.60900 26.71200
C  48.48100 16.10400 24.06000
C  47.22500 12.62500 25.12400
C  46.41600 12.12200 23.95900
N  46.46700 15.04100 29.59600
C  45.48000 14.66600 28.67900
C  44.24000 14.30500 29.35000
C  44.59200 14.48800 30.71800
C  45.93700 14.97200 30.78800
C  43.01500 13.70000 28.73100
C  44.04800 14.50400 32.03200
O  42.93100 14.26600 32.44900
C  45.19600 14.92000 33.03200
C  44.60900 16.11300 33.76500
O  44.51500 17.24400 33.22600
O  44.13300 15.87000 35.03200
C  43.57200 16.95500 35.78900
H  51.23900 18.01800 31.95400
H  50.95800 16.16900 25.75700
H  44.91000 14.08000 26.70600
H  47.23100 16.78900 34.26200
H  50.08400 16.57900 34.12300
H  48.16200 18.79800 34.35300
H  49.32100 19.25800 33.10400
H  49.87800 18.84900 34.73300
H  49.35200 14.52600 34.31800
H  47.65900 14.12100 34.19900
H  48.89700 14.40800 36.49600
H  47.19600 14.28500 36.27200
H  53.78000 18.97200 29.66300
H  54.24400 17.35300 30.07000
H  53.37300 18.27100 31.26600
H  55.23700 16.76700 28.13800
H  54.76700 18.54500 27.71600
H  55.38300 17.45000 26.53700
H  49.21800 14.08200 24.58400
H  46.51600 14.48900 24.56300
H  49.09400 16.93600 24.40800
H  47.49300 16.55500 23.97100
H  48.81600 15.80000 23.06800
H  46.84300 12.22700 26.06400
H  48.24800 12.25800 25.04000
H  46.92900 11.41400 23.30900
H  45.95800 12.92900 23.38700
H  45.52700 11.61000 24.32800
H  42.34900 14.52800 28.97300
H  42.67400 12.77100 29.18900
H  43.05500 13.65900 27.64300
H  45.44900 14.23900 33.84400
H  42.52800 16.95500 35.47400
H  43.97500 17.91700 35.47200
H  43.71700 16.71200 36.84100
Mg -5.99000 25.29600 26.42800
C  -4.51500 26.41500 29.33300
C  -7.90400 23.12400 28.35100
C  -6.83300 23.57600 23.66400
C  -3.56200 27.03500 24.62600
N  -6.26400 24.89100 28.56400
C  -5.58900 25.53300 29.61600
C  -6.14700 25.08400 30.99900
C  -6.98400 23.81200 30.65700
C  -7.13500 23.90700 29.11900
C  -6.38900 22.44100 31.21000
C  -6.83900 26.19900 31.80400
C  -6.59400 26.21100 33.32900
H  -5.82400 24.97500 33.91300
N  -7.28400 23.63200 26.04900
C  -7.93200 22.89300 26.97400
C  -8.79800 21.95200 26.29200
C  -8.60900 22.07300 24.87700
C  -7.51400 23.10500 24.81200
C  -9.72100 21.05700 27.00000
C  -9.26200 21.31800 23.77100
O  -8.97900 21.70300 22.62400
C  -10.32600 20.28600 23.96600
N  -5.29000 25.30000 24.45000
C  -5.89100 24.56600 23.44400
C  -5.18600 24.77900 22.15200
C  -4.33700 26.07600 22.37300
C  -4.36100 26.17600 23.90900
C  -4.24600 23.63400 21.72000
C  -5.01800 27.39700 21.84700
C  -4.35100 27.96100 20.60300
N  -4.45300 26.61800 26.82800
C  -3.64900 27.34500 26.00200
C  -2.75700 28.16300 26.79800
C  -3.12900 27.89200 28.11800
C  -4.10000 26.87300 28.05600
C  -1.75300 29.08100 26.27100
C  -2.76000 28.16800 29.48200
O  -1.84200 28.81600 29.97100
C  -3.62500 27.20400 30.32500
C  -2.57500 26.33000 30.95400
O  -1.81100 25.47600 30.49000
O  -2.55300 26.72700 32.30200
C  -1.33200 26.25200 32.97000
H  -8.65100 22.55800 28.91200
H  -7.06200 23.06600 22.72600
H  -2.81200 27.64700 24.12000
H  -5.19400 24.87300 31.48400
H  -7.98500 23.88800 31.08100
H  -7.08500 21.91700 31.86600
H  -5.44600 22.60200 31.73300
H  -6.17300 21.82300 30.33800
H  -7.91300 26.12000 31.63900
H  -6.35800 27.09500 31.40900
H  -7.53200 26.40700 33.84900
H  -5.99700 27.10400 33.51100
H  -9.47100 20.02900 26.74000
H  -10.76300 21.32200 26.81800
H  -9.70000 20.99200 28.08700
H  -10.61100 19.86600 24.93100
H  -10.15000 19.60400 23.13500
H  -11.28200 20.75400 23.73000
H  -5.91900 24.87400 21.35100
H  -3.34700 26.06000 21.91600
H  -3.19800 23.91700 21.81900
H  -4.32500 23.46500 20.64600
H  -4.27100 22.68900 22.26300
H  -5.02100 28.20600 22.57800
H  -6.09900 27.31200 21.73700
H  -4.15800 29.03100 20.67800
H  -4.92400 27.66000 19.72500
H  -3.35100 27.53500 20.51200
H  -1.02700 28.76600 25.52100
H  -1.05500 29.14200 27.10600
H  -1.90900 30.13800 26.05300
H  -4.04800 27.88000 31.06800
H  -1.56200 25.24400 33.31600
H  -1.10800 26.89600 33.82000
H  -0.47100 26.27700 32.30200

