158

Mg 1.52700 -0.81600 43.58800
C  4.92600 0.06000 44.01200
C  0.99200 2.29100 42.29200
C  -1.54700 -1.90000 42.86900
C  2.53300 -4.15100 44.09000
N  2.91300 0.98400 43.02600
C  4.24800 1.19500 43.42000
C  4.69000 2.59100 43.07200
C  3.30100 3.31400 42.91100
C  2.29700 2.14500 42.63700
C  2.96300 4.21300 44.17700
C  5.56400 2.74700 41.78800
C  5.63100 1.72600 40.52500
H  5.45600 2.29300 39.09300
N  -0.05500 0.08100 42.68000
C  -0.15300 1.38300 42.23100
C  -1.57700 1.66100 41.84000
C  -2.28900 0.48000 42.05400
C  -1.29600 -0.50700 42.58800
C  -2.06000 2.97300 41.25300
C  -3.74000 0.30100 41.64600
O  -4.35400 1.20300 41.03800
C  -4.51100 -0.97900 41.90100
N  0.62000 -2.74300 43.48800
C  -0.68600 -2.92800 43.24800
C  -1.17600 -4.39900 43.40500
C  0.18400 -4.99000 43.85500
C  1.23200 -3.92600 43.69800
C  -2.42900 -4.53300 44.36200
C  0.54400 -6.28900 43.15000
C  0.95200 -7.39900 44.04100
N  3.29000 -1.85900 44.08900
C  3.55000 -3.21500 44.29000
C  4.90500 -3.39500 44.70000
C  5.55300 -2.16500 44.56200
C  4.49400 -1.29200 44.14100
C  5.56400 -4.70400 44.99700
C  6.77100 -1.38500 44.77000
O  7.88900 -1.80200 44.99200
C  6.40200 0.13100 44.46400
C  6.62400 0.96500 45.74800
O  5.69800 1.43900 46.35700
O  7.93800 1.10200 45.97600
C  8.20800 2.26700 46.80800
H  0.55500 3.26800 42.07600
H  -2.55800 -2.30500 42.79200
H  2.80600 -5.17200 44.36600
H  5.28100 3.03600 43.87300
H  3.31300 3.90800 41.99800
H  2.40700 3.61200 44.89800
H  2.36600 5.07900 43.89200
H  3.84200 4.56500 44.71600
H  6.54700 2.90900 42.23000
H  5.44400 3.68500 41.24600
H  4.97900 0.86200 40.65600
H  6.67100 1.40200 40.55900
H  -2.32400 3.04300 40.19800
H  -1.30400 3.74800 41.38100
H  -2.91200 3.25500 41.87200
H  -5.50300 -0.73500 41.52000
H  -4.47800 -1.28600 42.94600
H  -3.99800 -1.63000 41.19400
H  -1.40000 -4.68800 42.37800
H  0.10700 -5.18900 44.92300
H  -2.65600 -3.48400 44.55000
H  -2.15000 -5.09400 45.25400
H  -3.23800 -4.98400 43.78700
H  1.37900 -6.03800 42.49700
H  -0.27700 -6.54500 42.48000
H  0.84200 -7.12200 45.08900
H  1.86600 -7.94000 43.79600
H  0.12900 -8.10200 43.91000
H  6.50400 -4.75100 44.44700
H  4.92600 -5.53700 44.70100
H  5.68100 -4.72200 46.08100
H  7.11600 0.52900 43.74300
H  7.53000 2.27200 47.66100
H  8.02400 3.15700 46.20700
H  9.24000 2.32200 47.15500
Mg 27.30500 51.07600 25.96700
C  25.28600 52.03500 28.72900
C  29.55200 49.89900 28.17100
C  29.17100 50.27500 23.31100
C  24.84900 52.43600 23.90500
N  27.35000 51.09000 28.21300
C  26.39500 51.36700 29.10100
C  26.85100 51.12800 30.43900
C  28.32400 50.56600 30.33500
C  28.40300 50.44800 28.80300
C  29.38900 51.54000 30.83400
C  25.84100 50.26500 31.35600
C  25.41400 50.64200 32.79300
H  26.58700 50.94400 33.73000
N  29.27400 50.35200 25.75200
C  29.99300 49.82900 26.80500
C  31.26700 49.31300 26.26000
C  31.14700 49.37300 24.83700
C  29.88800 50.01600 24.56400
C  32.33300 48.81500 27.16800
C  32.09400 48.85200 23.81700
O  31.88600 48.97400 22.60300
C  33.29100 47.97900 24.28300
N  27.10900 51.58800 23.95000
C  27.91200 50.90900 23.03800
C  27.35300 50.94300 21.59200
C  25.97900 51.60000 21.75400
C  25.95100 51.87300 23.28100
C  28.37500 51.60800 20.62400
C  24.67300 50.92100 21.14900
C  24.32900 49.56900 21.85900
N  25.50200 52.10000 26.22400
C  24.66500 52.64000 25.31200
C  23.62600 53.38200 25.91800
C  23.79400 53.17800 27.24900
C  24.95700 52.41700 27.41700
C  22.54700 54.18300 25.21700
C  23.25300 53.44200 28.59700
O  22.26000 54.10700 29.00900
C  24.19700 52.62100 29.55500
C  24.78800 53.69200 30.46900
O  25.79600 54.37600 30.23800
O  23.85500 53.93200 31.47500
C  24.11800 55.07000 32.30600
H  30.25100 49.57000 28.94200
H  29.57500 49.72100 22.46200
H  24.10000 52.87000 23.24000
H  26.89100 52.12900 30.87000
H  28.37800 49.56700 30.76700
H  30.32400 51.50000 30.27600
H  29.60800 51.29300 31.87300
H  29.05700 52.57300 30.72800
H  26.32500 49.29200 31.43400
H  24.94900 50.01800 30.78000
H  24.90100 49.83600 33.31700
H  24.74600 51.49600 32.91100
H  32.35700 47.75200 27.40800
H  32.23100 49.24700 28.16400
H  33.28500 49.18500 26.78900
H  33.63300 47.33700 23.47100
H  32.92100 47.23100 24.98400
H  34.20900 48.48300 24.58700
H  27.19800 49.95200 21.16500
H  26.05900 52.58500 21.29400
H  29.24900 52.12400 21.02100
H  27.82000 52.31700 20.00900
H  28.72500 50.84900 19.92500
H  24.73000 50.83200 20.06500
H  23.83000 51.59500 21.30000
H  24.83400 49.47000 22.82000
H  24.66800 48.74700 21.22900
H  23.25700 49.46800 22.03000
H  21.95900 54.70600 25.97100
H  21.83900 53.52800 24.70900
H  22.85900 55.05100 24.63600
H  23.70600 51.82100 30.10900
H  24.85700 54.70400 33.01800
H  23.20700 55.37900 32.81800
H  24.44500 55.89100 31.66700

