158

Mg 47.34900 34.34600 26.81800
C  45.56500 33.50700 29.73200
C  47.84700 37.51300 28.19900
C  48.75100 35.32000 23.89600
C  46.32800 31.31100 25.35600
N  46.84600 35.39000 28.85500
C  46.10700 34.82200 29.88600
C  45.93700 35.75200 31.07300
C  46.91500 36.90700 30.65000
C  47.17300 36.64500 29.15600
C  46.55900 38.35200 30.92100
C  46.25100 35.44100 32.58600
C  45.07500 35.57500 33.54400
H  45.47300 35.82700 35.01300
N  48.26200 36.05600 26.22200
C  48.35000 37.26500 26.91800
C  49.03500 38.25000 26.11700
C  49.33900 37.63200 24.82600
C  48.82200 36.25800 24.94300
C  49.52700 39.60800 26.65000
C  50.10500 38.18800 23.53900
O  50.30000 37.58300 22.47200
C  50.75500 39.51000 23.63300
N  47.61000 33.38900 25.00200
C  48.23600 33.99500 23.92900
C  48.32700 33.08100 22.72100
C  47.41200 31.89000 23.09000
C  47.06700 32.25400 24.58600
C  48.12400 33.75500 21.30900
C  48.23000 30.59000 22.89200
C  49.39400 30.29800 23.79300
N  46.36300 32.63600 27.46700
C  45.91500 31.52000 26.71600
C  45.07600 30.73400 27.59000
C  44.96300 31.48200 28.76700
C  45.66100 32.67000 28.65400
C  44.34800 29.40000 27.25500
C  44.24500 31.44800 30.01900
O  43.41500 30.64200 30.51900
C  44.60100 32.78900 30.69000
C  45.26500 32.26200 31.94700
O  46.43500 32.00600 32.20000
O  44.23100 31.94200 32.81700
C  44.65600 31.14000 33.97000
H  48.05900 38.48000 28.66000
H  49.16800 35.67400 22.95000
H  45.96800 30.40000 24.87400
H  44.98300 36.25600 30.91900
H  47.87200 36.57300 31.04900
H  46.47800 38.88000 29.97100
H  47.40000 38.75000 31.48800
H  45.58100 38.45800 31.39200
H  47.01700 36.07700 33.03000
H  46.58400 34.42700 32.80600
H  44.45000 34.69300 33.40500
H  44.48700 36.43000 33.21100
H  48.97400 40.43100 26.19500
H  50.60200 39.71300 26.50500
H  49.40200 39.58700 27.73200
H  50.05800 40.25600 24.01500
H  51.23500 39.76300 22.68800
H  51.51100 39.43400 24.41400
H  49.39100 32.84100 22.72400
H  46.43400 31.90100 22.61000
H  49.08200 33.61000 20.80900
H  47.73500 34.77100 21.37500
H  47.33700 33.21000 20.78800
H  48.66600 30.60200 21.89300
H  47.51600 29.77400 23.00600
H  50.23800 30.34000 23.10600
H  49.29400 29.28800 24.19100
H  49.53800 31.01800 24.59900
H  44.24100 29.33100 26.17300
H  43.37900 29.41700 27.75400
H  45.13300 28.76100 27.65800
H  43.69000 33.33200 30.94200
H  45.63600 31.31400 34.41300
H  44.39000 30.12600 33.67200
H  43.94500 31.20700 34.79400
Mg 0.42200 44.20200 25.30800
C  2.66400 43.89900 27.93500
C  -2.04400 42.90800 27.34300
C  -1.72700 44.11300 22.68200
C  3.02700 44.92500 23.21300
N  0.37900 43.48900 27.48400
C  1.38000 43.52300 28.34600
C  0.85800 43.29600 29.82300
C  -0.68000 42.87700 29.57900
C  -0.80300 43.09700 28.03200
C  -1.06100 41.43000 30.01500
C  0.89800 44.58700 30.68500
C  1.46000 44.40100 32.09500
H  1.30500 43.03000 32.81700
N  -1.60400 43.68100 25.08600
C  -2.44100 43.15200 26.03100
C  -3.75800 42.89700 25.45600
C  -3.66700 43.32000 24.09000
C  -2.30500 43.75300 23.87800
C  -4.89100 42.44800 26.35200
C  -4.76600 43.30700 23.02400
O  -4.67300 43.76700 21.87200
C  -6.13100 42.67100 23.33700
N  0.62900 44.36600 23.20700
C  -0.46000 44.48200 22.36800
C  0.00900 44.83500 20.91300
C  1.53300 45.09500 21.09800
C  1.77500 44.82800 22.59800
C  -0.45300 43.79400 19.90100
C  2.06500 46.43100 20.54500
C  1.76900 47.77600 21.38300
N  2.48700 44.39800 25.51900
C  3.43500 44.67600 24.52900
C  4.78000 44.60000 25.15800
C  4.48100 44.54600 26.52300
C  3.09600 44.23800 26.64000
C  6.08300 44.75100 24.48600
C  5.04900 44.26800 27.74400
O  6.25700 44.13200 28.00500
C  3.88700 44.05700 28.77200
C  4.26500 42.83800 29.47200
O  3.96000 41.68100 29.10300
O  4.75100 43.08900 30.65200
C  5.24700 41.93100 31.45000
H  -2.75000 42.30100 27.91400
H  -2.42300 44.20800 21.84600
H  3.79100 45.19600 22.48200
H  1.29500 42.41700 30.29700
H  -1.43700 43.56400 29.95900
H  -1.44900 41.39700 31.03300
H  -0.12500 40.88400 30.13100
H  -1.78700 40.83500 29.46100
H  -0.10900 44.97300 30.84000
H  1.57700 45.22800 30.12300
H  1.05100 45.26700 32.61700
H  2.53000 44.54700 31.94800
H  -5.02000 41.36600 26.32700
H  -5.84800 42.86200 26.03600
H  -4.83600 42.83300 27.37000
H  -6.06200 41.73300 23.88800
H  -6.73300 42.55600 22.43600
H  -6.58100 43.39600 24.01600
H  -0.30300 45.83100 20.59600
H  2.11600 44.35200 20.55400
H  0.29100 43.03900 19.64900
H  -0.70300 44.28400 18.96000
H  -1.38600 43.30000 20.17200
H  1.67900 46.65600 19.55100
H  3.14900 46.35200 20.47000
H  1.32200 47.57600 22.35700
H  1.04000 48.35300 20.81500
H  2.72000 48.30000 21.47600
H  6.87600 44.89300 25.22000
H  6.00800 45.51000 23.70800
H  6.21700 43.74200 24.09600
H  3.85600 44.84700 29.52200
H  5.93500 41.41200 30.78300
H  4.44500 41.30400 31.83700
H  5.78200 42.32100 32.31600

