158

Mg 25.31100 51.00000 26.43000
C  23.03400 52.05700 29.03800
C  27.58300 50.31900 28.87300
C  27.69700 50.50000 24.06100
C  22.98000 52.00800 24.07900
N  25.25900 51.02700 28.71300
C  24.18500 51.33800 29.53600
C  24.60200 51.08500 31.04000
C  26.12000 50.69800 30.89200
C  26.32700 50.70800 29.39300
C  27.12200 51.57200 31.60300
C  23.63400 50.00200 31.63700
C  23.81000 49.58500 33.13400
H  23.90500 50.67300 34.09700
N  27.34300 50.55700 26.45100
C  28.06500 50.23600 27.52900
C  29.37500 49.80800 27.14200
C  29.50500 50.11900 25.79300
C  28.17200 50.46400 25.36200
C  30.46600 49.28800 28.06200
C  30.73100 50.08400 24.88000
O  30.53800 50.30400 23.65700
C  32.10400 49.74400 25.35100
N  25.41600 51.32400 24.40700
C  26.43700 50.91100 23.61500
C  26.15200 51.12800 22.12500
C  24.70400 51.76000 22.19000
C  24.31100 51.63500 23.62700
C  27.24600 51.96200 21.39300
C  23.71100 51.04600 21.22000
C  23.36500 49.58400 21.21100
N  23.38300 51.76400 26.53300
C  22.56000 52.13500 25.45800
C  21.36700 52.67500 25.98300
C  21.50600 52.70600 27.34800
C  22.73400 52.14400 27.69400
C  20.24100 53.21200 25.13300
C  20.82000 52.96500 28.62800
O  19.72300 53.43200 28.85900
C  21.85600 52.60800 29.78300
C  22.11300 53.74500 30.71300
O  22.72500 54.77000 30.45700
O  21.73300 53.42400 31.98100
C  21.92400 54.50200 32.94900
H  28.23200 49.88300 29.63500
H  28.32700 50.12900 23.25000
H  22.24800 52.34200 23.34000
H  24.47800 52.11400 31.38000
H  26.08400 49.69300 31.31400
H  26.49900 52.12300 32.30800
H  27.54500 52.32600 30.93900
H  27.91800 51.04400 32.12800
H  23.82400 49.13400 31.00600
H  22.59700 50.21800 31.37700
H  24.68300 48.94600 33.27200
H  22.89500 49.04100 33.36600
H  31.03700 48.42000 27.73400
H  30.02700 49.03100 29.02500
H  31.11400 50.12400 28.32700
H  32.25700 48.77700 25.83100
H  32.38800 50.51800 26.06400
H  32.80400 49.73900 24.51500
H  26.07900 50.13900 21.67400
H  24.78100 52.81800 21.93900
H  28.06200 52.17900 22.08300
H  26.81100 52.87600 20.99000
H  27.75200 51.34600 20.65000
H  24.25500 51.26400 20.30100
H  22.89200 51.76200 21.27800
H  23.72400 49.17300 20.26800
H  22.27700 49.51800 21.20900
H  23.78800 49.08300 22.08200
H  19.70400 52.43000 24.59400
H  20.72400 53.88300 24.42300
H  19.45100 53.71100 25.69400
H  21.30600 51.88900 30.39100
H  22.97700 54.45700 33.22900
H  21.27200 54.17500 33.75900
H  21.51000 55.46300 32.64700
Mg -4.83700 25.27200 26.21600
C  -2.99900 27.17200 28.37900
C  -5.61100 23.13100 28.90400
C  -6.64500 23.36500 24.07000
C  -3.55600 27.20600 23.52000
N  -4.58100 25.31200 28.40700
C  -3.80800 26.20900 29.07200
C  -3.85700 25.96100 30.59300
C  -4.51100 24.55100 30.71700
C  -4.88100 24.25400 29.24300
C  -3.60900 23.45700 31.35100
C  -4.72600 27.15700 31.23000
C  -4.58900 27.63700 32.68900
H  -4.11700 26.62000 33.67000
N  -5.90400 23.50700 26.47400
C  -6.15600 22.81400 27.64300
C  -6.94200 21.63100 27.34500
C  -7.44100 21.81200 26.00400
C  -6.65400 22.91500 25.46500
C  -7.37400 20.64000 28.42900
C  -8.48100 21.05100 25.26300
O  -8.91600 21.38200 24.14800
C  -9.16600 19.81600 25.90300
N  -5.10600 25.35400 24.10100
C  -5.88900 24.40600 23.48800
C  -5.78800 24.56400 22.02300
C  -4.91500 25.84900 21.81200
C  -4.44900 26.17700 23.25000
C  -5.25700 23.27600 21.31200
C  -5.59800 27.16800 21.30500
C  -4.76000 27.93700 20.30100
N  -3.48700 26.87300 25.91400
C  -3.07300 27.51100 24.80900
C  -1.98600 28.39200 25.25200
C  -1.92900 28.30900 26.60700
C  -2.82400 27.33500 26.99700
C  -1.24400 29.36600 24.35500
C  -1.37200 28.80700 27.81700
O  -0.55100 29.67300 27.95200
C  -2.02900 28.14200 28.97700
C  -1.03600 27.50100 29.81700
O  -0.05400 26.87600 29.36300
O  -1.32300 27.67600 31.16500
C  -0.21500 27.07500 31.96000
H  -5.73500 22.35200 29.65900
H  -7.15300 22.71700 23.35300
H  -3.19400 27.63500 22.58300
H  -2.84000 25.84100 30.96800
H  -5.44600 24.48800 31.27400
H  -3.93600 23.10800 32.33100
H  -2.59700 23.81400 31.54000
H  -3.63900 22.67600 30.59100
H  -5.78300 26.94800 31.06700
H  -4.30800 28.00300 30.68400
H  -5.60900 27.97100 32.88000
H  -3.83100 28.41500 32.60400
H  -7.26100 19.71900 27.85800
H  -8.40700 20.90900 28.65100
H  -6.86500 20.67900 29.39200
H  -9.50300 19.95900 26.93000
H  -8.38800 19.06500 25.76500
H  -10.04900 19.60300 25.30100
H  -6.79400 24.76300 21.65300
H  -4.03800 25.60700 21.21200
H  -4.82200 22.62600 22.07100
H  -4.44900 23.51600 20.62100
H  -6.05000 22.70300 20.83100
H  -5.74200 27.96500 22.03400
H  -6.48100 26.91400 20.71900
H  -4.65800 28.99400 20.54700
H  -5.45400 27.96600 19.46100
H  -3.80800 27.49600 20.00600
H  -1.67400 29.47700 23.35900
H  -0.18400 29.12700 24.27600
H  -1.28200 30.39900 24.70000
H  -2.43200 28.93100 29.61200
H  0.72300 27.47500 31.57600
H  -0.24600 25.98900 31.87700
H  -0.25300 27.46200 32.97900

