158

Mg 45.18300 5.19900 47.00900
C  42.85500 7.83400 46.58400
C  42.55000 2.99300 46.40900
C  47.43300 2.88800 46.56300
C  47.83200 7.65500 46.85500
N  43.00900 5.46900 46.45800
C  42.24400 6.61400 46.30800
C  40.73400 6.37700 46.28200
C  40.65600 4.80000 46.11000
C  42.11000 4.38000 46.38600
C  39.56900 4.13700 47.17700
C  39.85800 7.09500 45.13900
C  40.62000 7.44600 43.78000
H  39.88400 6.96100 42.49000
N  44.99400 3.18000 46.59200
C  43.87800 2.45200 46.49800
C  44.20800 1.02700 46.43100
C  45.66200 1.02000 46.24000
C  46.11400 2.35500 46.45800
C  43.19400 -0.07100 46.29500
C  46.43100 -0.22600 45.81300
O  45.85200 -1.30800 45.57000
C  48.00400 -0.12000 45.49900
N  47.31100 5.29200 46.86300
C  47.99300 4.12000 46.76200
C  49.54100 4.28300 46.94800
C  49.71800 5.79200 47.01500
C  48.26800 6.27800 46.89100
C  50.19100 3.61000 48.23300
C  50.74300 6.34600 46.01600
C  51.98000 6.97200 46.63100
N  45.35000 7.27100 46.84200
C  46.45400 8.11700 46.82900
C  45.99600 9.52000 46.82900
C  44.59300 9.37000 46.90700
C  44.24900 8.06900 46.79100
C  46.84400 10.71800 46.92500
C  43.46000 10.18700 47.04300
O  43.36200 11.37400 47.33200
C  42.23100 9.18400 46.66200
C  41.22400 9.18300 47.78000
O  41.18200 8.38700 48.69100
O  40.36200 10.29000 47.53400
C  39.29500 10.56200 48.47300
H  41.78500 2.25600 46.15400
H  48.23100 2.15900 46.40900
H  48.65800 8.34000 47.05800
H  40.15900 6.64200 47.17000
H  40.29900 4.65300 45.09100
H  39.05600 4.83500 47.83800
H  40.06900 3.41000 47.81600
H  38.79000 3.56300 46.67500
H  39.69800 8.11000 45.50100
H  38.89900 6.58500 45.04900
H  41.56100 6.93000 43.97400
H  40.75000 8.52800 43.74800
H  43.38600 -0.69300 45.42100
H  42.16700 0.28500 46.21400
H  43.16500 -0.65100 47.21700
H  48.61000 -0.09600 46.40500
H  48.12200 0.80600 44.93700
H  48.26000 -0.96900 44.86400
H  50.03200 3.85300 46.07500
H  49.91400 6.15700 48.02400
H  51.08000 4.15800 48.54800
H  50.47000 2.58700 47.98100
H  49.34900 3.59200 48.92500
H  50.19300 7.12100 45.48100
H  50.96000 5.53400 45.32200
H  51.75700 8.03900 46.65300
H  52.86900 6.69300 46.06600
H  52.11300 6.56900 47.63600
H  47.74500 10.59000 47.52500
H  46.26500 11.57200 47.27700
H  47.21200 10.99700 45.93700
H  41.77800 9.53800 45.73600
H  39.10900 11.63500 48.51100
H  39.63600 10.31800 49.47900
H  38.40600 9.99000 48.20700
Mg 35.07400 2.44700 29.16600
C  32.69000 3.44600 31.58200
C  37.56600 2.71900 31.61300
C  37.35800 1.91400 26.77000
C  32.47600 2.36300 26.70100
N  35.08400 2.99500 31.25300
C  34.04200 3.26800 32.01200
C  34.42700 3.29500 33.53100
C  35.99500 3.49800 33.49200
C  36.26300 3.09200 32.01500
C  36.47700 4.92800 33.81600
C  33.96400 2.02600 34.34200
C  34.20600 1.85100 35.84400
H  34.70500 3.03300 36.72100
N  37.20900 2.24500 29.21300
C  37.98000 2.38000 30.32700
C  39.35300 2.21000 29.89200
C  39.31500 1.90800 28.50800
C  37.93400 1.97800 28.10500
C  40.59800 2.48300 30.72800
C  40.45300 1.46500 27.48500
O  40.31800 1.38000 26.25900
C  41.81900 1.24900 27.94400
N  34.95900 2.39800 27.01100
C  36.08800 2.17100 26.23500
C  35.76100 2.02700 24.73500
C  34.18500 2.11900 24.70100
C  33.83100 2.27700 26.25800
C  36.56500 3.00700 23.74700
C  33.63900 0.76300 24.06500
C  33.21400 -0.34000 25.08300
N  32.95800 2.83700 29.03800
C  32.06200 2.78100 27.99300
C  30.78800 3.18900 28.49100
C  30.96000 3.42400 29.88000
C  32.29000 3.21400 30.20600
C  29.66600 3.40300 27.61200
C  30.27700 3.83900 31.09300
O  29.14300 4.22400 31.28200
C  31.36600 3.71600 32.24200
C  31.43100 4.97000 33.02900
O  31.74600 6.07300 32.54500
O  31.20900 4.78600 34.36600
C  31.52100 5.94700 35.22000
H  38.37500 2.84000 32.33600
H  38.04700 1.75500 25.93900
H  31.75800 2.23000 25.88900
H  33.92300 4.13900 34.00300
H  36.63200 2.86400 34.10800
H  37.38300 5.22600 33.28900
H  36.81200 4.85200 34.85000
H  35.63100 5.61600 33.82200
H  34.39900 1.15500 33.85200
H  32.89800 1.82100 34.24800
H  34.87800 0.99500 35.90700
H  33.34200 1.52300 36.42300
H  40.41800 3.36600 31.34000
H  41.38200 2.71400 30.00700
H  40.80500 1.62500 31.36700
H  42.17400 2.27100 27.81100
H  42.34500 0.50500 27.34700
H  41.87400 0.89700 28.97400
H  36.12200 1.00700 24.60500
H  33.82900 2.98000 24.13600
H  37.24300 2.32500 23.23500
H  37.15900 3.72500 24.31100
H  35.93900 3.58000 23.06200
H  34.26500 0.24900 23.33600
H  32.79900 1.13100 23.47600
H  33.86500 -0.39700 25.95600
H  33.45900 -1.33300 24.70500
H  32.16600 -0.45700 25.35700
H  28.82800 2.70700 27.56200
H  29.97000 3.73800 26.62000
H  29.29300 4.33200 28.04400
H  31.15100 2.89900 32.93000
H  30.67900 5.96300 35.91300
H  31.58700 6.96000 34.82300
H  32.38400 5.70100 35.83800

