158

Mg 9.05700 3.15700 27.57700
C  10.33200 1.62000 30.42000
C  7.26000 5.33600 29.52100
C  7.79800 4.45900 24.76600
C  10.63600 0.61000 25.69100
N  8.64000 3.22400 29.78400
C  9.42200 2.67300 30.74400
C  9.07400 3.33100 32.10500
C  7.89400 4.35600 31.77300
C  7.93900 4.31900 30.31100
C  6.48800 3.94500 32.34800
C  10.25300 3.95100 32.81400
C  9.91900 4.51600 34.18800
H  10.46300 3.72800 35.39900
N  7.74500 4.67400 27.23800
C  7.15200 5.45000 28.15700
C  6.36300 6.49000 27.45700
C  6.52600 6.25100 26.03300
C  7.38100 5.10100 25.96500
C  5.55200 7.45100 28.23800
C  6.01100 7.03000 24.87700
O  6.40700 6.85200 23.75800
C  5.08500 8.13900 25.11500
N  9.18300 2.61600 25.53800
C  8.59700 3.40100 24.57300
C  8.89300 2.84400 23.21100
C  9.82500 1.60400 23.47500
C  9.90800 1.60300 24.97800
C  7.75800 2.46600 22.28900
C  11.20000 1.73500 22.72900
C  11.33000 0.97400 21.43800
N  10.28300 1.41500 27.91700
C  10.80300 0.51100 27.03600
C  11.57600 -0.42900 27.79000
C  11.50000 -0.03800 29.13800
C  10.66100 1.10100 29.12800
C  12.27700 -1.73600 27.32600
C  11.98500 -0.24300 30.48100
O  12.80400 -0.98200 30.96600
C  11.12600 0.74400 31.36900
C  10.28200 0.00300 32.34800
O  9.19300 -0.51100 32.12900
O  10.97600 -0.00100 33.52000
C  10.19100 -0.63700 34.65300
H  6.72300 6.07600 30.11800
H  7.48500 4.96900 23.85300
H  11.02100 -0.22500 25.10100
H  8.66900 2.56800 32.76900
H  8.18700 5.32100 32.18600
H  6.32700 4.45500 33.29800
H  6.57300 2.87900 32.55400
H  5.67400 4.05600 31.63200
H  10.65900 4.73300 32.17100
H  11.00300 3.16100 32.77500
H  8.88100 4.79800 34.35900
H  10.54700 5.40600 34.20300
H  5.59800 8.44700 27.79900
H  5.84200 7.57500 29.28100
H  4.48600 7.22700 28.23800
H  4.74500 8.58900 24.18300
H  5.49800 8.87300 25.80700
H  4.16700 7.70200 25.50900
H  9.35500 3.57200 22.54500
H  9.27400 0.70100 23.21300
H  6.93000 2.39700 22.99500
H  7.88000 1.52900 21.74600
H  7.53700 3.30000 21.62300
H  11.97400 1.38600 23.41200
H  11.39300 2.79500 22.56100
H  11.99500 1.64400 20.89200
H  10.38400 0.92100 20.90000
H  11.77500 0.00300 21.65400
H  13.03000 -2.05100 28.04800
H  12.80500 -1.52700 26.39500
H  11.54100 -2.52900 27.19800
H  11.84800 1.30600 31.96000
H  10.06000 -1.69500 34.42700
H  9.20600 -0.23200 34.88400
H  10.66900 -0.50600 35.62400
Mg 47.71500 44.00700 42.38500
C  44.35500 43.07200 42.58800
C  48.46200 40.62500 41.84000
C  50.86000 44.92500 41.52300
C  46.66400 47.43200 42.19500
N  46.45400 42.02900 42.19700
C  45.08800 41.89400 42.34900
C  44.70600 40.41000 42.18700
C  46.10600 39.66500 42.18100
C  47.10900 40.82700 42.12200
C  46.22200 38.77800 43.39200
C  43.72200 39.98300 41.12900
C  43.76100 40.61600 39.68100
H  44.13700 39.69500 38.49400
N  49.45100 42.88900 41.79400
C  49.55700 41.51200 41.67300
C  50.89300 41.16700 41.43100
C  51.54300 42.40500 41.20900
C  50.60200 43.51600 41.45600
C  51.30700 39.72600 41.30000
C  52.98500 42.46100 40.88500
O  53.71800 41.47600 40.63900
C  53.76800 43.76800 40.76200
N  48.64900 45.91500 42.06100
C  49.94800 46.01300 41.80100
C  50.35200 47.52800 41.79500
C  48.96600 48.21900 41.45600
C  48.02600 47.16400 42.05100
C  51.06700 48.18600 42.92500
C  48.65500 48.44200 39.86900
C  48.19900 49.84700 39.49200
N  45.95700 45.07300 42.52900
C  45.64700 46.48500 42.43000
C  44.27200 46.67100 42.64200
C  43.74100 45.39500 42.69100
C  44.76800 44.46600 42.62100
C  43.63400 48.03200 42.76600
C  42.50100 44.65900 42.86300
O  41.38700 45.12300 42.96600
C  42.87000 43.12600 42.87900
C  42.50700 42.59600 44.23100
O  42.07500 41.43400 44.44000
O  42.96300 43.42800 45.18900
C  42.95100 42.96300 46.61100
H  48.60300 39.55400 41.67900
H  51.85200 45.15000 41.12600
H  46.44100 48.49400 42.31400
H  44.22300 40.16500 43.13300
H  46.29000 39.04200 41.30500
H  47.14700 38.21500 43.26200
H  45.25300 38.30700 43.55600
H  46.37500 39.44800 44.23800
H  42.70700 40.22300 41.44700
H  43.80600 38.90000 41.04700
H  44.38000 41.51100 39.61700
H  42.75100 40.98100 39.49500
H  51.99400 39.56100 40.47100
H  50.52300 39.02100 41.02300
H  51.75800 39.26700 42.18000
H  53.53300 44.24900 39.81300
H  54.79700 43.41600 40.83300
H  53.66200 44.34700 41.68000
H  51.02000 47.68600 40.94800
H  48.73900 49.09100 42.06900
H  52.09600 48.39800 42.63500
H  50.93700 47.56900 43.81400
H  50.75900 49.22700 43.02900
H  47.78100 47.82900 39.64900
H  49.41600 48.03200 39.20500
H  47.57500 50.42100 40.17800
H  47.48700 49.78100 38.66900
H  49.01300 50.54600 39.30100
H  43.82400 48.49400 41.79800
H  44.07500 48.58400 43.59600
H  42.56500 47.83900 42.84900
H  42.26700 42.54700 42.17800
H  42.51100 42.01300 46.91600
H  42.30100 43.66900 47.12700
H  43.96000 42.94600 47.02400

