158

Mg 1.36100 8.74200 26.76300
C  1.67400 11.08900 29.47800
C  1.85900 6.20200 28.97000
C  1.56100 6.63300 24.12200
C  1.86500 11.51100 24.56300
N  1.82500 8.66500 28.93300
C  1.61400 9.73300 29.85200
C  1.42000 9.24200 31.33900
C  1.85500 7.73300 31.08300
C  1.88100 7.48200 29.59300
C  3.12100 7.21200 31.82200
C  -0.00700 9.49700 31.98800
C  -0.08700 9.32000 33.42000
H  1.10900 8.75600 34.17300
N  1.52700 6.68900 26.57300
C  1.84900 5.82900 27.58300
C  1.83800 4.47100 27.07000
C  1.57100 4.53400 25.69000
C  1.58700 6.02000 25.39900
C  1.87600 3.23900 28.01500
C  1.38500 3.49800 24.70400
O  1.11200 3.74200 23.54600
C  1.49700 2.06800 25.02200
N  1.70200 8.98000 24.63600
C  1.58400 7.98300 23.69500
C  1.68200 8.54900 22.26000
C  1.75300 10.06900 22.52800
C  1.77400 10.19400 24.01700
C  2.87700 7.91700 21.52000
C  0.59400 10.93200 21.87100
C  -0.84900 10.79100 22.49300
N  1.54700 10.93800 26.89600
C  1.80900 11.91800 25.95200
C  1.88200 13.16700 26.64100
C  1.88300 12.92100 27.92700
C  1.64100 11.49700 28.10600
C  1.98500 14.52000 25.89100
C  1.92400 13.54500 29.20400
O  2.09900 14.72100 29.49800
C  1.73200 12.36400 30.23700
C  2.90200 12.34400 31.17800
O  4.07800 12.33500 30.88300
O  2.45300 12.40600 32.47100
C  3.48000 12.31600 33.59100
H  1.97500 5.39600 29.69800
H  1.58100 6.02500 23.21500
H  2.15000 12.26800 23.83000
H  2.18000 9.90400 31.75300
H  1.03800 7.10900 31.44400
H  3.53500 7.81600 32.63000
H  3.92900 7.07200 31.10500
H  2.84200 6.29100 32.33400
H  -0.78800 8.96300 31.44800
H  -0.20900 10.52900 31.70200
H  -0.93200 8.68000 33.67700
H  -0.29400 10.27200 33.90700
H  2.39600 3.51300 28.93400
H  2.45200 2.46800 27.50400
H  0.84600 2.91700 28.16600
H  0.72400 1.86800 25.76400
H  2.49600 1.82100 25.38400
H  1.38800 1.43100 24.14400
H  0.76700 8.31100 21.71800
H  2.69800 10.43300 22.12500
H  3.52400 7.24800 22.08800
H  3.56800 8.64400 21.09400
H  2.55200 7.23500 20.73400
H  0.66500 10.52200 20.86400
H  0.91400 11.96800 21.98800
H  -1.15900 11.64200 23.10000
H  -0.96000 9.85000 23.03000
H  -1.53700 10.68900 21.65400
H  1.18300 14.41000 25.16100
H  2.96800 14.63400 25.43400
H  1.87700 15.44000 26.46500
H  0.73900 12.44500 30.67900
H  3.88500 13.32600 33.66300
H  4.25100 11.59000 33.33400
H  3.03500 12.01200 34.53800
Mg -2.58900 35.27900 26.80000
C  -4.32700 33.61400 29.59200
C  -1.92600 37.84300 29.21400
C  -1.03900 36.89400 24.43000
C  -3.76000 32.89300 24.72500
N  -3.14500 35.67500 29.18200
C  -3.74900 34.79200 30.06900
C  -3.82000 35.28600 31.53400
C  -3.21000 36.75300 31.30600
C  -2.70000 36.80900 29.81900
C  -4.19600 37.92100 31.60900
C  -2.97400 34.44700 32.54900
C  -2.78100 35.16300 33.89900
H  -3.24500 34.44400 35.17800
N  -1.51800 37.01800 26.86900
C  -1.33100 37.90700 27.89400
C  -0.47800 39.02500 27.42100
C  -0.29100 38.78600 26.06400
C  -0.95200 37.58200 25.71300
C  0.14600 40.07400 28.38200
C  0.38800 39.64900 25.06200
O  0.60600 39.33100 23.92300
C  0.79500 41.12200 25.40000
N  -2.68400 35.06200 24.81900
C  -1.82400 35.81300 24.03200
C  -1.77700 35.31300 22.58300
C  -2.56600 33.97500 22.72400
C  -3.05500 33.88700 24.14600
C  -2.33100 36.36600 21.61500
C  -1.78800 32.71700 22.26300
C  -0.43700 32.39700 22.96600
N  -3.77800 33.51200 27.04200
C  -4.20100 32.59500 26.06900
C  -4.95600 31.59900 26.71700
C  -5.06000 31.93800 28.05900
C  -4.27700 33.12700 28.28300
C  -5.60100 30.44700 25.95900
C  -5.70800 31.62000 29.22700
O  -6.50400 30.72500 29.51200
C  -5.08700 32.50700 30.32700
C  -6.25900 33.08700 31.07800
O  -6.96800 34.03400 30.79100
O  -6.50100 32.29500 32.20600
C  -7.58400 32.59100 33.15900
H  -1.78800 38.74400 29.81600
H  -0.31000 37.15400 23.65900
H  -3.97100 32.13300 23.96900
H  -4.83800 35.34800 31.92000
H  -2.31200 36.95200 31.89100
H  -4.31400 38.60300 30.76700
H  -3.86200 38.54300 32.43800
H  -5.22800 37.63400 31.81200
H  -2.04500 34.11700 32.08300
H  -3.54700 33.53100 32.69500
H  -3.29500 36.12400 33.91000
H  -1.72200 35.34900 34.07900
H  1.13400 40.34400 28.01100
H  0.26900 39.62800 29.36900
H  -0.56300 40.89700 28.46900
H  -0.07000 41.63300 25.82200
H  1.22900 41.68200 24.57200
H  1.66400 41.16300 26.05700
H  -0.74400 35.05800 22.34500
H  -3.35300 34.09500 21.97900
H  -2.83500 37.02500 22.32200
H  -3.10300 35.98200 20.94700
H  -1.47500 36.86900 21.16500
H  -1.56100 32.89200 21.21100
H  -2.47100 31.89200 22.46400
H  -0.20400 33.15000 23.71900
H  0.30400 32.50000 22.17300
H  -0.50500 31.40300 23.40800
H  -4.89600 30.09900 25.20500
H  -6.47900 30.84600 25.45200
H  -5.89500 29.61600 26.60200
H  -4.53800 31.81000 30.96000
H  -7.96600 31.69300 33.64400
H  -8.33800 33.07000 32.53300
H  -7.23500 33.27500 33.93200

