158

Mg 54.14200 24.48300 44.85300
C  51.63900 26.78300 44.03100
C  51.91400 21.90800 44.07200
C  56.72000 22.44400 44.61100
C  56.26100 27.17000 45.41100
N  52.09600 24.44200 43.98200
C  51.23000 25.50300 43.87900
C  49.83000 25.04700 43.50300
C  49.89800 23.53900 44.01400
C  51.38600 23.24700 44.08800
C  49.15000 23.28800 45.34300
C  49.59200 25.15700 41.92400
C  48.09700 25.46800 41.60400
H  47.69300 25.40800 40.10800
N  54.27900 22.43400 44.38700
C  53.24000 21.51400 44.14500
C  53.83600 20.21100 43.89400
C  55.24800 20.35800 43.94500
C  55.48800 21.81000 44.28400
C  53.10800 18.93600 43.75400
C  56.26000 19.18000 43.69200
O  55.88800 18.04600 43.36200
C  57.69500 19.34000 43.90000
N  56.14800 24.76600 44.91000
C  57.02400 23.73900 44.97600
C  58.44500 24.16600 45.21800
C  58.31200 25.70200 45.47400
C  56.83900 25.88600 45.33300
C  59.27700 23.41000 46.33500
C  59.22700 26.59400 44.60000
C  60.05700 27.66100 45.31300
N  53.99100 26.62300 44.96500
C  54.90700 27.58100 45.35800
C  54.22600 28.84700 45.47100
C  52.94100 28.61700 44.86100
C  52.88600 27.20100 44.57100
C  54.68400 30.22200 45.91600
C  51.68300 29.25200 44.39400
O  51.38400 30.45800 44.43400
C  50.78800 28.12300 43.79800
C  50.50300 28.42600 42.35200
O  51.24600 28.11300 41.40700
O  49.23400 28.95600 42.21600
C  48.57200 29.02000 40.86700
H  51.27300 21.02500 44.02800
H  57.57600 21.78800 44.78300
H  56.86000 28.03700 45.69700
H  49.14100 25.55300 44.18100
H  49.39700 22.91900 43.27100
H  48.75900 22.27100 45.35900
H  48.29700 23.94000 45.53400
H  49.87200 23.41300 46.15000
H  49.84500 24.19100 41.48500
H  50.23800 25.90100 41.45800
H  48.03000 26.52100 41.87600
H  47.36300 24.92400 42.19900
H  53.48900 18.08400 43.19200
H  52.21400 19.18500 43.18200
H  52.57900 18.64500 44.66100
H  58.22300 18.48700 43.47300
H  57.87900 19.42600 44.97100
H  58.03100 20.19100 43.30800
H  59.04800 23.92700 44.34300
H  58.54700 25.97500 46.50300
H  58.71400 22.52200 46.62300
H  59.43100 24.09000 47.17200
H  60.22500 22.98900 45.99800
H  58.64500 27.23800 43.94100
H  59.90400 25.96600 44.02100
H  60.53300 28.18600 44.48500
H  60.78100 27.19500 45.98100
H  59.35400 28.25200 45.90200
H  55.24600 30.18600 46.84900
H  53.96200 31.02800 46.05100
H  55.39700 30.55800 45.16300
H  49.86200 27.86100 44.31000
H  47.80500 28.24900 40.93700
H  49.20800 28.66700 40.05500
H  48.17200 30.00400 40.62100
Mg 49.21100 46.54800 42.40400
C  45.86000 47.43600 41.48000
C  48.74000 43.67600 40.74800
C  52.52100 46.19200 42.46600
C  49.61700 49.96200 43.39900
N  47.45800 45.62300 41.36600
C  46.27800 46.16900 41.04700
C  45.40800 45.18600 40.14000
C  46.30300 43.93100 40.08600
C  47.62000 44.43100 40.74200
C  45.76800 42.58400 40.63700
C  45.01900 45.76300 38.73400
C  43.47100 45.68700 38.47000
H  43.08000 45.70100 36.94400
N  50.46400 45.08300 41.78300
C  50.10800 43.93200 41.15000
C  51.19800 43.07700 40.93900
C  52.29500 43.71000 41.60200
C  51.82300 45.07000 41.93100
C  51.04000 41.70400 40.30000
C  53.65900 43.08300 41.73300
O  53.96500 42.00300 41.27900
C  54.65200 43.74900 42.69000
N  50.90000 47.91300 42.98700
C  52.13300 47.47300 42.89100
C  53.12600 48.58600 43.15800
C  52.19500 49.73000 43.62700
C  50.79800 49.19600 43.29300
C  54.31900 48.20000 44.08700
C  52.61200 51.21700 43.26100
C  52.38000 51.70600 41.81500
N  47.90300 48.28100 42.66200
C  48.26400 49.52300 43.02300
C  47.03800 50.36300 43.04300
C  46.07300 49.48300 42.45000
C  46.70000 48.31700 42.16000
C  46.88800 51.80400 43.37900
C  44.70800 49.47300 41.96300
O  43.76900 50.27600 42.01300
C  44.58400 48.09900 41.30000
C  43.56600 47.34100 42.09500
O  43.71500 46.81800 43.18700
O  42.48200 47.07200 41.33100
C  41.61700 45.93300 41.78100
H  48.64300 42.67400 40.32600
H  53.60500 46.08200 42.39400
H  49.69000 50.94200 43.87600
H  44.51600 45.02500 40.74500
H  46.60100 43.69800 39.06400
H  45.60800 41.85200 39.84600
H  44.83500 42.76500 41.17200
H  46.35800 42.19400 41.46600
H  45.37000 45.07100 37.96800
H  45.43100 46.76600 38.62600
H  42.97700 46.60800 38.77900
H  43.04100 44.78300 38.90100
H  51.40800 41.60300 39.27900
H  50.02400 41.33500 40.44200
H  51.69000 40.97700 40.78500
H  54.13400 43.82600 43.64500
H  55.13100 44.68800 42.41000
H  55.41000 42.98900 42.87900
H  53.55400 48.86300 42.19400
H  52.19200 49.70800 44.71700
H  54.05500 47.20300 44.43900
H  54.41500 48.90800 44.91000
H  55.22100 48.09700 43.48300
H  53.70000 51.24400 43.32700
H  52.29000 51.98900 43.96000
H  51.85100 51.00000 41.17500
H  53.27900 52.06900 41.31700
H  51.84600 52.65300 41.89100
H  45.86800 51.92700 43.74300
H  46.95700 52.30900 42.41500
H  47.59800 52.14000 44.13500
H  44.14900 48.18600 40.30400
H  41.14100 45.64500 40.84400
H  40.76000 46.31400 42.33700
H  42.02700 45.02200 42.21800

