158

Mg 29.99900 58.32100 39.39300
C  27.10300 56.43200 38.70100
C  31.83700 55.57600 38.67600
C  32.66500 60.29800 39.40400
C  27.86200 61.05000 40.07000
N  29.52600 56.24400 38.73700
C  28.26700 55.71700 38.56100
C  28.38800 54.17200 38.24200
C  29.85200 53.84600 38.57800
C  30.45600 55.26100 38.72700
C  30.17900 52.98500 39.81400
C  27.97800 53.66100 36.86000
C  28.69300 54.17900 35.63300
H  27.79500 54.63400 34.52600
N  32.05900 58.01300 39.09300
C  32.64300 56.76400 38.81500
C  34.08600 56.91200 38.66300
C  34.29600 58.34200 38.66800
C  32.99100 58.95700 39.04100
C  34.99100 55.78600 38.36000
C  35.55000 59.07900 38.35600
O  36.57500 58.46700 38.14800
C  35.50800 60.55600 38.31100
N  30.18000 60.37900 39.67600
C  31.43900 60.90600 39.66300
C  31.36900 62.45600 40.06800
C  29.87300 62.65100 40.42700
C  29.23100 61.31000 40.05600
C  32.44900 62.94400 41.09900
C  29.20100 63.86200 39.80200
C  28.22900 64.69300 40.67700
N  27.89200 58.66800 39.45500
C  27.16600 59.84900 39.69000
C  25.78700 59.62700 39.60400
C  25.62700 58.24200 39.22300
C  26.98800 57.72300 39.16200
C  24.71900 60.51200 39.95200
C  24.70400 57.12200 38.88300
O  23.49400 56.97700 38.79300
C  25.72100 55.87800 38.62100
C  25.54700 54.91000 39.76800
O  25.83400 55.04400 40.88700
O  24.98900 53.67100 39.29200
C  24.74500 52.68600 40.31700
H  32.46100 54.68400 38.59700
H  33.50800 60.99200 39.39700
H  27.22000 61.84300 40.45900
H  27.80200 53.70900 39.03700
H  30.36200 53.29000 37.79200
H  30.84300 53.45400 40.54000
H  30.70800 52.11500 39.42400
H  29.25200 52.54400 40.18000
H  26.89600 53.74300 36.76200
H  28.23900 52.60300 36.82200
H  29.26900 53.40300 35.12900
H  29.47000 54.92200 35.80900
H  35.99600 56.18500 38.50200
H  34.84700 55.47900 37.32500
H  34.93900 54.89800 38.99000
H  35.45500 61.10700 39.25000
H  34.71800 60.67500 37.56900
H  36.44800 60.76600 37.80100
H  31.47800 63.00700 39.13400
H  29.80800 62.83800 41.49900
H  33.16000 62.14200 41.30100
H  31.91200 63.11800 42.03100
H  32.74600 63.90200 40.67100
H  28.62200 63.57100 38.92500
H  29.98700 64.56200 39.51800
H  27.38800 64.96900 40.04100
H  28.77000 65.60400 40.93400
H  27.88000 64.10800 41.52800
H  23.86000 60.16500 39.37900
H  25.02100 61.52800 39.70000
H  24.34300 60.54500 40.97500
H  25.45100 55.44400 37.65800
H  23.75100 52.31000 40.07500
H  24.91800 52.95000 41.36000
H  25.42100 51.83200 40.28000
Mg 36.33200 49.75200 24.50600
C  36.49600 48.31000 27.69100
C  35.06500 52.64100 25.94800
C  35.47300 50.93400 21.37000
C  37.07900 46.61000 23.04100
N  35.69700 50.30100 26.65600
C  36.05000 49.66400 27.81600
C  35.96300 50.55500 29.04300
C  35.41600 51.86800 28.40800
C  35.34700 51.58800 26.91000
C  34.11900 52.54700 29.02300
C  37.33300 50.59100 29.91900
C  37.29400 50.61000 31.43100
H  35.89600 50.67600 32.17900
N  35.43600 51.58600 23.71900
C  35.04200 52.58100 24.53700
C  34.60200 53.69100 23.71400
C  34.56100 53.20600 22.34600
C  35.20400 51.84500 22.47200
C  34.19800 55.00000 24.23100
C  34.04200 53.83300 21.09200
O  34.10700 53.20400 20.05300
C  33.47300 55.24500 21.06400
N  36.24100 48.88800 22.50900
C  36.06500 49.64700 21.38700
C  36.29500 48.79900 20.15000
C  36.97500 47.47400 20.70700
C  36.71100 47.61600 22.13900
C  35.06400 48.50700 19.25500
C  38.46100 47.44900 20.23800
C  38.60300 46.40400 19.10800
N  36.80700 47.85500 25.14300
C  37.13700 46.68700 24.44300
C  37.40300 45.63700 25.42900
C  37.18400 46.21800 26.64000
C  36.81700 47.56100 26.50000
C  37.80700 44.11000 25.16200
C  37.13900 45.85600 28.05600
O  37.44200 44.80900 28.59100
C  36.75800 47.22400 28.77200
C  35.45700 46.95400 29.43700
O  34.39300 46.63000 28.90200
O  35.58500 47.24900 30.72600
C  34.42100 46.97700 31.46700
H  34.88700 53.56600 26.50100
H  35.36500 51.20500 20.31800
H  37.18600 45.65700 22.51800
H  35.11400 50.14600 29.59100
H  36.24800 52.56500 28.50900
H  33.78800 52.01000 29.91200
H  33.32700 52.54200 28.27500
H  34.09200 53.61700 29.22900
H  37.91500 51.47100 29.64700
H  37.85100 49.66700 29.66300
H  37.79500 51.49200 31.83100
H  37.90400 49.80500 31.84200
H  33.11500 54.97600 24.11000
H  34.57100 55.82900 23.63000
H  34.51500 55.19200 25.25600
H  32.88300 55.35500 20.15400
H  34.02000 56.18800 21.05600
H  32.67700 55.23800 21.81000
H  36.90100 49.35400 19.43400
H  36.43600 46.56800 20.43000
H  34.15100 48.49500 19.85100
H  35.29500 47.56100 18.76500
H  34.92400 49.31400 18.53600
H  39.04200 47.14300 21.10800
H  38.72900 48.47600 19.98800
H  38.68500 46.94800 18.16700
H  37.77500 45.69800 19.05400
H  39.51500 45.81600 19.21600
H  37.34500 43.32500 25.76100
H  38.89100 44.05700 25.05700
H  37.57000 43.91200 24.11700
H  37.57800 47.54700 29.41300
H  33.85100 46.11800 31.11300
H  33.69700 47.78500 31.56900
H  34.71600 46.71400 32.48300

