158

Mg -1.16000 17.45600 25.93200
C  -1.67900 15.04600 28.54900
C  -1.48800 19.96100 28.23100
C  -1.06900 19.51600 23.43300
C  -1.47400 14.68400 23.67000
N  -1.59000 17.46900 28.13100
C  -1.56700 16.39100 28.97500
C  -1.45600 16.91000 30.41500
C  -1.88200 18.37600 30.29000
C  -1.61200 18.64800 28.83000
C  -3.38700 18.60100 30.69000
C  -0.09200 16.65800 31.12500
C  -0.03800 15.83400 32.40600
H  0.81500 16.09500 33.63200
N  -1.24400 19.49700 25.82300
C  -1.36300 20.33100 26.89600
C  -1.39000 21.74400 26.32700
C  -1.13700 21.60000 24.92900
C  -1.27600 20.16700 24.65400
C  -1.68900 22.93500 27.10800
C  -1.03500 22.65600 23.89900
O  -1.21500 22.43800 22.70300
C  -0.80600 24.06300 24.32000
N  -1.42700 17.19500 23.83000
C  -1.22500 18.14300 23.01200
C  -1.40500 17.79300 21.55100
C  -1.17900 16.21500 21.61800
C  -1.33800 15.97100 23.10200
C  -2.78100 18.21200 20.90400
C  0.08200 15.77100 20.84600
C  1.43400 16.38800 21.26900
N  -1.35000 15.31900 26.05000
C  -1.55100 14.35300 25.02400
C  -1.66500 13.07900 25.63500
C  -1.77500 13.29900 26.96400
C  -1.56700 14.67800 27.21100
C  -1.79100 11.80100 24.87500
C  -1.93800 12.67600 28.29400
O  -2.00700 11.52000 28.57100
C  -2.00700 13.80100 29.32100
C  -1.04600 13.38600 30.40900
O  0.16700 13.29700 30.36600
O  -1.78300 13.10800 31.45600
C  -1.19500 12.43700 32.60900
H  -1.59700 20.74900 28.97800
H  -0.82900 20.20600 22.62100
H  -1.41500 13.85200 22.96500
H  -2.27300 16.38300 30.90900
H  -1.28400 19.04100 30.91300
H  -3.46700 19.15300 31.62700
H  -3.93200 17.67100 30.85700
H  -3.93100 19.04400 29.85600
H  0.42900 17.58800 31.35500
H  0.52400 16.12700 30.39900
H  0.24400 14.80200 32.19800
H  -1.01100 15.97300 32.87700
H  -2.53200 23.37800 26.57800
H  -0.83800 23.61200 27.03100
H  -2.05400 22.74700 28.11800
H  -1.64800 24.47800 24.87400
H  -0.49300 24.74000 23.52500
H  0.08000 24.09600 24.95300
H  -0.72500 18.30800 20.87200
H  -2.08800 15.68300 21.34000
H  -3.18700 18.70400 21.78800
H  -3.44400 17.43800 20.51600
H  -2.57300 18.98600 20.16600
H  -0.08000 16.08100 19.81400
H  0.13900 14.68300 20.83700
H  1.80900 16.88200 20.37200
H  2.12900 15.74300 21.80600
H  1.16700 17.16200 21.98900
H  -1.06100 11.12600 25.32200
H  -1.74400 11.83800 23.78700
H  -2.75500 11.33100 25.07100
H  -3.02800 13.76700 29.70100
H  -1.03300 11.42300 32.24200
H  -1.88400 12.57800 33.44200
H  -0.26800 12.92100 32.91600
Mg -10.28300 39.37000 42.31000
C  -9.07100 36.09400 41.64200
C  -7.37200 40.62100 40.75600
C  -11.74800 42.30000 42.25900
C  -13.34500 37.89100 43.09500
N  -8.54300 38.44400 41.20800
C  -8.21700 37.10000 41.10300
C  -6.92900 36.87700 40.40800
C  -6.24900 38.19600 40.59600
C  -7.43900 39.18300 40.90800
C  -5.23200 38.29000 41.75200
C  -7.05500 36.36400 38.96000
C  -6.08800 35.26900 38.50300
H  -5.10100 35.50800 37.39000
N  -9.60000 41.24900 41.70800
C  -8.40700 41.57400 40.99500
C  -8.37000 42.96500 40.57900
C  -9.60000 43.50400 41.09000
C  -10.36700 42.33000 41.75200
C  -7.26000 43.66300 39.73700
C  -10.03000 44.94700 41.06600
O  -9.20200 45.74600 40.72600
C  -11.34000 45.41000 41.39400
N  -12.29100 39.99700 42.67500
C  -12.61100 41.27400 42.65200
C  -14.11000 41.51200 42.86600
C  -14.65900 40.03900 43.24600
C  -13.32700 39.31100 43.09600
C  -14.34100 42.67900 43.96800
C  -15.77000 39.47000 42.27900
C  -16.72300 38.45300 42.83800
N  -11.04200 37.42000 42.55800
C  -12.30900 36.96800 42.85800
C  -12.29400 35.54000 43.07900
C  -11.03000 35.18900 42.61300
C  -10.33700 36.34000 42.32500
C  -13.38900 34.66600 43.43100
C  -10.12900 34.05300 42.37800
O  -10.23900 32.88200 42.59100
C  -8.89200 34.64400 41.71300
C  -7.73700 34.20300 42.52500
O  -7.57900 34.39600 43.75100
O  -6.81800 33.48200 41.73600
C  -5.57100 33.08300 42.37200
H  -6.46200 41.05400 40.33500
H  -12.36400 43.20100 42.26700
H  -14.27500 37.50600 43.51900
H  -6.40200 36.12100 40.99100
H  -5.73800 38.40000 39.65500
H  -5.25400 37.32100 42.25300
H  -5.60400 39.03900 42.45100
H  -4.20400 38.41000 41.40900
H  -6.87400 37.22000 38.31000
H  -8.00600 35.88200 38.73000
H  -6.73500 34.46700 38.14900
H  -5.64800 34.76500 39.36400
H  -7.83000 44.13300 38.93500
H  -6.47500 43.00100 39.37200
H  -6.81700 44.51500 40.25300
H  -12.12700 44.86000 40.87800
H  -11.50200 46.47700 41.23500
H  -11.33600 45.26500 42.47400
H  -14.46000 41.76000 41.86400
H  -14.94400 40.15500 44.29100
H  -13.39400 43.05000 44.35800
H  -14.80200 42.33200 44.89300
H  -14.87400 43.55400 43.59500
H  -15.34000 38.97700 41.40700
H  -16.41000 40.27500 41.91700
H  -17.01400 37.69600 42.11000
H  -17.68400 38.86600 43.14300
H  -16.37300 37.87800 43.69500
H  -14.01100 35.19100 44.15600
H  -13.11500 33.69700 43.84600
H  -13.87400 34.43800 42.48100
H  -8.81200 34.22100 40.71100
H  -5.22600 32.33700 41.65600
H  -5.62800 32.63100 43.36100
H  -4.82700 33.87600 42.29500

