158

Mg 54.56200 24.26200 43.79100
C  52.15300 26.58400 42.88800
C  52.57500 21.74600 42.73900
C  57.43500 22.27800 43.55800
C  56.72200 26.96700 44.43800
N  52.59400 24.20800 42.88400
C  51.75200 25.26300 42.63700
C  50.28700 24.77700 42.39500
C  50.43200 23.22900 42.64600
C  51.91800 22.99200 42.82600
C  49.53800 22.67900 43.78600
C  49.55000 25.25400 41.08100
C  50.43800 25.70600 39.89000
H  50.49400 24.97800 38.51800
N  54.89500 22.21000 43.33200
C  53.91700 21.35900 42.98000
C  54.46600 20.03500 42.75600
C  55.88100 20.12900 43.08200
C  56.14500 21.58600 43.35800
C  53.63200 18.79100 42.32000
C  56.74700 18.99800 43.30000
O  56.48100 17.87600 42.87400
C  58.05400 19.27800 44.04200
N  56.80700 24.58400 43.80000
C  57.66500 23.59200 43.84500
C  59.01200 24.08600 44.30600
C  58.83000 25.61300 44.56200
C  57.40700 25.74100 44.17700
C  59.76600 23.26500 45.41700
C  59.85700 26.45700 43.63200
C  59.15900 27.04100 42.36300
N  54.54900 26.36300 43.59200
C  55.41900 27.32100 44.11000
C  54.80400 28.49400 44.27400
C  53.53300 28.35800 43.73900
C  53.44100 26.99300 43.33000
C  55.38600 29.61900 44.87000
C  52.28700 28.94900 43.50300
O  51.92000 30.11000 43.63300
C  51.37900 27.88600 42.82600
C  51.01700 28.38600 41.52000
O  51.78300 28.62000 40.65200
O  49.67000 28.59200 41.41300
C  49.16200 29.15000 40.20400
H  51.98200 20.85900 42.50800
H  58.38400 21.74700 43.46200
H  57.33900 27.69000 44.97700
H  49.68100 25.23700 43.17500
H  50.14300 22.69700 41.74000
H  50.07700 22.67800 44.73400
H  49.41700 21.63100 43.51100
H  48.58900 23.21400 43.76200
H  48.84600 26.07000 41.23800
H  48.86800 24.47700 40.73500
H  51.48300 25.73700 40.19800
H  50.08400 26.72100 39.71100
H  54.21200 18.33400 41.51800
H  52.71200 19.20200 41.90500
H  53.37600 18.14300 43.15800
H  58.51200 18.41100 44.51800
H  57.89300 20.02700 44.81800
H  58.74700 19.74600 43.34300
H  59.65800 23.99200 43.43300
H  58.91200 25.91800 45.60600
H  59.94100 24.00900 46.19500
H  60.75500 22.90700 45.13300
H  59.19700 22.40200 45.76300
H  60.62600 25.85400 43.14800
H  60.29600 27.23800 44.25300
H  58.91800 28.10200 42.42300
H  58.18600 26.60000 42.14400
H  59.73400 26.78500 41.47300
H  54.89800 30.53400 44.53600
H  56.44000 29.61200 44.59300
H  55.26600 29.47800 45.94500
H  50.44900 27.79200 43.38700
H  49.80600 30.00700 40.00600
H  48.20200 29.63500 40.38300
H  49.13400 28.49800 39.33100
Mg -5.54500 24.66600 26.16500
C  -4.26700 26.31700 29.11200
C  -7.90700 23.20000 28.01200
C  -6.39200 23.07400 23.37100
C  -3.15300 26.59500 24.39300
N  -5.96500 24.63000 28.30400
C  -5.35200 25.40200 29.32500
C  -6.10300 25.18900 30.67300
C  -7.22600 24.11700 30.29700
C  -7.05100 24.02800 28.75100
C  -7.00300 22.67400 31.01000
C  -6.89600 26.46200 31.20100
C  -6.78900 26.64700 32.79700
H  -6.16400 25.50600 33.59900
N  -6.90800 23.26600 25.74600
C  -7.84700 22.81600 26.63600
C  -8.73100 21.92000 25.98500
C  -8.30400 21.85300 24.65300
C  -7.14600 22.76800 24.52100
C  -9.89800 21.27500 26.70100
C  -8.81200 20.93200 23.59600
O  -8.24300 20.89100 22.50200
C  -9.87700 19.87100 23.86600
N  -4.94400 24.89300 24.17700
C  -5.41400 24.02200 23.18800
C  -4.60000 24.28400 21.97200
C  -3.89300 25.67700 22.17800
C  -3.94400 25.71300 23.68800
C  -3.66100 23.07300 21.65500
C  -4.67500 26.86400 21.57500
C  -3.98800 27.61300 20.40000
N  -3.89700 25.96700 26.61300
C  -3.07700 26.65400 25.77000
C  -2.31600 27.64000 26.45500
C  -2.73200 27.43900 27.79100
C  -3.63000 26.44400 27.87400
C  -1.31200 28.60700 25.88200
C  -2.44600 27.97100 29.04900
O  -1.60200 28.76500 29.47900
C  -3.46900 27.29400 29.96100
C  -2.72500 26.59900 31.10500
O  -2.13000 25.59700 31.02500
O  -2.77700 27.47300 32.14900
C  -2.10200 27.00600 33.34600
H  -8.71900 22.81000 28.63000
H  -6.66100 22.40200 22.55300
H  -2.55200 27.23900 23.74600
H  -5.31000 24.71700 31.25400
H  -8.24600 24.48200 30.42400
H  -7.92400 22.40800 31.53000
H  -6.17000 22.60200 31.70900
H  -6.75700 21.89000 30.29500
H  -7.94500 26.44000 30.90500
H  -6.56600 27.33400 30.63600
H  -7.79800 26.90400 33.11700
H  -6.16500 27.49800 33.07200
H  -10.69400 21.38000 25.96300
H  -10.13600 21.73300 27.66100
H  -9.76700 20.20700 26.87000
H  -10.80900 20.41600 24.01300
H  -9.46200 19.36300 24.73600
H  -9.90000 19.18000 23.02300
H  -5.30000 24.45200 21.15300
H  -2.86000 25.62800 21.83400
H  -3.86900 22.26400 22.35600
H  -2.65000 23.40400 21.89000
H  -3.82800 22.66900 20.65700
H  -4.79300 27.69800 22.26600
H  -5.64700 26.55600 21.19000
H  -3.58900 28.55900 20.76800
H  -4.74500 27.70600 19.62200
H  -3.22300 26.92800 20.03600
H  -0.73100 28.97100 26.72900
H  -1.85500 29.41200 25.38600
H  -0.68700 28.10800 25.14100
H  -4.16600 27.90700 30.53200
H  -1.37900 27.75100 33.67700
H  -1.67700 26.00400 33.39500
H  -2.80000 27.09100 34.17900

