158

Mg 17.67200 -1.30300 27.29400
C  16.60200 0.71200 30.03000
C  19.86400 -3.01700 29.33900
C  19.14300 -2.55700 24.46700
C  15.81900 0.90400 25.21900
N  18.28800 -1.02800 29.37200
C  17.55700 -0.29700 30.35600
C  17.98100 -0.85600 31.78600
C  19.11100 -1.85100 31.49500
C  19.13700 -1.93100 30.00600
C  20.49200 -1.50000 32.06000
C  16.86500 -1.46700 32.65500
C  16.53000 -0.76900 33.96400
H  17.68800 -0.29200 34.91000
N  19.12400 -2.72000 26.95800
C  19.85600 -3.34100 27.91900
C  20.49900 -4.49600 27.32700
C  20.35000 -4.39500 25.90400
C  19.49600 -3.18700 25.68700
C  20.98100 -5.72100 28.12800
C  20.99900 -5.14000 24.80900
O  20.79700 -4.94000 23.60000
C  21.95200 -6.21600 25.23100
N  17.47200 -0.90000 25.16000
C  18.28000 -1.49000 24.22100
C  18.05000 -0.89400 22.77500
C  16.73800 0.04700 23.02500
C  16.66900 0.00400 24.55500
C  19.32800 -0.14700 22.24400
C  15.42800 -0.39500 22.31400
C  14.89800 0.32700 21.10500
N  16.44100 0.51200 27.51000
C  15.79200 1.20700 26.61000
C  15.03200 2.29600 27.20300
C  15.26300 2.10100 28.57000
C  16.12700 1.01100 28.67200
C  14.14000 3.32700 26.56700
C  14.97400 2.57900 29.95200
O  14.28500 3.54800 30.32400
C  15.88500 1.74200 30.92300
C  16.89500 2.65400 31.71600
O  18.06800 2.78300 31.41400
O  16.46100 3.16400 32.90600
C  17.18500 4.26700 33.45800
H  20.53200 -3.60300 29.97300
H  19.49600 -3.03400 23.55000
H  15.14900 1.41900 24.52800
H  18.19300 0.11200 32.24000
H  18.78600 -2.87800 31.66300
H  20.96600 -2.37300 32.50900
H  20.30600 -0.92600 32.96700
H  21.07500 -0.85400 31.40300
H  17.06900 -2.45800 33.06100
H  15.96700 -1.52800 32.04100
H  15.79000 -1.31400 34.55000
H  15.97400 0.13900 33.73200
H  22.06300 -5.84300 28.16300
H  20.42100 -6.53400 27.66600
H  20.59800 -5.72700 29.14800
H  21.41500 -7.04700 25.68900
H  22.72500 -5.76300 25.85200
H  22.49200 -6.47900 24.32200
H  17.80000 -1.72900 22.12100
H  16.88700 1.08400 22.72500
H  19.50400 -0.53700 21.24100
H  20.11700 -0.33900 22.97000
H  19.08500 0.91300 22.16500
H  14.65400 -0.21000 23.05900
H  15.35600 -1.46500 22.12000
H  14.28000 1.18500 21.37000
H  14.17400 -0.35200 20.65400
H  15.66800 0.64800 20.40400
H  13.08000 3.14900 26.75100
H  14.32100 3.30000 25.49300
H  14.28900 4.33300 26.95800
H  15.22200 1.25600 31.63900
H  16.72300 4.47600 34.42300
H  17.04500 5.14700 32.83000
H  18.24700 4.04900 33.57000
Mg 55.45700 23.93000 45.02100
C  53.05200 26.42600 44.41400
C  53.39300 21.57800 43.68600
C  58.07800 21.86400 44.81700
C  57.59100 26.46000 46.18100
N  53.56200 24.09900 43.96200
C  52.69200 25.12300 43.92900
C  51.33400 24.69000 43.39000
C  51.36400 23.18700 43.69800
C  52.87400 22.87900 43.74900
C  50.70900 22.80800 45.09200
C  51.00900 25.01600 41.96100
C  49.61100 24.63400 41.48900
H  49.38600 24.52600 39.95400
N  55.71900 21.92200 44.26900
C  54.69900 21.20300 43.78700
C  55.22100 19.87300 43.52100
C  56.66300 19.91300 43.72500
C  56.91000 21.26400 44.30800
C  54.35100 18.82700 43.01600
C  57.65900 18.81600 43.45000
O  57.37200 17.68600 43.08700
C  59.14900 19.04000 43.60700
N  57.55600 24.22400 45.31700
C  58.34900 23.10500 45.36100
C  59.81600 23.44100 45.90700
C  59.66100 24.90800 46.26600
C  58.18400 25.22900 45.88700
C  60.33600 22.46200 47.08100
C  60.66000 25.96300 45.72100
C  61.75100 26.48900 46.66100
N  55.34800 26.02400 45.34200
C  56.30100 26.92400 45.84700
C  55.76500 28.28300 45.89400
C  54.44900 28.06100 45.35500
C  54.25900 26.72000 44.98100
C  56.31200 29.53900 46.32400
C  53.14800 28.78700 45.11300
O  52.87100 29.97100 45.24000
C  52.22000 27.72400 44.47800
C  51.68000 28.22500 43.15900
O  52.30500 28.48600 42.18000
O  50.34400 28.38000 43.28900
C  49.52700 28.57300 42.05600
H  52.72500 20.79300 43.32600
H  58.96100 21.22500 44.75200
H  58.26300 27.21300 46.59800
H  50.49200 25.12000 43.93300
H  50.82800 22.60400 42.94900
H  50.04900 23.58700 45.47400
H  51.44900 22.46300 45.81400
H  49.90900 22.09300 44.89900
H  51.68800 24.40300 41.36700
H  51.29000 26.03800 41.71000
H  48.99800 25.38600 41.98600
H  49.18200 23.74200 41.94600
H  55.00100 17.95300 42.96800
H  53.98800 19.02700 42.00800
H  53.49300 18.54500 43.62600
H  59.40700 19.97200 43.10300
H  59.73200 18.15100 43.36600
H  59.24300 19.20700 44.68000
H  60.35800 23.33300 44.96700
H  59.58600 25.14300 47.32800
H  60.76400 22.97100 47.94600
H  61.19000 21.95200 46.63500
H  59.55300 21.74100 47.31300
H  60.12800 26.78400 45.24000
H  61.26500 25.46600 44.96400
H  62.66600 26.42200 46.07200
H  61.70800 25.86200 47.55100
H  61.58500 27.56200 46.76000
H  56.67300 30.19600 45.53300
H  57.19800 29.28500 46.90400
H  55.57700 30.05400 46.94400
H  51.36700 27.60900 45.14700
H  48.90400 29.43800 42.28500
H  48.97200 27.63500 42.02800
H  50.13900 28.82500 41.19000

