158

Mg 0.49100 7.68500 25.75600
C  1.36900 9.75700 28.35100
C  0.70000 4.92900 27.86700
C  -0.18900 5.69100 23.04500
C  0.61700 10.47000 23.53600
N  1.07200 7.36400 27.83800
C  1.20400 8.40900 28.75100
C  1.21300 7.77900 30.19400
C  1.30200 6.26300 29.98700
C  1.01100 6.18900 28.45500
C  2.56500 5.48900 30.50300
C  -0.13800 8.20700 31.06900
C  0.24100 8.78300 32.44300
H  1.47200 8.15100 33.20100
N  0.22300 5.61600 25.52700
C  0.33300 4.65800 26.55200
C  0.03700 3.34800 26.02000
C  -0.10400 3.53200 24.56300
C  -0.03600 4.97300 24.27700
C  -0.01600 2.12200 26.86200
C  -0.42800 2.50000 23.56000
O  -0.46100 2.62300 22.36200
C  -0.89500 1.21700 24.09900
N  0.44000 7.95900 23.56200
C  -0.05000 6.98400 22.74900
C  -0.26000 7.45900 21.31400
C  -0.20200 9.03500 21.51000
C  0.30300 9.19600 22.98100
C  0.90100 6.87800 20.42900
C  -1.57300 9.69600 21.33600
C  -1.58100 11.05800 20.78000
N  0.90700 9.72100 25.87100
C  0.83300 10.69200 24.91900
C  1.11500 11.93800 25.54100
C  1.36400 11.61700 26.88800
C  1.26100 10.26600 27.06300
C  1.35300 13.27100 24.93300
C  1.76400 12.09000 28.21900
O  2.09900 13.21100 28.56000
C  1.59600 10.95200 29.16300
C  2.76300 10.91900 30.05700
O  3.71700 10.21400 29.89000
O  2.37900 11.54700 31.24300
C  3.50600 11.79900 32.19600
H  0.63800 4.13000 28.61000
H  -0.49000 5.07700 22.19400
H  0.44300 11.37400 22.94900
H  2.07900 8.23200 30.67600
H  0.37800 5.78000 30.30600
H  2.27100 4.89500 31.36800
H  3.33100 6.17900 30.85900
H  3.10400 4.91300 29.75100
H  -0.78600 7.33900 31.18600
H  -0.63400 9.00000 30.50900
H  -0.55200 8.69000 33.18600
H  0.42200 9.85500 32.36000
H  0.44800 2.31800 27.82900
H  0.76900 1.45200 26.51000
H  -1.00600 1.69000 27.00600
H  -1.74100 1.39700 24.76200
H  -0.17200 0.70700 24.73600
H  -1.13100 0.56900 23.25500
H  -1.20400 7.19600 20.83700
H  0.46600 9.53000 20.80600
H  1.77000 6.84700 21.08600
H  0.98400 7.56300 19.58600
H  0.57200 5.87900 20.14300
H  -2.08400 9.76900 22.29700
H  -2.15200 9.09800 20.63200
H  -2.25100 11.07100 19.91900
H  -0.57600 11.31000 20.44200
H  -1.95300 11.83300 21.45000
H  0.34900 13.68900 24.86200
H  1.83300 13.37500 23.95900
H  1.79100 14.02900 25.58100
H  0.71000 11.04300 29.79200
H  3.47800 12.78600 32.65800
H  4.40200 11.69800 31.58400
H  3.68500 11.00700 32.92300
Mg 6.67600 58.02400 41.24000
C  5.50900 54.62200 41.09100
C  9.67700 57.00400 40.44100
C  7.38700 61.18500 40.73400
C  3.29900 58.91100 41.86900
N  7.48600 56.00800 40.56300
C  6.83000 54.76000 40.70100
C  7.95100 53.64100 40.37700
C  9.36100 54.50100 40.64000
C  8.85400 55.92200 40.56600
C  10.11200 54.27200 41.93000
C  7.83900 53.14400 38.92200
C  8.42600 51.77400 38.60400
H  7.71000 50.83700 37.69900
N  8.26700 58.97000 40.61200
C  9.49300 58.35700 40.45000
C  10.46800 59.40500 40.09300
C  9.89800 60.66300 40.09000
C  8.46200 60.29100 40.42100
C  11.91200 59.04300 39.81100
C  10.57100 62.03900 39.75900
O  11.76200 62.06200 39.44800
C  9.85000 63.36200 39.88600
N  5.50200 59.77500 41.41600
C  6.16500 60.94400 41.21200
C  5.21900 62.08300 41.52300
C  3.82300 61.39700 41.41600
C  4.17500 59.93600 41.65100
C  5.41900 62.76100 42.87200
C  3.05200 61.68600 40.16300
C  1.55800 61.70800 40.36200
N  4.86800 57.06000 41.50000
C  3.56500 57.53200 41.78700
C  2.59200 56.35500 41.96100
C  3.35600 55.20600 41.83000
C  4.62900 55.68900 41.38900
C  1.19300 56.45900 42.42700
C  3.42400 53.79800 41.93700
O  2.47600 53.00100 42.13800
C  4.87000 53.29800 41.47500
C  4.73300 52.25200 40.43400
O  4.47000 52.48900 39.25500
O  4.88000 50.95800 41.00200
C  4.79400 49.86500 40.02900
H  10.75300 56.81900 40.41100
H  7.69400 62.23300 40.70900
H  2.28000 59.30400 41.88400
H  7.79300 52.79600 41.04700
H  10.03700 54.24600 39.82400
H  11.17700 54.31600 41.70100
H  9.79600 53.38700 42.48300
H  9.85700 55.06600 42.63100
H  8.30200 53.97300 38.38800
H  6.79800 53.20900 38.60400
H  8.52700 51.32600 39.59200
H  9.45900 51.86900 38.26800
H  11.90100 58.04200 39.38000
H  12.73500 59.13300 40.52000
H  12.23400 59.65300 38.96700
H  8.96300 63.34700 39.25200
H  10.38900 64.18700 39.42100
H  9.60900 63.61000 40.92000
H  5.34700 62.84400 40.75400
H  3.11600 61.55600 42.23000
H  4.81800 63.65400 43.04400
H  6.48600 62.91300 43.03500
H  5.33300 62.02900 43.67500
H  3.35600 61.15700 39.26000
H  3.29500 62.72500 39.94100
H  0.97500 61.59700 39.44800
H  1.26900 62.68000 40.76100
H  1.23800 60.92700 41.05200
H  1.12800 56.14700 43.46900
H  0.42600 56.03500 41.78000
H  1.00100 57.53100 42.37900
H  5.44400 52.88900 42.30600
H  3.87600 49.33500 40.28200
H  5.61000 49.14600 40.09700
H  4.66700 50.27100 39.02500

