158

Mg -1.45200 18.21200 27.34400
C  -2.39700 15.93700 29.90000
C  -1.79900 20.76000 29.39900
C  -0.49300 20.18000 24.72700
C  -1.72200 15.46900 24.99900
N  -1.88300 18.24400 29.40500
C  -2.18900 17.25700 30.35000
C  -2.32700 17.78300 31.76400
C  -2.33400 19.38200 31.48600
C  -1.93800 19.50900 30.02200
C  -3.61500 20.21700 31.97200
C  -1.06300 17.36800 32.67100
C  -1.45900 16.52500 33.83800
H  -0.92000 16.65100 35.28900
N  -1.05200 20.16700 27.19000
C  -1.32500 21.06800 28.12100
C  -0.89100 22.43700 27.62100
C  -0.30700 22.16700 26.32400
C  -0.55300 20.80400 25.99800
C  -1.06400 23.71000 28.41800
C  0.15300 23.11400 25.29600
O  0.79100 22.88600 24.29000
C  0.09600 24.57000 25.67000
N  -1.42400 17.94900 25.04300
C  -0.83300 18.94100 24.25600
C  -0.59700 18.46700 22.80200
C  -0.95100 16.86400 22.93000
C  -1.32300 16.69300 24.42700
C  -1.33800 19.38300 21.82100
C  0.16200 15.87100 22.59400
C  1.49800 16.09600 23.39000
N  -2.03700 16.13800 27.32800
C  -2.01700 15.17500 26.33600
C  -2.34300 13.91700 26.93500
C  -2.59600 14.14000 28.30000
C  -2.28200 15.50800 28.50700
C  -2.51900 12.62200 26.11400
C  -3.05400 13.59900 29.51900
O  -3.55600 12.56100 29.83700
C  -2.95300 14.70300 30.66000
C  -2.05600 14.06600 31.54500
O  -0.84700 14.00100 31.47800
O  -2.84800 13.49200 32.51800
C  -2.23700 12.61900 33.53700
H  -1.90000 21.67200 29.99000
H  -0.06900 20.71700 23.87600
H  -1.86000 14.65500 24.28500
H  -3.27400 17.42700 32.17000
H  -1.47200 19.79900 32.00700
H  -4.15700 20.68700 31.15200
H  -3.24800 21.00500 32.63000
H  -4.30400 19.62400 32.57400
H  -0.53200 18.18600 33.15900
H  -0.31600 16.82000 32.09500
H  -1.12500 15.54500 33.49600
H  -2.54200 16.56200 33.95900
H  -0.18400 24.05300 28.96100
H  -1.83000 23.61900 29.18800
H  -1.41500 24.49000 27.74200
H  0.70700 24.73600 26.55700
H  -0.97300 24.78400 25.69700
H  0.72700 25.18600 25.03000
H  0.45000 18.54800 22.51000
H  -1.88900 16.73500 22.39000
H  -1.97900 20.08400 22.35700
H  -1.96800 18.83900 21.11700
H  -0.64800 19.96200 21.20700
H  0.34600 16.12100 21.55000
H  -0.18900 14.85900 22.79500
H  2.15100 15.22300 23.41500
H  1.26500 16.38300 24.41500
H  2.07500 16.90300 22.93800
H  -1.67300 12.50600 25.43600
H  -3.46400 12.45900 25.59600
H  -2.27600 11.76700 26.74400
H  -3.96200 14.89600 31.02500
H  -2.97600 11.95900 33.98900
H  -1.76300 13.26200 34.27900
H  -1.42400 12.04000 33.09800
Mg 9.50600 48.95300 25.43800
C  7.87400 48.76600 28.41600
C  12.26000 50.21600 27.10600
C  11.08500 48.99400 22.51900
C  6.67800 47.72600 23.83700
N  9.88700 49.63200 27.56200
C  9.16100 49.25100 28.60200
C  9.92500 49.62400 29.90800
C  10.99200 50.58800 29.44500
C  11.09700 50.12400 27.95000
C  10.72400 52.14900 29.48400
C  10.43500 48.46900 30.83100
C  9.67400 48.33900 32.12000
H  10.24500 49.24300 33.20400
N  11.40500 49.46700 24.89800
C  12.36500 49.89000 25.68900
C  13.61300 49.95800 24.96400
C  13.37200 49.67900 23.65600
C  11.86900 49.40100 23.60000
C  14.93000 50.48700 25.54200
C  14.29700 49.58900 22.41600
O  13.83100 49.31400 21.29800
C  15.77700 49.77400 22.59200
N  8.85600 48.51400 23.38000
C  9.72300 48.61000 22.36000
C  9.17700 48.20600 20.97300
C  7.83600 47.56200 21.45500
C  7.72900 47.96200 22.93900
C  8.96600 49.27500 19.90100
C  7.82600 46.00000 21.21400
C  7.20900 45.59600 19.86000
N  7.61000 48.39200 25.92400
C  6.59800 48.01400 25.19800
C  5.47900 47.79700 26.05000
C  5.93400 48.06000 27.33200
C  7.24900 48.45900 27.19000
C  4.09300 47.29200 25.58200
C  5.53000 48.10400 28.70300
O  4.43500 47.84500 29.21900
C  6.85400 48.49400 29.51400
C  7.07400 47.27800 30.36500
O  7.65300 46.29900 29.99200
O  6.55500 47.40000 31.66700
C  6.65100 46.24000 32.60600
H  13.04300 50.70500 27.68900
H  11.53900 49.04200 21.52700
H  5.80800 47.26100 23.36900
H  9.32800 50.32600 30.49000
H  11.96900 50.41000 29.89500
H  10.81200 52.62300 28.50600
H  11.34300 52.69400 30.19600
H  9.70500 52.40700 29.77200
H  11.45300 48.61400 31.19200
H  10.44300 47.47700 30.38100
H  9.82200 47.28900 32.37300
H  8.63800 48.63400 31.95100
H  14.74800 50.82000 26.56400
H  15.35700 51.30500 24.96100
H  15.66600 49.68400 25.57300
H  16.00700 50.83900 22.63200
H  16.33700 49.31500 21.77800
H  16.21200 49.28900 23.46500
H  9.89900 47.51900 20.53100
H  6.92100 48.05600 21.12800
H  8.01000 49.79900 19.89300
H  9.16200 48.83800 18.92300
H  9.72800 50.03100 20.09100
H  7.31100 45.49600 22.03300
H  8.87700 45.71300 21.24200
H  6.68300 46.34100 19.26300
H  6.45900 44.81700 19.99500
H  7.98700 45.17700 19.22300
H  4.43300 46.38400 25.08400
H  3.63100 48.07400 24.97900
H  3.36800 47.08600 26.36900
H  6.65200 49.32100 30.19400
H  7.47600 45.54600 32.44300
H  5.72900 45.66100 32.54700
H  6.74200 46.55500 33.64600

