158

Mg 8.86300 2.67200 28.20400
C  10.41400 1.21900 30.88000
C  7.23600 4.86200 30.22900
C  7.18200 3.78800 25.44200
C  10.33700 0.16900 25.97600
N  8.79000 2.91000 30.29000
C  9.60100 2.31500 31.18200
C  9.50800 2.90200 32.60100
C  8.28300 3.86900 32.48100
C  8.03100 3.84700 30.91000
C  7.00900 3.45700 33.22000
C  10.85200 3.44600 33.26500
C  10.97700 3.28900 34.77100
H  9.71500 2.97000 35.55500
N  7.49000 4.13700 27.84900
C  6.99800 4.95000 28.87300
C  5.97200 5.80700 28.28700
C  6.04200 5.60600 26.86700
C  6.94500 4.48000 26.65200
C  5.30600 6.86700 29.08500
C  5.27700 6.38300 25.77100
O  5.42400 6.23700 24.53900
C  4.17100 7.35900 26.17700
N  8.82600 2.06800 25.96700
C  8.00700 2.73600 25.10000
C  8.06000 2.09700 23.70900
C  9.31000 1.09900 23.80300
C  9.50700 1.07100 25.30800
C  6.62700 1.48000 23.45500
C  10.63000 1.49700 22.98300
C  11.23500 0.31900 22.26900
N  9.93200 0.88300 28.33400
C  10.49100 0.05900 27.37600
C  11.35100 -0.96300 28.09500
C  11.31100 -0.54300 29.45700
C  10.48100 0.55700 29.58600
C  12.04300 -2.16400 27.46400
C  11.76500 -0.82300 30.80700
O  12.63500 -1.64100 31.16900
C  11.08800 0.26300 31.83300
C  10.07900 -0.43400 32.72000
O  8.90700 -0.76600 32.42100
O  10.71500 -0.67200 33.92100
C  9.90100 -1.34500 34.97300
H  6.80300 5.51800 30.98700
H  6.46400 4.11000 24.68400
H  10.87900 -0.55300 25.36100
H  9.10000 2.10300 33.22100
H  8.49300 4.82200 32.96700
H  6.20500 3.14200 32.55400
H  6.59700 4.30200 33.77100
H  7.13400 2.64100 33.93200
H  10.74400 4.46700 32.89700
H  11.61900 2.89200 32.72400
H  11.35300 4.24800 35.12600
H  11.63400 2.43600 34.94200
H  5.88900 7.17200 29.95400
H  4.26000 6.62500 29.27600
H  5.30300 7.73900 28.43100
H  3.59000 7.77000 25.35100
H  4.74800 8.25000 26.42400
H  3.53200 6.87700 26.91800
H  8.29800 2.94400 23.06500
H  9.02300 0.09200 23.50100
H  6.03300 1.60100 24.36100
H  6.72500 0.40800 23.28400
H  6.20100 1.88500 22.53700
H  11.35600 2.07600 23.55400
H  10.37400 2.14100 22.14200
H  10.77800 0.36000 21.28000
H  11.16300 -0.70100 22.64800
H  12.26500 0.65400 22.14900
H  11.80400 -2.39600 26.42600
H  11.69500 -3.03000 28.02900
H  13.08700 -1.98000 27.71700
H  11.86600 0.64400 32.49500
H  10.35800 -2.27300 35.31600
H  8.83100 -1.44100 34.78800
H  9.87800 -0.79900 35.91600
Mg 26.69100 51.83500 25.70700
C  24.15900 52.46400 27.90700
C  28.78000 51.06200 28.37700
C  29.15200 51.43300 23.51100
C  24.52600 52.74300 23.08900
N  26.53800 51.91500 27.86700
C  25.37800 52.07200 28.52000
C  25.50300 51.66800 30.01700
C  27.01400 51.38500 30.12800
C  27.49300 51.46700 28.69000
C  27.77900 52.21100 31.25400
C  24.51600 50.50400 30.51800
C  24.84500 49.74700 31.85700
H  23.84400 49.79700 33.07100
N  28.70000 51.34700 25.87700
C  29.32600 51.10800 27.06300
C  30.71800 50.71200 26.68200
C  30.90200 50.93100 25.29400
C  29.55100 51.26100 24.81200
C  31.73500 50.19700 27.71200
C  32.14000 50.78800 24.39700
O  32.15300 51.04400 23.21400
C  33.28200 50.11800 24.94100
N  26.77800 51.96600 23.56300
C  27.91200 51.71500 22.90900
C  27.70500 51.74800 21.34900
C  26.21000 52.03300 21.14200
C  25.79300 52.28300 22.67100
C  28.62800 52.70900 20.46300
C  25.44000 50.77700 20.52600
C  24.33300 51.14400 19.45600
N  24.78200 52.57000 25.46200
C  23.98800 52.78100 24.38600
C  22.69900 53.23000 24.83300
C  22.64700 53.10000 26.23600
C  23.96000 52.74000 26.53200
C  21.65800 53.77100 23.93700
C  21.88600 53.24600 27.42600
O  20.76100 53.71900 27.64600
C  22.79600 52.78200 28.55300
C  22.90400 53.86300 29.49700
O  23.29400 54.99600 29.18500
O  22.44100 53.47800 30.69100
C  22.54600 54.31600 31.83600
H  29.39800 50.79000 29.23600
H  29.93100 51.23400 22.77300
H  23.73400 52.78500 22.33800
H  25.27900 52.59000 30.55300
H  27.13300 50.38200 30.53700
H  28.22400 53.07700 30.76300
H  28.60600 51.64000 31.67500
H  27.05300 52.48500 32.02000
H  24.45200 49.85500 29.64500
H  23.61200 51.05300 30.78100
H  25.66200 50.35500 32.24500
H  25.07200 48.69400 31.68900
H  32.70500 50.66200 27.53500
H  31.91400 49.12200 27.67700
H  31.43500 50.45800 28.72700
H  33.94100 49.66800 24.19800
H  32.85500 49.29200 25.51000
H  33.71300 50.79800 25.67600
H  27.91000 50.72900 21.02000
H  26.04000 52.97500 20.62000
H  28.08800 53.63000 20.24300
H  28.93800 52.14300 19.58400
H  29.47500 53.05300 21.05500
H  24.96400 50.20200 21.32000
H  26.12900 50.05600 20.08500
H  24.38700 50.56700 18.53300
H  24.28300 52.19100 19.15500
H  23.34300 50.99900 19.88900
H  20.76300 53.71200 24.55600
H  21.57700 53.25200 22.98100
H  21.97500 54.78200 23.68200
H  22.33600 51.88700 28.97100
H  23.36600 53.87000 32.39900
H  21.63400 54.21500 32.42500
H  22.62900 55.33400 31.45500

