158

Mg 24.59600 -6.99900 46.98900
C  26.95600 -4.50900 45.86700
C  22.21700 -5.39500 45.13800
C  22.65900 -9.57100 47.62900
C  27.37200 -8.72000 48.22300
N  24.66800 -5.08900 45.67800
C  25.69200 -4.35800 45.26100
C  25.33500 -3.33300 44.13600
C  23.76500 -3.56200 44.03700
C  23.54800 -4.76700 44.99600
C  22.95000 -2.30900 44.40500
C  26.11800 -3.56400 42.79000
C  27.14600 -2.45100 42.19900
H  27.04400 -2.04300 40.62800
N  22.64900 -7.40300 46.58000
C  21.83200 -6.60800 45.80100
C  20.56700 -7.21600 45.71600
C  20.62400 -8.38900 46.50500
C  21.99000 -8.51700 46.97200
C  19.32900 -6.62800 44.97500
C  19.53100 -9.39400 46.65800
O  18.37700 -9.12500 46.26800
C  19.70400 -10.80400 47.30400
N  24.96200 -8.88600 47.78200
C  23.95600 -9.79000 48.01700
C  24.52200 -11.05900 48.70100
C  26.09000 -10.81200 48.63800
C  26.13500 -9.41100 48.13900
C  24.06400 -11.16700 50.14300
C  26.94700 -11.84500 47.84300
C  27.32300 -13.13900 48.61400
N  26.71000 -6.66000 47.16700
C  27.71300 -7.44700 47.74600
C  28.94200 -6.80800 47.80300
C  28.67700 -5.62700 47.06100
C  27.34100 -5.58100 46.65900
C  30.23400 -7.24300 48.36700
C  29.25400 -4.40600 46.55400
O  30.27800 -3.83700 46.83300
C  28.20400 -3.69100 45.65000
C  27.99200 -2.36400 46.33000
O  27.50700 -2.06100 47.37700
O  28.32000 -1.43200 45.39900
C  28.02900 -0.06200 45.68200
H  21.44400 -4.96700 44.49600
H  21.93800 -10.33100 47.93500
H  28.26500 -9.27800 48.51400
H  25.61100 -2.37200 44.57000
H  23.41100 -3.88700 43.05900
H  23.33800 -1.53300 43.74500
H  23.02700 -2.10000 45.47200
H  21.88300 -2.37900 44.19300
H  25.35200 -3.80200 42.05200
H  26.70000 -4.45900 43.01200
H  28.16400 -2.81000 42.35000
H  27.14600 -1.50100 42.73400
H  19.16800 -7.05800 43.98700
H  19.42500 -5.56000 44.77700
H  18.43600 -6.71900 45.59300
H  18.75900 -11.31900 47.13000
H  19.76500 -10.67400 48.38400
H  20.50300 -11.39000 46.84900
H  24.29800 -11.93400 48.09000
H  26.61300 -10.87900 49.59200
H  24.39100 -12.11400 50.57200
H  22.97600 -11.22800 50.16000
H  24.35500 -10.28100 50.70800
H  27.90400 -11.45700 47.49600
H  26.41200 -12.16600 46.94900
H  26.75600 -13.27200 49.53600
H  28.37800 -13.16800 48.88500
H  27.05900 -13.91900 47.90000
H  30.74700 -6.32000 48.63600
H  30.75700 -7.73000 47.54300
H  30.13800 -7.95700 49.18500
H  28.61800 -3.62800 44.64400
H  26.99800 0.23200 45.48600
H  28.66400 0.53700 45.02900
H  28.33000 0.17000 46.70300
Mg 48.35900 34.47500 27.46400
C  46.60000 32.89800 30.07800
C  48.67200 37.18800 29.54500
C  49.53900 36.16300 24.70600
C  47.70200 31.73500 25.46300
N  47.66600 34.99300 29.61800
C  47.18100 34.09400 30.48900
C  47.19800 34.78600 31.90700
C  47.31800 36.30000 31.52200
C  48.00800 36.10100 30.21300
C  46.00300 37.12000 31.46600
C  48.44300 34.28700 32.65100
C  48.36500 34.02200 34.15200
H  47.47500 34.84100 34.97200
N  49.17000 36.39700 27.19600
C  49.20800 37.34300 28.20800
C  49.68500 38.62600 27.59100
C  50.03600 38.30800 26.19300
C  49.53100 36.90000 25.90500
C  49.68900 39.88700 28.42700
C  50.71600 39.26400 25.20400
O  50.70700 38.99200 23.99800
C  51.10400 40.61300 25.58400
N  48.62900 33.93900 25.46000
C  49.16100 34.80000 24.52500
C  49.46300 34.05700 23.17700
C  49.06500 32.60600 23.48900
C  48.42600 32.72800 24.86300
C  48.77000 34.77600 21.96700
C  50.24200 31.61000 23.47500
C  50.33700 31.04000 22.09200
N  47.25500 32.70200 27.59400
C  47.15600 31.63500 26.74000
C  46.44600 30.53900 27.41000
C  46.19100 31.06400 28.67600
C  46.74000 32.33500 28.82800
C  45.98900 29.28200 26.70900
C  45.46700 30.75500 29.92700
O  44.82100 29.75700 30.27300
C  45.47400 32.06600 30.80800
C  45.72900 31.79800 32.18600
O  46.75900 31.37700 32.66400
O  44.55900 32.07200 32.87200
C  44.59600 31.69200 34.27800
H  48.83600 38.04200 30.20500
H  49.92200 36.58500 23.77500
H  47.57700 30.83800 24.85300
H  46.34200 34.61600 32.56000
H  48.03300 36.79900 32.17800
H  46.12100 37.95600 30.77600
H  45.85100 37.54300 32.45900
H  45.13100 36.52200 31.20100
H  49.28400 34.91000 32.34700
H  48.59200 33.28300 32.25500
H  49.38100 34.27600 34.45400
H  48.26500 32.97600 34.43800
H  49.14700 40.67700 27.90600
H  50.70500 40.27500 28.49800
H  49.26300 39.74000 29.42000
H  51.50800 41.25600 24.80200
H  51.90400 40.64400 26.32400
H  50.25400 41.07600 26.08600
H  50.53000 34.06900 22.95800
H  48.29500 32.30800 22.77700
H  49.30200 35.69600 21.72200
H  47.74900 34.98500 22.28800
H  48.76900 34.04300 21.16000
H  50.02600 30.78500 24.15300
H  51.20300 32.10600 23.61600
H  50.14500 29.97900 22.25600
H  51.31000 31.25000 21.64700
H  49.61800 31.41900 21.36700
H  46.91200 28.81300 26.36800
H  45.28200 29.34800 25.88200
H  45.52400 28.72700 27.52500
H  44.48900 32.51800 30.68800
H  43.64200 31.23600 34.54300
H  44.73000 32.63100 34.81500
H  45.29100 30.94500 34.66300

