158

Mg 1.87700 8.33400 25.29000
C  2.30200 9.99900 28.34800
C  1.59500 5.29300 27.11400
C  1.23900 6.65300 22.42800
C  2.28100 11.25200 23.55200
N  2.04400 7.71200 27.49800
C  2.15000 8.62700 28.52500
C  2.18200 7.88000 29.88600
C  2.31500 6.34100 29.44100
C  1.92500 6.41600 27.92000
C  3.68600 5.67000 29.75000
C  0.99500 8.26800 30.76900
C  1.29000 8.48800 32.27700
H  2.46600 7.67500 32.99300
N  1.44700 6.21200 24.79400
C  1.33000 5.18100 25.72400
C  0.93200 4.05900 24.96700
C  0.98900 4.36500 23.57700
C  1.23200 5.78600 23.53200
C  0.57700 2.78300 25.65200
C  0.77800 3.48100 22.34600
O  0.86100 3.88200 21.17500
C  0.49600 2.06900 22.51700
N  2.13300 8.84100 23.30100
C  1.76700 7.96400 22.26700
C  2.00000 8.54900 20.89300
C  2.00000 10.12000 21.21100
C  2.24600 10.11500 22.79100
C  3.29700 8.04000 20.18800
C  0.56000 10.75300 20.89400
C  0.67500 11.89000 19.88400
N  2.19100 10.20700 25.78600
C  2.35000 11.32300 24.95400
C  2.44800 12.53900 25.78100
C  2.38900 12.05400 27.09400
C  2.36600 10.59700 27.05800
C  2.37200 13.96500 25.34300
C  2.41900 12.44100 28.49600
O  2.63200 13.49100 29.01400
C  2.35000 11.11300 29.36000
C  3.38900 10.94700 30.37400
O  4.42400 10.27100 30.23200
O  3.08900 11.77400 31.48500
C  4.26200 11.97600 32.30200
H  1.60200 4.37000 27.69800
H  1.12300 6.11800 21.48300
H  2.22400 12.18900 22.99400
H  3.10300 8.18400 30.38400
H  1.66300 5.62600 29.94200
H  4.53500 6.33600 29.90800
H  3.80400 5.01400 28.88800
H  3.53800 5.06800 30.64600
H  0.18500 7.54100 30.71600
H  0.56600 9.23200 30.49600
H  0.37600 8.33400 32.85000
H  1.47000 9.56200 32.33200
H  1.38000 2.07800 25.43800
H  -0.31400 2.42000 25.14000
H  0.27600 2.81900 26.69900
H  0.61400 1.44000 21.63500
H  -0.55100 2.06200 22.81900
H  1.19700 1.63000 23.22700
H  1.28600 8.35500 20.09200
H  2.77500 10.58400 20.60200
H  2.92300 7.05400 19.91300
H  4.15000 7.97600 20.86400
H  3.53200 8.70300 19.35600
H  0.04800 11.16900 21.76200
H  -0.09400 10.00500 20.44500
H  1.08800 11.50200 18.95300
H  1.33800 12.68200 20.23400
H  -0.35900 12.23500 19.87900
H  1.82300 14.39400 26.18100
H  1.80300 14.06000 24.41800
H  3.37500 14.39300 25.31500
H  1.44900 11.19700 29.96600
H  4.71500 11.04800 32.65200
H  3.98900 12.49600 33.22000
H  4.92800 12.60600 31.71300
Mg -10.27700 39.81300 42.51600
C  -9.27600 36.57400 41.50700
C  -7.30100 41.00800 41.32900
C  -11.55700 42.88900 42.53900
C  -13.44700 38.37800 42.85400
N  -8.67200 38.88900 41.30100
C  -8.41800 37.59800 41.08400
C  -6.95700 37.29800 40.45900
C  -6.33900 38.77100 40.49100
C  -7.51100 39.60000 41.18900
C  -4.95700 38.83900 41.16900
C  -6.90900 36.53000 39.08700
C  -5.66200 35.66400 38.90500
H  -4.83200 36.10000 37.73400
N  -9.48800 41.69500 42.09300
C  -8.21200 42.00200 41.65900
C  -7.97600 43.40200 41.73700
C  -9.16300 43.94200 42.21600
C  -10.13000 42.84500 42.30300
C  -6.70200 44.06400 41.30900
C  -9.39900 45.35000 42.66600
O  -8.50100 46.22400 42.55300
C  -10.67500 45.76200 43.39600
N  -12.21600 40.52700 42.75300
C  -12.49800 41.82200 42.63700
C  -14.02200 42.05100 42.83300
C  -14.65200 40.65600 43.00300
C  -13.40200 39.77600 42.78400
C  -14.37100 43.04900 43.94300
C  -15.77000 40.44800 41.95900
C  -16.91100 39.48400 42.32000
N  -11.19900 37.88600 42.56400
C  -12.47600 37.44200 42.87000
C  -12.49900 35.94500 43.00500
C  -11.24400 35.59600 42.52400
C  -10.52700 36.80400 42.20600
C  -13.66700 35.05500 43.16500
C  -10.32500 34.44400 42.14600
O  -10.51000 33.28300 42.17600
C  -9.02600 35.07300 41.53600
C  -7.83000 34.74100 42.43900
O  -7.52600 35.29600 43.46100
O  -7.06500 33.79500 41.79800
C  -5.79900 33.45600 42.56600
H  -6.28300 41.28500 41.04800
H  -11.97000 43.88500 42.36900
H  -14.44600 37.93700 42.87700
H  -6.48700 36.70900 41.24700
H  -6.27500 39.15300 39.47200
H  -4.26300 39.13700 40.38300
H  -4.67000 37.85500 41.53700
H  -4.84700 39.54000 41.99600
H  -6.80000 37.25100 38.27700
H  -7.74200 35.87600 38.83000
H  -5.98200 34.63200 38.75900
H  -5.15000 35.61100 39.86500
H  -6.66900 45.02000 40.78600
H  -6.31200 43.38900 40.54700
H  -5.93000 44.14800 42.07300
H  -11.44100 45.99600 42.65700
H  -10.42000 46.66100 43.95700
H  -10.94200 45.05700 44.18400
H  -14.29100 42.54100 41.89700
H  -15.04000 40.38100 43.98400
H  -13.68800 43.18000 44.78200
H  -15.18400 42.50800 44.42700
H  -14.71500 43.98700 43.50800
H  -15.29700 40.12600 41.03100
H  -16.31300 41.38700 41.85300
H  -17.89500 39.95200 42.34600
H  -16.81000 39.19700 43.36700
H  -16.99100 38.64100 41.63400
H  -13.41100 34.49600 44.06500
H  -13.83900 34.36700 42.33700
H  -14.53300 35.64700 43.45900
H  -8.91500 34.67700 40.52700
H  -5.17800 34.30400 42.27400
H  -5.28100 32.57700 42.18200
H  -5.99400 33.45100 43.63800

