158

Mg 8.75100 3.99600 27.85100
C  9.95400 2.92900 30.88600
C  6.98200 6.55500 29.53700
C  6.94500 4.62600 24.99600
C  10.06700 1.16500 26.31100
N  8.41200 4.49700 29.97100
C  9.08700 4.01000 31.05100
C  8.71300 4.62700 32.42300
C  7.70100 5.73900 31.94300
C  7.73300 5.63400 30.37700
C  6.28500 5.67200 32.47100
C  9.94700 5.11900 33.22800
C  10.13800 4.51500 34.69900
H  10.23400 5.44900 35.93900
N  7.21700 5.44900 27.32500
C  6.73000 6.42600 28.13000
C  6.00200 7.29700 27.36200
C  5.81100 6.70600 26.13800
C  6.61700 5.53600 26.11500
C  5.33100 8.46700 27.91100
C  5.06800 7.29600 24.76200
O  4.99300 6.69500 23.67000
C  4.24100 8.60600 24.94300
N  8.41400 2.94800 25.96400
C  7.67900 3.46800 24.91400
C  7.72000 2.55800 23.67400
C  8.83200 1.45700 24.07300
C  9.13400 1.84800 25.53300
C  6.35300 2.04500 23.22900
C  9.98800 1.16700 23.17500
C  10.16100 -0.17400 22.57000
N  9.91100 2.37700 28.41300
C  10.35000 1.34100 27.69100
C  11.08400 0.42300 28.57300
C  10.92600 1.02100 29.80100
C  10.19800 2.19600 29.66600
C  11.68100 -0.91500 28.10800
C  11.25000 0.87200 31.15600
O  11.83400 0.03000 31.81800
C  10.70900 2.06900 31.94100
C  9.81800 1.53100 33.03500
O  8.61800 1.39000 32.99300
O  10.58900 1.36900 34.20700
C  9.89300 1.00300 35.46400
H  6.75400 7.44200 30.13100
H  6.49200 4.64600 24.00300
H  10.57700 0.26300 25.96800
H  8.26500 3.84100 33.03100
H  8.08100 6.70600 32.27400
H  5.73200 5.02900 31.78600
H  5.95800 6.71100 32.51200
H  6.31300 5.22300 33.46400
H  9.81900 6.19100 33.38100
H  10.87000 5.05800 32.65300
H  11.08100 3.98600 34.56000
H  9.30900 3.80800 34.70400
H  5.90900 9.35100 27.64100
H  5.24500 8.47600 28.99800
H  4.35900 8.58600 27.43200
H  3.99800 8.97600 23.94700
H  4.90900 9.33100 25.40800
H  3.30800 8.54600 25.50300
H  8.07300 3.23800 22.89900
H  8.43500 0.46500 24.28800
H  6.27100 0.97000 23.38900
H  6.12400 2.36900 22.21300
H  5.62900 2.43700 23.94300
H  10.86500 1.41500 23.77300
H  10.02400 1.80300 22.29000
H  10.46900 -0.00100 21.53900
H  9.24800 -0.77000 22.59000
H  11.00900 -0.69900 23.01000
H  12.73300 -0.72400 27.89900
H  11.16800 -1.40000 27.27700
H  11.72100 -1.59900 28.95600
H  11.51500 2.66900 32.36400
H  8.98500 0.40900 35.35700
H  9.67200 1.84300 36.12200
H  10.55700 0.41200 36.09600
Mg -11.24000 40.66500 43.32100
C  -10.80900 37.32100 42.11200
C  -8.28800 41.48800 41.67700
C  -12.10700 43.83400 43.62500
C  -14.55300 39.72000 44.07700
N  -9.74200 39.50200 41.94900
C  -9.83500 38.17500 41.56800
C  -8.53000 37.75400 40.75500
C  -7.55500 38.97700 41.11000
C  -8.57100 40.08600 41.63400
C  -6.27500 38.74100 41.92700
C  -8.73100 37.51400 39.27300
C  -7.98400 36.27400 38.61200
H  -6.95400 36.42300 37.47500
N  -10.31500 42.42700 42.74000
C  -9.07700 42.56300 42.17200
C  -8.69900 43.93000 42.13900
C  -9.84700 44.64000 42.67200
C  -10.80400 43.65100 43.03800
C  -7.54300 44.39600 41.49500
C  -10.01100 46.15600 42.74800
O  -9.01500 46.84700 42.57900
C  -11.16000 46.90000 43.21400
N  -13.10400 41.68400 43.82900
C  -13.13700 42.99400 43.94100
C  -14.57000 43.51100 44.31400
C  -15.34400 42.12600 44.51100
C  -14.30600 41.10500 44.08400
C  -14.76000 44.45100 45.50800
C  -16.71000 42.09600 43.75100
C  -17.95800 42.29400 44.60700
N  -12.42800 38.86900 43.32400
C  -13.68700 38.64800 43.73700
C  -14.03500 37.20900 43.61000
C  -12.83800 36.66700 43.04300
C  -11.92400 37.71800 42.84700
C  -15.39400 36.63400 43.90600
C  -12.23200 35.42300 42.61400
O  -12.65000 34.26800 42.65400
C  -10.97600 35.83100 41.83300
C  -9.88000 34.90800 42.21200
O  -9.21700 35.00900 43.26900
O  -9.63800 34.01400 41.22200
C  -8.42800 33.19800 41.45500
H  -7.31000 41.67400 41.22700
H  -12.31900 44.87700 43.86900
H  -15.52000 39.46100 44.51300
H  -8.07600 36.85800 41.17800
H  -7.19700 39.40700 40.17500
H  -6.19700 37.65400 41.93700
H  -6.34200 39.15900 42.93200
H  -5.48300 39.17900 41.31900
H  -8.28000 38.34000 38.72400
H  -9.77600 37.41900 38.98000
H  -8.76300 35.63900 38.19100
H  -7.36600 35.80300 39.37700
H  -7.67300 45.29000 40.88400
H  -7.05600 43.64000 40.87800
H  -6.73800 44.55900 42.21100
H  -12.03800 46.68600 42.60600
H  -10.83300 47.93800 43.14500
H  -11.14800 46.61000 44.26400
H  -14.97500 44.04000 43.45100
H  -15.47200 41.98100 45.58300
H  -15.18000 43.95700 46.38400
H  -15.20800 45.38300 45.16100
H  -13.75200 44.61800 45.88700
H  -16.77400 41.09000 43.33600
H  -16.74900 42.78300 42.90600
H  -18.65900 43.01900 44.19300
H  -17.70300 42.57000 45.63100
H  -18.43600 41.31700 44.66600
H  -16.05300 36.86900 43.07000
H  -15.88800 37.02700 44.79400
H  -15.42200 35.54900 43.99700
H  -11.33100 35.57300 40.83500
H  -7.57400 33.79200 41.12800
H  -8.52000 32.27400 40.88500
H  -8.20000 32.84200 42.46000

