158

Mg 1.23500 8.23000 25.30700
C  1.65900 10.30200 28.15600
C  1.17300 5.46800 27.55200
C  0.90200 6.25100 22.69400
C  1.11200 10.96700 23.37100
N  1.53900 7.91300 27.63200
C  1.55900 8.93500 28.58600
C  1.51000 8.37300 29.99900
C  1.58200 6.80100 29.75400
C  1.43800 6.72400 28.21300
C  2.80600 6.12600 30.36300
C  0.23100 8.86700 30.87000
C  0.50200 9.50100 32.26200
H  1.66700 8.88700 33.05000
N  1.16200 6.18100 25.10000
C  1.13900 5.19500 26.14000
C  0.99600 3.90000 25.57200
C  0.98000 4.12100 24.13900
C  0.97000 5.60200 23.92900
C  0.97300 2.52700 26.43700
C  0.98800 3.05400 23.08800
O  0.91300 3.30500 21.89400
C  1.00800 1.67000 23.44600
N  0.94500 8.58200 23.34200
C  0.85400 7.61000 22.36100
C  0.69700 8.25900 20.88700
C  0.70500 9.71200 21.24300
C  0.93200 9.78200 22.72300
C  1.79800 7.71500 19.89000
C  -0.62400 10.45700 20.77700
C  -0.52400 11.27800 19.55800
N  1.52100 10.19900 25.67500
C  1.32200 11.22200 24.75000
C  1.45700 12.50200 25.40100
C  1.73800 12.18000 26.70800
C  1.56600 10.77200 26.87500
C  1.28300 13.86000 24.74500
C  2.01100 12.69800 28.03600
O  2.23100 13.87900 28.43900
C  1.96400 11.47900 29.06200
C  3.19900 11.43100 29.90400
O  4.30600 11.02300 29.66600
O  2.93000 12.12300 31.03200
C  3.91300 12.16400 32.06600
H  1.18700 4.68900 28.31700
H  0.82000 5.58100 21.83600
H  1.03400 11.77000 22.63600
H  2.44600 8.81500 30.34000
H  0.67500 6.27600 30.05100
H  3.40300 5.70200 29.55600
H  2.59200 5.37800 31.12600
H  3.28700 7.00000 30.80400
H  -0.56000 8.11700 30.87700
H  -0.17900 9.67500 30.26500
H  -0.36700 9.67200 32.89900
H  0.83700 10.48600 31.93700
H  1.99900 2.16900 26.34400
H  0.26200 1.84800 25.96600
H  0.75800 2.63300 27.50000
H  -0.04300 1.44400 23.62500
H  1.61400 1.46200 24.32800
H  1.33600 1.03800 22.62000
H  -0.28100 8.00400 20.48000
H  1.56700 10.14700 20.73700
H  2.48200 7.02000 20.37700
H  2.36100 8.52400 19.42400
H  1.30200 7.19300 19.07300
H  -1.01200 11.21000 21.46300
H  -1.41600 9.74900 20.53300
H  -1.33700 10.93300 18.92000
H  0.47800 11.27000 19.12900
H  -0.74200 12.33100 19.73600
H  0.73000 14.53900 25.39400
H  0.85400 13.66500 23.76200
H  2.24400 14.33800 24.55100
H  1.09000 11.65100 29.69000
H  3.49900 12.07200 33.07000
H  4.20900 13.20800 31.96900
H  4.71500 11.43000 31.98400
Mg -2.33800 34.80000 26.34100
C  -3.63200 32.86300 29.16000
C  -1.09500 37.11100 28.57300
C  -1.79800 36.69000 23.77800
C  -4.08200 32.30900 24.28700
N  -2.38600 34.95500 28.65500
C  -2.80400 34.02200 29.49600
C  -2.46000 34.45300 30.92300
C  -1.64000 35.80900 30.72700
C  -1.62800 35.94000 29.25100
C  -1.94200 36.96700 31.67800
C  -1.83300 33.33300 31.82300
C  -2.57100 33.15000 33.20600
H  -1.66600 32.81500 34.38900
N  -1.41700 36.56800 26.17800
C  -0.92800 37.36200 27.16600
C  -0.16000 38.48600 26.60600
C  -0.25400 38.29500 25.17200
C  -1.17200 37.17300 24.95500
C  0.67100 39.53900 27.39100
C  0.38900 39.06500 24.07100
O  0.13200 38.81500 22.86600
C  1.21500 40.29300 24.32600
N  -2.95500 34.55900 24.32400
C  -2.56100 35.52200 23.42100
C  -2.90500 35.05000 21.95100
C  -3.45400 33.57200 22.18000
C  -3.46000 33.46800 23.70000
C  -3.69100 35.95900 20.98700
C  -2.73900 32.35600 21.48000
C  -1.33000 31.93000 21.99100
N  -3.68100 32.98800 26.58700
C  -4.23900 32.11400 25.65900
C  -4.91600 31.11300 26.38400
C  -4.73200 31.34800 27.70800
C  -3.94700 32.46500 27.82500
C  -5.61200 29.89600 25.73700
C  -5.04200 30.90300 29.04800
O  -5.61800 29.95000 29.46000
C  -4.39400 31.92800 30.05300
C  -5.41700 32.73700 30.84100
O  -5.82400 33.84200 30.49400
O  -5.67900 32.15400 32.01400
C  -6.66700 32.88100 32.82900
H  -0.81800 37.83200 29.34500
H  -1.59400 37.26600 22.87300
H  -4.59700 31.68400 23.55400
H  -3.50600 34.59700 31.19300
H  -0.61300 35.58700 31.01800
H  -1.07300 37.18500 32.29800
H  -2.63500 36.60600 32.43900
H  -2.32200 37.91700 31.30300
H  -0.86300 33.64300 32.21400
H  -1.76800 32.37600 31.30400
H  -3.21800 32.27500 33.13900
H  -3.05500 34.11100 33.38000
H  1.71900 39.59700 27.09600
H  0.67300 39.43500 28.47600
H  0.26400 40.52700 27.17600
H  1.57100 40.77200 23.41400
H  2.04600 39.91900 24.92500
H  0.63700 41.06700 24.83300
H  -1.99700 34.82100 21.39400
H  -4.51300 33.54200 21.92400
H  -3.12700 36.16200 20.07700
H  -3.76000 36.94000 21.45800
H  -4.69100 35.55100 20.84300
H  -2.66600 32.61100 20.42300
H  -3.41800 31.50300 21.50000
H  -1.40300 30.87000 22.23200
H  -1.13300 32.50700 22.89400
H  -0.62100 32.14200 21.19000
H  -5.12600 29.02300 26.17200
H  -5.66700 29.98500 24.65200
H  -6.63200 29.76800 26.09900
H  -3.79900 31.38800 30.79000
H  -6.22600 33.60500 33.51400
H  -7.29800 32.19500 33.39400
H  -7.32500 33.48500 32.20400

