158

Mg 42.20000 40.97900 26.37300
C  41.43300 43.40900 28.67600
C  42.96600 38.77300 28.90400
C  42.80000 38.80100 24.04900
C  42.15100 43.65000 23.92200
N  42.16200 41.10100 28.56100
C  41.68400 42.18200 29.29600
C  41.74100 41.83000 30.78100
C  42.38300 40.41600 30.84400
C  42.42800 39.99800 29.32700
C  43.71900 40.38900 31.57500
C  40.37200 41.92000 31.54400
C  40.37600 42.78500 32.90200
H  39.67900 42.27000 34.16400
N  42.90700 39.10500 26.47400
C  43.25900 38.35800 27.54700
C  43.63400 36.98100 27.09500
C  43.58600 36.95400 25.70900
C  43.08500 38.32000 25.35000
C  43.91900 35.83500 28.03100
C  44.09500 35.95000 24.70400
O  43.98000 36.03300 23.48800
C  44.68900 34.67100 25.15400
N  42.31700 41.18700 24.23200
C  42.48700 40.06200 23.47900
C  42.70900 40.46100 21.94200
C  42.49000 42.05100 21.98700
C  42.29100 42.35700 23.44800
C  44.11500 40.01800 21.33300
C  41.30500 42.45000 21.17700
C  40.03900 42.91600 21.79700
N  41.86200 43.09600 26.26300
C  41.86500 43.99800 25.21000
C  41.50000 45.29500 25.65000
C  41.22900 45.10100 27.04600
C  41.53300 43.72800 27.35500
C  41.35200 46.57800 24.85900
C  40.89100 45.84900 28.30500
O  40.68400 47.05600 28.57500
C  41.03800 44.69600 29.40600
C  42.15700 45.25100 30.33200
O  43.33300 45.12300 30.00300
O  41.72800 45.79500 31.50000
C  42.81600 46.20600 32.39000
H  43.13200 38.01000 29.66600
H  43.03200 38.11300 23.23400
H  42.26900 44.44300 23.18000
H  42.39100 42.62300 31.15300
H  41.73700 39.71600 31.37400
H  44.47700 40.44700 30.79400
H  43.84000 39.41100 32.04100
H  43.85800 41.18200 32.31000
H  40.24500 40.88900 31.87500
H  39.54300 42.31200 30.95400
H  40.05500 43.80800 32.70600
H  41.37200 42.83000 33.34200
H  44.42700 34.96100 27.62300
H  42.93500 35.43200 28.27300
H  44.41800 36.09900 28.96400
H  45.57400 34.85800 25.76300
H  44.97100 34.07200 24.28800
H  43.88100 34.29800 25.78300
H  41.95400 40.00500 21.30200
H  43.34400 42.57500 21.55700
H  43.89800 39.49200 20.40300
H  44.57300 39.26800 21.97900
H  44.76400 40.82200 20.98600
H  40.95000 41.55800 20.66200
H  41.75900 43.11700 20.44400
H  40.19700 43.88300 22.27500
H  39.83200 42.13900 22.53300
H  39.26200 42.78000 21.04500
H  40.34300 46.98200 24.77500
H  41.86700 46.56500 23.89800
H  41.75600 47.34900 25.51500
H  40.17200 44.70100 30.06800
H  43.36200 45.42900 32.92600
H  42.28300 46.86200 33.07800
H  43.60300 46.78200 31.90300
Mg -10.78900 15.73100 43.09100
C  -7.35900 16.31000 43.05700
C  -11.26500 19.11400 42.80900
C  -14.04300 15.14300 42.10700
C  -10.17100 12.29100 42.83200
N  -9.39200 17.49500 42.79600
C  -8.03900 17.47600 42.98000
C  -7.46000 18.88200 42.80900
C  -8.75700 19.78300 42.96700
C  -9.93800 18.73400 42.93400
C  -8.84600 20.55400 44.32000
C  -6.81900 19.09500 41.38300
C  -5.42300 19.75700 41.35200
H  -4.34200 19.25000 40.38300
N  -12.43900 16.95200 42.49200
C  -12.42900 18.32200 42.53900
C  -13.70700 18.87000 42.16900
C  -14.53700 17.72300 41.85900
C  -13.66300 16.51500 42.13400
C  -14.05000 20.30400 41.98900
C  -15.93900 17.91300 41.48000
O  -16.52000 18.97600 41.50300
C  -16.69000 16.70600 41.17100
N  -12.00000 13.98200 42.59700
C  -13.31100 14.03100 42.44700
C  -13.95600 12.57100 42.34500
C  -12.63900 11.69200 42.30100
C  -11.55200 12.73700 42.69200
C  -14.81100 12.20200 43.53000
C  -12.44400 10.95100 40.92200
C  -12.34900 9.41800 41.00300
N  -9.17600 14.46200 43.02900
C  -9.03800 13.11000 42.97400
C  -7.62200 12.72500 43.15800
C  -6.91700 13.96300 43.15800
C  -7.87800 14.97400 43.10400
C  -7.08800 11.31500 43.14200
C  -5.55600 14.59400 43.14000
O  -4.42200 14.10000 43.06100
C  -5.81200 16.11800 43.29800
C  -5.40300 16.43100 44.68800
O  -6.05700 16.52700 45.72400
O  -4.05200 16.61900 44.64400
C  -3.21500 16.81600 45.83000
H  -11.29900 20.20200 42.72000
H  -15.01500 14.85000 41.70500
H  -10.07300 11.23500 42.57400
H  -6.82100 18.99600 43.68400
H  -8.84500 20.43100 42.09500
H  -8.94000 21.57500 43.94900
H  -7.93100 20.47200 44.90600
H  -9.72800 20.17400 44.83500
H  -7.63400 19.46800 40.76400
H  -6.72600 18.07600 41.00700
H  -5.01300 19.49100 42.32700
H  -5.45900 20.84600 41.32100
H  -13.25200 20.87600 42.46000
H  -14.87600 20.57600 42.64500
H  -14.30800 20.48700 40.94600
H  -17.70700 16.91900 40.84100
H  -16.95400 16.20600 42.10200
H  -16.17900 15.98900 40.52800
H  -14.45500 12.60000 41.37600
H  -12.76700 10.92800 43.06800
H  -15.83900 12.01800 43.21800
H  -14.80300 12.89400 44.37300
H  -14.65700 11.23300 44.00300
H  -11.49800 11.23000 40.45800
H  -13.13800 11.32800 40.17100
H  -11.39800 9.13300 40.55200
H  -13.21300 9.05400 40.44800
H  -12.27900 8.95900 41.99000
H  -7.40700 10.74700 44.01500
H  -6.00000 11.30000 43.07500
H  -7.30400 10.80400 42.20300
H  -5.23400 16.66500 42.55300
H  -2.53700 15.96900 45.93800
H  -3.65700 17.09700 46.78500
H  -2.54700 17.66300 45.66600

