158

Mg 36.57100 49.02800 24.27100
C  36.75300 47.27200 27.45900
C  35.41600 51.77500 26.01200
C  35.93200 50.43400 21.29900
C  37.55900 46.09700 22.69700
N  35.97100 49.35400 26.44900
C  36.36300 48.60500 27.58900
C  36.17700 49.39600 28.86200
C  35.44100 50.76400 28.35300
C  35.67300 50.65900 26.80300
C  33.93000 50.80500 28.64700
C  37.45000 49.58500 29.74900
C  37.32300 49.00700 31.12700
H  35.89300 48.92500 31.79500
N  35.87300 50.83200 23.76200
C  35.48200 51.87000 24.62200
C  35.08600 53.04000 23.84700
C  35.15800 52.62900 22.43100
C  35.71400 51.25300 22.43000
C  34.73200 54.41400 24.46400
C  34.90500 53.49800 21.20200
O  34.98300 53.05400 20.08600
C  34.34000 54.96800 21.29500
N  36.54400 48.29500 22.25500
C  36.34400 49.10400 21.14200
C  36.72900 48.42000 19.83100
C  37.35400 47.10300 20.33200
C  37.25000 47.18100 21.87100
C  35.54600 48.25200 18.90300
C  38.74000 46.82600 19.82300
C  40.03200 47.31700 20.62600
N  37.01600 47.09800 24.87300
C  37.36900 45.99800 24.09800
C  37.65000 44.84500 24.95800
C  37.48000 45.31200 26.26200
C  36.97100 46.68600 26.17900
C  38.16400 43.49900 24.60900
C  37.57900 44.95800 27.65700
O  37.94600 43.94200 28.23600
C  37.04900 46.28000 28.47000
C  35.84600 45.77600 29.16600
O  34.66300 45.88900 28.90200
O  36.29900 45.10900 30.34700
C  35.19100 44.77000 31.28500
H  35.09300 52.59500 26.65700
H  35.71700 50.91500 20.34200
H  38.08800 45.25300 22.25100
H  35.44800 48.85900 29.46900
H  35.93800 51.69600 28.62200
H  33.65300 50.16500 29.48400
H  33.36300 50.66800 27.72600
H  33.70000 51.83500 28.91600
H  37.76400 50.61500 29.91300
H  38.20800 49.12800 29.11100
H  37.88300 49.65600 31.80000
H  37.81400 48.03500 31.16700
H  35.24400 54.49000 25.42300
H  33.65200 54.56600 24.46300
H  35.27400 55.22400 23.97600
H  33.99800 55.19900 20.28600
H  35.11700 55.59500 21.73300
H  33.45800 54.87800 21.92900
H  37.43200 49.06700 19.30600
H  36.74900 46.28500 19.94000
H  35.62100 47.29100 18.39400
H  35.59400 49.11600 18.23900
H  34.58100 48.31100 19.40500
H  38.85200 47.31900 18.85700
H  38.85300 45.78100 19.53500
H  40.60600 47.94800 19.94700
H  40.56200 46.41600 20.93600
H  39.95800 48.00500 21.46900
H  37.40000 42.75200 24.39200
H  38.79800 43.11900 25.40900
H  38.76400 43.65500 23.71300
H  37.73500 46.54000 29.27600
H  34.79100 43.77600 31.08900
H  34.39000 45.50800 31.30400
H  35.61500 44.89200 32.28300
Mg -2.64700 34.95400 26.95000
C  -4.08700 32.94400 29.36700
C  -1.12900 36.83300 29.43800
C  -1.20900 36.89200 24.57900
C  -4.27900 33.16800 24.51500
N  -2.69300 34.86600 29.15400
C  -3.27400 33.93100 29.96100
C  -2.84600 34.21100 31.47200
C  -2.00200 35.47600 31.42200
C  -1.98100 35.78300 29.94700
C  -2.52500 36.65200 32.28800
C  -2.10200 32.91400 32.14400
C  -2.96000 32.25000 33.25900
H  -2.33600 32.10500 34.64300
N  -1.41600 36.70600 27.00200
C  -0.87400 37.31600 28.12000
C  0.01200 38.38700 27.71900
C  -0.07100 38.46400 26.30200
C  -0.93100 37.32800 25.88300
C  0.75700 39.20500 28.71400
C  0.47500 39.51400 25.32700
O  0.06500 39.54700 24.17300
C  1.36000 40.51900 25.81200
N  -2.81400 35.07900 24.90600
C  -2.10700 35.95200 24.13500
C  -2.40000 35.72500 22.62200
C  -3.45000 34.56400 22.67600
C  -3.53600 34.20900 24.09700
C  -2.94800 36.86100 21.76400
C  -3.30000 33.49600 21.64800
C  -2.17500 32.47100 21.97900
N  -3.87000 33.40300 26.92400
C  -4.53100 32.85600 25.86600
C  -5.30200 31.70900 26.33500
C  -5.16200 31.73200 27.70800
C  -4.28200 32.79100 28.01500
C  -6.00000 30.66100 25.52800
C  -5.51800 31.10100 28.97400
O  -6.21800 30.13600 29.24900
C  -4.91600 31.96300 30.12900
C  -5.96900 32.51800 31.01300
O  -6.78600 33.43100 30.80300
O  -5.94300 31.83600 32.22500
C  -6.72600 32.42300 33.28800
H  -0.78600 37.51800 30.21600
H  -0.65000 37.47000 23.84000
H  -4.91500 32.63900 23.80100
H  -3.81300 34.31200 31.96500
H  -1.00000 35.19700 31.74600
H  -2.87000 37.50100 31.69900
H  -1.73500 36.96600 32.97000
H  -3.41400 36.47800 32.89400
H  -1.20200 33.20100 32.68900
H  -2.05400 32.17800 31.34200
H  -3.12300 31.20200 33.00800
H  -3.88300 32.79400 33.45900
H  1.78700 39.43300 28.44300
H  0.79100 38.72200 29.69100
H  0.12300 40.09200 28.71600
H  0.80800 41.20500 26.45400
H  1.76600 41.21300 25.07700
H  2.14800 39.99400 26.35300
H  -1.45900 35.44200 22.15100
H  -4.42100 35.01000 22.46300
H  -2.35500 37.76400 21.61300
H  -3.90800 37.10900 22.21600
H  -3.21000 36.51000 20.76600
H  -3.25200 33.90800 20.64000
H  -4.19400 32.88100 21.54900
H  -2.57400 31.49400 21.70700
H  -1.97300 32.35500 23.04400
H  -1.23400 32.66000 21.46400
H  -5.75400 30.69500 24.46700
H  -7.05900 30.91500 25.47800
H  -5.83300 29.68600 25.98600
H  -4.23300 31.39300 30.75900
H  -7.76900 32.54700 32.99700
H  -6.31500 33.40400 33.52400
H  -6.71100 31.77700 34.16600

