158

Mg -0.10700 7.99300 25.72000
C  1.21000 9.40700 28.63700
C  -0.66600 5.11300 27.28700
C  -0.84500 6.66700 22.68300
C  0.45600 11.08600 24.11000
N  0.36000 7.32800 27.69900
C  0.74500 8.09800 28.82100
C  0.43200 7.36100 30.12500
C  0.07600 5.92800 29.64000
C  -0.12600 6.09500 28.10000
C  1.15700 4.85900 29.98600
C  -0.68900 8.06100 31.01700
C  -0.43500 8.23600 32.52200
H  -0.00700 6.95800 33.29500
N  -0.80900 6.15400 25.06700
C  -1.00500 5.08200 25.87500
C  -1.36500 3.95600 25.00000
C  -1.35400 4.35400 23.65100
C  -1.00900 5.80400 23.74700
C  -1.63200 2.64700 25.59400
C  -1.73400 3.64300 22.41700
O  -1.86100 4.11700 21.30500
C  -2.17500 2.17700 22.58800
N  -0.10700 8.79800 23.67400
C  -0.57300 8.08600 22.64800
C  -0.43500 8.94900 21.37900
C  -0.53000 10.41400 21.92300
C  0.00400 10.09800 23.33700
C  0.88700 8.60100 20.66800
C  -1.93400 11.06400 21.83300
C  -2.37900 11.75200 20.51000
N  0.83700 9.76500 26.12200
C  0.91000 10.97100 25.39000
C  1.28800 12.03000 26.22400
C  1.47200 11.49800 27.47900
C  1.17400 10.11700 27.39800
C  1.33800 13.56500 25.94500
C  1.82900 11.75500 28.93600
O  2.14400 12.82500 29.45900
C  1.47400 10.43100 29.71600
C  2.54900 10.05700 30.63500
O  3.50300 9.30800 30.34300
O  2.42900 10.83800 31.69100
C  3.40400 10.43700 32.69300
H  -0.96900 4.26800 27.90800
H  -1.18200 6.18500 21.76300
H  0.61600 12.07900 23.68700
H  1.37400 7.25600 30.66400
H  -0.87500 5.58300 30.04300
H  1.44800 4.43400 29.02500
H  0.63300 4.07100 30.52600
H  1.97700 5.22800 30.60200
H  -1.64000 7.53100 30.95600
H  -0.90200 9.07700 30.68600
H  -1.44900 8.35700 32.90100
H  0.12100 9.14200 32.76200
H  -1.56000 2.65000 26.68200
H  -0.98600 1.90000 25.13200
H  -2.64600 2.31600 25.37100
H  -2.71300 1.73700 21.74900
H  -2.89200 2.08000 23.40300
H  -1.24400 1.63000 22.73900
H  -1.21800 8.79000 20.63800
H  0.19900 11.03900 21.40600
H  0.72200 8.15700 19.68600
H  1.45900 7.89100 21.26600
H  1.55000 9.46600 20.65200
H  -1.94700 11.88000 22.55500
H  -2.57400 10.22300 22.09900
H  -1.62700 11.57800 19.74000
H  -2.55000 12.80500 20.73400
H  -3.32300 11.34300 20.14900
H  0.45300 13.94200 25.43200
H  2.24200 13.96900 25.48700
H  1.27800 14.04200 26.92300
H  0.51600 10.53600 30.22500
H  3.57100 11.26100 33.38700
H  4.33800 10.07200 32.26600
H  3.01300 9.58000 33.24200
Mg 49.14400 35.08100 26.99100
C  47.16800 33.70800 29.52900
C  49.38500 38.01500 28.87000
C  50.71200 36.44000 24.42900
C  48.37200 32.30200 25.05800
N  48.28400 35.78700 28.84300
C  47.61000 35.00200 29.75400
C  47.73100 35.65100 31.13800
C  48.11100 37.14500 30.89500
C  48.49400 37.02200 29.38500
C  46.89700 38.06000 31.07200
C  48.92300 34.94200 31.93400
C  48.77600 34.89100 33.44600
H  47.65000 35.74600 34.19800
N  49.97900 36.87400 26.74100
C  50.03300 37.92700 27.64800
C  50.86500 39.02200 27.09000
C  51.23900 38.62600 25.74300
C  50.61300 37.27800 25.59600
C  51.40800 40.13900 27.89200
C  52.11700 39.32600 24.79500
O  52.32200 38.87600 23.68800
C  52.98000 40.57000 25.20100
N  49.26600 34.53200 24.87700
C  50.13700 35.23700 24.12500
C  50.54500 34.45600 22.96300
C  50.08800 33.01900 23.27800
C  49.14200 33.25900 24.41300
C  50.20400 35.05200 21.51100
C  51.21400 32.10300 23.62800
C  51.12600 30.58400 23.16100
N  47.94700 33.29300 27.12600
C  47.69100 32.29800 26.30000
C  46.95400 31.17600 26.92400
C  46.58100 31.76800 28.15900
C  47.27800 33.02200 28.26600
C  46.75800 29.80000 26.41300
C  45.91200 31.54100 29.45800
O  45.19600 30.62900 29.82100
C  46.18000 32.82100 30.36400
C  46.62900 32.31700 31.69800
O  47.74000 31.91600 31.86800
O  45.57800 32.31700 32.54200
C  45.78800 31.89000 33.90500
H  49.54400 38.94900 29.41200
H  51.49700 36.75100 23.73600
H  48.33400 31.32400 24.57400
H  46.77200 35.60100 31.65300
H  48.86300 37.52400 31.58800
H  46.00900 37.57500 31.47800
H  46.55200 38.29500 30.06500
H  47.14200 38.96700 31.62600
H  49.90000 35.37100 31.71400
H  48.96000 33.93900 31.50900
H  49.67300 35.09200 34.03100
H  48.39500 33.88500 33.62400
H  51.08100 41.07900 27.44800
H  52.46700 40.04000 28.12800
H  51.09700 40.16900 28.93600
H  53.53300 40.60100 24.26300
H  53.61300 40.52900 26.08800
H  52.26500 41.39200 25.20200
H  51.63300 34.39600 22.94800
H  49.52800 32.43500 22.54700
H  49.50400 34.39000 21.00100
H  51.07800 35.13500 20.86500
H  49.73900 36.03400 21.60200
H  51.34800 32.18900 24.70600
H  52.20900 32.46400 23.36700
H  50.27900 30.52100 22.47900
H  50.90400 29.92700 24.00300
H  52.04300 30.22000 22.69800
H  47.29400 29.10200 27.05600
H  47.10700 29.77300 25.38100
H  45.69300 29.56700 26.39200
H  45.25400 33.37400 30.52100
H  45.65100 30.80900 33.95400
H  44.96600 32.28900 34.49900
H  46.80000 32.05300 34.27500

