158

Mg 9.09900 3.41200 27.38100
C  10.19000 2.09900 30.37900
C  6.87600 5.36300 29.02800
C  7.99300 4.60300 24.34900
C  10.61300 0.75100 25.71900
N  8.52600 3.64700 29.53400
C  9.26400 3.13100 30.61700
C  8.69300 3.71200 31.92200
C  7.42100 4.58500 31.46900
C  7.50700 4.48300 29.92600
C  6.05100 4.17300 32.06200
C  9.81100 4.35000 32.78400
C  9.44700 4.89300 34.13500
H  10.37300 4.64100 35.33200
N  7.70700 4.96500 26.73800
C  6.94300 5.64700 27.63800
C  6.19400 6.57800 26.88700
C  6.45000 6.40300 25.50500
C  7.49700 5.35600 25.40700
C  5.17100 7.52900 27.54400
C  5.94700 7.07400 24.27000
O  6.35500 6.83300 23.09000
C  4.87300 8.04300 24.39800
N  9.30900 2.76500 25.36300
C  8.79800 3.47800 24.24900
C  9.22200 2.76600 22.92400
C  10.01800 1.51900 23.40100
C  9.97600 1.67800 24.92300
C  8.04700 2.48000 22.03700
C  11.40800 1.43800 22.67600
C  11.45800 0.36600 21.55500
N  10.10100 1.72300 27.89900
C  10.74100 0.76900 27.08200
C  11.51700 -0.12000 27.88900
C  11.32100 0.43500 29.15500
C  10.47500 1.55300 29.06600
C  12.37600 -1.24700 27.50800
C  11.82900 0.27600 30.45200
O  12.48600 -0.58100 30.88800
C  11.16600 1.39600 31.33600
C  10.61400 0.79200 32.52600
O  9.61300 0.09900 32.63100
O  11.26200 1.35200 33.56400
C  10.66400 1.01600 34.86800
H  6.23100 6.03500 29.59900
H  7.81300 5.05000 23.37000
H  11.28400 0.13400 25.11800
H  8.37400 2.81200 32.44700
H  7.51400 5.65000 31.68200
H  6.16900 3.60300 32.98300
H  5.47500 3.59900 31.33600
H  5.43900 5.03500 32.32500
H  10.31600 5.03500 32.10300
H  10.56600 3.61300 33.05800
H  8.45700 4.51000 34.38300
H  9.46000 5.98100 34.07200
H  4.16500 7.27100 27.21500
H  5.32500 8.57300 27.27200
H  5.27800 7.50300 28.62900
H  4.52700 8.32100 23.40300
H  5.42600 8.81000 24.94000
H  3.95500 7.78900 24.92800
H  10.00900 3.35000 22.44700
H  9.57000 0.53300 23.28000
H  7.19400 2.57800 22.70700
H  8.14700 1.45400 21.68200
H  8.10000 3.23300 21.25000
H  12.18200 1.11800 23.37400
H  11.74400 2.39100 22.26700
H  11.51100 0.89100 20.60100
H  10.63100 -0.34300 21.51200
H  12.26000 -0.37100 21.60500
H  13.00400 -1.58400 28.33300
H  12.93900 -0.87400 26.65200
H  11.73100 -2.06000 27.17500
H  12.01300 2.04600 31.55800
H  11.47300 0.92900 35.59400
H  10.11000 0.08300 34.96500
H  10.07300 1.88000 35.17200
Mg 54.10100 24.08000 44.90600
C  51.43400 26.18800 43.85700
C  52.66200 21.59600 42.81000
C  57.04800 22.46500 44.77600
C  55.60800 26.72400 46.54000
N  52.30800 23.93400 43.42100
C  51.34500 24.89300 43.20500
C  50.05500 24.34400 42.59500
C  50.36300 22.82700 42.58400
C  51.87600 22.74000 42.94500
C  49.44700 21.86600 43.43400
C  49.70300 24.84300 41.18800
C  50.96300 25.07000 40.24400
H  50.68500 25.81200 38.95200
N  54.73200 22.21000 44.02700
C  53.98900 21.33500 43.19300
C  54.82600 20.20400 42.80400
C  56.07100 20.47100 43.36800
C  56.01900 21.72200 44.15400
C  54.28100 19.05300 41.96500
C  57.31700 19.59400 43.05600
O  57.25700 18.68700 42.28400
C  58.58400 19.66200 43.85500
N  56.10400 24.45200 45.61400
C  57.11100 23.65200 45.43500
C  58.37100 24.21300 46.18100
C  57.94700 25.68100 46.47300
C  56.45200 25.66300 46.17200
C  58.95400 23.28700 47.30300
C  58.64400 26.92300 45.74200
C  58.86900 28.17200 46.61700
N  53.60000 25.91900 45.28400
C  54.26600 26.87300 45.98000
C  53.42600 28.10700 46.11300
C  52.34500 27.87100 45.27300
C  52.46900 26.55300 44.74200
C  53.60800 29.35100 46.93900
C  51.07900 28.42100 44.76300
O  50.56700 29.50800 44.97500
C  50.36400 27.34300 43.93500
C  49.94900 27.84000 42.61600
O  50.65500 28.14100 41.69700
O  48.59600 28.01400 42.61600
C  47.96100 28.55100 41.38200
H  52.17200 20.83000 42.20600
H  58.03400 22.00900 44.67100
H  56.08700 27.56000 47.05400
H  49.41000 24.56800 43.44400
H  50.27800 22.39900 41.58500
H  48.84000 22.41400 44.15400
H  50.01600 21.18900 44.07100
H  48.81400 21.22200 42.82300
H  49.14600 25.77700 41.11300
H  49.12000 23.99700 40.82200
H  51.39500 24.08400 40.07200
H  51.67200 25.69700 40.78500
H  53.22800 18.85400 42.16600
H  54.76200 18.10600 42.21100
H  54.53500 19.26800 40.92700
H  59.16700 18.74400 43.77400
H  58.28000 19.83600 44.88700
H  59.13300 20.53200 43.49300
H  59.23400 24.06300 45.53200
H  57.97000 25.98300 47.52000
H  59.98200 23.00600 47.07100
H  58.37600 22.36300 47.31500
H  59.03300 23.77200 48.27500
H  58.00600 27.19100 44.90000
H  59.64800 26.70500 45.37700
H  59.88500 28.55800 46.53400
H  58.59200 27.99200 47.65500
H  58.25000 28.95200 46.17300
H  54.50900 29.26500 47.54700
H  52.74600 29.49400 47.59100
H  53.61200 30.24800 46.32100
H  49.51900 27.08700 44.57400
H  48.19600 27.90900 40.53200
H  48.17900 29.60100 41.18700
H  46.90300 28.45400 41.62600

