158

Mg -1.91400 17.78400 27.41300
C  -2.18000 15.54900 30.01500
C  -2.39100 20.43400 29.54900
C  -1.81300 19.95100 24.78700
C  -1.51200 15.04800 25.15200
N  -2.26500 17.93900 29.60000
C  -2.36500 16.88500 30.52500
C  -2.79700 17.41400 31.89400
C  -2.72000 18.92300 31.74900
C  -2.41800 19.17200 30.19200
C  -3.85800 19.74700 32.37200
C  -1.98100 16.77900 33.05600
C  -1.83800 17.47800 34.41200
H  -0.78100 16.98000 35.38700
N  -2.01500 19.84900 27.21200
C  -2.19200 20.76100 28.21900
C  -2.23600 22.09400 27.70100
C  -1.94300 22.01300 26.35100
C  -1.87100 20.52600 26.01300
C  -2.28900 23.35700 28.56900
C  -1.70300 23.09200 25.38700
O  -1.48500 22.90700 24.18900
C  -1.78200 24.59000 25.74900
N  -1.87700 17.51200 25.20900
C  -1.83500 18.57500 24.37900
C  -1.74200 18.12900 22.94400
C  -1.36300 16.63800 23.08500
C  -1.64900 16.32400 24.56800
C  -3.14400 18.33900 22.21000
C  0.11800 16.28400 22.56200
C  1.20900 16.90700 23.38700
N  -1.87900 15.74800 27.53000
C  -1.71200 14.77300 26.53000
C  -1.90300 13.50100 27.10700
C  -2.07800 13.75800 28.50200
C  -2.01700 15.14900 28.71100
C  -1.92300 12.14800 26.41900
C  -2.33700 13.06200 29.77100
O  -2.64300 11.88700 30.07800
C  -2.31400 14.23100 30.79200
C  -1.15600 13.98700 31.66100
O  -0.04200 14.40400 31.46500
O  -1.49900 13.20800 32.69500
C  -0.41600 12.66700 33.52500
H  -2.64700 21.19500 30.28900
H  -1.61200 20.61400 23.94300
H  -1.26500 14.23200 24.47000
H  -3.82200 17.04500 31.86800
H  -1.84900 19.22300 32.33200
H  -3.57300 20.77300 32.60200
H  -4.34000 19.22700 33.20000
H  -4.63400 19.79600 31.60700
H  -0.99800 16.45300 32.71700
H  -2.57000 15.87800 33.22700
H  -2.83400 17.49800 34.85400
H  -1.66000 18.55200 34.34900
H  -1.29100 23.79000 28.51000
H  -2.44800 23.19500 29.63500
H  -3.06400 24.02600 28.19500
H  -2.69900 24.85500 26.27600
H  -1.68700 25.21200 24.85900
H  -0.83600 24.71100 26.27600
H  -0.97100 18.67800 22.40300
H  -1.97600 15.91100 22.55200
H  -3.75600 17.46900 22.44900
H  -2.92200 18.45000 21.14900
H  -3.67500 19.14200 22.72200
H  0.42500 16.70300 21.60300
H  0.23800 15.20200 22.60300
H  1.03200 17.49000 24.29200
H  1.81400 17.59400 22.79600
H  1.97400 16.21700 23.74300
H  -1.79700 12.23200 25.33900
H  -2.86900 11.63700 26.59700
H  -1.17900 11.46300 26.82500
H  -3.23600 14.19000 31.37300
H  0.07200 11.77700 33.12700
H  -0.98200 12.28200 34.37300
H  0.37000 13.36500 33.81200
Mg 49.16600 45.83900 43.61700
C  45.85100 46.68300 42.57500
C  48.50500 42.65400 42.11600
C  52.41000 45.12300 43.58200
C  49.65700 49.00800 44.62600
N  47.37200 44.83200 42.51900
C  46.13400 45.40500 42.15700
C  45.25600 44.45800 41.29900
C  46.08000 43.11200 41.23900
C  47.38000 43.50800 42.04500
C  45.41200 41.76400 41.57600
C  44.94600 45.05500 39.91300
C  43.68200 44.54200 39.14800
H  43.97700 43.19500 38.29300
N  50.29300 44.03500 43.11200
C  49.84200 42.83500 42.54600
C  50.98000 41.87700 42.46100
C  52.12200 42.57900 42.95200
C  51.63500 43.99700 43.22100
C  50.66900 40.50900 41.94700
C  53.60600 41.93500 42.98400
O  53.81000 40.76300 42.61300
C  54.80300 42.80300 43.38400
N  50.86900 46.94500 43.83900
C  52.14300 46.47300 43.88200
C  53.14800 47.50300 44.40700
C  52.23100 48.76500 44.79000
C  50.82900 48.25500 44.42500
C  54.09700 47.01800 45.49500
C  52.66400 50.09200 44.18900
C  52.29600 51.35700 44.95000
N  47.99400 47.51000 43.72800
C  48.28600 48.72900 44.28700
C  47.07600 49.60000 44.24800
C  46.12200 48.78000 43.67700
C  46.72500 47.57400 43.25200
C  47.00800 51.00100 44.82600
C  44.73700 48.67800 43.35900
O  43.91200 49.55100 43.59300
C  44.43500 47.37400 42.55700
C  43.45400 46.52800 43.33900
O  43.61500 46.05700 44.45200
O  42.42500 46.24600 42.49300
C  41.49600 45.21800 42.95000
H  48.20400 41.69900 41.68100
H  53.46200 44.83100 43.58900
H  49.90400 50.00900 44.98600
H  44.25200 44.22000 41.65100
H  46.49300 43.06500 40.23200
H  45.57100 41.08000 40.74300
H  44.38200 41.91300 41.90000
H  45.93300 41.22100 42.36500
H  45.80300 44.88400 39.26200
H  44.84500 46.13100 40.05500
H  43.29600 45.39200 38.58500
H  42.99200 44.21400 39.92500
H  50.09800 40.47900 41.01900
H  50.34100 39.77700 42.68500
H  51.67000 40.14700 41.71200
H  54.67400 43.30100 44.34600
H  54.88400 43.58600 42.63000
H  55.71500 42.20900 43.33900
H  53.70000 47.74200 43.49800
H  52.27400 48.87700 45.87400
H  53.59700 46.76900 46.43200
H  54.87100 47.74100 45.75100
H  54.69700 46.15300 45.21100
H  52.18900 50.27600 43.22500
H  53.72500 50.07300 43.93800
H  51.58700 51.99600 44.42300
H  53.22100 51.92900 45.01800
H  51.85600 51.17600 45.93000
H  46.35600 51.56000 44.15500
H  48.00800 51.42900 44.75900
H  46.51700 50.97700 45.79900
H  43.94700 47.57300 41.60300
H  41.89400 44.29000 43.36000
H  40.84000 44.93300 42.12800
H  40.90000 45.72800 43.70700

