158

Mg 42.08800 41.08400 27.05100
C  41.19700 43.69200 29.40000
C  42.79600 39.06400 29.64400
C  42.92500 38.80200 24.85800
C  41.82600 43.46300 24.47200
N  41.89800 41.31500 29.21700
C  41.50100 42.38800 29.94000
C  41.54700 42.11700 31.48200
C  42.23200 40.68800 31.49500
C  42.32500 40.33400 30.03800
C  43.65300 40.61500 32.24500
C  40.21100 42.25100 32.20700
C  39.86600 41.36500 33.43200
H  39.41900 42.18900 34.70800
N  42.67900 39.22500 27.22100
C  42.96800 38.55800 28.37000
C  43.49100 37.23200 27.98200
C  43.58200 37.13400 26.59300
C  43.03200 38.42300 26.15800
C  43.79800 36.18300 28.97000
C  44.00300 36.00900 25.75400
O  43.97700 36.03100 24.52900
C  44.60400 34.80300 26.34900
N  42.32700 41.17500 24.98000
C  42.53500 40.02900 24.33100
C  42.67800 40.33500 22.80400
C  42.15300 41.76100 22.66800
C  42.07000 42.14400 24.12600
C  44.06800 39.97200 22.25800
C  40.82300 41.81900 21.89700
C  39.73300 40.71500 22.17400
N  41.72100 43.20400 26.88500
C  41.58100 43.98900 25.75700
C  41.12200 45.27700 26.18800
C  40.99400 45.26000 27.62000
C  41.28700 43.92800 28.02400
C  40.79200 46.45200 25.30300
C  40.53700 45.93900 28.86600
O  39.96600 46.99700 29.04100
C  40.78500 44.90800 30.13400
C  41.95700 45.38400 30.90800
O  43.12100 45.25400 30.61900
O  41.50800 45.87700 32.09400
C  42.46100 46.03400 33.14400
H  43.12600 38.38500 30.43400
H  42.96700 37.97200 24.14900
H  41.61800 44.11200 23.61900
H  42.21300 42.83200 31.96500
H  41.56700 39.92700 31.90200
H  43.54900 40.10200 33.20100
H  43.83700 41.66700 32.46600
H  44.42300 40.23700 31.57400
H  39.51000 41.81800 31.49400
H  39.93500 43.25800 32.51800
H  40.67100 40.67900 33.69500
H  39.14200 40.63200 33.07700
H  43.21600 36.31900 29.88200
H  44.87500 36.09700 29.10900
H  43.45100 35.19000 28.68400
H  45.27600 34.35200 25.61800
H  43.81000 34.13100 26.67200
H  45.30700 35.13500 27.11300
H  41.94300 39.58800 22.50500
H  42.83900 42.35700 22.06600
H  44.21000 38.96200 21.87300
H  44.83700 40.16400 23.00500
H  44.43900 40.71900 21.55600
H  41.09100 41.78000 20.84100
H  40.35100 42.79300 22.03300
H  39.53900 40.10600 21.29100
H  38.76100 41.12100 22.45400
H  40.03000 40.09100 23.01700
H  40.60900 46.05900 24.30300
H  41.57500 47.21000 25.30700
H  39.80900 46.83800 25.57300
H  39.96600 44.69700 30.82100
H  42.93300 47.01700 33.11500
H  43.14500 45.18800 33.20100
H  41.88000 45.74200 34.01900
Mg 0.65600 43.30700 26.39500
C  2.96800 43.14900 29.09900
C  -1.86800 42.84900 28.54500
C  -1.25900 43.26800 23.74600
C  3.55000 43.61900 24.28500
N  0.62900 43.05300 28.57000
C  1.62400 43.07700 29.50900
C  1.11000 42.93400 30.93800
C  -0.36600 42.44700 30.66600
C  -0.58300 42.79400 29.14500
C  -0.69300 41.00100 31.08900
C  1.28100 44.26800 31.82300
C  1.88100 44.04700 33.23100
H  1.55300 42.69500 33.81500
N  -1.35000 43.23000 26.18800
C  -2.27500 43.13000 27.21300
C  -3.61600 43.20200 26.59900
C  -3.44700 43.29700 25.23000
C  -1.99500 43.23700 24.97600
C  -4.96400 43.28000 27.43000
C  -4.52100 43.48200 24.14200
O  -4.23000 43.63000 22.94300
C  -6.01700 43.54100 24.47200
N  1.11300 43.16500 24.30100
C  0.15500 43.23200 23.40300
C  0.61700 43.38700 21.91200
C  2.09700 43.72700 22.19400
C  2.22700 43.55500 23.70900
C  0.29800 42.12600 21.00900
C  2.63200 45.09000 21.59400
C  1.94100 46.33200 22.11300
N  2.84400 43.28700 26.59000
C  3.86400 43.41700 25.62800
C  5.17600 43.38200 26.20900
C  4.86400 43.29700 27.64500
C  3.46500 43.27700 27.77100
C  6.39600 43.66600 25.44800
C  5.50500 43.25800 28.96100
O  6.68700 43.24000 29.24900
C  4.19300 43.26300 29.95000
C  4.48200 42.17100 30.82700
O  4.25800 41.00900 30.61400
O  5.11800 42.69700 31.92700
C  5.42000 41.72800 32.99800
H  -2.78900 42.56600 29.05900
H  -1.83600 43.26100 22.81900
H  4.39200 43.91400 23.65400
H  1.74500 42.16800 31.38100
H  -1.06100 43.06400 31.23600
H  -0.90200 40.37300 30.22300
H  -1.49300 41.00600 31.82900
H  0.19800 40.58900 31.56500
H  0.33100 44.76500 32.02200
H  1.90600 45.01900 31.34100
H  1.58900 44.83000 33.93000
H  2.93400 44.19100 32.98800
H  -5.34800 42.26500 27.53000
H  -5.73900 43.95600 27.06800
H  -4.77200 43.65000 28.43700
H  -6.40500 42.86200 25.23100
H  -6.50200 43.32000 23.52100
H  -6.20500 44.54500 24.85200
H  -0.00600 44.22000 21.58600
H  2.74100 42.94000 21.80100
H  -0.52500 41.58700 21.47800
H  1.12100 41.41200 21.05000
H  0.06400 42.43700 19.99100
H  2.53000 45.17700 20.51300
H  3.69100 45.16800 21.84300
H  1.33900 46.72100 21.29200
H  2.72700 47.06600 22.29200
H  1.37100 46.27400 23.04100
H  6.36400 44.26600 24.53900
H  6.91400 42.71700 25.30500
H  7.06600 44.21900 26.10600
H  4.21600 44.20900 30.49100
H  6.37200 41.25400 32.76000
H  4.72700 40.92800 33.25900
H  5.46300 42.28000 33.93700

