158

Mg 46.77800 23.79800 29.11800
C  47.40400 26.22900 31.72400
C  46.05100 21.50000 31.58200
C  46.44200 21.60000 26.66200
C  48.30100 26.02400 26.81500
N  46.73600 23.91300 31.42400
C  46.90100 25.02500 32.22000
C  46.36800 24.71200 33.64400
C  46.05200 23.08700 33.61100
C  46.38300 22.75500 32.10000
C  46.87900 22.28000 34.60200
C  45.06800 25.50500 33.96800
C  45.29100 26.50400 35.15100
H  45.88800 26.04200 36.56500
N  46.37600 21.83000 29.15300
C  46.05400 21.05600 30.24500
C  45.73400 19.71600 29.79100
C  45.88600 19.70100 28.35800
C  46.23100 21.08400 27.98900
C  45.17800 18.62200 30.79900
C  45.74100 18.58300 27.42300
O  45.94900 18.69100 26.19100
C  45.37300 17.19700 27.93700
N  47.37500 23.79300 27.12100
C  46.94700 22.82100 26.27600
C  47.26600 23.09200 24.82400
C  47.65900 24.65500 24.83600
C  47.73300 24.85900 26.33200
C  48.21700 22.05100 24.13100
C  46.75000 25.69800 24.08200
C  45.27500 25.86600 24.58000
N  47.68600 25.69600 29.21900
C  48.24500 26.45700 28.19900
C  48.60400 27.77200 28.70800
C  48.26000 27.74500 30.06500
C  47.71000 26.46300 30.32300
C  49.26900 28.89000 27.95200
C  48.24300 28.55200 31.29100
O  48.61900 29.70400 31.54700
C  47.65500 27.53400 32.39400
C  48.68500 27.43000 33.59900
O  49.74800 26.80900 33.61400
O  48.33800 28.29000 34.58000
C  49.32800 28.55700 35.63600
H  45.81500 20.74100 32.33100
H  46.18500 20.95300 25.82100
H  48.62300 26.73900 26.05600
H  47.17100 24.88100 34.36200
H  44.99600 22.94200 33.83800
H  47.43700 22.98100 35.22300
H  47.43600 21.52400 34.04800
H  46.16300 21.87700 35.31700
H  44.25900 24.84900 34.28800
H  44.78500 26.01500 33.04700
H  44.37200 27.06900 35.30900
H  46.09100 27.19300 34.87900
H  44.93500 19.00300 31.79100
H  45.91100 17.81600 30.79200
H  44.24200 18.24300 30.39000
H  45.31700 16.60100 27.02600
H  44.37600 17.28100 28.37000
H  45.99300 16.71600 28.69400
H  46.32900 22.95600 24.28400
H  48.68500 24.70300 24.47200
H  47.67900 21.57900 23.30800
H  48.44900 21.20100 24.77200
H  49.09600 22.57100 23.75100
H  46.64200 25.36400 23.05000
H  47.17000 26.70200 24.03300
H  45.03500 26.91400 24.76200
H  45.17100 25.22500 25.45400
H  44.53100 25.49300 23.87600
H  48.72300 29.82400 28.08400
H  49.33100 28.60100 26.90300
H  50.28300 29.06100 28.31300
H  46.68800 27.79000 32.82600
H  50.35200 28.21800 35.47700
H  48.93400 28.16300 36.57300
H  49.40500 29.64000 35.72800
Mg 47.80200 33.83100 27.02900
C  46.05300 32.69200 29.81800
C  48.33000 36.93700 28.75700
C  49.28600 35.00000 24.27800
C  47.28500 30.74500 25.43200
N  47.11800 34.79200 29.04500
C  46.54400 34.05700 30.02700
C  46.71100 34.79300 31.40900
C  47.20400 36.22600 30.95100
C  47.56800 35.98300 29.49700
C  46.04300 37.35900 31.00200
C  47.71100 33.96400 32.21000
C  47.66800 34.18400 33.72100
H  46.88000 35.46300 34.14600
N  48.70800 35.65800 26.61800
C  48.83900 36.76300 27.44100
C  49.55200 37.76000 26.76300
C  49.69200 37.28000 25.43500
C  49.18200 35.92100 25.39400
C  50.00600 39.07600 27.34200
C  50.51100 37.93900 24.31600
O  50.89300 37.37400 23.28000
C  50.84400 39.35400 24.38900
N  48.13500 33.01600 25.13900
C  48.74400 33.70700 24.20100
C  48.80600 32.95000 22.93500
C  48.54400 31.50900 23.40100
C  47.88500 31.73200 24.69200
C  47.83100 33.48800 21.88300
C  49.75200 30.55300 23.61800
C  51.22500 31.09900 23.64300
N  46.82000 32.06500 27.44700
C  46.65400 30.94600 26.70200
C  45.88500 30.03800 27.47500
C  45.62500 30.62000 28.71700
C  46.25300 31.90500 28.64400
C  45.59500 28.60700 27.05400
C  45.09500 30.36800 30.01200
O  44.55000 29.38700 30.51800
C  45.03300 31.85900 30.63000
C  45.05200 31.80200 32.14500
O  45.95200 31.35400 32.80100
O  43.92900 32.38300 32.65700
C  43.85300 32.41200 34.17800
H  48.49700 37.87600 29.29000
H  49.76600 35.38300 23.37500
H  47.19100 29.77100 24.94800
H  45.77700 34.88900 31.96200
H  48.07700 36.45100 31.56500
H  46.60200 38.24800 31.29300
H  45.27300 37.08900 31.72400
H  45.53000 37.76700 30.13100
H  48.71600 34.21700 31.87400
H  47.58700 32.88900 32.07900
H  48.70200 34.27900 34.05100
H  47.16700 33.37000 34.24600
H  50.95700 39.38400 26.90800
H  50.15500 39.00700 28.42000
H  49.26700 39.84900 27.13600
H  50.03300 39.89400 24.87800
H  51.06200 39.69100 23.37600
H  51.77200 39.45400 24.95200
H  49.80400 32.96700 22.49600
H  47.80800 30.95300 22.81900
H  48.22000 33.51000 20.86500
H  47.53700 34.53000 22.01000
H  46.94600 32.85400 21.94000
H  49.82500 29.72800 22.90900
H  49.54500 29.95300 24.50400
H  51.46500 31.20300 22.58500
H  51.81000 30.33000 24.14600
H  51.20700 32.04300 24.18700
H  46.44400 28.28900 26.45000
H  44.63200 28.54700 26.54700
H  45.52200 28.00500 27.96000
H  43.98200 32.09500 30.46100
H  44.54200 31.72400 34.66700
H  42.85100 32.05100 34.41000
H  43.84000 33.48100 34.39000

