158

Mg 49.41100 36.19600 27.46800
C  47.78800 34.18300 29.75700
C  49.58900 38.66000 29.83800
C  50.96500 38.01600 25.16500
C  48.78400 33.66400 25.09000
N  48.77000 36.34500 29.60500
C  48.15800 35.38600 30.36000
C  48.16300 35.83300 31.83300
C  48.15200 37.36600 31.61700
C  48.90200 37.48600 30.26700
C  46.78700 37.98000 31.63500
C  49.48600 35.39800 32.63800
C  49.35400 35.21200 34.14800
H  48.45300 36.15200 35.06200
N  50.20100 38.05200 27.53400
C  50.11700 38.99400 28.51800
C  50.69500 40.21200 28.07600
C  51.14200 40.06000 26.76000
C  50.81800 38.65900 26.44900
C  50.73600 41.48300 29.03800
C  51.82800 40.98400 25.78200
O  52.13800 40.64800 24.63300
C  52.10000 42.38500 26.21600
N  49.79900 35.81100 25.42800
C  50.43100 36.76200 24.75400
C  50.78900 36.33300 23.32000
C  50.31400 34.80100 23.37800
C  49.58900 34.74400 24.63300
C  50.19900 37.18200 22.17000
C  51.46500 33.76600 23.39800
C  51.20900 32.51400 22.64800
N  48.48500 34.29300 27.38200
C  48.35300 33.31600 26.36900
C  47.82500 32.10300 26.94600
C  47.56800 32.39900 28.29800
C  47.92400 33.75600 28.49200
C  47.39400 30.87400 26.15600
C  47.06400 31.83100 29.55400
O  46.60500 30.70700 29.79300
C  46.98800 33.09400 30.48000
C  47.31800 32.75800 31.88100
O  48.29400 32.12000 32.27000
O  46.36600 33.21900 32.67900
C  46.32200 32.89800 34.15000
H  49.46300 39.51900 30.50000
H  51.37800 38.58000 24.32600
H  48.61000 32.87200 24.35900
H  47.26700 35.51900 32.36900
H  48.72700 37.76700 32.45200
H  46.01300 37.30200 31.99600
H  46.52600 38.20400 30.60100
H  46.87000 38.92400 32.17300
H  50.30700 36.06800 32.38400
H  49.78100 34.51700 32.06700
H  50.34100 35.31700 34.59900
H  49.13000 34.14600 34.19400
H  51.51400 42.20700 28.79600
H  50.95400 41.15100 30.05300
H  49.73300 41.90100 29.11500
H  52.35600 43.13700 25.46900
H  52.84800 42.44300 27.00700
H  51.28800 42.99800 26.60700
H  51.86500 36.44500 23.18800
H  49.54000 34.63100 22.63000
H  49.77400 38.03600 22.69700
H  49.39200 36.66300 21.65400
H  50.92100 37.44500 21.39700
H  51.62100 33.46900 24.43500
H  52.39300 34.12400 22.95300
H  52.01000 32.31300 21.93600
H  50.44100 32.59500 21.87800
H  50.90500 31.65200 23.24200
H  48.26000 30.21500 26.08900
H  47.07400 31.18400 25.16100
H  46.57600 30.39600 26.69500
H  45.95200 33.42800 30.41800
H  45.67700 32.05100 34.38500
H  45.79500 33.75900 34.56000
H  47.28400 32.82000 34.65600
Mg -1.08100 33.98500 27.32500
C  -3.21300 32.55300 29.73900
C  0.18800 35.99600 29.77500
C  0.38500 35.87200 24.90900
C  -3.15600 32.68300 24.85900
N  -1.28900 34.08000 29.51800
C  -2.15700 33.32400 30.28700
C  -2.15400 33.78500 31.73900
C  -1.08600 34.92000 31.72500
C  -0.71100 35.02400 30.28500
C  -1.57700 36.27900 32.24900
C  -1.74000 32.50200 32.61700
C  -2.60400 32.35000 33.86400
H  -1.97900 32.13300 35.25900
N  0.15800 35.59600 27.33400
C  0.65400 36.22300 28.40900
C  1.78800 37.03800 27.97200
C  1.77700 37.11700 26.56800
C  0.74100 36.20400 26.21400
C  2.69200 37.63800 28.99300
C  2.65600 37.95300 25.62300
O  2.50700 38.06800 24.36300
C  3.80200 38.70400 26.21200
N  -1.61600 34.52400 25.11500
C  -0.61800 35.08000 24.38200
C  -0.91600 34.95100 22.87500
C  -2.09800 33.96300 22.85100
C  -2.33200 33.68300 24.34000
C  -1.35800 36.26900 22.07400
C  -1.93000 32.61700 22.04100
C  -1.35500 31.36800 22.69900
N  -2.59900 32.59500 27.28400
C  -3.36200 32.22300 26.19800
C  -4.42100 31.32900 26.63000
C  -4.39000 31.36600 28.02200
C  -3.30700 32.23400 28.34700
C  -5.30900 30.54600 25.70300
C  -5.01100 30.93200 29.29300
O  -5.97700 30.21200 29.54900
C  -4.25400 31.67500 30.48900
C  -5.21200 32.49700 31.25100
O  -5.89500 33.31400 30.69700
O  -5.42500 32.09800 32.58600
C  -6.58500 32.74800 33.16800
H  0.65900 36.55600 30.58600
H  1.18400 36.14100 24.21500
H  -3.73600 32.23800 24.04800
H  -3.09800 34.13800 32.15400
H  -0.27100 34.84000 32.44500
H  -0.79700 36.84400 32.75800
H  -2.43500 36.26300 32.92200
H  -1.83900 36.92000 31.40700
H  -0.69500 32.58100 32.91900
H  -1.72900 31.60800 31.99300
H  -3.11400 31.41300 33.64200
H  -3.45100 33.03500 33.89800
H  3.68700 37.70900 28.55400
H  2.84600 37.09500 29.92500
H  2.39800 38.64000 29.30600
H  4.47900 37.96400 26.63900
H  3.31100 39.34300 26.94500
H  4.30300 39.36800 25.50800
H  0.00500 34.55000 22.45000
H  -3.00800 34.43100 22.47700
H  -0.49900 36.56100 21.46900
H  -1.47700 36.98500 22.88700
H  -2.29700 36.16700 21.52900
H  -1.30500 33.00800 21.23800
H  -2.92000 32.44100 21.62200
H  -2.20000 30.73700 22.97300
H  -0.65600 31.83200 23.39500
H  -0.69800 30.85000 22.00100
H  -4.67400 29.99100 25.01200
H  -6.03900 31.14800 25.16300
H  -5.83000 29.69800 26.14800
H  -3.79900 30.86400 31.05700
H  -6.47000 33.82100 33.02000
H  -6.66500 32.39900 34.19700
H  -7.56800 32.44300 32.80700

