158

Mg 2.39800 -0.09300 44.41200
C  5.94700 0.35800 43.98400
C  1.91900 2.55700 42.26300
C  -0.70000 -1.04600 43.93600
C  3.17100 -3.42600 45.69000
N  3.82400 1.26100 43.24100
C  5.19100 1.32600 43.26900
C  5.63100 2.51800 42.48900
C  4.30700 3.29300 42.20800
C  3.26600 2.22200 42.49900
C  4.00400 4.62000 43.01700
C  6.41800 2.10100 41.16700
C  5.53600 1.42200 40.05600
H  5.36500 2.19300 38.78800
N  0.78400 0.83100 43.53400
C  0.79500 1.98900 42.78000
C  -0.66000 2.34400 42.59000
C  -1.45000 1.32900 43.20400
C  -0.45400 0.28900 43.59300
C  -1.12600 3.52500 41.73300
C  -2.88100 1.39100 43.39700
O  -3.53200 2.29400 42.95500
C  -3.61900 0.18200 43.85800
N  1.35500 -1.99300 44.86700
C  0.09100 -2.15100 44.34200
C  -0.40000 -3.60400 44.42900
C  0.73900 -4.27500 45.25500
C  1.85800 -3.15800 45.33200
C  -1.91800 -3.81400 44.92400
C  1.25900 -5.63400 44.60800
C  0.90900 -6.90200 45.42600
N  4.11700 -1.21900 44.93900
C  4.28100 -2.47400 45.52700
C  5.71200 -2.74400 45.77900
C  6.34900 -1.62700 45.19400
C  5.37800 -0.78200 44.69000
C  6.35600 -3.95400 46.34600
C  7.65100 -1.07600 45.01600
O  8.70800 -1.55700 45.45500
C  7.45700 0.12700 44.05400
C  8.31800 1.27400 44.46200
O  8.95900 1.94100 43.65900
O  8.31600 1.40500 45.80100
C  9.27800 2.36700 46.33800
H  1.85000 3.47600 41.67800
H  -1.67000 -1.36900 43.55200
H  3.49000 -4.38500 46.10400
H  6.25100 3.18400 43.09000
H  4.43900 3.61500 41.17500
H  3.06700 4.50100 43.56100
H  3.91100 5.28200 42.15600
H  4.82700 4.76500 43.71700
H  7.19200 1.39500 41.46700
H  6.78700 3.05000 40.77700
H  4.56500 1.22100 40.50800
H  6.01000 0.48800 39.75400
H  -1.51700 3.15500 40.78500
H  -0.24100 4.10900 41.48300
H  -1.96400 4.11600 42.10300
H  -3.26100 -0.33100 44.75100
H  -3.64800 -0.49700 43.00600
H  -4.64600 0.46800 44.08500
H  -0.34900 -4.01800 43.42200
H  0.49300 -4.49800 46.29300
H  -2.68000 -4.03200 44.17500
H  -2.31500 -2.94400 45.44700
H  -2.00100 -4.67300 45.59000
H  2.31500 -5.71900 44.34900
H  0.87200 -5.77900 43.59900
H  0.52200 -6.59700 46.39800
H  1.77600 -7.55800 45.51000
H  0.08200 -7.45000 44.97300
H  6.15200 -4.87900 45.80600
H  5.88900 -4.13300 47.31500
H  7.43300 -3.78800 46.38000
H  7.74300 -0.29000 43.08900
H  8.99800 2.22200 47.38200
H  9.03200 3.37900 46.01700
H  10.32300 2.10700 46.16900
Mg 25.63400 51.14500 26.52900
C  23.31100 52.16900 28.92000
C  27.79100 50.30000 29.16300
C  27.90400 50.28100 24.24300
C  23.69300 52.67700 24.05100
N  25.65100 51.35600 28.77100
C  24.50800 51.68100 29.53200
C  24.77400 51.51900 31.06000
C  26.33500 51.11100 31.11700
C  26.66300 50.88100 29.60700
C  27.18900 52.29300 31.84300
C  23.89700 50.29900 31.66300
C  23.33000 50.49000 32.99800
H  24.18200 51.44400 33.88100
N  27.45800 50.24700 26.64900
C  28.17300 49.92200 27.78000
C  29.30600 49.16500 27.38700
C  29.31100 49.13100 25.94900
C  28.21500 49.91400 25.55000
C  30.29900 48.54400 28.39800
C  30.39200 48.46700 25.07800
O  30.36100 48.59600 23.83600
C  31.44400 47.65100 25.73700
N  25.81800 51.55400 24.50500
C  26.81300 51.02800 23.74900
C  26.67400 51.26900 22.23400
C  25.26700 52.00400 22.20800
C  24.90600 52.14200 23.70100
C  27.72200 52.16400 21.52900
C  24.20600 51.08900 21.49500
C  23.90500 49.67100 22.12300
N  23.79400 52.23000 26.42300
C  23.11700 52.78900 25.35800
C  21.91800 53.36200 25.79900
C  21.94000 53.13200 27.18300
C  23.10100 52.47700 27.55300
C  20.88300 54.12600 24.96600
C  21.24600 53.43400 28.35800
O  20.17700 53.99200 28.50600
C  22.05300 52.79100 29.58800
C  22.40100 53.85400 30.61100
O  23.39700 54.63400 30.47100
O  21.55900 53.72700 31.67900
C  21.71600 54.68400 32.75000
H  28.38100 49.83800 29.95700
H  28.56200 50.17000 23.37900
H  22.89900 53.07800 23.41700
H  24.61000 52.49100 31.52600
H  26.45800 50.20400 31.70900
H  26.66700 52.67900 32.71900
H  27.47100 52.98800 31.05200
H  28.10300 51.78400 32.14800
H  24.41100 49.34400 31.55700
H  23.05700 50.22200 30.97300
H  23.40200 49.59500 33.61600
H  22.35500 50.97800 32.99000
H  30.57200 47.49500 28.27800
H  29.87500 48.65600 29.39600
H  31.24500 49.08400 28.44400
H  32.19700 48.15800 26.34100
H  31.90400 47.00200 24.99200
H  30.92600 46.82400 26.22100
H  26.55500 50.25800 21.84300
H  25.36200 53.00000 21.77500
H  27.35300 52.70500 20.65800
H  28.27900 51.31700 21.12700
H  28.37200 52.79700 22.13200
H  24.63300 50.77400 20.54300
H  23.19900 51.47300 21.33200
H  24.43200 49.53300 23.06700
H  24.29500 48.79100 21.61100
H  22.84500 49.60300 22.36800
H  19.87200 53.97000 25.34300
H  20.90500 53.78100 23.93300
H  21.28300 55.14000 24.99000
H  21.41600 52.07300 30.10500
H  22.12800 54.30800 33.68700
H  20.72400 55.03100 33.03800
H  22.31300 55.57100 32.53900

