158

Mg 35.43900 49.41900 24.50800
C  35.82000 47.63400 27.35800
C  34.18300 52.03000 26.23500
C  34.78200 51.04900 21.52100
C  36.58000 46.63800 22.68200
N  35.02100 49.75100 26.55600
C  35.35800 48.95000 27.64000
C  35.02100 49.57100 28.98400
C  34.45400 50.95700 28.54900
C  34.62700 50.89600 27.04800
C  32.97400 51.12100 28.94300
C  36.29500 49.65100 29.91900
C  36.11900 49.17000 31.37900
H  34.74800 48.93300 31.90200
N  34.53100 51.26300 23.98800
C  34.15300 52.22200 24.87200
C  33.66900 53.34900 24.16100
C  33.92000 53.06200 22.74700
C  34.44800 51.71900 22.69900
C  33.28100 54.57200 24.86500
C  33.67200 53.95800 21.54300
O  33.99800 53.71300 20.40400
C  33.07600 55.36400 21.83000
N  35.71800 48.92400 22.41300
C  35.32700 49.73800 21.31600
C  35.84500 49.17900 19.94700
C  36.48600 47.78300 20.41600
C  36.23700 47.76200 21.92400
C  34.66800 49.03400 18.99300
C  37.95900 47.61900 19.88000
C  38.46400 46.15500 19.51100
N  36.19800 47.54200 24.93900
C  36.63600 46.50200 24.11000
C  37.10400 45.44000 24.89400
C  36.71500 45.78400 26.17700
C  36.24800 47.07900 26.13600
C  37.71800 44.08200 24.28500
C  36.64600 45.31200 27.56900
O  36.95600 44.25600 28.07500
C  35.99500 46.51000 28.45600
C  34.83100 46.00400 29.13300
O  33.71700 45.85000 28.65400
O  35.27500 45.46300 30.30600
C  34.28400 44.71600 31.13100
H  33.68500 52.75800 26.87800
H  34.58700 51.49700 20.54400
H  36.92100 45.72600 22.18800
H  34.21100 49.02000 29.46200
H  34.94100 51.88600 28.84700
H  32.72400 50.65800 29.89700
H  32.30000 50.68900 28.20300
H  32.71200 52.17500 29.04000
H  36.75000 50.63800 29.84500
H  37.14200 49.03600 29.61400
H  36.61600 49.84400 32.07700
H  36.71000 48.27900 31.59000
H  33.73300 55.43800 24.38100
H  33.54200 54.49300 25.92100
H  32.23300 54.84400 24.74000
H  32.17300 55.11800 22.38900
H  32.70200 55.80600 20.90600
H  33.76200 56.06400 22.30600
H  36.58400 49.80000 19.44100
H  35.80700 47.09900 19.90800
H  34.83400 48.42500 18.10500
H  34.23800 50.00500 18.74600
H  33.87400 48.53300 19.54600
H  38.71500 48.13500 20.47300
H  37.96600 48.14500 18.92600
H  39.38200 45.97200 20.07100
H  38.72600 46.10800 18.45400
H  37.69900 45.42800 19.78400
H  37.14600 43.83600 23.39000
H  37.62800 43.31100 25.05100
H  38.78100 44.18200 24.06400
H  36.73400 46.75800 29.21700
H  34.86800 44.10300 31.81800
H  33.75300 44.03200 30.46800
H  33.55200 45.32400 31.66200
Mg 26.43800 50.28900 27.14500
C  24.27700 51.27500 29.68200
C  28.53700 49.02400 29.48800
C  28.31600 49.13400 24.68200
C  24.23400 51.76600 24.85800
N  26.37100 50.12800 29.32400
C  25.37000 50.58000 30.19700
C  25.69500 50.26400 31.63600
C  27.13500 49.66600 31.52400
C  27.38400 49.58800 30.03200
C  28.21200 50.42000 32.41700
C  24.67100 49.33500 32.40700
C  24.08200 49.83800 33.73300
H  24.22400 48.82200 34.90600
N  28.19200 49.12400 27.11200
C  28.94700 48.73200 28.18400
C  30.16900 48.10800 27.69300
C  30.06000 48.18900 26.26700
C  28.77300 48.81100 25.98700
C  31.31100 47.51200 28.52400
C  31.10200 47.73300 25.23100
O  30.95200 47.88700 24.00500
C  32.34800 46.97500 25.66000
N  26.34400 50.56600 25.06700
C  27.24600 49.86400 24.25200
C  26.92200 50.15600 22.77100
C  25.45100 50.72000 22.86000
C  25.29600 51.06300 24.34100
C  28.04300 51.11300 22.11800
C  24.32400 49.80800 22.29000
C  23.56200 48.88400 23.25300
N  24.72700 51.43800 27.21300
C  23.86000 51.87500 26.21300
C  22.73700 52.48300 26.77300
C  22.85400 52.19800 28.13200
C  24.07200 51.64100 28.38100
C  21.64000 53.15700 26.06600
C  22.21200 52.36500 29.38000
O  21.07800 52.77600 29.59600
C  23.08600 51.83600 30.48300
C  23.47600 52.90400 31.44900
O  24.27200 53.72800 31.10000
O  22.73700 52.79800 32.58400
C  22.67900 53.94700 33.56200
H  29.22800 48.69400 30.26700
H  28.86100 48.65800 23.86400
H  23.52200 52.15100 24.12400
H  25.74700 51.19000 32.21000
H  27.17500 48.63900 31.88700
H  28.88900 49.76600 32.96600
H  27.79900 50.98200 33.25500
H  28.64600 51.16500 31.75000
H  25.13500 48.37300 32.62500
H  23.96400 48.98400 31.65500
H  23.01100 50.02600 33.65900
H  24.51500 50.81100 33.96400
H  31.18000 46.43500 28.62300
H  31.23300 47.92800 29.52900
H  32.28800 47.81400 28.14700
H  32.78600 46.80300 24.67700
H  32.18000 45.98200 26.07700
H  33.04400 47.41800 26.37200
H  26.95300 49.18700 22.27300
H  25.44400 51.62900 22.25900
H  28.77200 51.44500 22.85800
H  27.65500 52.03800 21.69000
H  28.53100 50.56200 21.31400
H  24.80600 49.16500 21.55400
H  23.61500 50.47000 21.79300
H  24.26800 48.57000 24.02200
H  23.11000 48.08900 22.66000
H  22.67300 49.38900 23.63200
H  21.98100 54.05800 25.55400
H  20.76000 53.48700 26.61900
H  21.19500 52.46600 25.35000
H  22.49100 51.06900 30.97700
H  22.90900 54.89300 33.07400
H  23.41300 53.64700 34.31000
H  21.70000 53.95500 34.04200

