158

Mg 24.41100 -7.32200 47.41400
C  26.84400 -4.98500 46.46200
C  22.20700 -5.92900 45.20700
C  22.37000 -10.15700 47.66900
C  26.75500 -8.95300 49.24700
N  24.57700 -5.61500 45.98900
C  25.63400 -4.78900 45.75100
C  25.27200 -3.78500 44.70600
C  23.76600 -3.98500 44.45100
C  23.46300 -5.27600 45.26800
C  22.91000 -2.78600 44.80500
C  26.09800 -3.91400 43.40200
C  26.75500 -2.70600 42.84100
H  26.05100 -1.92400 41.69600
N  22.42300 -7.92800 46.59700
C  21.70800 -7.14800 45.70400
C  20.50600 -7.84900 45.34900
C  20.40100 -9.01200 46.23800
C  21.79200 -9.13800 46.84600
C  19.45100 -7.15400 44.42300
C  19.26200 -10.00000 46.33800
O  18.26800 -9.77000 45.67400
C  19.35100 -11.27600 47.07300
N  24.51800 -9.22900 48.35600
C  23.53600 -10.20000 48.42000
C  24.05300 -11.48800 49.02500
C  25.41700 -11.07300 49.58400
C  25.61000 -9.63300 49.06500
C  23.12600 -12.19800 50.05300
C  26.49400 -12.07800 49.03000
C  27.64200 -12.30700 50.11600
N  26.46300 -7.07500 47.75800
C  27.22100 -7.75600 48.65000
C  28.49200 -7.07500 48.71300
C  28.38500 -6.00500 47.89100
C  27.14500 -6.02000 47.27600
C  29.68700 -7.46700 49.51600
C  29.11500 -4.81400 47.34400
O  30.25100 -4.43400 47.52300
C  28.07800 -4.13700 46.40600
C  27.77200 -2.71200 46.76700
O  27.26700 -2.35100 47.79100
O  28.14200 -1.85300 45.75600
C  27.77300 -0.46400 45.89300
H  21.58300 -5.36200 44.51300
H  21.78900 -11.06800 47.82600
H  27.55100 -9.37600 49.86300
H  25.42700 -2.81300 45.17500
H  23.52700 -4.20400 43.41000
H  21.91500 -2.74900 44.36000
H  23.40600 -1.93500 44.34000
H  22.68900 -2.59300 45.85500
H  25.52300 -4.31900 42.57000
H  26.82200 -4.69700 43.62800
H  27.80400 -2.87300 42.59600
H  26.95400 -1.99100 43.63900
H  18.76500 -7.92800 44.07900
H  20.00500 -6.67100 43.61900
H  18.83200 -6.46300 44.99500
H  20.21200 -11.89800 46.83100
H  18.51900 -11.97000 46.95600
H  19.39000 -10.98600 48.12300
H  24.16700 -12.12700 48.14900
H  25.42200 -11.15300 50.67100
H  22.38100 -11.52300 50.47400
H  23.79700 -12.55600 50.83300
H  22.59900 -13.02800 49.58100
H  26.91100 -11.63600 48.12600
H  26.07500 -13.04200 48.74300
H  27.71100 -11.46500 50.80500
H  28.59000 -12.39400 49.58600
H  27.53900 -13.28200 50.59400
H  29.84600 -8.52900 49.33000
H  29.82400 -7.16600 50.55500
H  30.49700 -6.98200 48.97000
H  28.45500 -4.15300 45.38300
H  28.36800 0.08500 45.16400
H  27.81000 -0.00700 46.88200
H  26.77800 -0.25300 45.50000
Mg 25.95300 53.08400 26.11700
C  23.69900 53.98300 28.90100
C  28.31300 52.65100 28.45400
C  28.05700 52.72800 23.49300
C  23.39700 53.95700 23.90300
N  25.89600 53.27000 28.46400
C  24.91000 53.47900 29.36700
C  25.40100 53.21200 30.78600
C  26.83600 52.68300 30.53500
C  27.06500 52.89900 29.04900
C  27.95200 53.34000 31.35200
C  24.47700 52.30200 31.61800
C  25.05900 51.67600 32.95200
H  24.42300 52.02100 34.40300
N  27.93400 52.79000 25.96900
C  28.73500 52.60200 27.02700
C  30.07800 52.33200 26.61000
C  30.04500 52.37200 25.16600
C  28.64300 52.60800 24.77300
C  31.21100 52.05500 27.66400
C  31.18400 52.17900 24.15700
O  31.09800 52.29100 22.96700
C  32.61000 51.92700 24.72700
N  25.67400 53.48400 24.00100
C  26.71200 53.11000 23.18800
C  26.25900 53.23600 21.70600
C  24.69700 53.42200 21.77600
C  24.57500 53.61400 23.30700
C  26.93500 54.41000 20.87300
C  23.86900 52.21300 21.27900
C  22.54100 52.60200 20.48800
N  23.99000 53.87100 26.31000
C  23.04700 54.10200 25.24900
C  21.80700 54.66000 25.91000
C  22.03300 54.63700 27.26900
C  23.37900 54.14800 27.47500
C  20.66300 55.06800 25.16900
C  21.42000 54.78400 28.56600
O  20.34500 55.21400 28.82200
C  22.48400 54.34300 29.64000
C  22.65500 55.49400 30.59300
O  23.26000 56.57000 30.39200
O  22.18000 55.07700 31.82900
C  22.42200 56.16600 32.83900
H  29.11700 52.35400 29.13100
H  28.70300 52.54300 22.63200
H  22.57600 54.13700 23.20700
H  25.40800 54.18400 31.28100
H  26.94300 51.61900 30.74400
H  27.67500 53.65100 32.35900
H  28.46000 54.16000 30.84400
H  28.64000 52.54500 31.63900
H  23.93900 51.51200 31.09500
H  23.65000 52.94900 31.91000
H  26.13700 51.82900 33.01600
H  24.91100 50.60700 32.80200
H  31.44100 50.99200 27.74300
H  31.00800 52.54700 28.61500
H  32.21700 52.39700 27.42200
H  33.24900 51.58100 23.91500
H  32.54200 51.14900 25.48700
H  32.78100 52.87200 25.24400
H  26.46800 52.24900 21.29400
H  24.29400 54.29600 21.26300
H  27.67200 54.04800 20.15700
H  27.42300 55.03100 21.62500
H  26.16100 55.05100 20.45200
H  23.45100 51.64100 22.10700
H  24.35700 51.49900 20.61500
H  22.38900 53.66800 20.32000
H  21.66800 52.27700 21.05300
H  22.57100 52.20600 19.47300
H  20.88400 55.34300 24.13700
H  20.28800 56.00300 25.58600
H  19.79000 54.41800 25.21200
H  22.19600 53.50500 30.27500
H  23.47100 56.05700 33.11400
H  21.85900 55.98600 33.75500
H  22.23000 57.17500 32.47300

