158

Mg 9.25500 2.65800 27.54500
C  10.44800 1.12800 30.45200
C  7.73000 4.93800 29.58700
C  7.78300 4.01500 24.80000
C  10.65500 0.14900 25.64800
N  9.16300 3.04600 29.83400
C  9.69500 2.25600 30.76500
C  9.42300 2.86100 32.15900
C  8.28000 3.85700 31.88400
C  8.37900 3.96300 30.33600
C  6.92800 3.43900 32.47200
C  10.73600 3.46700 32.75900
C  10.63700 4.22400 34.15000
H  10.94100 3.36000 35.34300
N  8.03000 4.34700 27.24900
C  7.55400 5.17200 28.21600
C  6.72800 6.24100 27.55400
C  6.71900 5.92100 26.15700
C  7.49500 4.73700 26.00900
C  6.15900 7.34700 28.34300
C  6.01300 6.71300 25.04900
O  6.04600 6.28000 23.89500
C  5.19000 7.86500 25.21900
N  9.15900 2.17400 25.58700
C  8.58900 2.91200 24.59700
C  8.83500 2.28600 23.20300
C  9.86500 1.19900 23.52300
C  9.89900 1.14000 25.02400
C  7.53500 1.60700 22.62900
C  11.33600 1.57700 23.07800
C  11.78900 0.79300 21.86100
N  10.38300 0.96400 27.90200
C  10.84600 0.00200 27.02600
C  11.51100 -1.04900 27.77100
C  11.39200 -0.62600 29.13400
C  10.69400 0.56300 29.16600
C  12.13500 -2.27200 27.17200
C  11.73200 -1.04200 30.47300
O  12.36900 -1.99500 30.92700
C  11.15300 0.06800 31.39000
C  10.13200 -0.49000 32.37800
O  9.09300 -1.04200 32.10500
O  10.48700 -0.11300 33.64800
C  9.66900 -0.42500 34.82200
H  7.04600 5.58700 30.13900
H  7.56300 4.39700 23.80100
H  11.12400 -0.59200 24.99700
H  9.16600 2.05300 32.84400
H  8.51400 4.86900 32.21300
H  6.59900 4.29800 33.05700
H  7.05700 2.52200 33.04700
H  6.20100 3.28800 31.67500
H  11.15400 4.10800 31.98300
H  11.42500 2.65700 32.99800
H  9.63100 4.62300 34.27900
H  11.26200 5.11000 34.25800
H  5.07500 7.27600 28.25500
H  6.42600 8.34800 28.00600
H  6.54300 7.37700 29.36300
H  5.87200 8.56700 25.69800
H  4.38500 7.59000 25.90100
H  4.81800 8.20100 24.25100
H  9.21900 3.01400 22.48900
H  9.52800 0.25500 23.09400
H  7.48500 0.52100 22.71300
H  7.54800 1.70500 21.54400
H  6.64900 2.11000 23.01700
H  12.01300 1.42500 23.91900
H  11.42000 2.65100 22.91200
H  10.92600 0.53100 21.25000
H  12.32300 -0.15100 21.96700
H  12.27900 1.51500 21.20800
H  11.84400 -2.37100 26.12600
H  11.77600 -3.07200 27.81900
H  13.21200 -2.11200 27.12800
H  12.08700 0.45500 31.79800
H  10.33200 -1.02600 35.44500
H  8.81900 -1.08400 34.64900
H  9.33300 0.46200 35.36000
Mg 36.27800 1.12800 29.92400
C  33.77600 1.98700 32.42400
C  38.56500 0.96700 32.59300
C  38.68300 0.61600 27.71800
C  33.90200 1.65400 27.50900
N  36.12400 1.42000 32.33300
C  35.01400 1.78600 33.06200
C  35.37900 1.96200 34.57100
C  36.92900 1.82600 34.52300
C  37.24600 1.32300 33.09500
C  37.68700 3.14800 34.80500
C  34.71900 0.78400 35.26800
C  34.38900 1.04100 36.78000
H  34.81200 2.31600 37.55200
N  38.29600 0.62800 30.14200
C  39.01000 0.57700 31.29100
C  40.37300 0.05900 30.89700
C  40.45200 -0.00600 29.51100
C  39.10300 0.43400 29.04100
C  41.43900 -0.05400 31.99200
C  41.63200 -0.32300 28.49800
O  41.47300 -0.38400 27.27000
C  42.92400 -0.70800 29.08000
N  36.27100 1.07900 27.93200
C  37.42000 0.87500 27.17000
C  37.09300 1.02900 25.67200
C  35.52600 1.06400 25.62900
C  35.19000 1.30900 27.07500
C  37.70200 2.27200 25.00700
C  34.99900 -0.32900 25.11000
C  33.93800 -0.26800 23.99800
N  34.28300 1.69900 29.86000
C  33.44600 1.78800 28.83300
C  32.14500 2.10200 29.27000
C  32.21800 2.21900 30.68600
C  33.55000 1.95400 30.99000
C  30.93300 2.27300 28.42400
C  31.47900 2.63300 31.84100
O  30.34200 3.05400 32.00100
C  32.45600 2.44700 33.02600
C  32.67700 3.73900 33.71000
O  33.52300 4.54100 33.36900
O  31.68600 3.86700 34.66200
C  31.66600 5.16400 35.35600
H  39.24800 0.98200 33.44600
H  39.35800 0.66900 26.86200
H  33.14300 1.93300 26.77400
H  35.03900 2.86900 35.07100
H  37.21600 0.98800 35.15900
H  36.95400 3.94200 34.94700
H  38.33800 3.51500 34.01100
H  38.11300 2.95100 35.78800
H  35.40600 -0.05300 35.38800
H  33.81200 0.47400 34.74800
H  34.97700 0.36100 37.39700
H  33.32600 0.80200 36.80600
H  42.14400 0.76700 31.86400
H  41.96900 -1.00300 31.90300
H  41.13300 -0.00400 33.03700
H  43.19600 -0.14000 29.97000
H  43.72700 -0.72000 28.34400
H  42.74000 -1.75000 29.34200
H  37.58600 0.18600 25.18800
H  35.11600 1.90600 25.07200
H  38.37400 2.61800 25.79300
H  36.93700 3.02700 24.82700
H  38.38100 2.02800 24.19100
H  34.63900 -0.93400 25.94300
H  35.78500 -0.90200 24.61800
H  33.79900 0.73800 23.60200
H  33.05000 -0.69600 24.46100
H  34.26600 -0.94900 23.21300
H  31.20600 2.69700 27.45800
H  30.13100 2.73400 29.00200
H  30.48100 1.30700 28.19600
H  31.98700 1.75500 33.72600
H  31.88500 5.12400 36.42300
H  30.69000 5.58700 35.11800
H  32.39000 5.86300 34.93600

