158

Mg 48.82900 35.40000 28.40400
C  46.76100 33.71300 30.61000
C  49.18700 37.82600 30.77000
C  50.58400 37.09700 26.18100
C  47.91800 33.05300 25.95400
N  48.13700 35.60400 30.45300
C  47.33700 34.83000 31.20100
C  47.31500 35.24800 32.71900
C  47.70200 36.75500 32.52000
C  48.34900 36.81400 31.13400
C  46.45700 37.69200 32.55100
C  48.41500 34.38400 33.46400
C  48.33400 34.15800 34.96300
H  47.43500 35.10700 35.70700
N  49.90800 37.17500 28.52000
C  49.96300 38.03500 29.59800
C  50.73400 39.21800 29.26900
C  51.11600 39.03900 27.87100
C  50.53400 37.72400 27.46600
C  50.94400 40.34300 30.22200
C  51.93500 39.96700 26.96500
O  51.97100 39.86100 25.77600
C  52.76100 41.09700 27.63600
N  48.94000 35.29500 26.26800
C  49.80800 36.04400 25.63800
C  50.06500 35.57400 24.22200
C  49.25600 34.31800 24.18700
C  48.54600 34.22100 25.54100
C  49.36800 36.60600 23.15400
C  50.19200 33.04300 23.81100
C  49.62700 32.26200 22.59200
N  47.65400 33.67200 28.25200
C  47.53700 32.74300 27.23500
C  46.64000 31.68800 27.62400
C  46.14300 32.09200 28.88000
C  46.92300 33.22300 29.27700
C  46.18000 30.48100 26.75800
C  45.33700 31.75100 30.05000
O  44.69000 30.75600 30.20100
C  45.58200 32.88400 31.12900
C  45.82200 32.18700 32.37000
O  46.81700 31.44900 32.58000
O  44.94300 32.60000 33.34800
C  45.05400 31.86600 34.61600
H  49.02600 38.74800 31.33400
H  51.26800 37.60800 25.50000
H  47.64200 32.34500 25.17000
H  46.36100 35.06400 33.21100
H  48.38400 36.97300 33.34200
H  45.65300 37.22800 33.12200
H  46.11500 37.99900 31.56200
H  46.57400 38.56100 33.19900
H  49.40000 34.74200 33.16600
H  48.49900 33.47800 32.86400
H  49.32900 34.14600 35.40700
H  47.93900 33.14200 34.98200
H  50.45300 41.22100 29.80300
H  52.02800 40.40900 30.32100
H  50.57400 40.01200 31.19200
H  53.51000 41.32900 26.87800
H  53.05500 40.55800 28.53600
H  52.01900 41.86900 27.83900
H  51.12100 35.42900 23.99500
H  48.49500 34.29600 23.40700
H  50.18700 37.15200 22.68600
H  48.68800 37.25800 23.70300
H  48.79800 36.11100 22.36700
H  50.24200 32.44400 24.72000
H  51.25500 33.25000 23.68300
H  48.76100 32.74800 22.14200
H  49.25500 31.25200 22.76800
H  50.40100 32.28400 21.82500
H  47.08500 30.27700 26.18600
H  45.37600 30.78200 26.08500
H  45.97200 29.54300 27.27200
H  44.64000 33.42800 31.20800
H  44.21100 31.17700 34.66600
H  44.96400 32.60600 35.41100
H  45.96700 31.28400 34.74000
Mg 28.52300 58.17200 41.56600
C  25.99000 56.18000 40.14500
C  30.81700 56.40200 39.73800
C  30.75400 60.49200 42.36000
C  25.91300 60.44300 42.76500
N  28.41800 56.52100 40.17800
C  27.29700 55.86500 39.74000
C  27.58400 54.91000 38.63400
C  29.18400 54.78000 38.66800
C  29.53600 56.01500 39.52600
C  29.85000 53.54400 39.35500
C  27.06800 55.43200 37.21600
C  26.72300 54.23000 36.33100
H  27.26300 54.16700 34.86800
N  30.58900 58.36500 41.27400
C  31.30500 57.52700 40.46200
C  32.69900 58.07200 40.49300
C  32.64300 59.35500 41.07600
C  31.25200 59.44100 41.63400
C  33.75700 57.33600 39.84300
C  33.87500 60.31000 41.03400
O  34.91200 59.75900 40.68100
C  33.88000 61.71300 41.53200
N  28.28700 60.21600 42.35900
C  29.41400 60.94400 42.70800
C  29.04000 62.34700 43.23300
C  27.49000 62.25000 43.43200
C  27.18700 60.86900 42.81000
C  29.89700 62.92400 44.38600
C  26.77300 63.46100 42.73200
C  25.59300 64.04700 43.53600
N  26.45100 58.22200 41.63500
C  25.53700 59.17200 42.17600
C  24.19200 58.65500 42.10200
C  24.27900 57.55200 41.24400
C  25.65400 57.28700 40.96800
C  22.97800 59.36000 42.64100
C  23.50300 56.58600 40.46800
O  22.33100 56.36800 40.30300
C  24.67300 55.66900 39.72400
C  24.35600 54.17900 40.00100
O  24.47000 53.62300 41.08800
O  23.99900 53.52200 38.88900
C  23.40100 52.16600 38.99400
H  31.61200 55.93400 39.15300
H  31.41000 61.30600 42.67400
H  25.14600 61.11000 43.16400
H  27.22000 53.92500 38.92600
H  29.52800 54.77300 37.63400
H  30.31400 53.82800 40.30000
H  30.63000 53.14700 38.70500
H  29.10900 52.78900 39.61700
H  27.82700 56.08500 36.78500
H  26.25300 56.14400 37.34400
H  25.63400 54.18800 36.32800
H  27.02800 53.32900 36.86400
H  33.60500 57.43100 38.76800
H  33.62000 56.27200 40.03800
H  34.82900 57.45100 40.00000
H  33.07500 62.06100 40.88400
H  34.79800 62.21900 41.23400
H  33.73300 61.79200 42.61000
H  29.27600 63.04700 42.43100
H  27.27500 62.35100 44.49600
H  29.41700 62.89200 45.36400
H  30.21600 63.92300 44.08600
H  30.84600 62.40000 44.49700
H  26.45300 63.12300 41.74600
H  27.51200 64.19700 42.41800
H  25.68300 63.56800 44.51100
H  24.71900 63.68200 42.99800
H  25.64200 65.13500 43.49800
H  22.20400 59.00200 41.96300
H  23.05100 60.44400 42.56400
H  22.95600 59.08000 43.69500
H  24.36100 55.88400 38.70200
H  24.24000 51.47000 39.00900
H  22.72700 51.85900 38.19500
H  22.88600 52.13300 39.95400

