158

Mg 23.98500 -6.85600 46.10500
C  26.35000 -4.83200 44.61800
C  21.67300 -5.53900 43.96400
C  22.14000 -9.73600 46.47600
C  26.68200 -8.54900 47.66800
N  24.08100 -5.47700 44.31700
C  25.12200 -4.71900 43.94700
C  24.81100 -3.67300 42.87200
C  23.23700 -3.67200 42.94700
C  22.94300 -5.03600 43.76200
C  22.61800 -2.41500 43.62900
C  25.36700 -4.09700 41.46000
C  25.83700 -2.92700 40.47500
H  25.37200 -2.82800 38.98100
N  22.15400 -7.45200 45.44200
C  21.27500 -6.65400 44.63300
C  19.99900 -7.29500 44.60100
C  20.09600 -8.54100 45.28900
C  21.50100 -8.62800 45.76800
C  18.83800 -6.78600 43.84300
C  18.94800 -9.52700 45.41400
O  17.85000 -9.17100 45.01600
C  19.16800 -10.80800 46.09700
N  24.38600 -8.92400 47.03500
C  23.44100 -9.87400 47.04300
C  24.01400 -11.14000 47.72800
C  25.44000 -10.69700 48.32800
C  25.54500 -9.34300 47.59300
C  23.01800 -11.91300 48.68100
C  26.54200 -11.73900 47.97800
C  26.86000 -12.86300 48.94400
N  26.07000 -6.62200 46.29600
C  26.97800 -7.35600 46.96600
C  28.31900 -6.71000 46.87200
C  28.07200 -5.62400 46.02900
C  26.71300 -5.72600 45.62300
C  29.60000 -7.11400 47.41900
C  28.64300 -4.47900 45.39600
O  29.74900 -3.97900 45.59800
C  27.60200 -3.96100 44.33600
C  27.53900 -2.47600 44.31000
O  27.94800 -1.77400 43.38300
O  27.01700 -2.04100 45.43800
C  26.99300 -0.60200 45.75800
H  20.85900 -4.99700 43.47900
H  21.60700 -10.66900 46.66900
H  27.58700 -8.94200 48.13600
H  25.18600 -2.70400 43.20000
H  22.75500 -3.74700 41.97200
H  21.97600 -1.81100 42.98800
H  23.42300 -1.78500 44.00800
H  21.92500 -2.58200 44.45300
H  24.62600 -4.63300 40.86700
H  26.13000 -4.86800 41.56500
H  26.92200 -3.03400 40.49700
H  25.55200 -2.00700 40.98600
H  18.05100 -6.65400 44.58700
H  18.55300 -7.40100 42.99000
H  19.00700 -5.75500 43.53100
H  19.45000 -10.69200 47.14300
H  19.71100 -11.50600 45.46000
H  18.15000 -11.19300 46.14100
H  24.21000 -11.76300 46.85600
H  25.23400 -10.46800 49.37400
H  22.03500 -11.44400 48.63700
H  23.38900 -11.97800 49.70400
H  22.91400 -12.92400 48.29000
H  27.49500 -11.21800 47.89300
H  26.35100 -12.19400 47.00600
H  27.04700 -13.75700 48.35000
H  25.95600 -12.87900 49.55300
H  27.66100 -12.60000 49.63600
H  29.92800 -8.13400 47.21700
H  29.59100 -7.04500 48.50700
H  30.31200 -6.33600 47.14600
H  27.99300 -4.17700 43.34200
H  27.55300 0.07200 45.11000
H  27.17300 -0.51800 46.83000
H  25.96800 -0.29200 45.55400
Mg -4.29600 24.69100 26.59200
C  -3.21000 26.77500 29.13900
C  -5.65200 22.59800 28.91300
C  -5.51000 22.80100 24.15200
C  -3.17200 27.03200 24.26300
N  -4.40900 24.75800 28.81100
C  -3.93300 25.66700 29.66600
C  -4.37400 25.25200 31.12500
C  -4.87200 23.78400 31.08300
C  -5.08100 23.69500 29.52300
C  -3.77300 22.76800 31.54800
C  -5.52100 26.22600 31.64100
C  -5.57400 26.58800 33.10500
H  -4.95200 25.54000 34.00700
N  -5.35600 22.89700 26.58000
C  -5.78200 22.19900 27.57400
C  -6.49600 20.95800 27.14300
C  -6.46700 21.01600 25.70800
C  -5.78300 22.27100 25.42900
C  -7.18000 20.03000 28.14000
C  -6.97600 20.02100 24.66900
O  -6.79200 20.06200 23.43400
C  -7.84600 18.88100 25.24600
N  -4.19200 24.89200 24.46300
C  -4.73400 23.90700 23.72200
C  -4.71400 24.25400 22.19400
C  -4.10700 25.72000 22.16200
C  -3.88600 25.94600 23.66000
C  -3.98800 23.21900 21.32500
C  -5.02800 26.78700 21.63000
C  -4.92700 26.95000 20.09500
N  -3.38400 26.51200 26.61500
C  -2.94200 27.36900 25.59500
C  -2.20700 28.47600 26.13600
C  -2.25000 28.28400 27.56000
C  -3.01900 27.12100 27.79000
C  -1.47400 29.44500 25.41300
C  -1.81000 28.73200 28.86600
O  -1.06400 29.65300 29.16200
C  -2.49600 27.81300 29.91800
C  -1.40200 27.42700 30.82000
O  -0.61700 26.50500 30.60900
O  -1.60600 27.90000 32.08800
C  -0.84100 27.24300 33.14300
H  -5.90100 21.87700 29.69400
H  -5.99100 22.28700 23.31700
H  -2.81200 27.83900 23.62200
H  -3.53600 25.37400 31.81100
H  -5.83400 23.59800 31.56100
H  -3.74400 21.95100 30.82600
H  -4.06000 22.30000 32.48900
H  -2.74500 23.12800 31.49600
H  -6.54500 25.92900 31.41300
H  -5.46700 27.14000 31.04900
H  -6.57700 26.63200 33.52900
H  -5.05100 27.54200 33.16400
H  -6.83500 20.11100 29.17100
H  -6.98400 18.99100 27.87500
H  -8.23600 20.27600 28.02700
H  -8.13300 18.29500 24.37300
H  -8.76600 19.38200 25.54900
H  -7.42100 18.27300 26.04500
H  -5.75000 24.33600 21.86500
H  -3.19400 25.63500 21.57300
H  -4.73100 22.73700 20.68900
H  -3.40700 22.57800 21.98800
H  -3.25000 23.66900 20.66100
H  -4.82200 27.71700 22.16000
H  -6.05800 26.55400 21.90000
H  -4.29100 26.18800 19.64500
H  -4.51400 27.92500 19.83500
H  -5.90100 26.87700 19.61300
H  -1.02700 29.10400 24.48000
H  -0.70600 29.87900 26.05300
H  -2.05900 30.32800 25.15200
H  -3.22500 28.30300 30.56400
H  0.19800 27.56700 33.19600
H  -0.86600 26.15400 33.18900
H  -1.34600 27.55300 34.05700

