158

Mg 9.35400 47.69600 26.23500
C  7.51800 47.75700 29.27100
C  11.88600 49.24900 28.01900
C  11.05000 48.00700 23.43400
C  6.50100 46.91500 24.59300
N  9.75100 48.18500 28.53900
C  8.86900 48.09400 29.52200
C  9.47500 48.47900 30.84000
C  10.78000 49.26700 30.41500
C  10.80800 48.95600 28.86900
C  10.78700 50.81600 30.74400
C  9.78200 47.29100 31.79100
C  9.29300 47.40500 33.26100
H  9.29300 46.01400 34.02600
N  11.22400 48.35300 25.77100
C  12.18900 48.82400 26.68200
C  13.49900 48.72300 26.06300
C  13.23200 48.28300 24.71800
C  11.79600 48.23900 24.56300
C  14.78700 49.10400 26.81100
C  14.20200 47.90700 23.68000
O  14.00500 47.61600 22.48600
C  15.70200 47.78300 24.16400
N  8.78000 47.78200 24.32500
C  9.70300 47.85200 23.35300
C  9.01100 47.68700 22.00500
C  7.47200 47.59300 22.38300
C  7.61700 47.29000 23.85400
C  9.27700 48.78000 20.89400
C  6.77500 46.46300 21.61200
C  7.05800 46.27300 20.10400
N  7.33000 47.30000 26.79500
C  6.29100 47.02300 26.00200
C  5.12900 46.99400 26.82300
C  5.55600 47.23900 28.11600
C  6.95700 47.37900 28.07800
C  3.69300 47.03300 26.43200
C  5.09800 47.32700 29.46900
O  3.96800 47.28400 29.97300
C  6.40900 47.54400 30.32700
C  6.58000 46.35800 31.11900
O  7.15500 45.31200 30.79800
O  5.97800 46.58000 32.33100
C  6.07900 45.51400 33.38200
H  12.67000 49.76700 28.57500
H  11.58900 48.09100 22.48800
H  5.63700 46.73400 23.95100
H  8.87700 49.21100 31.38300
H  11.72400 48.89100 30.80800
H  9.76200 51.15600 30.89400
H  11.24600 51.23600 29.84900
H  11.34100 51.03900 31.65500
H  10.86200 47.14300 31.77600
H  9.40700 46.35500 31.37800
H  8.29600 47.84400 33.31000
H  10.04200 47.94400 33.84200
H  15.47500 48.26400 26.91300
H  14.49800 49.44900 27.80400
H  15.26300 49.85100 26.17600
H  15.90700 47.25100 25.09300
H  16.12600 48.78700 24.14700
H  16.37900 47.29600 23.46100
H  9.24700 46.67300 21.68300
H  7.06200 48.58900 22.21900
H  8.39600 49.12300 20.35100
H  10.09900 48.39700 20.28900
H  9.79900 49.62100 21.35000
H  5.70600 46.67100 21.65800
H  6.85400 45.52500 22.16100
H  6.32000 45.61400 19.64700
H  8.09700 46.00300 19.91200
H  6.87400 47.20000 19.56100
H  3.61700 47.22700 25.36200
H  3.21400 47.71500 27.13500
H  3.29000 46.05700 26.70400
H  6.31500 48.45900 30.91200
H  6.33000 46.05700 34.29400
H  6.83300 44.79400 33.06200
H  5.10400 45.02800 33.41100
Mg -5.70800 25.63400 25.19300
C  -3.87400 26.96400 27.87500
C  -7.22600 23.46700 27.39000
C  -7.06000 24.08000 22.52700
C  -3.81200 27.63600 23.02600
N  -5.51000 25.31300 27.42000
C  -4.79900 25.99600 28.32800
C  -5.25200 25.62600 29.74000
C  -6.01400 24.33000 29.49700
C  -6.31500 24.39200 27.96700
C  -5.18800 23.03900 29.80400
C  -6.13900 26.75900 30.30900
C  -5.93000 26.83200 31.82300
H  -5.51300 25.67500 32.61400
N  -7.04400 23.96700 25.03000
C  -7.58100 23.25800 26.05500
C  -8.47100 22.21900 25.52800
C  -8.50200 22.43300 24.12600
C  -7.48800 23.50000 23.79900
C  -9.17000 21.21200 26.39000
C  -9.41900 21.69200 23.06000
O  -9.35000 21.97600 21.87300
C  -10.61200 20.85900 23.43200
N  -5.35800 25.71600 23.03200
C  -6.18100 25.14900 22.20300
C  -5.82900 25.45700 20.73400
C  -5.06200 26.76400 20.94400
C  -4.72700 26.74300 22.45300
C  -5.04500 24.27600 20.01400
C  -5.68800 28.01600 20.23000
C  -6.94000 28.63700 20.90900
N  -4.11700 27.00200 25.32500
C  -3.49100 27.85000 24.37800
C  -2.50400 28.74500 24.96700
C  -2.61800 28.35800 26.32000
C  -3.56800 27.32900 26.50200
C  -1.64200 29.77600 24.34300
C  -2.11300 28.63000 27.64400
O  -1.23100 29.42100 27.87700
C  -2.86600 27.72700 28.66800
C  -1.96100 26.77800 29.30600
O  -1.48600 25.79200 28.75800
O  -2.00500 26.81500 30.63200
C  -1.39800 25.65500 31.31600
H  -7.68400 22.82500 28.14600
H  -7.49100 23.68600 21.60400
H  -3.39300 28.35300 22.31700
H  -4.32900 25.58300 30.31900
H  -6.90400 24.35000 30.12600
H  -5.01900 22.42400 28.92000
H  -5.76300 22.45300 30.52200
H  -4.23700 23.33200 30.24900
H  -7.16600 26.72300 29.94700
H  -5.73900 27.66900 29.86000
H  -6.93000 27.07200 32.18300
H  -5.26300 27.67100 32.02400
H  -9.23400 20.22700 25.92700
H  -10.20100 21.52100 26.56100
H  -8.70200 21.00800 27.35300
H  -10.32000 19.85900 23.75300
H  -11.35200 20.84500 22.63200
H  -11.09800 21.27600 24.31400
H  -6.73300 25.70000 20.17600
H  -4.06000 26.68400 20.52400
H  -4.93300 23.38000 20.62600
H  -4.04400 24.53600 19.67100
H  -5.55200 23.98400 19.09400
H  -6.06400 27.63000 19.28200
H  -5.01200 28.84900 20.04300
H  -7.58000 29.11500 20.16700
H  -6.69300 29.38500 21.66200
H  -7.49900 27.86600 21.43800
H  -1.30100 29.50200 23.34500
H  -0.77800 29.94100 24.98800
H  -2.28100 30.65200 24.22500
H  -3.31400 28.29000 29.48600
H  -0.39300 25.47500 30.93300
H  -1.88700 24.70100 31.11700
H  -1.33600 25.92900 32.36900

