158

Mg -1.84400 17.41700 26.71400
C  -2.26700 15.16300 29.53900
C  -2.51200 19.92500 29.01200
C  -1.65900 19.38700 24.32000
C  -1.77600 14.59600 24.69100
N  -2.56400 17.48400 28.99500
C  -2.54500 16.46500 29.93700
C  -2.75900 17.01500 31.36800
C  -2.96200 18.57000 31.13200
C  -2.68700 18.69900 29.60400
C  -4.37100 19.00400 31.60500
C  -1.54300 16.67200 32.31300
C  -1.52900 17.43800 33.64200
H  -1.44100 16.67800 34.98300
N  -1.94300 19.38100 26.67800
C  -2.19600 20.26500 27.67900
C  -2.06800 21.65100 27.15800
C  -1.85300 21.52400 25.76500
C  -1.82800 20.04700 25.48300
C  -2.22000 22.86900 28.05400
C  -1.63200 22.58700 24.67600
O  -1.57900 22.32400 23.49400
C  -1.48900 23.98600 25.05200
N  -1.54900 17.04800 24.71200
C  -1.56200 18.07900 23.89000
C  -1.20500 17.67300 22.41700
C  -1.01000 16.11700 22.60500
C  -1.43100 15.86100 24.07700
C  -2.31300 18.00900 21.31700
C  0.39500 15.56000 22.27900
C  1.47000 15.38100 23.40900
N  -1.88900 15.37700 26.97600
C  -1.87600 14.33600 26.04500
C  -2.05600 13.04200 26.62300
C  -2.17600 13.34300 27.99100
C  -2.02600 14.75400 28.19100
C  -2.15200 11.68400 26.04600
C  -2.25500 12.73600 29.29500
O  -2.34800 11.54600 29.59400
C  -2.29000 13.83200 30.29700
C  -1.00600 13.64100 31.15200
O  -0.05100 14.31300 30.86900
O  -1.09900 12.73500 32.15900
C  -0.11400 12.81700 33.24100
H  -2.34900 20.74400 29.71500
H  -1.54500 19.98900 23.41600
H  -1.89700 13.71400 24.05800
H  -3.61300 16.54400 31.85500
H  -2.24300 19.17800 31.68100
H  -4.99600 18.12200 31.74000
H  -4.83100 19.69300 30.89700
H  -4.36800 19.63100 32.49700
H  -0.62000 16.98200 31.82100
H  -1.53700 15.60600 32.53900
H  -2.50200 17.92500 33.56700
H  -0.81800 18.26300 33.62800
H  -1.20300 23.14200 28.33500
H  -2.93500 22.63700 28.84300
H  -2.79300 23.60200 27.48600
H  -2.43000 24.40300 25.41200
H  -1.12700 24.48500 24.15400
H  -0.71500 24.13800 25.80500
H  -0.32900 18.11700 21.94500
H  -1.66500 15.59100 21.91100
H  -3.10300 17.26800 21.44200
H  -1.93500 17.90500 20.30000
H  -2.81600 18.97100 21.42200
H  0.76200 16.21100 21.48500
H  0.25200 14.63800 21.71500
H  0.98800 15.22500 24.37400
H  2.29800 16.07900 23.53800
H  1.96800 14.45700 23.11700
H  -1.48900 11.63100 25.18300
H  -3.15800 11.58000 25.63800
H  -1.83500 10.96700 26.80400
H  -3.11700 13.64500 30.98200
H  0.86600 13.23600 33.01200
H  0.10400 11.80400 33.57900
H  -0.51600 13.47100 34.01500
Mg 16.68400 52.05200 26.26400
C  18.81000 50.35600 28.50400
C  14.38800 52.29200 28.68700
C  14.69600 53.57100 24.07700
C  19.03200 51.45700 23.76500
N  16.67300 51.41300 28.36600
C  17.67200 50.81900 29.16000
C  17.15700 50.56500 30.58200
C  15.63700 50.95900 30.51400
C  15.47300 51.54200 29.08900
C  14.61400 49.93400 31.02000
C  17.98700 51.17900 31.77500
C  17.95100 50.49000 33.11600
H  17.27600 51.32300 34.21000
N  14.79800 52.92900 26.38300
C  14.04000 52.94900 27.48400
C  12.89100 53.75400 27.17700
C  12.85800 54.06400 25.81400
C  14.17100 53.54700 25.39100
C  11.84800 54.15600 28.25900
C  11.84800 54.77100 24.99400
O  12.05400 54.94800 23.77700
C  10.46500 55.22300 25.50800
N  16.87500 52.34900 24.14100
C  15.89400 53.07800 23.49200
C  16.21100 53.13100 21.99400
C  17.68500 52.44500 21.92600
C  17.92500 52.11800 23.35700
C  15.23800 52.38700 21.07200
C  18.77900 53.34600 21.26700
C  19.17900 54.58300 21.95200
N  18.52100 51.04600 26.09700
C  19.34500 50.84400 24.99200
C  20.53400 50.10300 25.31400
C  20.34900 49.96500 26.72500
C  19.14400 50.50800 27.12600
C  21.66200 49.73700 24.44500
C  20.96800 49.34300 27.87100
O  21.98500 48.69800 27.98000
C  20.08800 49.81700 29.13900
C  19.74600 48.59700 29.96200
O  19.12100 47.62600 29.64700
O  20.34600 48.74300 31.17000
C  20.04000 47.74200 32.21800
H  13.75300 52.37100 29.57100
H  14.10200 54.17900 23.39200
H  19.86200 51.28600 23.07600
H  17.17400 49.48100 30.70300
H  15.42100 51.75800 31.22300
H  14.08100 50.27800 31.90700
H  15.21000 49.10300 31.39900
H  13.94300 49.44800 30.31100
H  17.54200 52.16100 31.93600
H  19.04200 51.23900 31.50800
H  18.93200 50.21100 33.50100
H  17.33900 49.58900 33.11800
H  12.26800 53.98500 29.25100
H  10.81500 53.80800 28.26800
H  11.83100 55.24600 28.27600
H  10.06600 54.35200 26.02800
H  9.83400 55.51100 24.66700
H  10.50800 56.00700 26.26400
H  16.16600 54.19000 21.74200
H  17.71400 51.49500 21.39100
H  14.54700 53.11700 20.65000
H  14.80400 51.64300 21.74000
H  15.77700 51.98400 20.21500
H  18.45100 53.61600 20.26300
H  19.69800 52.78000 21.11500
H  19.90700 54.43000 22.74900
H  18.45600 55.18800 22.49800
H  19.74800 55.17400 21.23500
H  21.40900 48.79600 23.95700
H  22.52400 49.53700 25.08100
H  21.83300 50.49000 23.67600
H  20.44300 50.62900 29.77300
H  20.66200 46.85000 32.15300
H  19.04100 47.30600 32.21000
H  20.09400 48.25200 33.18000

