158

Mg 24.91300 1.46700 29.62300
C  27.22500 1.09500 32.29100
C  22.49800 2.00500 32.01300
C  22.80200 1.72600 27.08700
C  27.47900 0.45600 27.41500
N  24.83100 1.57800 31.85600
C  25.91400 1.46800 32.72600
C  25.50000 1.66300 34.25500
C  23.96800 1.73200 34.10300
C  23.69700 1.73900 32.62600
C  23.13200 0.63400 34.88000
C  26.17700 2.94700 34.82100
C  26.86300 2.82000 36.19000
H  26.60400 3.89600 37.29700
N  22.91300 1.80400 29.55700
C  22.03900 1.93100 30.67100
C  20.71800 2.04500 30.08200
C  20.81700 1.93200 28.62800
C  22.23500 1.79900 28.38300
C  19.48800 2.34800 30.95500
C  19.68300 2.08900 27.54800
O  19.86300 1.88500 26.35900
C  18.33500 2.31800 28.09300
N  25.03000 1.01300 27.53300
C  24.06000 1.30600 26.68300
C  24.58200 1.24800 25.18600
C  26.12100 0.97600 25.31600
C  26.22800 0.79100 26.84500
C  23.75700 0.13200 24.38000
C  26.91900 2.19000 24.91900
C  28.38900 1.98300 24.65000
N  26.87500 0.88700 29.72400
C  27.75500 0.47300 28.77900
C  29.04900 0.22300 29.37600
C  28.85800 0.42200 30.77000
C  27.53100 0.84300 30.94600
C  30.30600 -0.21700 28.60000
C  29.57300 0.47000 32.07400
O  30.73400 0.27600 32.36800
C  28.52000 1.00000 33.12700
C  28.52400 0.31300 34.39500
O  27.87400 -0.73100 34.61600
O  29.29100 0.88500 35.31100
C  29.25200 0.19400 36.66600
H  21.63700 2.11600 32.67600
H  22.14000 1.78000 26.22000
H  28.34800 0.16100 26.82400
H  25.81900 0.78400 34.81400
H  23.51200 2.67700 34.39700
H  22.34000 0.19200 34.27600
H  22.60800 1.04900 35.74100
H  23.84800 -0.15800 35.09600
H  25.57500 3.85200 34.89900
H  26.98100 3.09300 34.10000
H  27.94800 2.81100 36.08700
H  26.58700 1.83100 36.55400
H  19.90100 2.54200 31.94500
H  18.87400 1.45200 30.86600
H  18.99300 3.27200 30.65700
H  18.40600 3.27000 28.61800
H  18.16900 1.44400 28.72300
H  17.59200 2.34000 27.29500
H  24.39700 2.23100 24.75400
H  26.52700 0.05200 24.90600
H  23.41200 0.52800 23.42500
H  22.82900 -0.19700 24.84600
H  24.35400 -0.75100 24.15400
H  26.95700 2.99800 25.65000
H  26.44100 2.51800 23.99600
H  28.90900 2.48100 25.46900
H  28.73900 2.48000 23.74500
H  28.53500 0.90800 24.55000
H  31.17600 -0.41700 29.22600
H  30.53500 0.43300 27.75600
H  30.09100 -1.19200 28.16200
H  28.88400 2.00000 33.36500
H  30.20300 -0.26700 36.93400
H  28.48500 -0.54500 36.89900
H  29.00400 0.83800 37.51000
Mg -11.78400 38.26900 41.40900
C  -9.32600 35.75800 41.06300
C  -9.50700 40.55500 40.61900
C  -14.35800 40.49400 41.37600
C  -14.11300 35.70900 42.08800
N  -9.75000 38.14500 40.69100
C  -8.90800 37.07900 40.69300
C  -7.56000 37.40900 40.05900
C  -7.49600 38.97500 40.31600
C  -8.96800 39.23800 40.62700
C  -6.53700 39.24200 41.47400
C  -7.43000 36.95500 38.58100
C  -6.29500 35.91500 38.33100
H  -5.34600 36.49100 37.26300
N  -11.87500 40.24100 41.10100
C  -10.81500 41.03000 40.79500
C  -11.21200 42.34100 40.59900
C  -12.62400 42.36900 40.83500
C  -13.05400 40.96400 41.08900
C  -10.42100 43.44900 40.03500
C  -13.53900 43.56100 40.62400
O  -12.94600 44.59400 40.55700
C  -15.00300 43.48200 40.45500
N  -13.92900 38.03100 41.48400
C  -14.74700 39.13800 41.49900
C  -16.18300 38.73000 41.85200
C  -16.09200 37.16800 42.00600
C  -14.59600 36.96900 41.84000
C  -16.64700 39.48800 43.10100
C  -17.00900 36.35800 41.08600
C  -17.93200 35.34100 41.75300
N  -11.78800 36.13900 41.51200
C  -12.78700 35.28800 41.85100
C  -12.22900 33.94500 41.99400
C  -10.89400 34.10900 41.65800
C  -10.66200 35.44600 41.44500
C  -12.95600 32.74700 42.51400
C  -9.67200 33.37400 41.48000
O  -9.45200 32.19100 41.49400
C  -8.47700 34.48400 41.17300
C  -7.61600 34.53500 42.45500
O  -7.78000 35.28000 43.46700
O  -6.56900 33.63600 42.26200
C  -5.68400 33.54800 43.35100
H  -8.63100 41.16800 40.39500
H  -15.21800 41.15800 41.49200
H  -14.81000 34.92600 42.39100
H  -6.88800 36.80900 40.67300
H  -7.24200 39.63200 39.48400
H  -5.98300 40.16500 41.30500
H  -5.82000 38.47200 41.76100
H  -7.23200 39.37400 42.30300
H  -7.26400 37.87400 38.02000
H  -8.38200 36.55500 38.23400
H  -6.74800 35.03400 37.87700
H  -5.83400 35.52300 39.23800
H  -9.39400 43.17800 39.79000
H  -10.41100 44.24200 40.78200
H  -10.89500 43.65300 39.07400
H  -15.34700 44.38600 39.95200
H  -15.59300 43.55300 41.36900
H  -15.20600 42.58600 39.86900
H  -16.77200 39.01800 40.98100
H  -16.35800 37.00400 43.05000
H  -17.53300 39.99000 42.71300
H  -15.92500 40.22600 43.45300
H  -16.86600 38.85200 43.95900
H  -16.38700 35.83200 40.36100
H  -17.66800 36.99000 40.49100
H  -18.86800 35.23000 41.20500
H  -18.04300 35.36000 42.83700
H  -17.55200 34.34200 41.53900
H  -13.22400 32.20000 41.61000
H  -13.85800 33.00800 43.06800
H  -12.30300 32.12000 43.12000
H  -7.84400 34.10300 40.37200
H  -5.98900 33.99400 44.29800
H  -4.74900 34.05900 43.12100
H  -5.42600 32.52600 43.62500

