158

Mg 41.50800 40.44300 27.27500
C  41.02300 43.09200 29.59300
C  42.06000 38.34700 29.91100
C  42.38100 38.22200 24.98800
C  41.17900 42.89200 24.67700
N  41.61200 40.73300 29.50400
C  41.25200 41.84500 30.18800
C  41.16700 41.50600 31.72900
C  41.71900 40.01800 31.81100
C  41.78900 39.66500 30.31500
C  43.01600 39.83800 32.66000
C  39.76400 41.68400 32.42900
C  39.67200 42.57900 33.65600
H  39.24200 41.96500 34.94100
N  42.03700 38.55000 27.46700
C  42.24600 37.83000 28.62400
C  42.57500 36.49500 28.22700
C  42.67800 36.42300 26.80700
C  42.32300 37.75200 26.31400
C  42.75200 35.37900 29.35100
C  43.02400 35.20800 25.92600
O  43.04400 35.12600 24.69200
C  43.28900 33.92200 26.65400
N  41.79200 40.61800 25.10600
C  42.10600 39.49800 24.41300
C  42.28000 39.76400 22.88300
C  41.86700 41.30600 22.79300
C  41.53200 41.63100 24.29100
C  43.78800 39.45900 22.44300
C  40.68700 41.48800 21.78100
C  39.37300 41.04100 22.35300
N  41.10500 42.55900 27.11100
C  41.00300 43.36000 26.03100
C  40.78600 44.74200 26.49900
C  40.71400 44.61600 27.86500
C  41.01900 43.30700 28.19100
C  40.61600 45.91600 25.55000
C  40.52300 45.42500 29.04000
O  40.24900 46.60000 29.20900
C  40.67100 44.38500 30.23500
C  41.63300 44.77700 31.32200
O  42.84700 44.79400 31.24200
O  40.92300 45.32300 32.31100
C  41.78900 45.96500 33.37600
H  42.17200 37.66900 30.75900
H  42.77500 37.51700 24.25300
H  40.95900 43.50100 23.79800
H  41.96800 42.14500 32.10300
H  40.87100 39.46000 32.20800
H  43.90200 39.77900 32.02900
H  42.86100 38.81700 33.00800
H  43.09100 40.55400 33.47800
H  39.37000 40.74100 32.80800
H  39.06700 42.04700 31.67300
H  38.80800 43.22600 33.50400
H  40.52100 43.20800 33.92300
H  42.05000 34.54600 29.31800
H  42.80800 35.83700 30.33800
H  43.71400 35.02300 28.98100
H  44.31300 33.96000 27.02500
H  43.23100 33.08400 25.96000
H  42.54100 33.76100 27.43000
H  41.52200 39.12900 22.42400
H  42.66200 41.95000 22.42000
H  44.40300 39.00800 23.22200
H  44.29000 40.37300 22.12600
H  43.79300 38.79400 21.57900
H  40.97400 41.01400 20.84300
H  40.53100 42.54300 21.55400
H  38.75500 41.93100 22.24000
H  39.47700 40.71100 23.38700
H  38.95100 40.19900 21.80400
H  39.66500 45.91900 25.01700
H  41.38600 45.98900 24.78100
H  40.64500 46.81600 26.16400
H  39.68900 44.12000 30.62700
H  42.05000 45.23700 34.14300
H  41.31300 46.73500 33.98300
H  42.78100 46.25700 33.03000
Mg -1.70700 35.58200 26.49100
C  -3.43900 33.72400 28.86900
C  -0.80700 37.78500 28.95700
C  0.16600 37.22400 24.08700
C  -2.90400 33.48900 24.07700
N  -2.16900 35.75700 28.63200
C  -2.83300 34.82900 29.44500
C  -2.71000 35.20700 30.93100
C  -2.07100 36.65700 30.89100
C  -1.64100 36.74000 29.41100
C  -3.07000 37.77200 31.22700
C  -1.99300 34.18700 31.85900
C  -2.88700 33.40900 32.89100
H  -2.32200 33.18600 34.36100
N  -0.55000 37.22100 26.56900
C  -0.31500 38.03000 27.63300
C  0.53600 39.11300 27.21300
C  0.90200 38.92400 25.83300
C  0.17300 37.71900 25.43500
C  0.93100 40.20800 28.17500
C  1.89500 39.67500 24.94700
O  2.13800 39.39300 23.79400
C  2.58900 40.84600 25.56400
N  -1.22500 35.28400 24.39600
C  -0.57700 36.12200 23.59100
C  -0.68300 35.73900 22.13400
C  -1.48500 34.42500 22.15900
C  -1.89200 34.39500 23.62400
C  -1.20100 36.81900 21.24200
C  -0.66600 33.12200 21.76000
C  -1.48500 31.99400 21.12500
N  -2.98000 34.02700 26.44100
C  -3.40700 33.30100 25.37200
C  -4.35300 32.30100 25.82300
C  -4.36300 32.48800 27.17300
C  -3.53800 33.48300 27.53700
C  -5.10300 31.42000 24.98900
C  -4.87600 31.97100 28.34900
O  -5.72600 31.13600 28.55600
C  -4.23200 32.75600 29.60700
C  -5.44400 33.18600 30.33500
O  -6.12600 34.17400 30.07000
O  -5.65700 32.36100 31.36200
C  -6.83800 32.62400 32.22900
H  -0.51900 38.50800 29.72400
H  0.67300 37.82900 23.33100
H  -3.33700 32.92400 23.24800
H  -3.68400 35.28800 31.41300
H  -1.18100 36.65600 31.51900
H  -4.05500 37.42500 30.91600
H  -2.73200 38.73500 30.84400
H  -3.17200 37.99700 32.28900
H  -1.33300 34.72200 32.54100
H  -1.57200 33.34900 31.30300
H  -2.98200 32.37100 32.57300
H  -3.89000 33.83600 32.89400
H  1.93400 40.04700 28.57100
H  0.19800 40.21900 28.98100
H  0.77700 41.21600 27.79000
H  3.18900 41.42800 24.86400
H  3.26800 40.55000 26.36300
H  1.82900 41.53100 25.94100
H  0.34600 35.42300 21.96700
H  -2.36400 34.60700 21.54000
H  -1.90300 37.47200 21.76100
H  -1.89400 36.40500 20.50900
H  -0.38900 37.36000 20.75700
H  -0.27800 32.82100 22.73300
H  0.15900 33.47600 21.14200
H  -1.85900 31.28500 21.86400
H  -0.82800 31.37900 20.51000
H  -2.21000 32.27300 20.36100
H  -4.69200 31.44900 23.98000
H  -6.17500 31.60600 25.05900
H  -4.97600 30.38600 25.31000
H  -3.63600 32.13300 30.27400
H  -6.62500 33.35800 33.00700
H  -7.22700 31.70700 32.67000
H  -7.52900 32.99700 31.47300

