158

Mg 25.24100 52.47300 26.00300
C  23.35800 53.40800 28.84100
C  27.92000 52.08600 28.11300
C  26.99700 52.42600 23.23000
C  22.35700 53.39100 23.96100
N  25.55800 52.92400 28.29100
C  24.63700 53.07800 29.22100
C  25.23400 52.80800 30.65200
C  26.74300 52.56100 30.38400
C  26.75800 52.60300 28.79300
C  27.61700 53.61600 31.13400
C  24.51300 51.57000 31.36900
C  23.81500 51.82900 32.73200
H  24.71400 52.11600 33.83600
N  27.14800 52.11000 25.70200
C  28.11400 51.95000 26.67600
C  29.36500 51.58100 26.06400
C  29.18600 51.77200 24.64800
C  27.71700 52.10300 24.44200
C  30.67900 51.31900 26.81300
C  30.17900 51.70800 23.54500
O  29.91200 51.87400 22.38100
C  31.56600 51.15000 23.86900
N  24.75800 52.99700 23.91400
C  25.73900 52.74900 22.92700
C  25.20500 52.97100 21.51800
C  23.71000 53.21900 21.77400
C  23.59500 53.25700 23.28700
C  25.99900 54.06400 20.72000
C  22.74400 52.19800 21.11000
C  22.43100 52.65500 19.63300
N  23.28500 53.25900 26.31600
C  22.25000 53.48200 25.41700
C  21.11800 53.85500 26.08800
C  21.39400 53.73600 27.45400
C  22.80200 53.42200 27.51600
C  19.90000 54.35300 25.32000
C  20.84000 53.84400 28.75300
O  19.69400 54.03000 29.16400
C  22.13900 53.61200 29.77800
C  22.32600 54.82600 30.61700
O  22.82400 55.91200 30.28500
O  21.78000 54.64900 31.83800
C  21.97200 55.63800 32.90600
H  28.84600 52.04800 28.69000
H  27.67200 52.32300 22.37800
H  21.47300 53.64200 23.37100
H  25.06700 53.73700 31.19600
H  27.20600 51.60800 30.64100
H  28.33800 53.11300 31.77900
H  26.98600 54.11800 31.86800
H  28.09600 54.29900 30.43200
H  25.20600 50.74700 31.54400
H  23.77600 51.20700 30.65300
H  23.20700 50.94300 32.91700
H  23.19100 52.71500 32.62200
H  31.41600 52.02000 26.42100
H  31.07400 50.30300 26.80700
H  30.56900 51.73900 27.81300
H  32.16500 50.86400 23.00400
H  31.53100 50.24600 24.47700
H  32.08400 51.96600 24.37400
H  25.43200 52.07800 20.93500
H  23.54200 54.26500 21.52000
H  26.95800 54.35100 21.15100
H  25.38700 54.94900 20.54800
H  26.25300 53.64200 19.74800
H  21.77400 51.91200 21.51600
H  23.27300 51.25200 20.99300
H  22.35600 51.74800 19.03400
H  23.14800 53.41100 19.31300
H  21.50400 53.22700 19.60600
H  20.18200 55.23300 24.74300
H  19.10300 54.75400 25.94700
H  19.61900 53.65500 24.53200
H  21.88500 52.74800 30.39100
H  22.24300 56.62200 32.52200
H  22.77600 55.31700 33.56900
H  21.08400 55.85900 33.49800
Mg 0.18100 43.29200 25.53600
C  2.65800 42.80900 27.86900
C  -2.16000 42.29100 27.67800
C  -1.99800 43.74100 22.97100
C  2.76100 43.61000 23.09900
N  0.26300 42.47500 27.54400
C  1.39400 42.49200 28.34400
C  0.92800 42.28100 29.81800
C  -0.65600 42.04100 29.71200
C  -0.90800 42.38000 28.20400
C  -1.08400 40.64000 30.07900
C  1.24500 43.55000 30.70700
C  1.82400 43.16100 32.15100
H  1.51100 41.81500 32.83500
N  -1.79900 43.08400 25.41200
C  -2.58800 42.62300 26.38600
C  -3.93900 42.61300 25.96900
C  -3.97600 43.10400 24.58700
C  -2.52900 43.33600 24.26300
C  -5.07600 41.98100 26.86900
C  -5.19900 43.26800 23.69400
O  -5.15100 43.60400 22.47700
C  -6.52600 42.95800 24.26900
N  0.33200 43.46500 23.29500
C  -0.70600 43.78300 22.51900
C  -0.34400 44.09600 21.06900
C  1.19300 44.08700 21.16200
C  1.47700 43.73600 22.62900
C  -1.09100 43.16200 20.06900
C  1.79200 45.34500 20.64500
C  2.29000 46.43800 21.61200
N  2.30300 43.16500 25.42200
C  3.25400 43.34600 24.39100
C  4.64200 43.26300 24.82200
C  4.39300 43.12400 26.21900
C  3.01800 43.03900 26.51100
C  5.84000 43.35900 23.85900
C  5.08000 42.95600 27.51300
O  6.28800 42.81500 27.75500
C  3.90800 42.84800 28.63400
C  4.29300 41.64100 29.45100
O  4.11100 40.45600 29.18900
O  4.71600 42.06200 30.67600
C  5.18100 40.98100 31.56000
H  -2.97300 42.14900 28.39300
H  -2.73300 43.83000 22.16800
H  3.49300 43.92800 22.35400
H  1.38600 41.38300 30.23100
H  -1.14600 42.78300 30.34300
H  -1.25200 40.02500 29.19400
H  -1.94200 40.67600 30.75000
H  -0.24600 40.16300 30.58600
H  0.37900 44.19300 30.86100
H  1.95200 44.25300 30.26700
H  1.42700 44.01100 32.70800
H  2.90000 43.24500 32.30000
H  -5.80600 41.37600 26.33100
H  -5.65600 42.68400 27.46600
H  -4.70900 41.32900 27.66200
H  -7.38000 43.26800 23.66600
H  -6.66500 43.56200 25.16600
H  -6.57900 41.87500 24.38000
H  -0.61100 45.14100 20.91000
H  1.41000 43.19800 20.56900
H  -1.27300 43.71500 19.14800
H  -2.10600 42.86800 20.33700
H  -0.49900 42.28500 19.80500
H  1.05300 45.78200 19.97400
H  2.54000 45.17500 19.87000
H  1.84000 47.36900 21.26600
H  3.37900 46.46200 21.60500
H  1.86500 46.48600 22.61400
H  5.66400 44.06400 23.04600
H  6.19200 42.41000 23.45500
H  6.66000 43.76000 24.45400
H  4.03100 43.70300 29.29900
H  5.98100 40.37400 31.13700
H  4.27400 40.46800 31.88200
H  5.69300 41.42500 32.41400

