158

Mg 42.61100 41.90100 26.30800
C  42.32400 44.21100 28.91000
C  44.03900 39.64200 28.61500
C  43.10800 39.57800 23.82800
C  41.88100 44.27400 23.98600
N  43.13100 41.94500 28.54500
C  42.78500 42.95000 29.37200
C  42.98200 42.48700 30.86100
C  43.67400 41.08200 30.66000
C  43.62600 40.86300 29.14200
C  45.09200 40.86000 31.28100
C  41.51000 42.44700 31.49500
C  41.30900 43.49800 32.67300
H  40.65100 42.88000 34.01900
N  43.39800 39.91500 26.26900
C  43.88200 39.18500 27.30700
C  44.36200 37.85900 26.87400
C  43.94600 37.77600 25.48400
C  43.50800 39.14300 25.15700
C  45.06300 36.78500 27.79700
C  43.90000 36.59900 24.56400
O  43.46900 36.65100 23.39700
C  44.21200 35.21800 25.08700
N  42.74000 42.00200 24.18200
C  42.72900 40.87500 23.39700
C  42.40100 41.20000 21.97700
C  41.79500 42.65100 22.03600
C  42.11100 43.01900 23.50400
C  43.62600 41.18200 21.00200
C  40.20500 42.78800 21.83100
C  39.32900 41.68300 22.43700
N  42.17800 43.82500 26.36600
C  41.95600 44.69700 25.32700
C  41.70300 45.99700 25.87700
C  41.78600 45.87000 27.25800
C  42.14500 44.56600 27.53500
C  41.48900 47.17900 25.19800
C  41.77000 46.57800 28.45700
O  41.55400 47.77300 28.76100
C  42.07400 45.51900 29.62800
C  43.27400 45.92800 30.51100
O  44.40200 45.51300 30.33700
O  42.87200 46.87400 31.43000
C  43.91500 47.27000 32.33400
H  44.42500 38.92500 29.34300
H  43.02600 38.92600 22.95500
H  41.52700 45.05900 23.31300
H  43.69100 43.09200 31.42600
H  43.06700 40.36800 31.21600
H  45.82400 40.42600 30.60000
H  45.04900 40.27200 32.19900
H  45.53100 41.81800 31.56000
H  41.30200 41.43400 31.84000
H  40.77100 42.70500 30.73700
H  40.55700 44.26000 32.47000
H  42.30900 43.89900 32.83800
H  45.29300 37.18700 28.78300
H  46.01400 36.41300 27.41500
H  44.33300 35.98500 27.92200
H  43.47800 34.68000 25.68800
H  45.19300 35.31600 25.55300
H  44.36100 34.56700 24.22500
H  41.67800 40.43400 21.69900
H  42.36300 43.35300 21.42500
H  44.47800 40.77500 21.54700
H  43.90400 42.02700 20.37100
H  43.46900 40.38100 20.27900
H  40.13800 42.65500 20.75200
H  39.76900 43.76200 22.05600
H  38.67700 42.10200 23.20300
H  40.01700 40.96400 22.88000
H  38.68500 41.22400 21.68700
H  41.43100 48.05400 25.84500
H  40.52800 47.08100 24.69300
H  42.33000 47.22300 24.50600
H  41.30000 45.30600 30.36500
H  44.08400 46.36900 32.92400
H  43.44900 48.04500 32.94300
H  44.82200 47.67500 31.88700
Mg 9.48900 48.05900 25.63200
C  7.34200 48.29700 28.30600
C  11.92000 49.20100 27.67800
C  11.62500 47.89600 23.03200
C  6.77800 47.61100 23.53600
N  9.60500 48.79800 27.71500
C  8.63600 48.59400 28.70200
C  9.19700 48.85200 30.07900
C  10.58600 49.46500 29.76900
C  10.74800 49.16100 28.30300
C  10.70800 50.92200 30.15400
C  9.30800 47.55100 30.96800
C  10.21600 47.45100 32.24400
H  9.79500 46.44300 33.31300
N  11.52300 48.53100 25.37000
C  12.34800 48.85800 26.36900
C  13.73200 48.77500 25.89400
C  13.67500 48.35700 24.59700
C  12.23300 48.30400 24.21200
C  14.94700 49.05100 26.74600
C  14.76300 48.02100 23.55000
O  14.58100 47.61700 22.36200
C  16.17800 48.01700 24.09300
N  9.20400 47.83100 23.57000
C  10.28600 47.79300 22.69900
C  9.82200 47.56200 21.22300
C  8.25000 47.62100 21.35100
C  8.01700 47.63600 22.88400
C  10.39500 48.50400 20.17700
C  7.52900 46.52500 20.58700
C  6.45200 46.92900 19.61000
N  7.41100 47.98100 25.75800
C  6.43600 47.70600 24.84900
C  5.15400 47.64700 25.53100
C  5.47700 47.82000 26.88900
C  6.86100 48.12500 26.99500
C  3.76800 47.65100 24.95500
C  4.91300 47.98600 28.21500
O  3.76200 47.88100 28.60200
C  6.10000 48.16100 29.22600
C  6.14800 46.91500 30.00600
O  6.82500 45.93100 29.76100
O  5.64800 47.12300 31.20900
C  6.06700 46.15800 32.28800
H  12.80700 49.45000 28.26300
H  12.40200 47.72300 22.28400
H  5.91000 47.63000 22.87300
H  8.45500 49.53700 30.49000
H  11.24200 48.88200 30.41500
H  10.54700 51.54000 29.27100
H  11.71300 51.11000 30.53300
H  9.89000 51.13000 30.84300
H  9.56600 46.75100 30.27500
H  8.31100 47.44700 31.39600
H  10.11900 48.44500 32.68200
H  11.22900 47.23400 31.90400
H  14.86500 48.83500 27.81100
H  15.28300 50.07100 26.55900
H  15.72000 48.30100 26.57500
H  16.15200 47.22800 24.84500
H  16.44400 48.94200 24.60500
H  16.85400 47.77000 23.27500
H  10.18400 46.60000 20.85900
H  7.91200 48.57400 20.94300
H  10.88800 49.38300 20.59000
H  9.53800 48.94900 19.67000
H  11.03000 48.11400 19.38200
H  7.04100 45.93900 21.36700
H  8.17700 45.79200 20.10600
H  5.58300 46.31800 19.85500
H  6.95100 46.78100 18.65300
H  6.21700 47.98500 19.74400
H  3.03700 47.68100 25.76300
H  3.65300 46.79800 24.28700
H  3.67900 48.60700 24.44000
H  5.92800 49.08600 29.77800
H  6.47500 46.90500 32.96900
H  6.73400 45.36500 31.95000
H  5.26900 45.70500 32.87700

