158

Mg 25.23300 -0.05900 28.39600
C  26.82100 -0.41300 31.45300
C  22.20900 0.03600 29.95100
C  23.86600 0.27900 25.26900
C  28.34400 -0.75900 26.75500
N  24.66200 -0.16200 30.46200
C  25.45300 -0.24400 31.55500
C  24.71200 -0.08600 32.90800
C  23.18300 -0.22900 32.39800
C  23.34400 -0.13300 30.78800
C  22.43200 -1.40200 32.90300
C  24.99900 1.20100 33.78900
C  25.23600 0.86600 35.22400
H  26.05100 1.76900 36.11000
N  23.33800 0.12500 27.72900
C  22.21200 0.22400 28.52000
C  21.13800 0.48600 27.64300
C  21.61900 0.65700 26.34900
C  23.04400 0.34800 26.38800
C  19.61400 0.45800 28.14900
C  20.81400 1.12000 25.05100
O  21.31400 1.18600 23.94100
C  19.30800 1.34500 25.16400
N  26.05200 -0.10700 26.27100
C  25.23400 0.05400 25.21100
C  26.03000 -0.03000 23.86300
C  27.47100 -0.40300 24.32300
C  27.31200 -0.48300 25.86000
C  25.54800 -1.07300 22.86800
C  28.56600 0.60400 23.89600
C  28.60700 1.94100 24.64700
N  27.15100 -0.48000 28.93700
C  28.32200 -0.81200 28.19200
C  29.38200 -1.10700 29.08600
C  28.85300 -0.95400 30.38600
C  27.51100 -0.60000 30.25800
C  30.84000 -1.39100 28.77200
C  29.19000 -0.94000 31.84600
O  30.23700 -1.10900 32.47500
C  27.91500 -0.59200 32.59800
C  27.74000 -1.62400 33.66600
O  26.96000 -2.59800 33.60000
O  28.45900 -1.30800 34.80500
C  28.25300 -2.03200 36.07600
H  21.28700 -0.02200 30.53400
H  23.34600 0.37200 24.31400
H  29.24900 -1.05400 26.21900
H  24.99500 -0.95200 33.50600
H  22.62100 0.62200 32.78300
H  22.11800 -1.23800 33.93400
H  23.05600 -2.29400 32.86000
H  21.61600 -1.61800 32.21300
H  24.22900 1.97000 33.73000
H  25.92500 1.71000 33.52100
H  25.74700 -0.09000 35.33600
H  24.24100 0.77600 35.66100
H  19.11200 -0.46500 27.85800
H  19.03400 1.25800 27.69000
H  19.41400 0.45900 29.22000
H  18.97600 1.68100 24.18100
H  19.07700 2.22900 25.75800
H  18.88200 0.40100 25.50400
H  26.04000 0.94600 23.37700
H  27.82100 -1.33800 23.88600
H  26.30500 -1.69500 22.39100
H  25.07700 -0.52500 22.05100
H  24.86300 -1.79700 23.31000
H  28.49800 0.85000 22.83700
H  29.52700 0.10300 24.00800
H  29.65800 2.02400 24.92400
H  27.95400 1.95400 25.52100
H  28.42100 2.72100 23.90900
H  30.96600 -1.84200 27.78800
H  31.14800 -2.15600 29.48500
H  31.45700 -0.49500 28.83700
H  28.01800 0.32300 33.18000
H  27.56400 -1.38000 36.61200
H  29.23100 -2.14400 36.54500
H  27.80600 -3.01400 35.92300
Mg 53.38600 23.38000 44.91500
C  50.70800 25.65200 43.74500
C  51.35900 20.83800 43.77400
C  56.06900 21.53300 44.81500
C  55.18500 26.28700 45.57200
N  51.22000 23.36600 43.84900
C  50.34100 24.32900 43.46900
C  49.13300 23.69900 42.84000
C  49.18800 22.23200 43.38900
C  50.68600 22.10400 43.68500
C  48.24400 22.05500 44.57500
C  49.17900 23.93900 41.32400
C  47.88200 24.46900 40.55200
H  47.56700 23.65800 39.22000
N  53.63000 21.38300 44.48500
C  52.74000 20.54900 43.92600
C  53.37800 19.25000 43.77900
C  54.70200 19.41600 44.11000
C  54.83700 20.82900 44.46300
C  52.66200 17.95900 43.49600
C  55.70900 18.31400 44.08100
O  55.40100 17.35200 43.42700
C  57.12000 18.49800 44.74400
N  55.38400 23.86500 44.95800
C  56.25600 22.84800 45.16600
C  57.60500 23.44100 45.69500
C  57.27400 24.94900 45.97300
C  55.85200 25.05900 45.54300
C  58.33000 22.62200 46.79500
C  58.17500 26.02700 45.22300
C  58.53600 27.36400 45.90500
N  52.98500 25.52600 44.86600
C  53.83000 26.53300 45.29300
C  53.12100 27.79600 45.31000
C  51.89100 27.49400 44.73700
C  51.86700 26.09300 44.44600
C  53.78300 29.16600 45.51700
C  50.58200 28.04800 44.40000
O  50.14300 29.21100 44.51300
C  49.80700 26.94200 43.62400
C  49.51700 27.38500 42.23700
O  50.29800 27.48500 41.31000
O  48.09800 27.56000 42.07700
C  47.58200 28.18100 40.87200
H  50.60000 20.08400 43.55600
H  57.03200 21.01900 44.81400
H  55.76100 27.17600 45.84100
H  48.33300 24.28500 43.29100
H  48.97800 21.51200 42.59800
H  48.07000 22.98400 45.11800
H  48.75200 21.47600 45.34700
H  47.30100 21.55100 44.36500
H  49.38600 22.94900 40.91800
H  50.04100 24.53400 41.02300
H  47.98500 25.49500 40.20100
H  47.00100 24.36000 41.18500
H  51.59400 18.01200 43.70900
H  53.04100 17.07000 43.99900
H  52.74500 17.83300 42.41600
H  56.84900 19.00900 45.66800
H  57.78400 18.99100 44.03400
H  57.49700 17.47800 44.81600
H  58.40100 23.29600 44.96500
H  57.28200 25.16900 47.04000
H  58.72000 23.30100 47.55300
H  59.10500 21.95200 46.42400
H  57.70800 21.87500 47.28800
H  57.63600 26.38300 44.34500
H  59.10400 25.47900 45.06600
H  59.60200 27.33200 46.13100
H  58.04600 27.52400 46.86500
H  58.42300 28.21800 45.23700
H  53.40400 29.55900 46.46100
H  53.48500 29.86600 44.73600
H  54.85800 28.98400 45.51200
H  48.81600 26.81500 44.06100
H  47.70800 29.26200 40.92200
H  46.53600 27.89000 40.96500
H  48.00500 27.76400 39.95800

