158

Mg 2.11700 -1.75900 43.27600
C  5.34300 -0.82200 43.02800
C  1.15400 1.00600 41.44200
C  -1.02600 -3.05800 43.13600
C  3.24000 -4.90300 44.60700
N  3.20800 -0.22500 42.11300
C  4.53300 0.01100 42.20400
C  4.93300 1.20200 41.34100
C  3.56400 1.97200 41.23200
C  2.54600 0.85000 41.63200
C  3.43200 3.29700 42.12300
C  5.60300 0.90800 39.96900
C  6.47900 2.08200 39.46800
H  6.05000 2.68400 38.07100
N  0.33300 -1.07100 42.46900
C  0.07100 0.11100 41.78300
C  -1.35100 0.37500 41.63800
C  -2.01700 -0.76200 42.22000
C  -0.91900 -1.70200 42.60100
C  -1.94700 1.61800 40.96900
C  -3.55900 -0.90300 42.32900
O  -4.23500 0.02500 41.81600
C  -4.19500 -1.93700 43.21800
N  1.17200 -3.66400 43.91800
C  -0.12000 -3.93600 43.75100
C  -0.52800 -5.29400 44.24700
C  0.91200 -5.96600 44.64100
C  1.86500 -4.78300 44.32300
C  -1.43800 -5.32500 45.52200
C  1.30400 -7.28800 43.95900
C  0.40300 -8.51200 44.32300
N  3.82100 -2.65400 43.83500
C  4.14700 -3.84900 44.44000
C  5.54700 -3.87200 44.81100
C  6.09700 -2.72700 44.33000
C  4.99800 -2.02800 43.72900
C  6.39400 -4.93900 45.46200
C  7.29100 -1.92500 44.15200
O  8.45400 -2.08100 44.45300
C  6.84500 -0.63900 43.24700
C  7.28500 0.58500 43.99600
O  7.03900 0.73400 45.15700
O  7.88600 1.58400 43.24500
C  8.47600 2.72800 43.99800
H  0.89500 1.97800 41.01700
H  -2.04400 -3.44200 43.04200
H  3.50300 -5.81900 45.14000
H  5.72700 1.77800 41.81600
H  3.44400 2.35800 40.21900
H  4.24500 3.44100 42.83500
H  2.47000 3.21900 42.62800
H  3.43500 4.15100 41.44500
H  4.87200 0.69100 39.18900
H  6.16100 -0.01800 40.11000
H  7.41700 1.54500 39.32300
H  6.48900 2.94000 40.14000
H  -2.18400 1.49200 39.91300
H  -1.33500 2.50200 41.14600
H  -2.79700 1.87000 41.60300
H  -4.57300 -2.82300 42.70700
H  -4.94600 -1.39100 43.78900
H  -3.49600 -2.16900 44.02100
H  -0.98600 -5.75100 43.37000
H  0.99200 -6.24800 45.69100
H  -1.38700 -4.27000 45.79400
H  -1.08300 -6.01800 46.28500
H  -2.48200 -5.50400 45.26400
H  2.29500 -7.57300 44.31400
H  1.40800 -7.16200 42.88100
H  0.92400 -9.22200 44.96500
H  0.19900 -8.99900 43.37000
H  -0.53100 -8.27700 44.83400
H  6.38200 -5.76600 44.75300
H  6.05200 -5.23100 46.45500
H  7.39300 -4.55400 45.67100
H  7.24100 -0.74600 42.23700
H  7.75600 3.53100 43.84200
H  9.35800 3.12700 43.49700
H  8.72300 2.41300 45.01200
Mg -12.26100 16.57600 40.99500
C  -8.99100 15.14700 40.45600
C  -11.19300 19.47300 39.59400
C  -15.47300 17.41600 40.60000
C  -13.26000 13.22400 41.72300
N  -10.28300 17.17200 39.85300
C  -9.12900 16.47300 39.87300
C  -7.94600 17.39700 39.36400
C  -8.66500 18.86900 39.25800
C  -10.14800 18.55000 39.58300
C  -8.15000 19.97300 40.16800
C  -7.25300 16.91500 38.06900
C  -5.68700 16.92100 38.15500
H  -4.96500 16.97100 36.83000
N  -13.19500 18.27400 40.40800
C  -12.54900 19.33500 39.86200
C  -13.49500 20.43100 39.54300
C  -14.75700 19.91600 39.89800
C  -14.56800 18.47400 40.26700
C  -13.16700 21.83600 39.21800
C  -16.05400 20.69600 39.85200
O  -16.08400 21.87400 39.66500
C  -17.35700 20.07500 40.35400
N  -14.11400 15.49400 41.15400
C  -15.32400 16.09000 40.96500
C  -16.53800 15.15800 41.12000
C  -15.85400 13.92900 41.76700
C  -14.34700 14.16700 41.55900
C  -17.70600 15.92300 41.95300
C  -16.40800 12.53600 41.25800
C  -16.85000 11.58300 42.42600
N  -11.36100 14.62200 41.09100
C  -11.89100 13.42200 41.44500
C  -10.83100 12.44600 41.68700
C  -9.68200 13.07900 41.21300
C  -10.03500 14.44300 40.89200
C  -10.97300 11.08900 42.19700
C  -8.24200 12.86800 41.04100
O  -7.56600 11.88200 41.17600
C  -7.73700 14.28000 40.52800
C  -6.86200 14.75300 41.59800
O  -7.09000 15.38300 42.63900
O  -5.58000 14.27600 41.32300
C  -4.55700 14.44300 42.42100
H  -10.87800 20.47100 39.28300
H  -16.52300 17.66500 40.43700
H  -13.49200 12.20600 42.04300
H  -7.21200 17.29400 40.16200
H  -8.63700 19.21100 38.22300
H  -8.80400 20.16400 41.01800
H  -8.02300 20.91200 39.63000
H  -7.20600 19.64400 40.60500
H  -7.42500 17.53500 37.19000
H  -7.52800 15.87700 37.88200
H  -5.28500 16.06600 38.69900
H  -5.41800 17.85800 38.64300
H  -13.60700 22.17400 38.28000
H  -12.10300 22.02400 39.07600
H  -13.44100 22.55800 39.98800
H  -17.76100 19.60600 39.45700
H  -17.89900 20.98600 40.60600
H  -17.17500 19.44200 41.22300
H  -16.91800 14.82900 40.15300
H  -15.96000 13.96200 42.85100
H  -17.51100 16.99500 41.98000
H  -17.64700 15.69400 43.01700
H  -18.71400 15.73100 41.58400
H  -15.51800 12.00000 40.93000
H  -17.14800 12.65500 40.46700
H  -16.83400 12.03900 43.41500
H  -16.16400 10.74100 42.52000
H  -17.84000 11.18300 42.20600
H  -10.47300 11.05900 43.16600
H  -10.40200 10.40400 41.57200
H  -11.95700 10.62000 42.20900
H  -7.17500 14.03300 39.62700
H  -4.83200 14.17400 43.44100
H  -4.28100 15.49600 42.36200
H  -3.74600 13.82300 42.04000

