158

Mg 53.63000 23.67900 44.33900
C  51.25900 26.25300 43.86200
C  51.51600 21.49600 42.71600
C  56.16300 21.40100 44.39700
C  55.86000 26.24500 45.40800
N  51.70500 23.91700 43.26200
C  50.92500 25.06000 43.21800
C  49.70700 24.87500 42.30900
C  49.51700 23.29300 42.54600
C  50.97100 22.84200 42.84400
C  48.60400 22.97900 43.73500
C  50.01900 25.23800 40.78200
C  51.42700 25.39200 40.28600
H  51.74900 26.14100 39.02200
N  53.74400 21.65500 43.72400
C  52.74800 20.94900 43.17100
C  53.15100 19.55600 43.07400
C  54.50600 19.47300 43.46600
C  54.86800 20.85000 43.94000
C  52.25200 18.50400 42.58700
C  55.30700 18.18200 43.51400
O  54.82800 17.15800 43.06200
C  56.66500 18.02700 44.02200
N  55.75500 23.83200 44.58600
C  56.54600 22.74200 44.72300
C  57.98100 23.08400 45.14500
C  57.83200 24.63400 45.45400
C  56.37300 24.95300 45.10200
C  58.49700 22.28900 46.31100
C  58.77000 25.46000 44.60500
C  59.19500 26.86700 45.03700
N  53.66900 25.88000 44.54000
C  54.56000 26.71400 45.05900
C  53.98700 28.07100 45.16200
C  52.65200 27.94600 44.73600
C  52.53400 26.59200 44.33700
C  54.62300 29.37600 45.70600
C  51.40500 28.64500 44.55900
O  51.09100 29.79200 44.89100
C  50.46100 27.59100 43.92700
C  50.07600 28.20800 42.55500
O  50.82500 28.33900 41.59000
O  48.75900 28.46500 42.58900
C  48.03300 28.56200 41.35900
H  50.67500 20.89400 42.36600
H  56.99700 20.69900 44.33300
H  56.45600 26.97500 45.96000
H  48.87500 25.44700 42.72100
H  49.24400 22.85600 41.58500
H  48.17200 23.91400 44.09000
H  49.38000 22.82100 44.48400
H  48.01700 22.12100 43.40700
H  49.40900 26.09500 40.49600
H  49.60600 24.49100 40.10400
H  51.71500 24.34100 40.25300
H  52.08500 25.74400 41.08100
H  52.84200 17.79000 42.01100
H  51.48900 18.90900 41.92300
H  51.85400 17.99200 43.46300
H  57.03000 17.04200 44.31300
H  56.51500 18.47500 45.00400
H  57.39800 18.41800 43.31600
H  58.57500 22.91700 44.24700
H  57.94100 24.80700 46.52400
H  59.50600 21.92600 46.11300
H  57.88400 21.39200 46.21900
H  58.42600 22.74500 47.29800
H  58.36100 25.66800 43.61600
H  59.63800 24.82900 44.41500
H  58.92000 27.57800 44.25800
H  60.27400 27.02300 45.03600
H  58.90300 27.10400 46.06000
H  55.65500 29.23700 45.38500
H  54.58600 29.28800 46.79200
H  54.02300 30.17000 45.26200
H  49.65800 27.52100 44.66100
H  48.42700 28.03400 40.49100
H  47.86800 29.59700 41.06000
H  47.06400 28.13000 41.60600
Mg 43.18000 41.80000 27.05300
C  42.36400 44.11800 29.62700
C  44.24900 39.68000 29.41200
C  44.00200 39.78900 24.61800
C  42.40300 44.31600 24.70300
N  43.23300 41.92300 29.30800
C  42.81900 42.89000 30.12800
C  42.76700 42.40600 31.60300
C  43.71500 41.11100 31.51600
C  43.73200 40.88400 29.96600
C  45.15400 41.23000 32.11500
C  41.31700 42.03600 32.13100
C  40.81600 42.63500 33.41400
H  41.88300 42.85500 34.53100
N  44.08400 39.90800 27.06100
C  44.43200 39.21900 28.12500
C  44.80400 37.81300 27.74900
C  44.57400 37.80200 26.34400
C  44.26700 39.22000 25.95500
C  45.28000 36.70900 28.71700
C  44.68100 36.64200 25.35700
O  44.57600 36.76000 24.17100
C  44.93800 35.22800 25.90700
N  43.33200 42.13600 24.86200
C  43.60200 41.04700 24.15900
C  43.44600 41.38600 22.62900
C  42.70000 42.69600 22.72400
C  42.84800 43.09500 24.14200
C  44.82400 41.44900 21.95200
C  41.27400 42.53200 22.13300
C  40.32800 41.56500 22.84100
N  42.49000 43.81500 27.07200
C  42.23800 44.71000 26.06600
C  41.58300 45.89100 26.62100
C  41.70900 45.70100 27.99000
C  42.23000 44.47300 28.26600
C  40.99100 47.00800 25.79300
C  41.40500 46.31500 29.30200
O  40.93300 47.39500 29.63600
C  41.78200 45.22800 30.37400
C  42.68300 45.91800 31.32600
O  43.89800 46.03700 31.35200
O  41.86700 46.47500 32.25300
C  42.60900 47.16300 33.31200
H  44.44200 38.87300 30.12100
H  44.02900 39.04900 23.81500
H  42.06600 44.96400 23.89100
H  43.31100 43.11500 32.22800
H  43.22000 40.22800 31.92100
H  45.91600 41.03900 31.36000
H  45.23800 40.59300 32.99600
H  45.40600 42.24900 32.40600
H  41.19400 40.95800 32.23100
H  40.58400 42.39800 31.41100
H  39.98100 42.03800 33.78200
H  40.50500 43.64600 33.15000
H  46.23600 36.29400 28.39900
H  44.52400 35.93000 28.61500
H  45.42700 36.94600 29.77000
H  44.85300 34.41500 25.18500
H  44.12300 35.01600 26.60000
H  45.88600 34.99700 26.39200
H  42.95900 40.54800 22.13000
H  43.19600 43.51300 22.20100
H  45.54900 41.50900 22.76400
H  44.87600 42.23000 21.19400
H  44.93000 40.52100 21.38900
H  41.39300 42.10500 21.13700
H  40.87800 43.54800 22.11900
H  40.80400 40.68300 23.27000
H  39.46000 41.20800 22.28600
H  39.93800 42.19500 23.64000
H  40.33800 47.54600 26.47900
H  40.37400 46.51000 25.04600
H  41.77300 47.59300 25.30700
H  40.80400 44.92600 30.75000
H  43.41100 47.83500 33.00600
H  43.06700 46.40200 33.94400
H  42.02500 47.72400 34.04200

