158

Mg -11.84100 16.40300 41.69400
C  -8.46300 14.99700 41.38000
C  -10.50200 19.29600 40.32500
C  -14.91800 17.43400 41.13600
C  -12.93300 13.10300 42.03900
N  -9.73500 16.97800 40.94900
C  -8.56600 16.29200 40.93400
C  -7.45200 17.12700 40.30600
C  -8.11800 18.53600 39.90500
C  -9.55700 18.21400 40.40300
C  -7.52600 19.82300 40.51300
C  -6.86000 16.36400 39.02400
C  -5.35800 16.30000 38.79600
H  -4.87800 16.98200 37.54100
N  -12.59900 18.14900 40.96400
C  -11.88500 19.28400 40.57400
C  -12.70500 20.35400 40.45700
C  -14.06900 19.88800 40.67200
C  -13.93000 18.42700 40.94300
C  -12.18900 21.81200 40.25400
C  -15.32500 20.82400 40.59200
O  -15.25500 22.03200 40.35000
C  -16.63100 20.22100 41.01800
N  -13.63200 15.36600 41.46500
C  -14.82000 16.09500 41.45400
C  -15.99900 15.15100 41.80900
C  -15.34700 13.79800 42.11500
C  -13.90600 14.09600 41.87700
C  -16.79600 15.75200 43.05300
C  -15.94900 12.71800 41.08800
C  -16.99000 11.70500 41.63300
N  -10.94900 14.53300 41.89300
C  -11.57100 13.29600 42.11200
C  -10.55200 12.28600 42.36000
C  -9.34700 12.91900 42.18000
C  -9.58600 14.29100 41.84300
C  -10.82400 10.88400 42.75000
C  -7.85300 12.76200 42.20500
O  -7.20800 11.75400 42.40800
C  -7.22900 14.05300 41.56800
C  -6.24200 14.52800 42.48800
O  -6.47000 14.70400 43.72100
O  -4.98400 14.71700 41.89200
C  -3.89800 15.26300 42.78600
H  -10.03500 20.24600 40.05600
H  -15.96300 17.74600 41.19100
H  -13.36200 12.12200 42.25500
H  -6.70100 17.27600 41.08200
H  -8.21200 18.70300 38.83200
H  -7.75700 20.56500 39.74800
H  -6.44600 19.68500 40.57000
H  -7.89500 20.09200 41.50300
H  -7.38300 16.85400 38.20300
H  -7.29000 15.36600 38.93100
H  -5.10300 15.24200 38.73500
H  -4.87200 16.75600 39.65800
H  -11.74700 21.96100 39.26900
H  -11.37700 21.97200 40.96400
H  -12.97900 22.55000 40.39100
H  -17.33000 21.02100 40.77300
H  -16.77900 20.08700 42.09000
H  -16.97700 19.36300 40.44100
H  -16.82400 15.10300 41.09800
H  -15.58700 13.43200 43.11300
H  -16.29400 16.51800 43.64600
H  -17.02200 14.94500 43.75000
H  -17.70200 16.15400 42.60000
H  -15.13000 12.07000 40.77400
H  -16.34600 13.23000 40.21200
H  -17.00500 10.75700 41.09500
H  -17.92900 12.20300 41.38900
H  -16.92000 11.61500 42.71700
H  -10.05200 10.41300 43.35900
H  -10.91000 10.34500 41.80700
H  -11.73700 10.78300 43.33700
H  -6.66000 13.85000 40.66100
H  -3.82800 16.26500 42.36200
H  -3.01500 14.75200 42.40100
H  -3.96000 15.15000 43.86800
Mg -5.74900 24.67400 25.78600
C  -4.02300 26.22800 28.49700
C  -7.02800 22.46700 28.20100
C  -7.11700 22.99600 23.34300
C  -4.13900 26.82800 23.66800
N  -5.57500 24.46700 28.09200
C  -4.88600 25.18400 28.97900
C  -5.28300 24.98200 30.48700
C  -6.02600 23.59300 30.30400
C  -6.26200 23.48200 28.73400
C  -5.34700 22.36000 30.92300
C  -6.08100 26.22800 31.01000
C  -5.77900 26.78500 32.41100
H  -5.23400 25.78700 33.40600
N  -7.00100 23.04500 25.79300
C  -7.44300 22.26500 26.85700
C  -8.28800 21.20300 26.30200
C  -8.48400 21.42300 24.88300
C  -7.47900 22.52100 24.61600
C  -8.98500 20.10000 27.16600
C  -9.44600 20.77200 23.97200
O  -9.56000 20.95000 22.76900
C  -10.51700 19.82700 24.50900
N  -5.53200 24.77300 23.73200
C  -6.22600 23.95700 22.91300
C  -5.93500 24.28500 21.45000
C  -4.96400 25.59500 21.46600
C  -4.87500 25.73100 23.03100
C  -5.39900 22.97200 20.75500
C  -5.57400 26.71700 20.57800
C  -4.59500 27.30200 19.57200
N  -4.23500 26.13400 26.01900
C  -3.84200 27.02100 25.05100
C  -2.87700 27.94400 25.55700
C  -2.92200 27.68700 26.95200
C  -3.78600 26.58500 27.18600
C  -2.15900 29.11800 24.90700
C  -2.52300 28.24200 28.17800
O  -1.87400 29.21200 28.36100
C  -3.19800 27.26000 29.31900
C  -2.10800 26.59300 30.10800
O  -1.15000 25.94300 29.63700
O  -2.36400 26.92600 31.44000
C  -1.26900 26.57900 32.34400
H  -7.36400 21.70000 28.90200
H  -7.57000 22.39800 22.54900
H  -3.64900 27.48700 22.94900
H  -4.37500 24.99600 31.09000
H  -7.05300 23.55900 30.66800
H  -4.67900 22.73000 31.70100
H  -4.81300 21.74400 30.20000
H  -6.24200 21.81100 31.21500
H  -7.12300 25.91200 31.05900
H  -6.18500 27.05800 30.31100
H  -6.67200 27.28800 32.78400
H  -5.10900 27.61100 32.17400
H  -9.26500 19.14000 26.73100
H  -9.91400 20.46500 27.60400
H  -8.22600 19.88800 27.91800
H  -10.96900 20.15900 25.44400
H  -10.16900 18.80100 24.62500
H  -11.32000 19.66800 23.78900
H  -6.88900 24.54900 20.99400
H  -4.00500 25.29900 21.04200
H  -4.44800 23.26600 20.31000
H  -6.02600 22.76100 19.88900
H  -5.13200 22.12000 21.38000
H  -5.86700 27.53900 21.23100
H  -6.49300 26.46200 20.05000
H  -3.80800 26.61400 19.26300
H  -4.19400 28.20000 20.04200
H  -5.07400 27.52300 18.61800
H  -1.72600 29.89100 25.54200
H  -2.92500 29.53300 24.25100
H  -1.40400 28.65800 24.26900
H  -3.77300 27.86900 30.01700
H  -0.44000 27.20900 32.02300
H  -0.87100 25.58700 32.13200
H  -1.49000 26.73600 33.40000

