158

Mg 47.99400 25.57800 29.98000
C  48.81500 28.03300 32.33000
C  46.77200 23.68200 32.60000
C  47.37700 23.19700 27.79100
C  49.45800 27.50800 27.53200
N  47.83500 25.90000 32.27400
C  48.20400 26.92100 33.00900
C  47.80000 26.77900 34.48500
C  47.35500 25.29100 34.51600
C  47.36000 24.90900 32.99800
C  48.29500 24.40000 35.31900
C  46.81200 27.79600 35.04600
C  47.33000 28.45300 36.39800
H  46.18800 28.60600 37.43400
N  47.12900 23.81100 30.19100
C  46.66800 23.18500 31.29900
C  45.95800 21.96900 30.94500
C  46.04600 21.85500 29.57200
C  46.94300 22.94900 29.12100
C  45.20600 21.12500 32.07000
C  45.43900 20.84800 28.71300
O  45.64100 20.84800 27.48800
C  44.58200 19.78600 29.29700
N  48.19800 25.45200 27.91900
C  48.01600 24.30300 27.27300
C  48.45500 24.38300 25.85900
C  48.81000 25.93900 25.72800
C  48.83200 26.33900 27.14100
C  49.59600 23.45100 25.44700
C  47.73700 26.87300 24.96300
C  48.44700 28.02000 24.19400
N  48.91800 27.37300 29.90500
C  49.55300 28.05600 28.84400
C  50.05700 29.32600 29.31700
C  49.81600 29.31500 30.63800
C  49.09600 28.13700 30.97200
C  50.85300 30.32500 28.45800
C  50.01600 30.10500 31.82200
O  50.52700 31.17600 31.99300
C  49.37000 29.30000 32.97400
C  50.45300 29.04100 34.00500
O  51.53700 28.48300 33.84300
O  50.03300 29.58600 35.22800
C  51.02200 29.71900 36.31500
H  46.65800 22.95200 33.40400
H  47.16000 22.38700 27.09100
H  49.83200 28.20200 26.77600
H  48.72200 26.72300 35.06400
H  46.33200 25.10900 34.84500
H  47.99700 23.35400 35.37400
H  48.50800 24.76800 36.32200
H  49.22600 24.46000 34.75400
H  45.86000 27.26500 35.06700
H  46.59800 28.57700 34.31600
H  47.62500 29.43300 36.02400
H  48.20800 28.01000 36.86800
H  45.61500 20.13400 32.26400
H  44.21800 20.89200 31.67200
H  44.93500 21.74200 32.92700
H  43.56100 20.08100 29.53700
H  45.06200 19.31800 30.15600
H  44.51400 18.99500 28.54900
H  47.60600 24.18300 25.20600
H  49.77700 26.08000 25.24500
H  50.49300 23.93800 25.06300
H  49.24300 22.81400 24.63500
H  49.91600 22.88800 26.32400
H  47.01500 27.37500 25.60800
H  47.24100 26.15000 24.31600
H  48.23100 28.01600 23.12600
H  49.52800 27.89700 24.24500
H  48.17500 28.98500 24.62300
H  50.89800 29.97100 27.42800
H  51.85000 30.50100 28.86200
H  50.34300 31.28400 28.36600
H  48.58500 29.93400 33.38600
H  52.03900 29.58500 35.94700
H  50.80100 28.95600 37.06100
H  50.87900 30.71900 36.72500
Mg -12.54300 17.12100 41.88600
C  -9.68800 15.01100 41.47600
C  -10.62600 19.71600 40.51200
C  -15.33300 18.74000 41.44800
C  -14.30700 14.10800 42.66800
N  -10.42600 17.33300 40.86300
C  -9.43700 16.35000 40.97600
C  -8.12800 16.89900 40.50100
C  -8.34600 18.47900 40.59800
C  -9.89300 18.54500 40.61500
C  -7.73000 19.27200 41.79400
C  -7.75600 16.29200 39.13700
C  -6.23700 15.94900 38.85600
H  -5.64700 16.40100 37.43400
N  -12.91000 19.00900 41.13900
C  -12.00700 19.94300 40.66900
C  -12.71200 21.13500 40.25200
C  -14.08900 20.77400 40.41300
C  -14.18300 19.51100 40.98700
C  -12.01900 22.36900 39.64100
C  -15.22300 21.57900 39.81100
O  -14.89100 22.62300 39.15200
C  -16.63700 21.19700 39.97200
N  -14.58500 16.40700 41.83400
C  -15.50700 17.41000 41.88000
C  -16.86500 16.92000 42.25400
C  -16.60600 15.42400 42.63600
C  -15.07100 15.22600 42.39100
C  -17.45300 17.70500 43.50800
C  -17.52000 14.48500 41.78100
C  -18.87100 14.12600 42.38800
N  -12.14100 14.98800 42.08000
C  -12.93300 13.96900 42.31000
C  -12.09700 12.77800 42.62800
C  -10.84000 13.19400 42.34600
C  -10.86300 14.51300 41.95800
C  -12.59200 11.46000 43.30900
C  -9.47000 12.75300 42.26700
O  -9.02200 11.61500 42.53400
C  -8.67100 13.89500 41.68700
C  -7.46400 14.24100 42.49300
O  -7.59200 14.55800 43.66400
O  -6.30900 14.22400 41.77400
C  -5.19300 14.73800 42.60500
H  -9.99000 20.54000 40.18400
H  -16.23100 19.35800 41.51100
H  -14.76500 13.40700 43.36900
H  -7.26200 16.69300 41.13100
H  -7.87900 19.01400 39.77000
H  -7.04600 18.57800 42.28400
H  -8.49000 19.53700 42.53000
H  -7.22900 20.19600 41.50700
H  -8.19400 16.95800 38.39300
H  -8.20600 15.30100 39.08500
H  -6.09000 14.88000 39.00800
H  -5.55100 16.41200 39.56600
H  -12.35900 23.15600 40.31300
H  -12.34100 22.74500 38.67000
H  -10.92900 22.36600 39.59800
H  -16.76700 21.29900 41.04900
H  -16.82000 20.18400 39.61500
H  -17.21600 21.92900 39.40900
H  -17.59400 17.04700 41.45300
H  -16.77400 15.19000 43.68700
H  -17.76000 16.93700 44.21800
H  -18.34100 18.30600 43.31400
H  -16.76800 18.35500 44.05200
H  -16.99600 13.56600 41.51900
H  -17.66800 15.06800 40.87100
H  -19.64000 14.61600 41.79100
H  -18.99900 14.47500 43.41300
H  -19.10700 13.06700 42.27800
H  -11.97200 11.32900 44.19600
H  -12.57900 10.62800 42.60500
H  -13.54600 11.69900 43.77700
H  -8.35600 13.52400 40.71200
H  -4.22500 14.65600 42.11100
H  -5.05600 14.21700 43.55200
H  -5.23800 15.78300 42.91200

