158

Mg 43.07300 41.63900 25.95400
C  42.45300 44.02000 28.58200
C  43.86700 39.41200 28.27400
C  44.19800 39.75000 23.44800
C  42.55900 44.27200 23.68800
N  43.24400 41.74900 28.19400
C  42.80500 42.75700 29.07000
C  43.13600 42.36700 30.52000
C  43.59300 40.85700 30.43000
C  43.53200 40.60700 28.86800
C  44.94800 40.50900 31.06200
C  41.90000 42.44800 31.41800
C  42.09300 41.87500 32.85900
H  41.92700 42.83000 34.06000
N  43.96400 39.72700 25.87000
C  44.12700 38.95100 26.92100
C  44.66800 37.68400 26.47800
C  44.81300 37.77200 25.04300
C  44.36200 39.11500 24.72100
C  45.00000 36.56200 27.51200
C  45.04100 36.74800 24.02800
O  45.08600 36.96600 22.84900
C  45.36800 35.33900 24.57300
N  43.58200 42.04500 23.89500
C  43.97100 41.03600 23.04100
C  43.94300 41.49500 21.52500
C  43.20500 42.91800 21.66400
C  43.11000 43.12200 23.18200
C  45.29500 41.65300 20.83600
C  41.82700 42.87300 21.00300
C  40.79600 41.90700 21.58600
N  42.52000 43.66800 26.03400
C  42.36600 44.55500 25.03500
C  41.97600 45.85500 25.56700
C  41.92300 45.61800 26.95800
C  42.36000 44.32600 27.17300
C  41.63300 47.15000 24.86100
C  41.68000 46.26200 28.28600
O  41.29900 47.37500 28.61000
C  41.91700 45.22300 29.35800
C  42.80700 45.76900 30.36300
O  44.03500 45.76700 30.30600
O  42.09900 46.37900 31.39000
C  42.88600 46.73100 32.53100
H  44.03300 38.58900 28.97200
H  44.43900 39.15100 22.56600
H  42.35700 45.02600 22.92400
H  43.97600 42.99500 30.81800
H  42.93900 40.13700 30.92300
H  44.85700 39.63400 31.70400
H  45.39000 41.36500 31.57200
H  45.71100 40.18800 30.35300
H  41.11300 41.78900 31.05300
H  41.40700 43.42000 31.44000
H  43.04200 41.33900 32.85900
H  41.41900 41.03800 33.04100
H  44.51200 35.64000 27.19800
H  44.71300 36.73000 28.55000
H  46.07100 36.36600 27.46500
H  46.04800 35.31700 25.42500
H  45.80800 34.85500 23.70200
H  44.41700 34.88900 24.85900
H  43.39000 40.63900 21.13900
H  43.78200 43.79600 21.37400
H  45.33700 40.86100 20.08800
H  46.17100 41.62500 21.48300
H  45.32000 42.59100 20.28200
H  42.07200 42.59200 19.97900
H  41.48800 43.90800 21.02500
H  40.16000 42.48000 22.26100
H  41.24200 41.03900 22.07100
H  40.12600 41.49500 20.83100
H  42.40600 47.13500 24.09300
H  41.85800 47.93700 25.58100
H  40.69100 47.17400 24.31300
H  40.93400 45.07600 29.80600
H  43.39500 47.65300 32.25300
H  43.55100 45.94300 32.88500
H  42.08600 46.99800 33.22100
Mg 26.66900 50.88300 27.29200
C  24.48600 51.74000 29.89800
C  28.88100 49.69200 29.76700
C  28.68100 49.96500 24.81800
C  24.16600 51.92500 25.00500
N  26.69200 50.84300 29.53100
C  25.62000 51.21100 30.36800
C  25.94300 50.77700 31.82200
C  27.46400 50.27600 31.79700
C  27.68600 50.29300 30.28500
C  28.43100 51.15700 32.63400
C  24.89400 49.75900 32.49500
C  24.12000 50.24500 33.73900
H  23.95200 49.24800 34.87200
N  28.55800 50.03400 27.26800
C  29.31500 49.61300 28.42100
C  30.60100 49.25400 27.91300
C  30.67700 49.34300 26.48500
C  29.26500 49.80400 26.09400
C  31.64200 48.76300 28.89200
C  31.81200 49.09400 25.51000
O  31.63200 49.05000 24.30300
C  33.20900 48.82600 26.10100
N  26.45400 51.10500 25.23100
C  27.50200 50.58000 24.37900
C  27.07000 50.62800 22.88400
C  25.63100 51.24000 22.98500
C  25.37100 51.40600 24.48800
C  27.94500 51.56500 22.05100
C  24.62700 50.22000 22.38800
C  23.81000 50.74300 21.19800
N  24.76200 51.77200 27.31300
C  23.84800 52.05100 26.33300
C  22.71600 52.66200 26.93000
C  22.87100 52.57600 28.29900
C  24.16300 52.05600 28.56300
C  21.51400 53.26700 26.19200
C  22.17200 52.73900 29.57000
O  21.09000 53.20600 29.95000
C  23.21500 52.23400 30.60700
C  23.54800 53.35600 31.43200
O  24.07200 54.39400 31.06000
O  23.09400 53.07300 32.75300
C  23.39700 53.94900 33.87700
H  29.44900 49.28000 30.60400
H  29.24100 49.55900 23.97400
H  23.29000 52.16000 24.39700
H  25.86400 51.66500 32.44900
H  27.55200 49.26800 32.20100
H  28.70500 50.62000 33.54200
H  27.89800 52.01700 33.03800
H  29.31400 51.58200 32.15700
H  25.28600 48.76500 32.71200
H  24.09600 49.62500 31.76500
H  23.14300 50.66600 33.50100
H  24.71100 51.03900 34.19600
H  32.42600 49.47800 29.14300
H  32.18700 47.97400 28.37500
H  31.18700 48.32400 29.78000
H  33.45500 49.27800 27.06200
H  33.80600 49.32300 25.33600
H  33.38800 47.75000 26.11100
H  27.12700 49.58300 22.57900
H  25.54200 52.25800 22.60700
H  28.59500 52.15600 22.69600
H  27.45100 52.12100 21.25400
H  28.62900 50.90300 21.52000
H  23.94500 49.81800 23.13700
H  25.12200 49.31600 22.03200
H  23.92900 51.80900 21.00400
H  22.73900 50.65200 21.37700
H  24.19900 50.23900 20.31300
H  20.73300 53.41900 26.93700
H  21.17100 52.49100 25.50800
H  21.70300 54.22500 25.70700
H  22.70200 51.40800 31.10000
H  23.95800 54.82700 33.55700
H  23.99600 53.36800 34.57800
H  22.47200 54.20200 34.39400

