158

Mg 7.74900 2.73400 27.44300
C  9.07600 0.90100 30.16400
C  5.86900 4.57700 29.47800
C  6.24100 3.96400 24.73700
C  9.11800 0.26800 25.31300
N  7.53600 2.75800 29.53300
C  8.28100 2.06500 30.48900
C  8.11100 2.73500 31.87700
C  6.94600 3.74400 31.66200
C  6.69100 3.67900 30.12700
C  5.81700 3.65700 32.62900
C  9.39500 3.40800 32.42400
C  9.18600 3.95100 33.82300
H  10.10600 3.51500 34.95700
N  6.21500 4.15400 27.10200
C  5.54500 4.81500 28.12900
C  4.67600 5.81900 27.56400
C  4.78400 5.67900 26.17700
C  5.80300 4.55600 25.95100
C  3.70200 6.62400 28.37600
C  4.00200 6.41500 25.07800
O  4.06200 6.11600 23.88800
C  2.96100 7.45400 25.45000
N  7.55100 2.01600 25.30400
C  6.92100 2.84800 24.44300
C  7.02200 2.29600 23.02500
C  8.01500 1.10100 23.22000
C  8.21700 1.07100 24.71900
C  5.69100 1.70800 22.47000
C  9.32200 1.37900 22.47100
C  9.98000 0.05400 22.13800
N  8.93500 1.07000 27.65600
C  9.41400 0.12300 26.68100
C  10.24800 -0.88600 27.30300
C  10.26600 -0.53200 28.66600
C  9.28100 0.54100 28.85000
C  11.00000 -1.99800 26.63200
C  10.80000 -0.85500 30.00200
O  11.59300 -1.68600 30.44000
C  10.03300 0.15200 31.03400
C  9.33200 -0.67400 32.08100
O  8.44600 -1.44500 31.86100
O  9.84400 -0.34400 33.28900
C  9.49900 -1.19500 34.50000
H  5.34800 5.28700 30.12400
H  5.91600 4.54000 23.86800
H  9.67700 -0.46900 24.73200
H  7.78400 2.01900 32.63100
H  7.41300 4.72100 31.77900
H  4.98200 3.15600 32.14100
H  5.46800 4.68100 32.76400
H  6.10300 3.12100 33.53300
H  9.73500 4.15600 31.70800
H  10.17500 2.64700 32.45600
H  8.15600 3.64000 33.99700
H  9.26100 5.03600 33.74700
H  3.90800 7.69400 28.34500
H  3.75600 6.41600 29.44500
H  2.64500 6.51100 28.13400
H  2.15300 6.93100 25.96200
H  2.58700 8.11600 24.66900
H  3.40000 8.16100 26.15300
H  7.38800 3.08600 22.37000
H  7.53200 0.20000 22.84000
H  4.93400 1.93700 23.22000
H  5.60800 0.64400 22.24900
H  5.39700 2.25800 21.57600
H  9.98000 1.95900 23.11800
H  9.13200 1.94400 21.55800
H  9.34000 -0.79500 22.37900
H  10.95200 0.03500 22.63100
H  10.03100 -0.04400 21.05400
H  11.44500 -1.75600 25.66700
H  10.54700 -2.97700 26.47400
H  11.84900 -2.06000 27.31300
H  10.75500 0.73400 31.60600
H  9.25500 -0.49800 35.30100
H  10.40200 -1.68800 34.85900
H  8.64800 -1.81700 34.22200
Mg 44.23700 4.88500 47.59000
C  42.21600 7.68100 46.88400
C  41.44000 2.90500 46.74400
C  46.22800 2.19300 47.51200
C  46.96700 7.02600 47.77900
N  41.97500 5.25800 46.86100
C  41.44400 6.49200 46.78700
C  39.99200 6.38500 46.39100
C  39.65900 4.84100 46.74500
C  41.06000 4.28800 46.76200
C  38.87800 4.68000 48.00000
C  39.65000 6.82800 44.90200
C  38.84800 8.17200 44.62100
H  39.42600 8.96300 43.42400
N  43.87300 2.88900 47.20800
C  42.70100 2.25100 46.85800
C  42.89300 0.84400 46.63100
C  44.27400 0.63900 46.99100
C  44.87200 1.95400 47.20100
C  41.87800 -0.08100 46.13500
C  44.92600 -0.73600 46.95400
O  44.29900 -1.77400 46.73000
C  46.34400 -0.91500 47.36900
N  46.25900 4.67400 47.72600
C  46.87100 3.42500 47.80500
C  48.36300 3.50400 47.99900
C  48.57900 5.01300 48.08700
C  47.15500 5.64900 47.89600
C  48.84700 2.75600 49.26800
C  49.65900 5.57700 47.10800
C  50.86800 6.24700 47.82200
N  44.58700 6.88200 47.39900
C  45.75900 7.62800 47.53000
C  45.51200 9.03500 47.44200
C  44.13300 9.13800 47.18800
C  43.61400 7.74600 47.13900
C  46.55400 10.19400 47.59500
C  42.97300 9.99800 47.01300
O  42.98800 11.19800 46.90900
C  41.64800 9.11400 46.88000
C  40.71900 9.34300 48.04500
O  40.72400 8.67600 49.09800
O  39.81900 10.34100 47.71800
C  38.49600 10.29800 48.43500
H  40.59700 2.22400 46.60900
H  47.03600 1.47500 47.35600
H  47.80800 7.70000 47.95600
H  39.46800 7.12800 46.99200
H  39.12300 4.35000 45.93300
H  39.38500 4.35200 48.90700
H  38.19800 3.84900 47.81400
H  38.37500 5.60400 48.28300
H  39.04600 6.06000 44.42000
H  40.64000 6.93300 44.45700
H  38.63200 8.70600 45.54600
H  37.89800 7.74600 44.29600
H  42.23700 -0.31800 45.13400
H  40.88400 0.29900 45.90000
H  41.89400 -0.93000 46.81900
H  46.92200 -0.40100 46.60100
H  46.75500 -1.92100 47.28700
H  46.48600 -0.56600 48.39200
H  48.74200 3.10300 47.05900
H  48.83700 5.26500 49.11600
H  48.95900 1.72800 48.92400
H  48.10000 2.81400 50.05900
H  49.74300 3.23900 49.66100
H  49.20500 6.34800 46.48500
H  50.05400 4.82900 46.42100
H  51.72900 5.58800 47.71400
H  50.68000 6.30900 48.89400
H  51.08700 7.24700 47.44600
H  47.36100 10.19600 46.86300
H  46.98300 10.09600 48.59200
H  45.97400 11.11800 47.59900
H  41.24300 9.49500 45.94300
H  38.14300 11.30100 48.67400
H  38.58300 9.75300 49.37500
H  37.71800 9.86800 47.80400

