158

Mg 30.54200 58.94100 41.17500
C  27.47900 57.86700 40.05400
C  32.07100 56.08500 39.90100
C  33.66500 60.41800 41.47300
C  29.04700 62.05400 41.82200
N  29.88700 57.32300 40.01100
C  28.55500 56.98600 39.82200
C  28.44600 55.64900 39.17700
C  29.80700 54.90900 39.68800
C  30.67600 56.16300 39.87000
C  29.89200 54.01200 40.94500
C  28.30200 55.76800 37.60200
C  27.15500 54.96400 36.90500
H  26.33100 55.52900 35.77200
N  32.67900 58.32700 40.83100
C  33.02100 57.12800 40.24100
C  34.44300 57.06800 40.24200
C  34.91900 58.30700 40.68500
C  33.76100 59.09800 40.98100
C  35.22700 55.86100 39.86700
C  36.36300 58.66000 40.68800
O  37.22500 57.87200 40.37400
C  36.92400 60.03700 40.81200
N  31.27800 60.95100 41.43700
C  32.57300 61.27400 41.62700
C  32.66100 62.73900 42.06900
C  31.19900 63.22100 42.24700
C  30.46100 61.97800 41.83300
C  33.56400 63.10700 43.26700
C  30.83500 64.43500 41.25600
C  30.06700 65.63200 41.89200
N  28.56900 59.81300 41.02200
C  28.08400 61.09700 41.31100
C  26.69900 61.21000 41.10800
C  26.35200 59.86800 40.65500
C  27.53300 59.15100 40.66000
C  25.83100 62.39300 41.26200
C  25.29100 59.06100 40.13800
O  24.11500 59.21800 39.78200
C  26.00100 57.66500 39.76900
C  25.52300 56.53800 40.59800
O  26.02600 56.07200 41.62300
O  24.39200 56.06700 39.92100
C  23.92800 54.79400 40.39200
H  32.60200 55.15200 39.70100
H  34.66600 60.78200 41.71400
H  28.55100 62.97300 42.14000
H  27.55000 55.18200 39.58600
H  30.17700 54.27900 38.88000
H  28.89100 53.98500 41.37400
H  30.59000 54.47000 41.64600
H  30.31600 53.02000 40.78700
H  29.23000 55.43900 37.13500
H  28.30600 56.83500 37.37900
H  26.44000 54.66000 37.66900
H  27.51200 54.00500 36.52800
H  35.63800 55.85700 38.85800
H  34.60200 54.98100 40.01400
H  36.06000 55.78200 40.56500
H  37.97600 60.10200 40.53300
H  36.82200 60.26800 41.87300
H  36.38300 60.79000 40.23900
H  33.05100 63.14200 41.13400
H  30.94200 63.36800 43.29600
H  34.15900 62.20500 43.40400
H  32.87600 63.23600 44.10200
H  34.29100 63.86600 42.98000
H  30.20700 63.99700 40.48100
H  31.66600 64.81500 40.66200
H  29.52500 66.16600 41.11200
H  30.76200 66.34200 42.33900
H  29.37600 65.34600 42.68600
H  26.31300 63.09600 41.94100
H  24.76200 62.18400 41.31600
H  25.95400 62.83200 40.27100
H  25.79800 57.49200 38.71200
H  23.76900 54.11900 39.55100
H  22.95200 54.88000 40.86900
H  24.42000 54.26000 41.20600
Mg 15.96700 51.81400 25.91800
C  17.73700 51.07200 28.86200
C  13.23600 52.60400 27.91300
C  14.37700 52.61100 23.24100
C  18.63500 50.64100 24.00500
N  15.49500 51.71700 28.11500
C  16.44500 51.57100 29.11200
C  15.88800 51.85600 30.43700
C  14.32600 52.12600 30.07300
C  14.31200 52.20000 28.58200
C  13.20800 51.13900 30.59700
C  16.76900 53.00900 31.06200
C  17.00300 52.98800 32.54900
H  16.02700 52.12100 33.32200
N  14.00200 52.47800 25.53600
C  13.13700 52.67500 26.48000
C  11.92800 53.29400 25.83500
C  12.30000 53.41700 24.45900
C  13.60100 52.85500 24.35900
C  10.70600 53.79500 26.59300
C  11.55200 54.13700 23.36300
O  11.95400 54.18200 22.25400
C  10.26700 54.95600 23.60800
N  16.45300 51.58800 23.87500
C  15.61400 51.98900 22.97200
C  16.13600 51.66400 21.51300
C  17.57100 51.18500 21.71500
C  17.65200 51.13700 23.26100
C  15.19900 50.69200 20.69600
C  18.62300 52.16100 21.14400
C  19.33500 51.75400 19.78800
N  17.73600 50.97200 26.31200
C  18.75300 50.63800 25.44500
C  19.92400 50.18200 26.14600
C  19.53200 50.27700 27.50900
C  18.26400 50.78100 27.54100
C  21.25700 49.66900 25.49100
C  19.95900 49.99000 28.89300
O  20.97800 49.48600 29.33700
C  18.84500 50.64100 29.76000
C  18.38500 49.61000 30.79700
O  17.61200 48.70800 30.65300
O  19.13800 49.86100 31.94700
C  18.83800 48.91600 32.97600
H  12.42900 53.06800 28.48400
H  13.92800 52.88000 22.28200
H  19.53200 50.27300 23.50100
H  15.91400 50.88800 30.93700
H  14.25600 53.17200 30.36900
H  13.60800 50.54600 31.41900
H  12.92200 50.41700 29.83100
H  12.32600 51.63200 31.00700
H  16.07700 53.84500 30.96700
H  17.56700 53.23700 30.35500
H  16.95000 54.00700 32.93300
H  18.00400 52.56300 32.63300
H  10.66500 53.24600 27.53400
H  9.80400 53.61900 26.00700
H  10.66100 54.88400 26.58100
H  10.37400 55.64400 24.44700
H  9.50500 54.18000 23.67800
H  10.20400 55.66200 22.77900
H  16.15600 52.55200 20.88100
H  17.75200 50.18000 21.33500
H  14.57500 50.08400 21.35100
H  15.80000 50.13500 19.97800
H  14.51500 51.29500 20.09800
H  19.38000 52.30100 21.91500
H  18.14400 53.12600 20.98100
H  20.39400 51.53100 19.92500
H  19.16200 52.52400 19.03600
H  18.85300 50.82200 19.49500
H  21.55400 50.23200 24.60600
H  21.08100 48.62800 25.21700
H  22.01400 49.77000 26.26800
H  19.25200 51.49100 30.30700
H  18.90400 47.90200 32.58000
H  17.86700 49.05200 33.45200
H  19.56600 49.02300 33.78000

