158

Mg 48.07400 34.12400 25.24200
C  46.16200 32.67200 27.80100
C  48.58200 36.75300 27.27100
C  48.95400 35.77700 22.53900
C  47.29000 31.36200 23.21000
N  47.47900 34.63500 27.25900
C  46.79900 33.84100 28.18200
C  47.04400 34.31000 29.62600
C  47.37600 35.79100 29.34800
C  47.84400 35.73900 27.87200
C  46.22600 36.91400 29.60100
C  48.20100 33.60400 30.45000
C  47.93100 33.42400 31.94500
H  46.91200 34.30900 32.66000
N  48.83100 35.92000 24.95900
C  48.97500 36.93800 25.90900
C  49.79900 38.02200 25.37200
C  49.91400 37.78000 23.93400
C  49.11000 36.48700 23.73100
C  50.43000 39.08300 26.18000
C  50.62800 38.60600 22.87000
O  50.62300 38.38500 21.68300
C  51.48400 39.85000 23.29400
N  48.19200 33.65700 23.20100
C  48.55000 34.48900 22.24000
C  48.57800 33.84800 20.80700
C  48.40100 32.36100 21.14400
C  47.91600 32.48600 22.60600
C  47.62300 34.50700 19.77700
C  49.61000 31.33000 20.98300
C  49.80300 30.82000 19.52000
N  46.83000 32.30900 25.37800
C  46.61200 31.30900 24.43400
C  45.64300 30.39500 25.03400
C  45.44200 30.80400 26.37000
C  46.15200 32.03200 26.48100
C  45.12900 29.12100 24.35700
C  44.78600 30.57500 27.64900
O  44.03300 29.66200 27.98200
C  45.28200 31.66100 28.60000
C  45.98000 30.94800 29.71300
O  46.96100 30.16700 29.64900
O  45.25700 31.11000 30.82800
C  45.57800 30.35200 32.10900
H  49.01100 37.64700 27.73000
H  49.35900 36.19400 21.61500
H  47.29800 30.41000 22.67600
H  46.13600 34.36500 30.22700
H  48.19800 36.09600 29.99600
H  45.82600 37.29900 28.66300
H  46.54000 37.78400 30.17800
H  45.43600 36.40200 30.15100
H  49.14900 34.13600 30.36800
H  48.16000 32.53900 30.22300
H  48.86700 33.58800 32.47900
H  47.53900 32.41700 32.08800
H  50.58200 38.87900 27.24000
H  49.87300 40.01600 26.09400
H  51.41500 39.18600 25.72500
H  52.25400 39.47100 23.96600
H  50.71000 40.40800 23.82100
H  51.89200 40.42300 22.46100
H  49.56600 33.85500 20.34700
H  47.63500 31.99800 20.45900
H  47.07800 35.31500 20.26500
H  46.88500 33.87400 19.28500
H  48.29500 34.88900 19.00900
H  49.50300 30.42900 21.58700
H  50.53600 31.78800 21.33000
H  49.23400 31.38200 18.77900
H  49.60000 29.75100 19.57000
H  50.87200 30.92100 19.33200
H  45.82500 28.28800 24.44900
H  44.83000 29.41800 23.35200
H  44.29800 28.74500 24.95400
H  44.40200 32.14100 29.03000
H  46.66200 30.34200 32.22900
H  45.14800 29.37300 31.89800
H  44.98100 30.77200 32.91800
Mg 5.48900 54.48100 41.19400
C  5.33200 51.00600 40.97600
C  8.63900 54.33000 39.87900
C  5.52300 57.84100 41.11600
C  2.13500 54.52900 42.21700
N  6.74100 52.77200 40.19700
C  6.46700 51.46500 40.38700
C  7.77800 50.68500 40.03100
C  8.90800 51.79800 39.99700
C  8.06600 53.06400 40.03500
C  9.92000 51.73700 41.17300
C  7.77600 49.82500 38.68700
C  6.94500 50.51100 37.53200
H  7.71900 50.99200 36.28000
N  6.78900 55.81800 40.42100
C  8.06900 55.60200 39.97400
C  8.85300 56.82900 39.76200
C  7.92100 57.90400 40.06600
C  6.70500 57.20800 40.60600
C  10.30800 56.94300 39.41100
C  8.26600 59.37700 39.95200
O  9.41200 59.73800 39.55300
C  7.30300 60.46300 40.38400
N  3.98200 55.89300 41.57800
C  4.35300 57.25900 41.59300
C  3.11900 58.13400 42.04300
C  1.90600 57.11900 42.05400
C  2.69200 55.77500 41.95100
C  3.30600 58.72000 43.39300
C  0.83400 57.35700 40.85100
C  -0.43900 58.20100 41.21000
N  4.05300 53.12400 41.60900
C  2.75100 53.28200 42.10900
C  2.19200 51.95700 42.37700
C  3.18100 51.07200 41.97900
C  4.26300 51.78600 41.49400
C  0.79700 51.61600 42.90100
C  3.47000 49.57000 41.95500
O  2.91300 48.50800 42.25900
C  4.79800 49.55200 41.13700
C  4.62300 48.78500 39.86000
O  3.85300 49.16600 38.93800
O  5.40600 47.64900 39.88500
C  5.29900 46.84100 38.63800
H  9.72200 54.29500 39.74200
H  5.48300 58.92400 41.24600
H  1.06700 54.52600 42.44700
H  7.82200 50.00800 40.88400
H  9.49300 51.98500 39.09600
H  9.92700 50.67500 41.42000
H  9.55700 52.39400 41.96400
H  10.81400 52.26200 40.83700
H  7.28500 48.91700 39.03700
H  8.81900 49.76700 38.37700
H  6.31900 51.35000 37.83400
H  6.30400 49.73300 37.11900
H  10.42200 56.99200 38.32800
H  10.92000 56.19000 39.90800
H  10.86600 57.80400 39.78000
H  6.44500 60.41900 39.71400
H  7.80600 61.38700 40.09700
H  7.20100 60.47200 41.46900
H  3.09100 58.89500 41.26300
H  1.38400 57.12300 43.01100
H  2.36400 58.80700 43.93400
H  3.74800 59.71200 43.30200
H  3.93700 58.08400 44.01300
H  0.48600 56.37800 40.52100
H  1.28900 57.81600 39.97200
H  -1.28400 57.72800 40.70900
H  -0.28500 59.25300 40.96900
H  -0.74300 58.12100 42.25300
H  0.06900 51.56900 42.09100
H  0.51500 52.39000 43.61400
H  0.71700 50.64400 43.38700
H  5.38100 48.91100 41.79800
H  5.64600 45.81600 38.76100
H  5.83100 47.30600 37.80800
H  4.27200 46.74000 38.28600

