158

Mg 50.84600 45.46800 42.74900
C  47.96800 46.87300 41.14800
C  50.38800 42.62600 40.95800
C  53.98100 44.64400 43.49600
C  51.32800 48.71400 44.16400
N  49.40200 44.91000 41.25900
C  48.28500 45.55100 40.76000
C  47.38700 44.73300 39.94500
C  48.13300 43.34000 39.90300
C  49.34800 43.56000 40.80500
C  47.19500 42.16800 40.25800
C  47.03400 45.24800 38.52900
C  45.51600 45.23700 38.14900
H  45.05800 44.05600 37.25300
N  52.06000 43.79400 42.36300
C  51.63400 42.71700 41.62700
C  52.63200 41.76300 41.73000
C  53.74800 42.24800 42.48200
C  53.33500 43.59700 42.82700
C  52.45600 40.41000 41.11900
C  55.01900 41.47000 42.77100
O  55.16600 40.31700 42.39300
C  56.21900 42.19600 43.45500
N  52.50600 46.65400 43.39900
C  53.67900 46.02500 43.77800
C  54.66800 47.02700 44.33000
C  53.75800 48.17700 44.70400
C  52.43300 47.82100 44.07800
C  55.57000 46.55500 45.51700
C  54.32500 49.60000 44.44400
C  54.36900 50.47900 45.62500
N  49.87100 47.39000 42.75400
C  50.09000 48.51600 43.47200
C  48.99000 49.49200 43.21400
C  48.10800 48.81100 42.34400
C  48.72800 47.58900 42.05600
C  48.84900 50.90400 43.72200
C  46.86800 48.96500 41.64400
O  46.06800 49.89700 41.66300
C  46.68300 47.68100 40.90600
C  45.48100 47.06800 41.57900
O  45.50900 46.21200 42.40000
O  44.32200 47.40000 40.95400
C  43.10800 46.96500 41.63100
H  50.17900 41.70800 40.40400
H  54.98200 44.35500 43.82500
H  51.37900 49.57800 44.82900
H  46.44400 44.68300 40.48900
H  48.44700 43.13800 38.87800
H  46.19600 42.41200 40.61800
H  47.69200 41.69900 41.10700
H  47.25500 41.48000 39.41500
H  47.59400 44.69600 37.77400
H  47.31900 46.29500 38.42800
H  45.33400 46.11600 37.53100
H  44.83600 45.21200 39.00000
H  51.42500 40.19200 40.84000
H  52.69900 39.55400 41.74900
H  53.00600 40.34000 40.18100
H  55.87500 42.43000 44.46200
H  56.49900 43.05500 42.84500
H  57.13800 41.61400 43.53000
H  55.28200 47.15800 43.43900
H  53.49700 48.10600 45.76000
H  55.26900 47.09000 46.41800
H  56.57500 46.89400 45.26500
H  55.63500 45.48900 45.73400
H  53.60300 50.01800 43.74200
H  55.27100 49.51700 43.90900
H  55.39500 50.80400 45.79800
H  53.97300 50.10400 46.56900
H  53.79600 51.36500 45.35200
H  48.07500 51.02600 44.47900
H  48.66600 51.36200 42.75000
H  49.75400 51.38500 44.09200
H  46.45700 48.01000 39.89100
H  42.47000 47.81700 41.86500
H  43.29700 46.36500 42.52100
H  42.79600 46.29600 40.82900
Mg 29.38200 58.16100 40.79900
C  26.58500 56.51900 39.52300
C  31.38500 55.74800 39.24800
C  32.15200 60.22100 41.06600
C  27.25700 60.84800 41.59400
N  29.03100 56.46800 39.56200
C  27.80200 55.98700 39.10200
C  27.87400 54.77500 38.27000
C  29.39400 54.36500 38.44700
C  29.95900 55.59900 39.16200
C  29.57200 53.02600 39.14000
C  27.50000 55.00600 36.73700
C  26.34000 54.27700 36.07400
H  25.68400 55.08000 34.99600
N  31.53500 57.92900 40.39400
C  32.10300 56.81700 39.74900
C  33.49300 57.05000 39.54200
C  33.78300 58.27600 40.08500
C  32.49300 58.93200 40.50700
C  34.44800 56.03000 38.87800
C  35.19800 58.78600 40.21500
O  36.16400 58.07900 39.89600
C  35.53000 60.06800 40.87300
N  29.67700 60.23700 41.33300
C  30.91000 60.78600 41.37300
C  30.85400 62.30400 41.70800
C  29.33100 62.50500 42.00700
C  28.69800 61.13200 41.63700
C  31.82000 62.78800 42.77800
C  28.79600 63.73300 41.16500
C  28.86500 65.06200 41.84700
N  27.39500 58.54800 40.82900
C  26.62600 59.67600 41.24100
C  25.23500 59.31200 41.26700
C  25.19200 58.12400 40.54600
C  26.47700 57.69400 40.31000
C  24.14900 60.25800 41.73500
C  24.27700 57.23400 39.99300
O  23.08300 57.28100 39.93700
C  25.17500 56.08000 39.36400
C  24.77200 54.83200 40.15700
O  25.00500 54.61200 41.32600
O  23.86000 54.15100 39.42700
C  22.94900 53.31600 40.28500
H  31.89300 54.86400 38.85500
H  33.05000 60.84400 41.07400
H  26.56000 61.68300 41.69000
H  27.22100 54.00900 38.68800
H  29.95600 54.22000 37.52400
H  30.46100 53.03200 39.77100
H  29.68800 52.25200 38.38100
H  28.65900 52.70800 39.64300
H  28.43300 54.65000 36.30000
H  27.39600 56.08000 36.58000
H  25.57100 53.88700 36.74100
H  26.66700 53.31600 35.67800
H  35.04600 56.51300 38.10500
H  33.88000 55.26600 38.34600
H  35.02100 55.53200 39.66000
H  35.27300 60.93200 40.26000
H  36.60200 60.15800 41.04700
H  34.82900 60.15500 41.70300
H  31.12900 62.82800 40.79300
H  29.10300 62.78700 43.03400
H  32.60300 63.39800 42.32800
H  32.24800 61.98500 43.37900
H  31.26900 63.49100 43.40200
H  27.81800 63.50300 40.74200
H  29.36900 63.77600 40.23900
H  29.22400 65.73400 41.06800
H  29.48600 65.10300 42.74200
H  27.93700 65.44000 42.27500
H  23.12600 59.93400 41.54800
H  24.34300 61.19900 41.22100
H  24.22500 60.48000 42.80000
H  24.90500 55.96200 38.31500
H  22.34200 53.90300 40.97400
H  23.47300 52.65300 40.97300
H  22.34400 52.72200 39.60100

