158

Mg 26.08000 1.47600 28.99900
C  27.71000 0.85800 31.94300
C  23.08300 1.55400 30.90600
C  24.38900 2.05500 26.18500
C  28.95600 1.07300 27.21100
N  25.48100 1.20500 31.23300
C  26.37900 1.03900 32.27600
C  25.67800 1.16200 33.59800
C  24.13800 0.96100 33.17300
C  24.22200 1.16600 31.67400
C  23.43600 -0.37200 33.57000
C  26.02000 2.46300 34.37200
C  26.45700 2.28000 35.85200
H  26.15000 3.31100 36.97400
N  23.99100 1.83600 28.54700
C  23.00000 1.80500 29.46900
C  21.74100 2.08300 28.81600
C  22.03200 2.34800 27.45700
C  23.53300 2.06200 27.29900
C  20.46200 2.24500 29.59600
C  21.10100 2.75300 26.25300
O  21.53300 2.92900 25.13800
C  19.60100 2.93900 26.56100
N  26.63900 1.51000 26.97100
C  25.76000 1.78400 25.96400
C  26.47100 1.79100 24.65600
C  28.02000 1.57500 25.00400
C  27.91000 1.45800 26.48500
C  25.89100 0.71900 23.60600
C  28.92700 2.76900 24.49000
C  29.92600 2.48300 23.41000
N  27.91500 0.81300 29.37400
C  28.95700 0.73600 28.57400
C  30.14100 0.33700 29.37900
C  29.66900 0.44500 30.65400
C  28.32400 0.77900 30.63700
C  31.47900 -0.01600 28.94000
C  30.13500 0.42500 32.03600
O  31.21400 0.24200 32.58400
C  28.84000 0.65900 32.92400
C  28.68500 -0.46300 33.81400
O  28.23900 -1.54200 33.40200
O  29.08800 -0.20900 35.11200
C  28.86900 -1.25800 36.15500
H  22.13300 1.56800 31.44400
H  23.89700 2.27900 25.23700
H  29.91000 0.91900 26.70300
H  25.89800 0.27000 34.18500
H  23.62600 1.77300 33.69100
H  22.39400 -0.11400 33.75800
H  23.81900 -0.78500 34.50300
H  23.46400 -0.97400 32.66200
H  25.11800 3.07400 34.34300
H  26.81200 3.01400 33.86600
H  27.53500 2.19700 35.71400
H  26.09200 1.32200 36.22200
H  19.85300 1.34900 29.47300
H  19.74100 3.01700 29.32600
H  20.52400 2.58000 30.63100
H  18.99100 3.15200 25.68300
H  19.54100 3.69400 27.34500
H  19.20800 2.05200 27.05700
H  26.40800 2.73800 24.12000
H  28.37400 0.64700 24.55600
H  24.98600 0.23600 23.97400
H  26.59100 -0.07500 23.34600
H  25.75400 1.28900 22.68700
H  29.43300 3.25000 25.32700
H  28.32300 3.57300 24.06900
H  29.79900 1.43300 23.14900
H  30.95400 2.65300 23.72700
H  29.71400 3.09600 22.53300
H  31.88200 0.86100 28.43300
H  31.26900 -0.82800 28.24400
H  32.07200 -0.30900 29.80600
H  29.13900 1.50100 33.54800
H  28.07600 -0.82700 36.76700
H  29.76200 -1.25400 36.78000
H  28.71500 -2.26700 35.77400
Mg 48.40900 46.43200 42.50700
C  45.22700 46.79000 41.06900
C  48.56700 43.23600 40.94300
C  51.88100 46.30000 43.03500
C  48.35700 49.78900 43.35800
N  47.05600 45.10000 41.30300
C  45.81700 45.51200 40.79000
C  45.29600 44.42700 39.84600
C  46.10400 43.16800 40.29400
C  47.31300 43.81100 40.87800
C  45.40600 42.22200 41.29600
C  45.34400 44.76700 38.34100
C  43.96400 44.70900 37.60900
H  44.01200 43.92300 36.25800
N  50.03200 44.90000 42.13000
C  49.79000 43.69100 41.51400
C  51.06200 42.95600 41.50100
C  52.06500 43.78200 42.11500
C  51.31700 45.07100 42.48700
C  51.16900 41.61300 41.02200
C  53.50800 43.43600 42.47800
O  53.95500 42.29300 42.22300
C  54.51300 44.41200 43.05400
N  49.92800 47.76500 43.16500
C  51.25500 47.47700 43.39600
C  52.06500 48.72600 43.88400
C  50.87000 49.81400 43.87100
C  49.60000 49.06600 43.50400
C  52.53100 48.45900 45.39500
C  51.16300 51.00800 42.88200
C  51.14100 52.47600 43.43400
N  47.07100 47.95200 42.45400
C  47.15100 49.24700 42.85200
C  45.91900 49.86200 42.62200
C  45.08400 48.96200 41.96000
C  45.85100 47.78200 41.81700
C  45.45600 51.25500 43.03500
C  43.75700 48.75100 41.30800
O  42.76300 49.44100 41.21600
C  43.88200 47.28400 40.67400
C  42.69500 46.44900 41.08400
O  41.84400 46.03200 40.36100
O  42.79000 46.20200 42.39900
C  41.95200 45.19200 43.03500
H  48.76400 42.25000 40.51600
H  52.95100 46.27100 43.24800
H  48.54100 50.83400 43.61300
H  44.27000 44.33800 40.20400
H  46.32100 42.58300 39.40100
H  44.46500 42.61800 41.67800
H  45.96700 42.08500 42.22100
H  45.23600 41.27600 40.78100
H  46.00200 44.09800 37.78700
H  45.65300 45.81300 38.34600
H  43.61900 45.70200 37.32200
H  43.20300 44.22900 38.22400
H  52.21800 41.34900 40.88800
H  50.81700 41.46600 40.00100
H  50.69800 40.87900 41.67500
H  54.14600 44.54400 44.07100
H  54.62600 45.38000 42.56500
H  55.43100 43.82500 43.08500
H  52.86400 48.96700 43.18300
H  50.72800 50.19400 44.88300
H  52.40200 49.37700 45.96900
H  53.58300 48.17600 45.41900
H  51.93300 47.68600 45.87700
H  50.50500 50.82600 42.03200
H  52.15800 50.83300 42.47300
H  50.70200 52.43600 44.43100
H  50.40800 53.09000 42.91100
H  52.11500 52.96400 43.47600
H  45.95100 51.38200 43.99800
H  44.37000 51.19400 43.10800
H  45.82400 52.09600 42.44800
H  43.81300 47.42800 39.59600
H  42.53100 44.29600 43.25700
H  41.07300 44.85900 42.48300
H  41.61400 45.51300 44.02000

