158

Mg 47.47600 24.18300 27.76400
C  47.91400 26.48700 30.50100
C  46.72500 21.84800 30.12000
C  47.41600 21.93200 25.34800
C  48.59300 26.64000 25.58700
N  47.44200 24.20200 30.09400
C  47.42300 25.24800 30.95200
C  47.09300 24.86100 32.39700
C  46.74300 23.27600 32.25800
C  46.95200 23.10000 30.72700
C  47.42100 22.28500 33.30500
C  46.00600 25.73200 33.07300
C  46.33900 26.06700 34.58600
H  45.16000 26.11800 35.52200
N  47.05700 22.18100 27.66300
C  46.78200 21.40900 28.77600
C  46.45000 20.08900 28.33600
C  46.59400 20.04800 26.92400
C  47.03600 21.38500 26.55300
C  46.03900 18.88000 29.29000
C  46.41300 18.86300 25.93100
O  46.50600 18.94800 24.72500
C  46.08000 17.45700 26.43600
N  47.95600 24.27000 25.80200
C  47.79900 23.25300 24.97400
C  48.36000 23.58100 23.53200
C  48.51800 25.12900 23.62300
C  48.33800 25.37900 25.06900
C  49.67300 22.86900 23.07700
C  47.41500 25.85300 22.78600
C  46.06600 26.01200 23.46600
N  48.33300 26.07100 27.94700
C  48.60300 27.00100 26.94700
C  49.05200 28.21000 27.57200
C  48.81100 28.09600 28.97400
C  48.33700 26.75000 29.14000
C  49.61100 29.44900 26.97000
C  48.79800 28.76700 30.31900
O  49.19700 29.90900 30.66800
C  48.18500 27.76400 31.33600
C  49.03200 27.47400 32.53000
O  49.94500 26.73700 32.56700
O  48.66200 28.19100 33.60900
C  49.46400 28.25700 34.82100
H  46.29200 21.13500 30.82400
H  47.39500 21.18100 24.55500
H  48.85900 27.43400 24.88700
H  48.02600 24.85100 32.96000
H  45.67500 23.06400 32.31500
H  46.52700 21.76200 33.64700
H  48.09500 22.58000 34.10900
H  47.90800 21.55200 32.66300
H  45.04400 25.22300 33.12300
H  45.71300 26.64600 32.55800
H  46.81500 27.03400 34.75000
H  47.02000 25.28700 34.92800
H  46.60900 18.00300 28.98400
H  44.96200 18.72100 29.22800
H  46.34500 19.11600 30.30900
H  45.93200 16.72900 25.63800
H  45.15800 17.56700 27.00700
H  47.00000 17.21000 26.96600
H  47.61400 23.26700 22.80100
H  49.47500 25.48400 23.24300
H  49.58500 22.08700 22.32300
H  50.05200 22.36300 23.96500
H  50.38800 23.61800 22.73900
H  47.34200 25.15200 21.95500
H  47.87500 26.82800 22.61900
H  45.99300 25.23300 24.22500
H  45.34600 25.69000 22.71400
H  45.82100 27.00400 23.84400
H  48.93000 30.28800 27.11600
H  49.93500 29.41600 25.93000
H  50.47200 29.76400 27.56100
H  47.22500 28.11300 31.71800
H  50.39000 27.69000 34.72000
H  48.93700 27.63600 35.54500
H  49.68100 29.24200 35.23500
Mg 35.80700 49.00800 24.65300
C  35.60400 47.23900 27.85100
C  34.31900 51.68700 26.17100
C  35.22000 50.19100 21.58700
C  36.64400 45.84700 23.21600
N  35.19600 49.45800 26.77600
C  35.16400 48.58700 27.91400
C  34.83300 49.31200 29.19500
C  34.22500 50.68100 28.56200
C  34.60700 50.64400 27.06800
C  32.71200 50.95600 28.70000
C  35.97100 49.47600 30.17900
C  35.92700 48.80600 31.56300
H  34.88800 49.48000 32.50400
N  34.94200 50.79800 23.99000
C  34.43900 51.78000 24.75100
C  34.04200 52.93500 23.87200
C  34.28900 52.49700 22.52900
C  34.92400 51.13000 22.62200
C  33.55900 54.22900 24.39600
C  33.97200 53.26900 21.19100
O  34.27400 52.88300 20.07000
C  33.32100 54.62900 21.23800
N  35.77700 47.98500 22.67300
C  35.58400 48.78700 21.57100
C  35.82700 48.01600 20.28700
C  36.50700 46.70200 20.82500
C  36.25700 46.80100 22.34600
C  34.57200 47.72100 19.33000
C  37.93800 46.35300 20.39600
C  39.15300 46.85000 21.29200
N  36.11700 47.01100 25.33300
C  36.51400 45.81700 24.63200
C  36.85300 44.77500 25.55400
C  36.42000 45.25800 26.77800
C  36.01400 46.61500 26.64500
C  37.45500 43.47600 25.25600
C  36.30500 44.88900 28.19100
O  36.47100 43.81300 28.72100
C  35.82400 46.19700 28.90800
C  34.63400 45.82400 29.70100
O  33.45900 46.09900 29.46500
O  35.05500 45.15800 30.78400
C  34.09900 44.77300 31.67100
H  33.94900 52.56800 26.69800
H  35.12800 50.66200 20.60600
H  36.93600 44.87000 22.82700
H  34.10200 48.66200 29.67700
H  34.72000 51.54000 29.01500
H  32.26800 50.13400 29.26100
H  32.35600 51.13000 27.68500
H  32.53900 51.94700 29.12000
H  36.10100 50.55300 30.29100
H  36.89400 49.19900 29.67100
H  36.93600 48.82300 31.97500
H  35.60300 47.77800 31.39600
H  34.18500 55.09800 24.19400
H  33.49200 54.19100 25.48300
H  32.63300 54.60600 23.96100
H  32.29300 54.45300 21.55500
H  33.35400 55.08000 20.24600
H  33.77600 55.45100 21.79100
H  36.48800 48.54700 19.60200
H  35.89500 45.87300 20.47200
H  34.58000 46.70800 18.92800
H  34.46400 48.48400 18.55900
H  33.63200 47.87300 19.86000
H  38.18000 46.67300 19.38300
H  38.02000 45.26700 20.35900
H  38.93400 47.03000 22.34500
H  39.44500 47.83400 20.92600
H  39.93100 46.08600 21.29600
H  38.26300 43.66700 24.55000
H  36.74500 42.93900 24.62700
H  37.78800 42.98600 26.17100
H  36.62700 46.48800 29.58500
H  33.35000 44.18600 31.14100
H  33.65100 45.68600 32.06300
H  34.57200 44.25300 32.50400

