158

Mg 8.70200 3.21000 27.47200
C  10.19400 1.72300 30.15500
C  6.76800 5.08300 29.61600
C  7.36600 4.58300 24.81300
C  10.32200 0.82500 25.48600
N  8.41400 3.25800 29.67500
C  9.31600 2.70000 30.61100
C  9.06900 3.28900 32.00600
C  7.85400 4.28200 31.80000
C  7.66200 4.25600 30.24800
C  6.60100 4.08400 32.62300
C  10.32200 3.89100 32.68300
C  10.15500 4.47700 34.09500
H  11.16300 4.11200 35.15600
N  7.29700 4.59200 27.28400
C  6.61200 5.35100 28.22300
C  5.75900 6.27800 27.64900
C  5.80500 6.09900 26.22800
C  6.87000 5.06000 26.05100
C  4.90700 7.23000 28.49800
C  5.02800 6.74200 25.13800
O  5.06500 6.40000 23.96200
C  4.06900 7.88800 25.40400
N  8.91400 2.78100 25.42800
C  8.32800 3.58000 24.54200
C  8.74100 3.24400 23.05900
C  9.66700 1.95200 23.24800
C  9.68600 1.86400 24.79100
C  7.49900 3.11900 22.11000
C  11.16600 2.04500 22.57400
C  11.55300 0.88500 21.54100
N  9.92600 1.50000 27.68300
C  10.52100 0.66200 26.77300
C  11.46600 -0.16700 27.49200
C  11.34600 0.20800 28.82600
C  10.35100 1.20400 28.86800
C  12.43100 -1.22800 26.88700
C  11.75400 -0.11700 30.17600
O  12.56800 -0.86600 30.58700
C  11.13100 0.91500 31.01700
C  10.52600 0.29300 32.22800
O  9.41100 -0.16000 32.34300
O  11.36200 0.44000 33.29200
C  10.84300 0.04500 34.61700
H  6.44000 5.80700 30.36400
H  6.89600 5.02200 23.93000
H  10.80200 0.14000 24.78400
H  8.67700 2.44100 32.56700
H  8.17300 5.30100 32.02100
H  6.42800 4.89400 33.33200
H  6.65500 3.22400 33.29000
H  5.72200 4.06400 31.97900
H  10.65500 4.69200 32.02300
H  11.15200 3.18900 32.59900
H  9.14100 4.44400 34.49300
H  10.32900 5.54400 33.96000
H  5.04500 7.14900 29.57600
H  3.83700 7.05400 28.39000
H  5.24000 8.24000 28.25900
H  4.59400 8.67800 25.94100
H  3.25400 7.58700 26.06300
H  3.54100 8.22200 24.51100
H  9.29300 4.16200 22.85800
H  9.18100 1.04500 22.88900
H  7.16500 2.09800 22.29400
H  7.82400 3.29500 21.08400
H  6.60900 3.67900 22.39900
H  11.92800 2.12200 23.34900
H  11.04700 2.96100 21.99600
H  12.17100 0.14600 22.05300
H  12.02600 1.35900 20.68100
H  10.61700 0.41400 21.24200
H  11.86000 -1.50900 26.00200
H  12.55000 -1.97800 27.66900
H  13.45500 -0.93100 26.65800
H  11.93200 1.51000 31.45600
H  10.69400 0.92100 35.24800
H  11.75700 -0.42900 34.97400
H  9.97800 -0.61400 34.69300
Mg 6.08300 53.70500 41.61200
C  5.81500 50.26600 41.26700
C  9.23200 53.64800 40.10100
C  6.23600 57.11600 41.80400
C  2.72700 53.91600 42.61400
N  7.29400 52.10400 40.75200
C  7.03700 50.73700 40.72200
C  8.16000 49.95600 39.92500
C  9.29300 51.04300 39.97800
C  8.58100 52.36800 40.26900
C  10.39800 50.78900 41.04200
C  7.88900 49.29300 38.55800
C  6.81800 50.06000 37.69100
H  7.35200 50.39400 36.26300
N  7.58000 55.18200 41.07600
C  8.71100 54.94000 40.43400
C  9.44700 56.24500 40.26400
C  8.69000 57.26400 40.91800
C  7.42200 56.55300 41.25200
C  10.81300 56.36800 39.51500
C  9.06700 58.79300 41.14200
O  10.10100 59.17300 40.68300
C  8.16800 59.81500 41.84500
N  4.66600 55.27900 41.94600
C  4.95100 56.58500 42.01400
C  3.72900 57.48300 42.30300
C  2.65400 56.43700 42.55700
C  3.35300 55.10800 42.26000
C  3.98000 58.47700 43.51700
C  1.39800 56.63000 41.61800
C  0.65800 57.95100 41.57100
N  4.61600 52.35500 41.93800
C  3.30200 52.57500 42.47900
C  2.70800 51.33100 42.76000
C  3.68900 50.41600 42.35600
C  4.82800 51.08100 41.85100
C  1.27300 51.14100 43.31000
C  3.95900 49.00000 42.25000
O  3.19700 48.08500 42.54900
C  5.36400 48.86300 41.58100
C  5.08800 48.15300 40.36300
O  4.44300 48.55700 39.42900
O  5.73300 47.02400 40.49700
C  5.40600 46.01300 39.41700
H  10.22100 53.64200 39.63900
H  6.30200 58.20500 41.76000
H  1.68300 53.94900 42.93000
H  8.32100 49.18700 40.68100
H  9.69300 50.93900 38.97000
H  10.11500 49.93800 41.66200
H  10.49600 51.69100 41.64600
H  11.38500 50.59300 40.62200
H  7.87200 48.21800 38.73600
H  8.82000 49.39200 38.00000
H  6.33100 50.92400 38.14300
H  6.01600 49.33100 37.57800
H  11.29700 57.33600 39.65200
H  10.68000 56.18300 38.44900
H  11.37200 55.51500 39.90000
H  7.27500 60.16600 41.32700
H  8.86000 60.64500 41.98200
H  7.88200 59.47100 42.83900
H  3.54200 57.90200 41.31500
H  2.18000 56.49400 43.53700
H  5.02600 58.45500 43.82100
H  3.29400 58.20700 44.32000
H  3.80300 59.53300 43.31100
H  0.66000 55.86600 41.86200
H  1.81300 56.52000 40.61700
H  0.70800 58.19900 40.51100
H  1.11700 58.73700 42.17100
H  -0.40100 57.86500 41.81200
H  1.10900 51.89600 44.07900
H  1.11800 50.11800 43.65300
H  0.69200 51.29700 42.40200
H  6.04700 48.27200 42.19100
H  6.05400 46.14500 38.55000
H  4.36800 45.94500 39.09200
H  5.64400 45.04500 39.85600

