158

Mg 2.61100 -1.32000 43.59100
C  5.97400 -0.46100 43.19300
C  1.86400 1.59600 41.81300
C  -0.41400 -2.54100 43.05700
C  3.71600 -4.49700 44.73300
N  3.78700 0.34300 42.71100
C  5.10900 0.47400 42.67900
C  5.55000 1.67500 41.78200
C  4.26800 2.45200 41.52500
C  3.22300 1.39300 42.02600
C  4.17600 3.83000 42.16500
C  6.15700 1.14000 40.45500
C  6.88100 2.23500 39.63300
H  6.24700 2.73200 38.42000
N  0.94600 -0.47200 42.82600
C  0.82700 0.79100 42.25500
C  -0.51100 1.12600 42.10500
C  -1.24300 -0.01100 42.50100
C  -0.29300 -1.10800 42.79700
C  -1.01700 2.44400 41.62300
C  -2.77500 -0.21100 42.61900
O  -3.58600 0.64300 42.23300
C  -3.42700 -1.37400 43.21900
N  1.87200 -3.39000 43.56000
C  0.48100 -3.50200 43.45000
C  0.18000 -5.03700 43.72000
C  1.56300 -5.65600 44.29500
C  2.41100 -4.44100 44.21800
C  -1.06200 -5.36800 44.69200
C  2.19700 -6.80300 43.43800
C  2.81300 -7.93000 44.30800
N  4.40600 -2.21100 44.16400
C  4.66300 -3.47000 44.57000
C  6.09500 -3.53200 44.87000
C  6.67200 -2.38500 44.39700
C  5.61300 -1.62800 43.87000
C  6.82500 -4.64900 45.52400
C  7.93300 -1.57600 44.21800
O  9.09500 -1.70200 44.62900
C  7.44500 -0.28900 43.40200
C  7.80300 0.83600 44.25000
O  7.17700 1.15900 45.22500
O  8.92900 1.48600 43.81400
C  9.37000 2.73200 44.56400
H  1.63800 2.55300 41.33600
H  -1.42100 -2.96100 43.04200
H  4.16600 -5.44100 45.04500
H  6.29300 2.24100 42.34500
H  4.01000 2.65800 40.48600
H  5.04500 4.06800 42.77900
H  3.27900 3.91500 42.77800
H  4.04400 4.56200 41.36800
H  5.37000 0.75900 39.80400
H  6.83900 0.30300 40.59800
H  7.82600 1.76200 39.36800
H  7.14900 3.06900 40.28100
H  -0.62200 2.56500 40.61400
H  -0.62800 3.10300 42.39900
H  -2.10400 2.42800 41.69700
H  -4.49900 -1.20000 43.30600
H  -3.17100 -1.66400 44.23800
H  -3.19100 -2.18800 42.53500
H  -0.02800 -5.27800 42.67700
H  1.47700 -5.98200 45.33200
H  -1.33000 -4.61700 45.43600
H  -0.95700 -6.30100 45.24500
H  -1.84200 -5.53000 43.94800
H  3.00200 -6.50200 42.76800
H  1.37400 -7.20000 42.84500
H  3.84300 -8.20500 44.07900
H  2.14600 -8.78800 44.23200
H  2.70700 -7.69600 45.36800
H  6.99900 -5.49800 44.86400
H  6.34500 -5.03500 46.42400
H  7.85200 -4.30900 45.65900
H  7.96000 -0.23800 42.44200
H  10.41700 2.64200 44.85500
H  9.00300 2.78800 45.58800
H  9.29100 3.70000 44.07100
Mg 8.92400 48.86300 26.68500
C  6.44700 48.45600 29.17900
C  11.20100 49.52600 29.07800
C  10.99600 49.11000 24.22000
C  6.29900 48.12400 24.29200
N  8.81000 48.98200 28.92200
C  7.75500 48.78100 29.70900
C  8.06500 49.04200 31.21800
C  9.47000 49.64600 31.15400
C  9.91700 49.32200 29.64300
C  9.60800 51.19000 31.42300
C  7.89500 47.87900 32.20000
C  8.82700 47.85900 33.46100
H  8.40600 47.25700 34.84000
N  10.81200 49.23600 26.63100
C  11.63800 49.52600 27.72300
C  12.97200 49.60700 27.28500
C  13.00000 49.41600 25.87700
C  11.56500 49.26900 25.50500
C  14.16200 49.81400 28.16300
C  14.16600 49.42400 24.87200
O  14.04000 49.36000 23.66400
C  15.52600 49.43400 25.36500
N  8.63000 48.86600 24.57800
C  9.71200 48.91000 23.79500
C  9.39700 48.54000 22.29900
C  7.94500 48.04300 22.38200
C  7.58200 48.36900 23.83100
C  9.74100 49.47300 21.12400
C  7.77400 46.49900 22.12200
C  7.14300 46.05200 20.79000
N  6.77900 48.52000 26.66000
C  5.91000 48.13100 25.62700
C  4.60900 47.97100 26.20600
C  4.73800 48.09800 27.53300
C  6.06700 48.37300 27.81700
C  3.39600 47.50700 25.53200
C  4.05600 48.06700 28.75700
O  2.85300 48.01400 29.01900
C  5.09200 48.35300 29.90000
C  5.09400 47.24400 30.87300
O  5.65600 46.14000 30.75700
O  4.37300 47.66700 32.00100
C  4.29300 46.67100 33.11000
H  11.97600 49.60000 29.84400
H  11.64100 49.11400 23.33900
H  5.68800 47.81800 23.44000
H  7.30300 49.76500 31.51000
H  10.20500 49.11200 31.75600
H  8.64300 51.61900 31.69400
H  9.97300 51.69100 30.52600
H  10.32900 51.26300 32.23800
H  8.15700 46.99300 31.62300
H  6.84600 47.91400 32.49500
H  9.06000 48.88800 33.73300
H  9.78700 47.39500 33.23200
H  13.97900 49.93800 29.23000
H  14.78000 50.64900 27.83400
H  14.81900 48.96700 27.96100
H  15.79500 50.16900 26.12400
H  16.12700 49.77200 24.52000
H  15.81200 48.44300 25.71600
H  10.07900 47.69600 22.20100
H  7.21100 48.65800 21.86100
H  10.49500 48.94900 20.53800
H  10.02100 50.43700 21.55000
H  8.82600 49.66600 20.56400
H  7.26000 46.09400 22.99500
H  8.78100 46.12300 21.94300
H  6.06400 45.95100 20.90200
H  7.50600 45.06800 20.49300
H  7.36400 46.62800 19.89200
H  3.07300 46.63000 26.09300
H  3.73700 47.37900 24.50500
H  2.67200 48.31500 25.63400
H  4.82600 49.25500 30.45200
H  4.62600 47.18500 34.01100
H  4.97700 45.82400 33.04800
H  3.32100 46.19600 33.24200

