158

Mg 0.91600 43.03900 26.42000
C  2.97300 43.22800 29.11700
C  -1.77600 42.57400 28.82700
C  -1.38000 42.42600 23.95800
C  3.47600 43.35300 24.20500
N  0.65500 42.70800 28.70800
C  1.70900 42.91000 29.61300
C  1.26500 42.71700 31.00500
C  -0.20900 42.24500 30.78400
C  -0.51000 42.52200 29.30900
C  -0.51600 40.75900 31.21900
C  1.33100 44.10000 31.71200
C  1.14200 44.25300 33.19700
H  0.91900 42.93600 34.01200
N  -1.33000 42.61300 26.37400
C  -2.19100 42.57500 27.45800
C  -3.55300 42.27800 26.99700
C  -3.42000 42.17900 25.54900
C  -1.97500 42.44000 25.21600
C  -4.75600 42.12400 27.94000
C  -4.44800 41.69700 24.61500
O  -4.19700 41.39900 23.46800
C  -5.84400 41.59000 25.14200
N  1.06500 42.67700 24.48400
C  -0.00500 42.46700 23.64800
C  0.44200 42.50800 22.16600
C  1.89800 43.03100 22.21000
C  2.18300 43.07100 23.70300
C  0.30700 41.13100 21.44700
C  2.03100 44.41900 21.52500
C  1.94800 45.68800 22.39900
N  2.81700 43.29600 26.54200
C  3.82500 43.48300 25.61600
C  5.13600 43.71000 26.27500
C  4.82000 43.63900 27.60000
C  3.41300 43.36900 27.74700
C  6.58100 43.77600 25.69700
C  5.33500 43.79600 28.96300
O  6.43900 44.12300 29.33300
C  4.23900 43.45000 29.90900
C  4.64100 42.18600 30.54600
O  4.63700 41.10200 30.11100
O  5.00300 42.52000 31.81700
C  5.71800 41.54900 32.68300
H  -2.63500 42.36600 29.46900
H  -2.05800 42.37500 23.10300
H  4.39600 43.61400 23.67900
H  1.89900 41.95600 31.46000
H  -0.87400 42.86100 31.38900
H  -1.10700 40.28900 30.43300
H  -0.96700 40.75000 32.21100
H  0.36100 40.18000 31.50800
H  0.50700 44.71600 31.34900
H  2.28200 44.55600 31.43900
H  0.33900 44.92000 33.51000
H  2.11100 44.58200 33.57300
H  -5.45000 42.91000 27.63900
H  -4.48000 42.26500 28.98500
H  -5.18500 41.12800 27.82900
H  -5.98000 40.65500 25.68500
H  -6.46300 41.55000 24.24600
H  -6.16000 42.48200 25.68300
H  -0.34300 43.15100 21.76800
H  2.52400 42.27400 21.73800
H  1.24700 40.62000 21.23800
H  -0.27200 41.13800 20.52300
H  -0.29300 40.40400 21.99400
H  1.25400 44.45600 20.76100
H  2.95200 44.33400 20.94900
H  1.27100 46.37200 21.88700
H  2.95700 46.08800 22.49400
H  1.67000 45.63200 23.45100
H  7.18000 43.16400 26.37100
H  6.89800 44.81800 25.75100
H  6.58100 43.37100 24.68600
H  4.10700 44.31300 30.56200
H  6.60400 42.02300 33.10500
H  6.11300 40.71500 32.10300
H  5.11300 41.05000 33.44100
Mg -5.29600 25.60100 24.83400
C  -3.93300 27.19100 27.72300
C  -6.84600 23.47300 26.96800
C  -6.46600 23.91200 22.12800
C  -3.56500 27.81000 22.82800
N  -5.23200 25.30200 27.10600
C  -4.71900 26.16000 28.05300
C  -5.02400 25.63500 29.47400
C  -5.71500 24.23000 29.21000
C  -6.02100 24.34000 27.64800
C  -4.97000 22.92400 29.61700
C  -5.94800 26.76400 30.22500
C  -6.13500 26.62100 31.72600
H  -5.21500 25.59000 32.44600
N  -6.52500 24.00500 24.59100
C  -7.11400 23.24700 25.61900
C  -7.97300 22.23400 25.01900
C  -7.80100 22.24200 23.56400
C  -6.85000 23.35500 23.36500
C  -8.83200 21.37500 25.88100
C  -8.51200 21.37100 22.52200
O  -8.41200 21.56200 21.35900
C  -9.35600 20.25100 22.97000
N  -4.94700 25.73500 22.71000
C  -5.61500 24.96800 21.75900
C  -5.11000 25.32700 20.32600
C  -4.44800 26.75100 20.60800
C  -4.31400 26.79700 22.13700
C  -4.21900 24.29200 19.61800
C  -5.09400 28.01800 20.04000
C  -6.41500 28.48300 20.62000
N  -3.96400 27.18500 25.13600
C  -3.44500 28.01800 24.23000
C  -2.70700 29.06500 24.99600
C  -2.87700 28.73500 26.28800
C  -3.65400 27.58900 26.39300
C  -1.94100 30.23500 24.44500
C  -2.54600 29.14100 27.58200
O  -1.88400 30.07100 27.94900
C  -3.24300 28.12900 28.59900
C  -2.19100 27.47400 29.42900
O  -1.16400 26.89800 28.97800
O  -2.39200 27.58700 30.79600
C  -1.36000 27.35100 31.79600
H  -7.35400 22.76500 27.62600
H  -7.04700 23.60600 21.25500
H  -3.17200 28.63600 22.23200
H  -4.08800 25.44400 29.99900
H  -6.65200 24.25800 29.76700
H  -4.18700 23.08400 30.35900
H  -4.49800 22.54300 28.71200
H  -5.51900 22.06500 30.00300
H  -6.94300 26.48900 29.87400
H  -5.68300 27.81000 30.06800
H  -7.10700 26.18500 31.96000
H  -6.09600 27.59200 32.22000
H  -9.83700 21.08800 25.57200
H  -9.04800 21.85900 26.83400
H  -8.41700 20.38400 26.06700
H  -8.83400 19.49600 23.55800
H  -9.63000 19.84400 21.99600
H  -10.25200 20.70800 23.38800
H  -6.02400 25.40400 19.73800
H  -3.37800 26.81200 20.40500
H  -3.81300 23.65000 20.39900
H  -3.35300 24.86600 19.28900
H  -4.61300 23.69400 18.79500
H  -5.20800 27.78400 18.98100
H  -4.36300 28.82500 20.09800
H  -6.84200 27.78900 21.34400
H  -7.11300 28.58000 19.78800
H  -6.05200 29.45500 20.95500
H  -1.04400 30.02700 23.86200
H  -1.72500 30.91600 25.26800
H  -2.47300 30.79700 23.67800
H  -3.86800 28.74100 29.24900
H  -1.40200 28.09700 32.59000
H  -0.35200 27.15900 31.42800
H  -1.50900 26.31100 32.08600

