158

Mg 41.15100 9.34400 29.85300
C  42.74800 10.48100 32.78200
C  38.58000 8.20100 31.77200
C  39.80700 7.96800 27.07800
C  43.91800 10.38200 28.06500
N  40.70300 9.45400 32.06100
C  41.49400 9.94100 33.02900
C  40.74900 9.77600 34.40300
C  39.50600 8.89500 34.11000
C  39.59200 8.76100 32.56200
C  39.42500 7.59800 34.91000
C  40.49400 11.15700 35.06700
C  40.02500 11.17200 36.55300
H  40.84300 12.07500 37.53600
N  39.34200 8.24400 29.48600
C  38.43200 7.95600 30.37900
C  37.30600 7.39700 29.72400
C  37.54200 7.35400 28.30600
C  38.96000 7.84100 28.20800
C  36.11600 6.83300 30.51100
C  36.66600 6.97900 27.13100
O  37.04300 7.20900 25.97100
C  35.26600 6.52200 27.35200
N  41.86900 9.21100 27.89800
C  41.10300 8.57900 26.92200
C  41.80900 8.55600 25.52900
C  43.11600 9.29500 25.88300
C  42.92000 9.70700 27.33900
C  42.07300 7.15500 24.85500
C  43.60500 10.40900 24.94100
C  42.95900 11.72000 25.08500
N  42.94800 10.32800 30.20500
C  43.97200 10.66000 29.35200
C  45.05300 11.20300 30.11500
C  44.67500 11.12400 31.47100
C  43.35000 10.63200 31.45000
C  46.48100 11.59900 29.61800
C  45.06700 11.38500 32.81800
O  46.05400 11.99800 33.25500
C  43.83400 10.95900 33.74500
C  44.33500 10.05500 34.75900
O  44.34500 8.86100 34.72400
O  44.82200 10.76900 35.89200
C  45.27100 9.91000 36.95200
H  37.73800 7.93200 32.41300
H  39.41600 7.50200 26.17100
H  44.88100 10.54900 27.57800
H  41.49600 9.24600 34.99500
H  38.53800 9.31800 34.38100
H  40.17900 7.51700 35.69300
H  39.64200 6.76500 34.24200
H  38.40600 7.38600 35.23500
H  39.82000 11.72200 34.42400
H  41.39900 11.73000 34.86600
H  39.91100 10.17000 36.96600
H  39.01700 11.58600 36.55400
H  35.18400 7.28300 30.16800
H  36.17300 7.08700 31.57000
H  35.87500 5.77600 30.40200
H  35.26300 5.77100 28.14200
H  34.93700 5.97200 26.47100
H  34.64400 7.40800 27.48100
H  41.17400 9.26500 24.99700
H  43.99100 8.64500 25.90900
H  41.73700 6.45800 25.62300
H  43.13200 6.99300 24.65400
H  41.41400 7.00600 23.99900
H  43.41400 9.91400 23.98800
H  44.66500 10.64500 25.03500
H  42.24300 11.63400 25.90200
H  42.36900 11.97100 24.20400
H  43.64500 12.54500 25.27900
H  46.54100 12.61700 29.23300
H  46.88800 10.89200 28.89500
H  47.04600 11.71000 30.54400
H  43.47000 11.90000 34.15800
H  45.99700 10.56900 37.42900
H  45.84100 9.03500 36.63900
H  44.54000 9.57800 37.68900
Mg 0.36400 43.89000 26.16800
C  2.34200 43.91300 29.18500
C  -2.34400 43.46300 28.14800
C  -1.46200 43.24500 23.36300
C  3.29500 43.77300 24.39800
N  0.04700 43.75300 28.44700
C  1.00900 43.79800 29.46000
C  0.25800 43.74800 30.85000
C  -1.22700 43.32400 30.53500
C  -1.15400 43.54200 28.97600
C  -1.69300 41.91400 30.84900
C  0.46200 45.03300 31.72400
C  0.75400 44.90900 33.20000
H  0.39200 43.60800 33.89400
N  -1.64200 43.70000 25.84500
C  -2.60800 43.55600 26.81600
C  -3.91600 43.51400 26.26200
C  -3.65800 43.42000 24.90000
C  -2.21100 43.49300 24.64100
C  -5.22000 43.55900 27.12000
C  -4.71200 43.36400 23.81800
O  -4.37600 43.37100 22.60900
C  -6.12900 43.46000 24.10200
N  0.79200 43.35300 24.19200
C  -0.07600 43.19100 23.16200
C  0.62400 43.18200 21.80100
C  2.15500 43.44700 22.14500
C  2.11800 43.57700 23.69600
C  0.36100 41.79300 21.12800
C  2.81400 44.61600 21.46100
C  2.43600 46.00300 21.95300
N  2.37800 43.85300 26.63100
C  3.48600 43.82800 25.77400
C  4.74100 43.87400 26.49500
C  4.32000 44.01000 27.86900
C  2.87700 43.89300 27.86300
C  6.20400 43.89900 25.86700
C  4.79800 44.23400 29.28100
O  5.95000 44.33700 29.67800
C  3.50800 43.99600 30.14800
C  3.73100 42.79900 31.03200
O  4.04300 41.70600 30.62400
O  3.75000 43.17700 32.32200
C  4.19400 42.25000 33.34100
H  -3.11600 43.24900 28.89000
H  -2.05300 43.07700 22.46100
H  4.28500 43.72600 23.94000
H  0.72500 42.91400 31.37400
H  -1.91200 43.96600 31.08900
H  -2.57500 41.85900 31.48700
H  -0.95200 41.47800 31.51800
H  -1.77600 41.32600 29.93500
H  -0.34800 45.75400 31.61400
H  1.25700 45.60000 31.23900
H  0.18900 45.67800 33.72800
H  1.80100 45.20500 33.26200
H  -5.69900 42.58300 27.19900
H  -5.93600 44.26800 26.70500
H  -5.05700 44.00200 28.10200
H  -6.37800 42.55900 24.66200
H  -6.41700 43.70300 23.07900
H  -6.28600 44.40200 24.62800
H  0.25200 44.03400 21.23100
H  2.72700 42.59700 21.77300
H  1.31500 41.32000 20.89300
H  -0.10800 41.96600 20.15900
H  -0.15000 41.11500 21.81100
H  2.48100 44.52000 20.42700
H  3.89200 44.45900 21.42300
H  2.18200 46.71400 21.16700
H  3.34900 46.53600 22.22100
H  1.67300 46.00700 22.73100
H  6.91200 44.42700 26.50700
H  6.10300 44.26600 24.84600
H  6.50300 42.85300 25.92600
H  3.46800 44.80900 30.87300
H  3.39300 41.52800 33.49700
H  4.32100 42.85700 34.23800
H  5.17100 41.93100 32.97800

