158

Mg 44.55800 4.92600 46.25700
C  42.61600 7.85500 46.05100
C  41.52700 3.18100 45.72900
C  46.32400 2.24900 45.45300
C  47.45100 6.94800 45.80500
N  42.36400 5.43700 45.85500
C  41.86800 6.70600 45.85300
C  40.37000 6.69400 45.84900
C  39.96600 5.20500 45.83000
C  41.35900 4.52800 45.81700
C  39.09900 4.71700 47.01100
C  39.69100 7.58700 44.77500
C  40.43100 7.97400 43.48700
H  39.79400 7.71700 42.07100
N  43.93100 2.96900 45.87900
C  42.66900 2.41700 45.79400
C  42.77100 0.96600 45.72600
C  44.19900 0.65500 45.69800
C  44.93000 1.97000 45.64800
C  41.52300 0.04900 45.68900
C  44.74600 -0.77900 45.64700
O  43.99900 -1.73600 45.77600
C  46.18000 -1.13300 45.39800
N  46.62800 4.59100 45.67500
C  47.14700 3.37900 45.47100
C  48.66300 3.41200 45.22900
C  48.98200 4.87000 45.37600
C  47.63000 5.50900 45.65000
C  49.54800 2.35900 45.97200
C  49.75300 5.57200 44.27300
C  51.14200 5.99300 44.65700
N  45.00700 6.99600 46.17800
C  46.27900 7.62200 46.02000
C  46.04100 9.01000 46.12200
C  44.65400 9.11000 46.23800
C  44.03500 7.86800 46.12700
C  47.00600 10.17600 46.13900
C  43.50700 10.11800 46.32500
O  43.53800 11.36200 46.45700
C  42.19100 9.26500 46.23500
C  41.38300 9.37000 47.51500
O  41.49400 8.55600 48.42700
O  40.59500 10.51800 47.55600
C  39.81600 10.74600 48.73600
H  40.65300 2.58200 45.46400
H  47.05000 1.45100 45.28200
H  48.34300 7.57700 45.77600
H  40.10000 7.19600 46.77800
H  39.38800 4.88800 44.96200
H  39.54000 3.82900 47.46400
H  38.07200 4.61900 46.65700
H  38.97100 5.48500 47.77500
H  39.34800 8.50500 45.25000
H  38.73000 7.16300 44.48500
H  41.33900 7.37000 43.49100
H  40.58500 9.05400 43.49600
H  41.70400 -0.80100 45.03200
H  40.60000 0.53800 45.37700
H  41.36900 -0.44400 46.64900
H  46.27100 -2.21800 45.44700
H  46.63000 -0.75100 46.31500
H  46.56000 -0.77600 44.44100
H  48.71600 3.14700 44.17300
H  49.52200 5.02700 46.30900
H  48.95100 1.50400 46.29200
H  50.12400 2.84100 46.76200
H  50.28600 1.91200 45.30700
H  49.24800 6.37900 43.74100
H  49.92700 4.86500 43.46200
H  51.15200 6.38300 45.67600
H  51.52500 6.76600 43.99200
H  51.91300 5.22400 44.64300
H  47.79500 10.03500 46.87800
H  46.46200 11.11000 46.27900
H  47.47200 10.18200 45.15400
H  41.48600 9.54800 45.45300
H  39.22800 11.65800 48.64000
H  40.47300 10.87000 49.59700
H  39.08200 9.95500 48.88800
Mg 26.51600 50.15300 26.17300
C  24.59800 51.34600 28.78500
C  28.75800 49.19500 28.59000
C  28.61500 49.30300 23.69400
C  24.18400 51.25000 23.86800
N  26.51400 50.12300 28.46800
C  25.63300 50.60700 29.34600
C  26.01400 50.43000 30.75500
C  27.59600 49.94800 30.65100
C  27.65400 49.79600 29.15000
C  28.83100 50.90700 31.21300
C  25.03300 49.40600 31.44000
C  24.43300 49.56600 32.81900
H  25.19600 50.25600 33.97900
N  28.40900 49.26900 26.12900
C  29.20600 48.88400 27.22600
C  30.42800 48.20600 26.71800
C  30.41000 48.42000 25.35200
C  29.10800 49.11300 24.93100
C  31.39600 47.41700 27.66200
C  31.60100 48.09900 24.42400
O  31.57200 48.47500 23.25800
C  32.86200 47.43700 24.87000
N  26.53100 50.38600 24.07100
C  27.42500 49.85900 23.20600
C  27.04600 49.96400 21.67900
C  25.57900 50.66200 21.87000
C  25.38500 50.68900 23.35900
C  28.03400 50.82000 20.90200
C  24.45500 49.87500 21.13400
C  24.13500 50.32900 19.76900
N  24.79700 51.18000 26.25800
C  23.86300 51.46100 25.28500
C  22.69000 52.20000 25.85300
C  22.91600 52.10300 27.24000
C  24.20700 51.53000 27.47200
C  21.52800 52.79300 25.14600
C  22.40300 52.50900 28.52300
O  21.39600 53.14900 28.80100
C  23.46100 51.92900 29.64600
C  23.90700 53.11000 30.47900
O  24.70900 53.92600 30.13500
O  23.33500 53.08700 31.68100
C  23.67400 54.18700 32.63900
H  29.48900 48.80600 29.30200
H  29.25400 48.87900 22.91600
H  23.48700 51.61400 23.11100
H  26.08500 51.39100 31.26600
H  27.61700 48.91800 31.00800
H  28.37800 51.60800 31.91300
H  29.41400 51.34800 30.40400
H  29.46200 50.13600 31.65500
H  25.45700 48.40800 31.32100
H  24.14600 49.30500 30.81400
H  24.29200 48.53300 33.13500
H  23.45300 50.04100 32.76800
H  31.47200 46.36400 27.39300
H  31.09100 47.42200 28.70800
H  32.35100 47.94300 27.66800
H  33.35100 48.11200 25.57300
H  33.47500 47.22000 23.99500
H  32.47000 46.50600 25.28000
H  26.92000 48.95200 21.29400
H  25.53700 51.69800 21.53100
H  28.86800 51.20200 21.49100
H  27.55400 51.65300 20.38800
H  28.37800 50.05300 20.20800
H  23.54200 50.02200 21.71000
H  24.70500 48.81400 21.11900
H  24.49700 49.62700 19.01800
H  24.76500 51.17900 19.50800
H  23.07800 50.56200 19.63700
H  20.59500 52.26200 25.33800
H  21.68000 52.66400 24.07400
H  21.45000 53.81700 25.51100
H  22.88700 51.20300 30.22200
H  24.01600 55.08000 32.11500
H  24.41700 53.74200 33.30100
H  22.83700 54.47900 33.27300

