158

Mg 0.49700 7.65900 26.45300
C  1.39000 9.93300 29.09000
C  0.89000 5.13900 28.63200
C  0.37500 5.49100 23.83700
C  1.11500 10.32700 24.24500
N  0.90200 7.61100 28.70800
C  1.17200 8.60700 29.55300
C  1.33900 8.06000 30.95500
C  1.33900 6.50900 30.70400
C  1.07000 6.37000 29.22400
C  2.70400 5.77300 31.09400
C  0.34700 8.67600 32.03100
C  0.96000 9.18000 33.33500
H  2.15900 8.53400 33.86000
N  0.35400 5.65200 26.27700
C  0.51500 4.75100 27.31700
C  0.44600 3.44800 26.79600
C  0.33500 3.50500 25.38500
C  0.36900 4.92400 25.06700
C  0.33700 2.29600 27.81600
C  0.22200 2.41700 24.31800
O  -0.01000 2.64300 23.11100
C  0.50100 0.98900 24.69200
N  0.78000 7.87500 24.41400
C  0.57400 6.82100 23.52500
C  0.61900 7.34100 22.09600
C  0.54700 8.87800 22.25300
C  0.85800 9.05300 23.71900
C  1.97100 6.90100 21.42000
C  -0.85700 9.37400 21.84700
C  -0.78100 10.64600 20.97200
N  1.19000 9.71300 26.58700
C  1.38400 10.65900 25.59900
C  1.81200 11.95200 26.22500
C  1.79000 11.64800 27.55900
C  1.45700 10.29400 27.76500
C  1.82400 13.22100 25.51100
C  1.86400 12.32200 28.85000
O  2.18700 13.46600 29.00600
C  1.65700 11.15700 29.91100
C  2.95500 11.21500 30.75900
O  3.92500 10.49600 30.51100
O  2.72300 12.07500 31.84500
C  3.87500 12.28100 32.76200
H  1.08200 4.22700 29.20000
H  0.35200 4.79000 23.00100
H  1.24200 11.18600 23.58200
H  2.33400 8.38700 31.25700
H  0.57900 5.96400 31.26200
H  3.42400 6.37500 31.64800
H  3.22100 5.28200 30.27000
H  2.38300 4.96900 31.75600
H  -0.43100 7.95900 32.29700
H  -0.26000 9.39200 31.47600
H  0.19300 9.03400 34.09600
H  1.14200 10.24800 33.21600
H  0.14700 1.35500 27.30100
H  -0.47400 2.46800 28.52300
H  1.29300 2.24000 28.33700
H  -0.47400 0.63400 25.02800
H  1.28700 1.06500 25.44200
H  0.73800 0.39300 23.81000
H  -0.23400 6.90600 21.57600
H  1.33800 9.40600 21.72000
H  2.62300 7.74400 21.19200
H  1.77200 6.40100 20.47300
H  2.47200 6.20000 22.08800
H  -1.35900 9.67100 22.76800
H  -1.49600 8.64700 21.34600
H  -1.68800 10.84200 20.40000
H  0.09000 10.75500 20.32600
H  -0.69800 11.51200 21.62800
H  0.92800 13.43800 24.93000
H  2.61400 13.29100 24.76300
H  1.94600 14.01300 26.25000
H  0.77500 11.37500 30.51300
H  3.51800 12.89600 33.58800
H  4.65100 12.82200 32.21900
H  4.19400 11.35900 33.24700
Mg -4.83700 25.27200 26.21600
C  -2.99900 27.17200 28.37900
C  -5.61100 23.13100 28.90400
C  -6.64500 23.36500 24.07000
C  -3.55600 27.20600 23.52000
N  -4.58100 25.31200 28.40700
C  -3.80800 26.20900 29.07200
C  -3.85700 25.96100 30.59300
C  -4.51100 24.55100 30.71700
C  -4.88100 24.25400 29.24300
C  -3.60900 23.45700 31.35100
C  -4.72600 27.15700 31.23000
C  -4.58900 27.63700 32.68900
H  -4.11700 26.62000 33.67000
N  -5.90400 23.50700 26.47400
C  -6.15600 22.81400 27.64300
C  -6.94200 21.63100 27.34500
C  -7.44100 21.81200 26.00400
C  -6.65400 22.91500 25.46500
C  -7.37400 20.64000 28.42900
C  -8.48100 21.05100 25.26300
O  -8.91600 21.38200 24.14800
C  -9.16600 19.81600 25.90300
N  -5.10600 25.35400 24.10100
C  -5.88900 24.40600 23.48800
C  -5.78800 24.56400 22.02300
C  -4.91500 25.84900 21.81200
C  -4.44900 26.17700 23.25000
C  -5.25700 23.27600 21.31200
C  -5.59800 27.16800 21.30500
C  -4.76000 27.93700 20.30100
N  -3.48700 26.87300 25.91400
C  -3.07300 27.51100 24.80900
C  -1.98600 28.39200 25.25200
C  -1.92900 28.30900 26.60700
C  -2.82400 27.33500 26.99700
C  -1.24400 29.36600 24.35500
C  -1.37200 28.80700 27.81700
O  -0.55100 29.67300 27.95200
C  -2.02900 28.14200 28.97700
C  -1.03600 27.50100 29.81700
O  -0.05400 26.87600 29.36300
O  -1.32300 27.67600 31.16500
C  -0.21500 27.07500 31.96000
H  -5.73500 22.35200 29.65900
H  -7.15300 22.71700 23.35300
H  -3.19400 27.63500 22.58300
H  -2.84000 25.84100 30.96800
H  -5.44600 24.48800 31.27400
H  -3.93600 23.10800 32.33100
H  -2.59700 23.81400 31.54000
H  -3.63900 22.67600 30.59100
H  -5.78300 26.94800 31.06700
H  -4.30800 28.00300 30.68400
H  -5.60900 27.97100 32.88000
H  -3.83100 28.41500 32.60400
H  -7.26100 19.71900 27.85800
H  -8.40700 20.90900 28.65100
H  -6.86500 20.67900 29.39200
H  -9.50300 19.95900 26.93000
H  -8.38800 19.06500 25.76500
H  -10.04900 19.60300 25.30100
H  -6.79400 24.76300 21.65300
H  -4.03800 25.60700 21.21200
H  -4.82200 22.62600 22.07100
H  -4.44900 23.51600 20.62100
H  -6.05000 22.70300 20.83100
H  -5.74200 27.96500 22.03400
H  -6.48100 26.91400 20.71900
H  -4.65800 28.99400 20.54700
H  -5.45400 27.96600 19.46100
H  -3.80800 27.49600 20.00600
H  -1.67400 29.47700 23.35900
H  -0.18400 29.12700 24.27600
H  -1.28200 30.39900 24.70000
H  -2.43200 28.93100 29.61200
H  0.72300 27.47500 31.57600
H  -0.24600 25.98900 31.87700
H  -0.25300 27.46200 32.97900

