158

Mg 17.05700 -0.91200 28.68100
C  15.79000 0.99600 31.42200
C  18.73400 -2.77900 30.97000
C  18.35400 -2.43700 26.12700
C  15.32800 1.28100 26.52500
N  17.31100 -0.74500 30.96800
C  16.70800 0.06100 31.88100
C  17.06100 -0.36800 33.34000
C  18.10400 -1.49800 33.16800
C  18.08700 -1.68900 31.60400
C  19.54700 -1.18400 33.78300
C  15.75500 -0.80700 34.05000
C  15.46100 -0.16700 35.48700
H  16.61600 0.52200 36.21900
N  18.34600 -2.41600 28.57600
C  18.91500 -3.08500 29.59900
C  19.62500 -4.29200 29.03000
C  19.62900 -4.10200 27.62600
C  18.74800 -2.92600 27.39300
C  20.34200 -5.20200 29.96300
C  20.19800 -4.99400 26.59400
O  20.14100 -4.74800 25.39400
C  20.83100 -6.33000 27.00400
N  16.90600 -0.52200 26.63700
C  17.64000 -1.32900 25.74500
C  17.31600 -1.04800 24.25600
C  16.25500 0.14700 24.39000
C  16.15800 0.31700 25.92600
C  18.59000 -0.56400 23.50100
C  14.90700 -0.14100 23.68400
C  13.91900 -0.89200 24.50500
N  15.84000 0.79700 28.84400
C  15.16900 1.55300 27.88500
C  14.28600 2.47400 28.50300
C  14.52000 2.32700 29.88900
C  15.47200 1.31700 30.00300
C  13.36200 3.46300 27.77800
C  14.07400 2.76400 31.17800
O  13.32700 3.70700 31.40600
C  14.81900 1.84600 32.25400
C  15.53000 2.70700 33.34700
O  16.69200 3.08800 33.39000
O  14.54800 3.10400 34.26700
C  14.94500 4.20900 35.20500
H  19.20400 -3.40500 31.73200
H  18.72000 -2.86800 25.19300
H  14.43600 1.64500 26.00900
H  17.49600 0.48000 33.87100
H  17.75500 -2.36100 33.73600
H  19.52800 -0.39100 34.53000
H  20.26700 -0.88000 33.02300
H  20.03200 -2.03500 34.26100
H  15.79400 -1.87500 34.26500
H  14.86600 -0.67000 33.43400
H  15.17100 -1.01100 36.11300
H  14.58800 0.48200 35.40800
H  20.44100 -4.79900 30.97100
H  21.34700 -5.36300 29.57100
H  19.91100 -6.19800 30.06500
H  20.18900 -7.07600 27.47300
H  21.65400 -6.08000 27.67400
H  21.39600 -6.74700 26.17000
H  16.86100 -1.91500 23.77800
H  16.66500 1.11600 24.10600
H  18.36100 0.33900 22.93500
H  19.03000 -1.34000 22.87500
H  19.39500 -0.29900 24.18700
H  15.00100 -0.63300 22.71600
H  14.57000 0.87800 23.49300
H  14.47900 -1.21500 25.38200
H  13.49600 -1.72100 23.93700
H  13.10400 -0.20100 24.72100
H  13.88800 3.63200 26.83900
H  13.39000 4.39900 28.33500
H  12.34100 3.10100 27.65400
H  14.00300 1.32000 32.75000
H  14.07400 4.42000 35.82500
H  15.30000 5.09800 34.68500
H  15.84300 3.87700 35.72500
Mg 42.74700 41.92000 25.97000
C  41.83400 44.21300 28.43500
C  43.82700 39.82700 28.29700
C  43.43400 39.83500 23.44500
C  42.05600 44.42400 23.65400
N  42.74400 42.09200 28.15000
C  42.22900 42.99300 28.94100
C  42.37700 42.68800 30.43400
C  43.27900 41.39400 30.35200
C  43.26800 41.03000 28.86100
C  44.73400 41.64600 30.87200
C  41.01100 42.34300 31.14000
C  41.13400 41.86300 32.63000
H  40.36000 42.54900 33.76200
N  43.47100 40.06200 25.88400
C  43.86500 39.31000 26.93900
C  44.31600 38.02400 26.56600
C  44.07700 37.90000 25.13600
C  43.61500 39.29500 24.73100
C  44.73400 36.98000 27.60600
C  44.21200 36.74500 24.20900
O  44.08200 36.76000 22.95300
C  44.50100 35.37100 24.82600
N  42.77700 42.10700 23.81200
C  43.07600 41.11200 22.95600
C  42.85700 41.40200 21.44900
C  42.14800 42.80400 21.63700
C  42.36800 43.18500 23.09600
C  44.18000 41.33100 20.57700
C  40.67100 42.72200 21.17500
C  39.73600 41.71900 21.87000
N  42.25300 44.00900 25.97500
C  41.99300 44.83200 24.94000
C  41.48200 46.05400 25.39600
C  41.42800 45.89600 26.79000
C  41.80500 44.60400 27.09500
C  41.06700 47.24400 24.52500
C  41.00100 46.53800 28.06000
O  40.53700 47.60400 28.30900
C  41.24500 45.43700 29.17300
C  42.20800 45.96900 30.18600
O  43.41800 45.77600 30.29200
O  41.48600 46.67200 31.08400
C  41.80900 46.34200 32.44800
H  44.26000 39.20600 29.08400
H  43.60400 39.14300 22.61800
H  41.86700 45.12800 22.84000
H  42.76200 43.55500 30.97100
H  42.91600 40.61700 31.02500
H  44.90700 42.72200 30.89000
H  45.54100 41.26600 30.24600
H  44.83700 41.31500 31.90500
H  40.47300 41.55600 30.61100
H  40.48700 43.29700 31.17600
H  42.14800 41.74900 33.01300
H  40.71100 40.86600 32.50800
H  44.08000 36.11400 27.50500
H  44.62300 37.36200 28.62100
H  45.77800 36.66800 27.64500
H  45.20400 35.53600 25.64300
H  44.98200 34.70700 24.10700
H  43.55700 34.97300 25.19800
H  42.09300 40.72200 21.07300
H  42.66600 43.53700 21.01900
H  45.07000 41.15900 21.18100
H  44.33900 42.29200 20.08600
H  44.07600 40.68300 19.70600
H  40.71900 42.34600 20.15200
H  40.32200 43.75400 21.17100
H  38.94400 42.20600 22.44000
H  40.30000 41.03200 22.50100
H  39.30600 41.10500 21.07900
H  40.45000 46.93100 23.68400
H  42.00700 47.69300 24.20300
H  40.61700 47.98900 25.18100
H  40.28900 45.23500 29.65600
H  40.93500 45.80600 32.82000
H  41.86700 47.27600 33.00700
H  42.75700 45.81300 32.54200

