158

Mg -11.17400 37.17900 42.14100
C  -8.86900 34.62600 41.52200
C  -8.90700 39.45000 40.65700
C  -13.61300 39.47200 42.40800
C  -13.37700 34.75300 43.38100
N  -9.28000 36.96000 40.94000
C  -8.51700 35.82700 40.88600
C  -7.33900 36.04500 40.00400
C  -7.19200 37.64600 40.04400
C  -8.53600 38.05900 40.59700
C  -5.97100 38.05800 40.93700
C  -7.50600 35.34400 38.65900
C  -6.37700 34.35800 38.25700
H  -5.51300 34.83100 37.08100
N  -11.34600 39.18500 41.56300
C  -10.25800 39.95000 41.10000
C  -10.71400 41.32500 40.90000
C  -12.05600 41.36100 41.30000
C  -12.42300 39.97400 41.83700
C  -9.81000 42.33100 40.41800
C  -12.91800 42.57900 41.13100
O  -12.45000 43.56200 40.62600
C  -14.38000 42.66900 41.58400
N  -13.19600 37.15400 42.79100
C  -14.00700 38.26600 42.90600
C  -15.47100 37.94800 43.30100
C  -15.37200 36.33800 43.62900
C  -13.88800 36.02400 43.19900
C  -16.07200 38.93900 44.33000
C  -16.47900 35.48100 42.93800
C  -17.14700 34.29300 43.82100
N  -11.14900 35.07500 42.47400
C  -12.10400 34.26400 43.07100
C  -11.57100 32.96100 43.15500
C  -10.25400 33.02800 42.56500
C  -10.05700 34.33200 42.17300
C  -12.34000 31.74000 43.53100
C  -9.08400 32.25700 42.19100
O  -8.85000 31.06100 42.36600
C  -8.15400 33.34700 41.47600
C  -6.82500 33.27300 42.11600
O  -5.87900 32.59400 41.80800
O  -6.81100 34.15500 43.19300
C  -5.48300 34.50900 43.68300
H  -8.23900 40.20600 40.23900
H  -14.41700 40.21000 42.36500
H  -14.10300 34.13300 43.91100
H  -6.53900 35.47600 40.47800
H  -7.08500 37.98500 39.01300
H  -5.52400 38.91100 40.42600
H  -5.34100 37.17500 41.04400
H  -6.25300 38.39600 41.93400
H  -7.69600 36.09500 37.89200
H  -8.46700 34.83500 38.73600
H  -6.73100 33.36500 37.98100
H  -5.83300 34.18100 39.18500
H  -10.01800 42.52400 39.36600
H  -8.82800 41.95200 40.70100
H  -9.93000 43.30200 40.90000
H  -14.30200 42.40100 42.63700
H  -14.98000 41.89700 41.10200
H  -14.71500 43.69300 41.41300
H  -15.97700 38.01200 42.33800
H  -15.46200 36.26300 44.71200
H  -16.63500 39.68900 43.77500
H  -15.38000 39.47300 44.98100
H  -16.80000 38.54800 45.04100
H  -16.00800 35.03600 42.06100
H  -17.22500 36.08700 42.42500
H  -16.82700 33.34300 43.39300
H  -18.23700 34.31800 43.79000
H  -16.80500 34.17000 44.84900
H  -12.50900 31.21600 42.59000
H  -13.29300 32.03800 43.96800
H  -11.68700 31.24500 44.24900
H  -7.97400 32.98000 40.46500
H  -5.57800 35.14400 44.56500
H  -4.97700 35.21800 43.02800
H  -4.89200 33.64100 43.97700
Mg -12.30200 15.86400 42.07300
C  -9.17500 14.27000 41.65600
C  -11.21700 18.47200 40.07900
C  -15.34800 17.08800 42.10600
C  -13.35300 12.91200 43.76200
N  -10.37500 16.32200 41.00300
C  -9.23100 15.58200 40.98300
C  -8.10400 16.29700 40.26400
C  -8.86800 17.54400 39.62400
C  -10.25300 17.46500 40.28600
C  -8.09000 18.90900 39.95900
C  -7.28500 15.46000 39.20600
C  -5.79300 15.55800 39.34600
H  -4.95600 14.80200 38.38000
N  -13.14600 17.62700 41.34000
C  -12.51000 18.57400 40.57000
C  -13.41100 19.68600 40.33400
C  -14.70500 19.27200 40.81700
C  -14.45400 17.94800 41.45800
C  -12.91100 20.99000 39.66900
C  -15.94400 20.06500 40.68100
O  -15.91000 21.11400 40.02300
C  -17.18500 19.66500 41.16000
N  -14.19400 14.96800 42.66400
C  -15.25600 15.80500 42.70700
C  -16.42800 14.99900 43.27900
C  -15.74800 13.82400 44.01800
C  -14.34500 13.89200 43.47300
C  -17.39600 15.88400 44.08300
C  -16.55700 12.51500 43.74100
C  -17.11400 11.89800 45.07400
N  -11.51200 13.93200 42.60400
C  -12.07000 12.85600 43.24800
C  -11.03100 11.83500 43.49300
C  -9.90800 12.35900 42.97200
C  -10.23300 13.60000 42.31400
C  -11.30100 10.59700 44.30800
C  -8.50300 12.07900 42.64400
O  -7.75700 11.10200 42.94200
C  -7.98900 13.30100 41.75600
C  -6.93000 13.94400 42.48100
O  -7.13800 14.88200 43.26300
O  -5.73900 13.38200 42.10900
C  -4.53900 14.06100 42.62500
H  -10.92600 19.22600 39.34500
H  -16.38200 17.41700 42.22200
H  -13.66400 12.06500 44.37700
H  -7.51500 16.73100 41.07200
H  -9.00400 17.58800 38.54400
H  -8.51500 19.40900 40.82900
H  -8.13200 19.48500 39.03400
H  -7.03600 18.66700 40.09400
H  -7.62200 15.81400 38.23200
H  -7.66800 14.44000 39.15700
H  -5.53300 15.15100 40.32300
H  -5.48700 16.59000 39.51600
H  -11.84500 21.13600 39.84000
H  -13.37500 21.84400 40.16300
H  -13.19700 20.98400 38.61700
H  -17.50400 18.74100 40.67800
H  -17.84500 20.50300 40.93500
H  -17.11300 19.53200 42.23900
H  -16.99000 14.62400 42.42400
H  -15.71900 14.05700 45.08300
H  -17.59600 15.41200 45.04500
H  -18.28900 16.08400 43.49100
H  -17.05100 16.89000 44.32300
H  -15.81900 11.82400 43.33300
H  -17.36100 12.70700 43.03100
H  -18.16700 11.73700 44.84100
H  -17.01000 12.50000 45.97600
H  -16.67800 10.91800 45.26700
H  -11.80800 10.85900 45.23700
H  -10.34100 10.16600 44.59300
H  -11.94100 9.93000 43.73000
H  -7.50200 12.98900 40.83200
H  -3.74600 13.93200 41.88700
H  -4.22500 13.55900 43.54000
H  -4.49100 15.13600 42.79200

