158

Mg -2.00000 17.22700 26.89700
C  -2.12800 15.01800 29.70000
C  -2.66300 19.81400 29.03300
C  -2.42300 19.20600 24.12800
C  -2.34800 14.34900 24.74300
N  -2.19300 17.33800 29.14500
C  -2.29700 16.37800 30.06500
C  -2.63500 16.92600 31.43900
C  -3.22000 18.37200 31.08600
C  -2.62700 18.53600 29.68200
C  -4.78900 18.50800 31.25300
C  -1.45100 17.08500 32.42900
C  -1.77700 17.27900 33.97200
H  -0.79400 16.80100 34.98100
N  -2.18100 19.29400 26.58500
C  -2.42200 20.13300 27.65200
C  -2.48000 21.46800 27.07800
C  -2.36900 21.35700 25.64900
C  -2.34600 19.89700 25.38000
C  -2.64600 22.66300 27.95900
C  -2.35000 22.39500 24.62300
O  -2.51100 22.13900 23.43200
C  -2.14300 23.83500 25.03500
N  -2.32400 16.84700 24.82900
C  -2.46500 17.86300 23.88400
C  -2.88200 17.23300 22.55100
C  -2.35100 15.75600 22.69800
C  -2.32500 15.63500 24.18300
C  -4.37000 17.47400 22.23700
C  -0.93000 15.43700 22.02100
C  -0.69300 14.04000 21.34100
N  -2.12200 15.09100 27.09100
C  -2.30100 14.07100 26.11300
C  -2.47100 12.78100 26.85800
C  -2.30500 13.08200 28.24600
C  -2.05600 14.51100 28.30800
C  -2.83500 11.41300 26.30500
C  -2.27100 12.47100 29.56900
O  -2.31900 11.31800 29.96500
C  -2.17200 13.70100 30.54000
C  -1.09400 13.60500 31.50600
O  0.10700 13.69200 31.22500
O  -1.61400 13.35500 32.71000
C  -0.63200 13.25000 33.79800
H  -2.81800 20.60700 29.76700
H  -2.60400 19.88400 23.29100
H  -2.43200 13.50300 24.05800
H  -3.35500 16.29600 31.96200
H  -2.86100 19.20800 31.68600
H  -5.32500 18.48500 30.30400
H  -4.90700 19.48000 31.73300
H  -5.25600 17.68200 31.78900
H  -0.98500 18.05500 32.25200
H  -0.66500 16.34000 32.30800
H  -2.77400 16.84400 34.05000
H  -1.83000 18.34600 34.19000
H  -2.41700 22.53200 29.01700
H  -3.62700 23.12100 27.83600
H  -2.06500 23.48300 27.53700
H  -1.15500 24.09200 25.41600
H  -2.94200 24.20500 25.67700
H  -2.19800 24.44100 24.13100
H  -2.35300 17.72200 21.73200
H  -3.05600 15.06400 22.23700
H  -4.76900 18.13000 23.01000
H  -4.87600 16.51100 22.18000
H  -4.56700 18.05400 21.33500
H  -0.16200 15.52600 22.78900
H  -0.80300 16.28200 21.34400
H  0.00800 14.06900 20.50700
H  -1.59600 13.64800 20.87200
H  -0.33500 13.28300 22.03900
H  -2.45600 11.40400 25.28300
H  -3.90500 11.25800 26.16300
H  -2.38700 10.65500 26.94700
H  -3.08500 13.73500 31.13500
H  -1.14100 12.81100 34.65600
H  -0.16300 14.17600 34.13100
H  0.05700 12.49800 33.41400
Mg 25.58800 0.12600 29.07400
C  27.34700 -0.22400 32.07000
C  22.68900 0.25500 30.97600
C  23.91000 0.61100 26.26500
C  28.46800 -0.51400 27.24200
N  25.05700 0.09500 31.35000
C  25.96000 -0.16900 32.33600
C  25.12200 -0.09800 33.68900
C  23.62500 -0.05000 33.27500
C  23.79100 0.04000 31.82300
C  22.68900 -1.24800 33.58200
C  25.43100 1.23300 34.45800
C  25.88800 1.02000 35.95000
H  25.68600 2.22100 36.87500
N  23.58600 0.37400 28.66800
C  22.56200 0.36300 29.54700
C  21.29000 0.54800 28.80900
C  21.64800 0.67400 27.45300
C  23.10200 0.56900 27.39800
C  19.94100 0.58000 29.43900
C  20.72900 0.84100 26.25400
O  21.14400 0.88200 25.13800
C  19.29100 0.88900 26.45400
N  26.03500 -0.26500 27.03000
C  25.26000 0.31400 26.08400
C  25.93000 0.43400 24.74300
C  27.31400 -0.20700 24.97500
C  27.25600 -0.36000 26.49700
C  25.18400 -0.05900 23.53100
C  28.58500 0.56100 24.45500
C  29.50400 -0.40300 23.57300
N  27.48500 -0.18200 29.49700
C  28.57500 -0.54600 28.67900
C  29.74800 -0.74800 29.50000
C  29.44100 -0.52700 30.87000
C  27.99500 -0.25100 30.77600
C  31.18400 -1.22000 29.00900
C  29.84700 -0.53800 32.25100
O  30.93300 -0.85100 32.77800
C  28.50100 -0.29000 33.09900
C  28.33500 -1.39900 34.13500
O  27.92400 -2.56400 33.85400
O  28.85500 -1.07000 35.38700
C  28.81400 -1.95300 36.53800
H  21.80000 0.34200 31.60400
H  23.43100 0.93400 25.33800
H  29.37300 -0.81500 26.70900
H  25.44600 -0.95400 34.28000
H  23.02900 0.83300 33.50300
H  22.77500 -1.79700 34.52000
H  22.75400 -2.03200 32.82700
H  21.68300 -0.84200 33.47300
H  24.56600 1.89700 34.46800
H  26.23700 1.74400 33.93200
H  26.93200 0.71400 35.89200
H  25.29000 0.25600 36.44800
H  19.95300 0.51300 30.52700
H  19.44700 -0.23500 28.91000
H  19.44300 1.48800 29.09700
H  18.98100 1.68600 27.13100
H  19.14900 -0.11000 26.86500
H  18.82900 0.96500 25.47000
H  25.99500 1.51300 24.59800
H  27.31200 -1.27100 24.73700
H  25.11100 0.77100 22.82900
H  24.23600 -0.52700 23.79800
H  25.69200 -0.89300 23.04700
H  29.17700 0.83800 25.32800
H  28.43300 1.46300 23.86300
H  28.92500 -1.05200 22.91500
H  30.18200 -1.03000 24.15200
H  30.14800 0.16900 22.90400
H  31.39700 -0.98400 27.96700
H  31.25100 -2.27500 29.27400
H  31.86900 -0.63100 29.61900
H  28.69600 0.53600 33.78300
H  28.60700 -3.01600 36.41600
H  28.07500 -1.60200 37.25800
H  29.67200 -1.89400 37.20800

