158

Mg 8.06100 2.06300 28.19800
C  9.74800 0.75400 30.93200
C  6.23300 4.05400 30.37600
C  6.17000 3.22400 25.59400
C  9.35200 -0.44200 26.20200
N  7.84500 2.15200 30.45900
C  8.84600 1.72800 31.27900
C  8.71200 2.41400 32.69400
C  7.48400 3.34700 32.62700
C  7.10400 3.17800 31.04200
C  6.37600 2.87800 33.64800
C  10.04300 3.02700 33.32500
C  10.55700 2.58400 34.73800
H  10.90800 3.69800 35.78500
N  6.51400 3.40800 27.97900
C  5.85900 4.12800 28.99800
C  4.92800 5.02600 28.45000
C  4.85600 4.75500 27.06500
C  5.86400 3.77700 26.81200
C  4.12400 5.94700 29.27100
C  3.96100 5.39700 25.98500
O  4.06700 5.05800 24.78400
C  2.97800 6.43500 26.38700
N  7.82700 1.46800 26.24000
C  7.09200 2.16800 25.27700
C  7.45000 1.76900 23.77700
C  8.31700 0.52800 24.11500
C  8.59200 0.56100 25.59400
C  6.30600 1.50800 22.79300
C  9.75100 0.56700 23.45400
C  10.20500 -0.77400 22.90600
N  9.29700 0.54500 28.43700
C  9.69400 -0.45200 27.59400
C  10.57400 -1.36200 28.29900
C  10.60500 -0.91100 29.58700
C  9.82600 0.20900 29.66300
C  11.41100 -2.49800 27.85100
C  11.21700 -1.22100 30.84500
O  11.94100 -2.08900 31.25800
C  10.69200 -0.07700 31.81000
C  10.05700 -0.70200 32.99300
O  9.04900 -1.36300 32.97100
O  10.83500 -0.45800 34.14400
C  10.34900 -1.07000 35.44300
H  5.75800 4.72800 31.09100
H  5.72300 3.52400 24.64400
H  9.79300 -1.29700 25.68600
H  8.52500 1.64300 33.44100
H  7.64200 4.42000 32.73200
H  6.16400 3.78500 34.21400
H  6.90300 2.14800 34.26300
H  5.42300 2.48000 33.30000
H  9.96800 4.11400 33.29800
H  10.82600 2.69100 32.64500
H  11.42200 1.95900 34.51400
H  9.85500 1.88300 35.18900
H  4.21900 5.70500 30.32900
H  3.05200 5.91300 29.07900
H  4.36400 7.00500 29.16500
H  2.48900 6.74500 25.46400
H  3.41400 7.29800 26.89100
H  2.21900 5.96400 27.01100
H  8.01300 2.60600 23.36600
H  7.71500 -0.34000 23.84700
H  5.34600 1.67400 23.28000
H  6.44700 0.48600 22.44000
H  6.45000 2.12200 21.90400
H  10.53500 0.94200 24.11300
H  9.79900 1.25200 22.60700
H  9.36100 -1.45600 23.00400
H  10.88900 -1.30600 23.56700
H  10.69300 -0.83500 21.93400
H  12.36100 -2.04300 27.57000
H  11.01800 -2.91200 26.92300
H  11.51300 -3.14300 28.72400
H  11.61500 0.37300 32.17700
H  10.02600 -0.27300 36.11300
H  11.17300 -1.61100 35.90600
H  9.66100 -1.89100 35.24200
Mg 47.37500 25.77300 27.62500
C  48.17400 28.18200 30.15300
C  47.02400 23.49500 30.13900
C  46.91800 23.40600 25.21800
C  48.91000 27.83600 25.26300
N  47.51300 25.89100 29.81400
C  47.72700 26.97000 30.66600
C  47.59300 26.64800 32.11100
C  47.50300 25.08300 32.05200
C  47.33900 24.81400 30.60900
C  48.72000 24.28300 32.70900
C  46.44500 27.45600 32.78900
C  45.84300 26.96200 34.12900
H  45.80300 27.93200 35.28900
N  46.90600 23.72900 27.63300
C  46.79500 22.97000 28.82900
C  46.29200 21.63400 28.53000
C  46.19000 21.60200 27.04700
C  46.74400 22.89100 26.55400
C  46.10700 20.56800 29.55600
C  45.69700 20.48800 26.15700
O  45.75800 20.59300 24.93600
C  45.13500 19.25500 26.64400
N  47.79700 25.62500 25.51000
C  47.52300 24.58100 24.69100
C  47.89800 24.87400 23.21400
C  48.08200 26.42700 23.25400
C  48.32100 26.63900 24.75700
C  49.03600 23.94800 22.73800
C  46.92200 27.29000 22.65000
C  47.35500 28.49800 21.79800
N  48.29000 27.64800 27.63900
C  48.93300 28.26800 26.63100
C  49.34600 29.59200 27.13400
C  49.06600 29.59600 28.51800
C  48.47200 28.38000 28.79100
C  49.88000 30.70000 26.32400
C  49.15600 30.38900 29.76400
O  49.68200 31.51200 29.93100
C  48.58100 29.48400 30.93500
C  49.62700 29.28800 31.95500
O  50.54000 28.40900 32.00900
O  49.25900 30.05900 33.06000
C  49.82400 29.57200 34.31700
H  46.87300 22.71000 30.88400
H  46.85000 22.67700 24.40800
H  49.32600 28.48200 24.48800
H  48.58400 26.90400 32.48400
H  46.65000 24.77100 32.65500
H  49.51000 24.91900 33.10800
H  49.24900 23.71600 31.94300
H  48.33600 23.58200 33.45000
H  45.61000 27.55200 32.09600
H  46.90800 28.43000 32.94900
H  46.22100 25.96600 34.36100
H  44.77700 26.77000 34.01100
H  45.07400 20.22500 29.51300
H  46.19400 20.88000 30.59600
H  46.77700 19.76000 29.26400
H  44.21600 19.40400 27.20900
H  45.92700 18.72800 27.17500
H  44.78000 18.72600 25.76000
H  47.04900 24.60900 22.58500
H  49.03800 26.52000 22.73900
H  49.38100 23.38000 23.60100
H  49.80900 24.57500 22.29400
H  48.52800 23.26800 22.05400
H  46.31500 27.63900 23.48500
H  46.22900 26.66300 22.08900
H  47.45000 29.37600 22.43800
H  46.53400 28.65200 21.09800
H  48.26300 28.32500 21.22000
H  49.16100 31.06600 25.59100
H  50.81100 30.47900 25.80300
H  50.09400 31.47100 27.06500
H  47.71300 29.89600 31.45100
H  50.90800 29.48400 34.23700
H  49.29400 28.64100 34.51500
H  49.63400 30.33900 35.06900

