158

Mg -1.71800 16.74300 26.01100
C  -2.02100 14.57000 28.64400
C  -2.32500 19.48600 28.38900
C  -2.13500 18.88000 23.54000
C  -2.02500 14.02800 23.79200
N  -2.21900 16.94700 28.17700
C  -2.10600 15.89900 29.07900
C  -2.49500 16.38800 30.52200
C  -2.79400 17.84600 30.23200
C  -2.37000 18.13300 28.83600
C  -4.33600 18.17400 30.48200
C  -1.44900 16.07700 31.59100
C  -1.69400 16.90400 32.94200
H  -1.53300 16.33900 34.33800
N  -1.98100 18.86900 25.91600
C  -2.12800 19.83800 26.96100
C  -2.01100 21.11700 26.39900
C  -1.97300 20.97000 25.00400
C  -2.07200 19.50600 24.76800
C  -2.06400 22.37500 27.27700
C  -1.88100 22.07000 23.93300
O  -2.01700 21.83700 22.73700
C  -1.70200 23.45700 24.35400
N  -2.22500 16.47700 23.94900
C  -2.22400 17.53500 23.11100
C  -2.34900 17.05800 21.64000
C  -2.12400 15.56000 21.76400
C  -2.10600 15.36100 23.26800
C  -3.77500 17.39000 21.12800
C  -0.79600 15.10600 21.10000
C  0.47100 15.40400 21.91200
N  -1.89800 14.68800 26.09700
C  -1.98400 13.69800 25.13400
C  -1.87700 12.41900 25.75000
C  -1.83800 12.66800 27.12300
C  -1.87800 14.07700 27.28400
C  -1.76700 11.19800 25.05000
C  -1.79700 12.12700 28.44200
O  -1.59400 10.99100 28.80900
C  -1.98600 13.26500 29.48900
C  -0.89800 13.26000 30.42700
O  0.17400 13.77500 30.21300
O  -1.21500 12.55800 31.55500
C  -0.16200 12.50400 32.61600
H  -2.24000 20.33500 29.07000
H  -2.08700 19.55300 22.68100
H  -1.91800 13.18100 23.11200
H  -3.41000 15.85600 30.78300
H  -2.28600 18.54400 30.89800
H  -4.44900 19.00600 31.17700
H  -4.87700 17.49000 31.13500
H  -4.79800 18.35500 29.51100
H  -0.45200 16.26900 31.19300
H  -1.53600 15.06800 31.99300
H  -2.70800 17.29300 32.84600
H  -0.98100 17.72700 32.89200
H  -2.86600 23.06400 27.01300
H  -1.14100 22.94300 27.15600
H  -2.16900 22.17200 28.34200
H  -2.67900 23.88500 24.57700
H  -1.29400 23.96300 23.47900
H  -1.13000 23.66200 25.25900
H  -1.75600 17.63300 20.92800
H  -2.99200 15.00100 21.41600
H  -3.93600 18.34500 21.62800
H  -4.52500 16.73400 21.56900
H  -3.82200 17.44400 20.04100
H  -0.67700 15.38900 20.05400
H  -0.83200 14.01700 21.06400
H  0.22800 16.08700 22.72600
H  1.18800 15.94000 21.29100
H  0.94000 14.56000 22.41800
H  -0.81300 11.02100 24.55300
H  -2.60600 11.04200 24.37100
H  -1.77800 10.49400 25.88200
H  -2.95200 13.09800 29.96600
H  -0.42000 13.16100 33.44700
H  0.82100 12.71600 32.19600
H  -0.24900 11.47900 32.97600
Mg 46.81400 24.77800 28.40200
C  47.23900 26.68900 31.29500
C  46.00000 22.08200 30.47400
C  47.04600 22.80900 25.79100
C  47.88100 27.40800 26.47300
N  46.61600 24.41000 30.65300
C  46.80000 25.39200 31.54500
C  46.37200 24.84300 32.97900
C  46.04300 23.37600 32.69800
C  46.17500 23.26700 31.20100
C  46.98000 22.31500 33.45500
C  45.20200 25.62800 33.59700
C  45.49800 26.24800 34.96100
H  44.37800 26.43400 35.98600
N  46.52700 22.74500 28.18600
C  46.20500 21.78800 29.08500
C  46.04400 20.41100 28.42900
C  46.17700 20.68500 27.03000
C  46.64000 22.13100 26.96800
C  45.66800 19.11300 29.14200
C  45.95400 19.83200 25.87000
O  46.20900 20.20600 24.71300
C  45.74300 18.39600 26.14100
N  47.40600 25.10300 26.43000
C  47.37100 24.13900 25.52800
C  47.70900 24.63400 24.09000
C  47.55100 26.15600 24.32600
C  47.57100 26.26000 25.79100
C  49.09400 24.32800 23.56800
C  46.31600 26.89000 23.70700
C  46.54700 28.15700 22.77500
N  47.46500 26.60700 28.76600
C  47.81000 27.61300 27.89400
C  48.35800 28.77300 28.65600
C  48.12400 28.42700 29.94200
C  47.59500 27.10600 29.98700
C  48.65300 30.11400 28.22200
C  48.27500 28.94000 31.34700
O  48.77400 29.97500 31.75400
C  47.72500 27.80300 32.24300
C  48.84600 27.33400 33.15800
O  49.77900 26.65200 32.81700
O  48.61600 27.83200 34.46400
C  49.56000 27.69200 35.51200
H  45.75100 21.20300 31.07200
H  47.25800 22.18200 24.92300
H  48.20300 28.31400 25.95600
H  47.27200 24.70000 33.57600
H  44.98000 23.22000 32.88100
H  46.84200 22.51800 34.51700
H  47.98200 22.49400 33.06500
H  46.61700 21.30100 33.28900
H  44.30300 25.03600 33.77200
H  44.84300 26.40700 32.92400
H  46.06800 27.16200 34.79700
H  46.17000 25.54400 35.45200
H  44.67500 18.88300 28.75500
H  45.54300 19.19800 30.22200
H  46.45600 18.38600 28.94400
H  44.75500 18.27100 26.58400
H  46.57400 17.91500 26.65700
H  45.68200 17.87800 25.18300
H  47.02600 24.31600 23.30200
H  48.31100 26.66200 23.73100
H  48.90800 23.52500 22.85500
H  49.64900 23.85200 24.37700
H  49.61800 25.15800 23.09400
H  45.71100 27.23900 24.54400
H  45.78800 26.13700 23.12300
H  47.62300 28.28100 22.66100
H  46.02800 29.02200 23.18900
H  46.03800 27.90800 21.84400
H  48.85500 30.04600 27.15300
H  49.57300 30.14200 28.80600
H  47.84900 30.80400 28.47900
H  46.87200 28.20100 32.79300
H  49.81300 28.69700 35.85100
H  50.54000 27.27700 35.27600
H  49.27000 27.18100 36.43000

