158

Mg 54.62800 24.25500 44.63600
C  51.93200 26.25600 43.53600
C  52.91600 21.68200 43.04000
C  57.41600 22.42400 44.69500
C  56.32300 27.02700 45.64500
N  52.69900 23.95800 43.33500
C  51.75000 24.98200 43.11300
C  50.62400 24.48000 42.19700
C  50.66600 22.93900 42.72500
C  52.16100 22.81800 42.94000
C  49.89800 22.74400 44.01800
C  51.13700 24.70400 40.66700
C  50.14300 25.03200 39.61100
H  50.54800 25.53700 38.30300
N  55.10100 22.31500 43.99500
C  54.29000 21.36800 43.44000
C  54.94200 20.15800 43.38200
C  56.29700 20.33600 43.84100
C  56.28500 21.76300 44.20900
C  54.21700 18.78200 42.99600
C  57.35500 19.25700 44.00300
O  57.13900 18.20000 43.47200
C  58.73100 19.40100 44.71600
N  56.63700 24.67900 44.93400
C  57.61600 23.76900 44.88300
C  58.91500 24.36900 45.46300
C  58.59200 25.91100 45.66200
C  57.08000 25.85300 45.41700
C  59.38400 23.65000 46.78900
C  59.47200 26.89600 44.85800
C  59.01400 27.51400 43.52000
N  54.16900 26.11600 44.88600
C  54.90300 27.17800 45.40200
C  54.03300 28.43200 45.48400
C  52.89600 28.02600 44.69000
C  53.04900 26.70300 44.33900
C  54.36700 29.76300 46.07800
C  51.65400 28.55100 44.13900
O  51.18800 29.66700 44.27300
C  50.88900 27.40700 43.31600
C  50.57500 27.79000 41.98000
O  51.33200 28.09000 41.13900
O  49.19300 27.82300 41.92700
C  48.58100 28.26200 40.60700
H  52.35700 20.82400 42.66100
H  58.37000 21.90400 44.81000
H  56.92300 27.87200 45.98700
H  49.68700 24.95500 42.49000
H  50.09100 22.37600 41.99000
H  50.58800 22.17300 44.63900
H  48.95700 22.22900 43.82700
H  49.78200 23.72700 44.47500
H  51.55700 23.75300 40.33900
H  51.86900 25.51100 40.63200
H  49.36000 25.64800 40.05400
H  49.58700 24.11500 39.41600
H  54.47400 17.92400 43.61800
H  54.43500 18.52100 41.96100
H  53.14300 18.96000 43.05400
H  58.64200 19.77900 45.73400
H  59.38700 20.03300 44.11700
H  59.15400 18.40500 44.84900
H  59.66500 24.26800 44.67900
H  58.59400 26.14600 46.72600
H  58.99200 22.63400 46.75500
H  58.99100 24.12700 47.68700
H  60.47200 23.59300 46.81900
H  60.39200 26.35500 44.63700
H  59.72600 27.76600 45.46400
H  59.11100 28.59800 43.46100
H  57.94900 27.34300 43.36800
H  59.54000 27.19200 42.62200
H  53.85800 30.50400 45.46100
H  55.44200 29.94200 46.09000
H  53.86500 29.99600 47.01700
H  50.06200 27.03400 43.92000
H  48.29800 29.31100 40.68500
H  47.67600 27.66900 40.47300
H  49.21500 28.07600 39.74000
Mg 47.92700 34.32200 27.06700
C  46.21700 33.07100 29.93200
C  48.26100 37.31100 28.75400
C  49.04100 35.72400 24.20900
C  47.04000 31.51500 25.33300
N  47.35000 34.98100 29.11200
C  46.67200 34.31700 30.10600
C  46.92500 35.00100 31.47400
C  47.15100 36.51200 30.99600
C  47.59600 36.34200 29.51900
C  45.97900 37.55200 31.00600
C  48.11100 34.43100 32.34400
C  47.73900 34.38500 33.84900
H  46.56100 35.22100 34.37000
N  48.61100 36.26100 26.59600
C  48.70500 37.35200 27.40200
C  49.32900 38.43100 26.77300
C  49.60100 38.00200 25.40100
C  49.10200 36.55900 25.36300
C  49.71000 39.80000 27.39400
C  50.37800 38.71100 24.23900
O  50.64000 38.13700 23.15300
C  50.85800 40.03600 24.40100
N  47.96800 33.79600 25.05700
C  48.55200 34.50600 24.10200
C  48.45300 33.73600 22.73700
C  47.90600 32.29300 23.09100
C  47.68600 32.52800 24.60700
C  47.52000 34.51100 21.74500
C  48.87000 31.02900 22.92400
C  50.40600 31.26700 23.06700
N  46.93500 32.59200 27.50500
C  46.62100 31.54000 26.64000
C  45.71400 30.63400 27.39700
C  45.52500 31.19700 28.65300
C  46.27100 32.39500 28.64300
C  45.30100 29.34300 26.82500
C  44.85800 31.06300 29.93800
O  44.06600 30.19300 30.35700
C  45.31200 32.25200 30.81800
C  45.97000 31.72700 32.05900
O  47.07500 31.28400 32.13500
O  45.04000 31.56200 33.02400
C  45.33700 30.51800 34.01200
H  48.42200 38.21700 29.34200
H  49.37100 36.27400 23.32600
H  46.72200 30.65700 24.73700
H  45.98700 34.91500 32.02100
H  47.92900 36.98900 31.59200
H  46.09900 38.20600 30.14200
H  45.99800 38.13500 31.92700
H  44.99700 37.08500 30.93800
H  48.97500 35.08000 32.20100
H  48.42900 33.49900 31.87700
H  48.58000 34.84400 34.36800
H  47.53000 33.41200 34.29400
H  49.36600 40.64800 26.80200
H  50.79600 39.71400 27.36200
H  49.30400 39.86300 28.40400
H  49.97000 40.65200 24.53900
H  51.42500 40.20000 23.48400
H  51.52200 39.99400 25.26500
H  49.45200 33.66300 22.30800
H  46.93100 32.15400 22.62300
H  46.49000 34.20900 21.92900
H  47.89500 34.21000 20.76600
H  47.76500 35.53200 22.03700
H  48.72700 30.62900 21.92100
H  48.55600 30.21500 23.57700
H  50.84200 31.21800 22.06900
H  50.86500 30.47800 23.66300
H  50.47000 32.22400 23.58400
H  44.21400 29.41500 26.87500
H  45.36100 28.53300 27.55100
H  45.66000 29.06900 25.83300
H  44.60600 32.93000 31.29800
H  45.34900 29.55200 33.50900
H  44.44100 30.62400 34.62400
H  46.30800 30.80100 34.41900

