158

Mg 16.16000 -0.91000 27.01100
C  15.02100 0.82400 29.90100
C  18.46600 -2.49600 28.98600
C  17.69300 -2.04900 24.31400
C  14.17400 1.06200 25.13800
N  16.63500 -0.81900 29.16900
C  15.99700 -0.16100 30.17900
C  16.39600 -0.52500 31.52100
C  17.69400 -1.35600 31.18700
C  17.58300 -1.64900 29.64700
C  19.11000 -0.74000 31.52200
C  15.29000 -1.21900 32.37500
C  15.18200 -0.70900 33.81300
H  16.40100 0.01900 34.53500
N  17.77800 -2.28600 26.69000
C  18.57700 -2.85100 27.62000
C  19.36000 -3.86300 27.01700
C  19.06600 -3.83900 25.62900
C  18.20900 -2.68800 25.48200
C  20.21800 -4.75500 27.84100
C  19.60100 -4.71000 24.41200
O  19.19200 -4.54700 23.26500
C  20.68200 -5.80300 24.59000
N  16.06800 -0.45200 25.05700
C  16.78700 -1.07100 24.07700
C  16.54700 -0.48500 22.69900
C  15.23300 0.36600 22.97400
C  15.05800 0.24600 24.45200
C  17.80200 0.31100 22.13600
C  13.97100 0.02100 22.20000
C  13.83900 0.80300 20.89500
N  14.78400 0.51100 27.44500
C  14.01000 1.17100 26.52700
C  13.06900 1.97500 27.22400
C  13.41000 1.87200 28.57600
C  14.54400 1.06400 28.62200
C  12.01100 2.70000 26.49200
C  13.06600 2.36200 29.84800
O  12.19600 3.10300 30.24500
C  14.07600 1.61300 30.80400
C  14.71200 2.73800 31.63700
O  15.51000 3.55300 31.24900
O  14.16700 2.72800 32.94100
C  14.26100 4.14300 33.42100
H  19.11900 -2.95900 29.72900
H  18.19600 -2.40900 23.41400
H  13.41700 1.64200 24.60600
H  16.79400 0.39800 31.94100
H  17.58000 -2.37600 31.55300
H  19.56100 -0.21700 30.67900
H  19.79500 -1.52800 31.83600
H  19.05900 0.06800 32.25200
H  15.46400 -2.29400 32.33100
H  14.33000 -1.09900 31.87200
H  15.15000 -1.68200 34.30300
H  14.29000 -0.18200 34.15200
H  20.66200 -5.52500 27.20900
H  19.69200 -5.22600 28.67200
H  20.99200 -4.07600 28.19700
H  21.45400 -5.49700 25.29700
H  20.99300 -6.06100 23.57800
H  20.13300 -6.69100 24.90200
H  16.28200 -1.39400 22.15900
H  15.51300 1.41300 22.86100
H  18.50400 -0.43100 21.75600
H  18.16600 0.90600 22.97400
H  17.46300 0.97500 21.34000
H  13.13200 0.17800 22.87800
H  13.98500 -1.03200 21.91800
H  14.76600 1.23900 20.52400
H  13.09600 1.55800 21.15300
H  13.65600 0.12300 20.06300
H  12.63900 3.36800 25.90300
H  11.34100 3.30300 27.10500
H  11.46500 1.97200 25.89200
H  13.54100 0.99000 31.52100
H  14.06900 4.91900 32.68000
H  15.15700 4.37000 33.99800
H  13.42000 4.26000 34.10500
Mg 47.65600 16.45300 28.77200
C  45.62200 15.98000 31.78100
C  49.79100 18.20600 30.72600
C  49.22100 17.28900 25.92800
C  45.02300 15.08200 26.89800
N  47.62500 17.06500 31.09100
C  46.78500 16.76000 32.05400
C  47.36500 17.20600 33.41900
C  48.66300 18.01400 33.01000
C  48.68800 17.85700 31.46600
C  48.81200 19.42800 33.52600
C  47.57900 15.98200 34.33700
C  47.91000 16.19400 35.80900
H  47.70200 17.63900 36.52000
N  49.34600 17.42500 28.37500
C  50.14300 18.18300 29.29900
C  51.35400 18.50700 28.64000
C  51.14100 18.21500 27.29100
C  49.81800 17.59700 27.13800
C  52.51300 19.14100 29.33700
C  52.09200 18.38100 26.01400
O  51.84100 17.96700 24.91200
C  53.47600 18.75600 26.22700
N  47.10900 16.29700 26.58500
C  47.97100 16.67800 25.61200
C  47.32200 16.39000 24.19600
C  46.14600 15.42300 24.53100
C  46.06400 15.57200 26.09100
C  46.76700 17.68500 23.59700
C  46.44800 13.93400 24.23700
C  45.73300 13.10600 23.13200
N  45.76800 15.68000 29.18900
C  44.82700 15.09400 28.28000
C  43.64800 14.62900 29.02700
C  43.96100 14.92500 30.33500
C  45.25000 15.49800 30.43700
C  42.37200 14.04200 28.34600
C  43.40100 14.85300 31.64000
O  42.36200 14.38000 32.08700
C  44.49000 15.46700 32.58500
C  43.88200 16.62800 33.31500
O  43.71300 17.71700 32.80000
O  43.61700 16.36800 34.66700
C  42.97700 17.49800 35.35700
H  50.54100 18.68100 31.36200
H  49.70500 17.48900 24.97000
H  44.18100 14.68700 26.32600
H  46.62200 17.83500 33.90800
H  49.51000 17.42000 33.35300
H  48.69700 20.19600 32.76200
H  49.79300 19.61400 33.96400
H  48.10000 19.51300 34.34700
H  48.32900 15.26800 33.99700
H  46.62900 15.44600 34.33000
H  48.88000 15.71900 35.95800
H  47.21200 15.52000 36.30500
H  52.36300 19.13600 30.41600
H  52.75900 20.15100 29.00900
H  53.38900 18.52300 29.13700
H  53.85100 17.84700 26.69800
H  53.46500 19.63300 26.87400
H  54.03800 19.08300 25.35200
H  48.02400 15.94300 23.49300
H  45.14700 15.65600 24.16200
H  47.67000 18.14700 23.19800
H  46.33100 18.32400 24.36500
H  46.09800 17.53900 22.75000
H  46.27400 13.29500 25.10200
H  47.52200 13.98400 24.05900
H  46.48400 12.73400 22.43400
H  44.79700 13.50100 22.73900
H  45.39500 12.11200 23.42500
H  42.57600 13.07400 27.88900
H  41.99200 14.74000 27.60100
H  41.58800 14.00800 29.10300
H  44.89500 14.74400 33.29400
H  42.62700 17.02500 36.27500
H  42.14200 17.89200 34.77900
H  43.63500 18.28600 35.72200

