158

Mg 0.83000 8.48100 26.07600
C  1.52200 10.27600 29.10300
C  1.49800 5.56200 27.89200
C  0.59400 6.75000 23.30000
C  1.23700 11.45500 24.36100
N  1.56400 8.04100 28.25200
C  1.44900 8.90200 29.29700
C  1.30000 8.21500 30.61100
C  1.59400 6.72800 30.24200
C  1.58800 6.75800 28.68500
C  2.96400 6.29600 30.80500
C  -0.06700 8.54500 31.28300
C  -0.02800 8.67600 32.81200
H  1.14600 8.02400 33.57600
N  0.94800 6.49100 25.66900
C  1.18800 5.43400 26.54500
C  1.18400 4.21000 25.79900
C  0.69400 4.55000 24.49500
C  0.74800 5.99400 24.42300
C  1.63000 2.89700 26.39500
C  0.23000 3.68700 23.31400
O  -0.00800 4.06000 22.20600
C  0.12600 2.29500 23.50400
N  0.71700 9.02800 24.18600
C  0.64400 8.13900 23.18800
C  0.69400 8.80400 21.75900
C  0.45600 10.31600 22.18400
C  0.91500 10.32100 23.64400
C  2.05900 8.46700 21.07300
C  -1.01300 10.70700 22.06600
C  -1.41000 11.68100 20.92700
N  1.29200 10.45900 26.57300
C  1.32400 11.59200 25.73100
C  1.63800 12.75300 26.55200
C  1.67400 12.28300 27.91700
C  1.45800 10.92000 27.80500
C  1.88500 14.13100 26.08900
C  1.85000 12.73400 29.25900
O  2.07000 13.80900 29.78300
C  1.66000 11.48800 30.12300
C  2.73700 11.26800 31.13300
O  3.85800 10.78800 30.92200
O  2.38300 11.80200 32.41600
C  3.35100 11.75100 33.51900
H  1.62400 4.69700 28.54700
H  0.59200 6.28800 22.31100
H  1.39800 12.32600 23.72200
H  2.10500 8.58900 31.24300
H  0.79000 6.16000 30.70900
H  2.67100 5.38900 31.33400
H  3.31500 6.95400 31.59900
H  3.67600 5.98100 30.04200
H  -0.68300 7.69500 30.99200
H  -0.55800 9.44100 30.90300
H  -0.93100 8.16400 33.14400
H  -0.12100 9.70700 33.15500
H  1.12000 2.02300 25.99000
H  1.48300 2.79300 27.47000
H  2.69600 2.83600 26.17700
H  -0.19600 1.82600 22.57400
H  -0.58700 2.02800 24.28300
H  1.14600 2.00400 23.75600
H  -0.05500 8.38900 21.08600
H  1.01500 10.89600 21.45000
H  2.36600 7.46100 21.36000
H  2.86000 9.15100 21.35400
H  1.87300 8.32700 20.00800
H  -1.33400 11.27100 22.94200
H  -1.69100 9.85600 22.13700
H  -0.53600 11.63100 20.27700
H  -1.63100 12.68300 21.29400
H  -2.29800 11.35700 20.38500
H  2.14300 14.76000 26.94100
H  0.91000 14.50800 25.78400
H  2.49300 14.06200 25.18700
H  0.78600 11.48200 30.77500
H  3.49600 12.70400 34.02700
H  4.33400 11.37100 33.24300
H  2.88500 11.07200 34.23300
Mg 36.20900 3.01500 30.18800
C  33.78900 3.90600 32.61500
C  38.46000 2.48400 32.66500
C  38.49500 2.62000 27.82900
C  33.75300 3.41200 27.71200
N  36.04000 3.15300 32.39900
C  35.05500 3.61000 33.19400
C  35.51200 3.53400 34.65000
C  37.01700 3.41500 34.57600
C  37.19500 2.94900 33.11600
C  37.77500 4.82800 34.83700
C  34.77000 2.29400 35.24200
C  34.11800 2.47900 36.58200
H  34.95500 3.31100 37.51400
N  38.25100 2.50700 30.24500
C  38.98100 2.32100 31.37100
C  40.33400 2.05000 31.00300
C  40.34100 2.07700 29.58000
C  38.94600 2.39600 29.14700
C  41.39100 1.72100 32.07500
C  41.45800 1.80500 28.63700
O  41.31700 1.76000 27.41800
C  42.70600 1.26600 29.27600
N  36.17200 3.06400 28.07900
C  37.19700 2.80900 27.36300
C  36.92300 2.89600 25.87100
C  35.35200 2.86000 25.84100
C  35.01900 3.12600 27.32000
C  37.53000 4.14500 25.23300
C  34.69200 1.45800 25.40500
C  33.47300 1.65100 24.43900
N  34.18700 3.65600 30.12200
C  33.30600 3.71400 29.08100
C  31.97900 4.09400 29.58700
C  32.14500 4.20800 30.97400
C  33.46000 3.89000 31.23400
C  30.67200 4.13400 28.81300
C  31.42700 4.42400 32.20000
O  30.22600 4.64500 32.37900
C  32.44600 4.18000 33.34100
C  32.54000 5.35800 34.28800
O  33.24400 6.36500 34.18000
O  31.79700 5.16500 35.42800
C  31.79100 6.24700 36.43100
H  39.22500 2.60200 33.43600
H  39.22400 2.56100 27.01700
H  33.05600 3.39900 26.87100
H  35.33700 4.46600 35.18600
H  37.35000 2.67000 35.29900
H  37.06600 5.63300 34.64400
H  38.53900 4.96500 34.07200
H  38.22700 4.93200 35.82300
H  35.51400 1.50400 35.34500
H  33.95800 1.96600 34.59200
H  33.94600 1.53200 37.09400
H  33.16400 2.97100 36.39700
H  41.77800 2.64200 32.51000
H  42.31300 1.25400 31.72800
H  40.98800 0.98500 32.77000
H  43.36700 1.04700 28.43800
H  42.33000 0.35600 29.74500
H  43.07400 2.06900 29.91500
H  37.37400 1.97700 25.49600
H  34.91800 3.68800 25.28100
H  38.04600 4.90300 25.82300
H  36.76400 4.70100 24.69100
H  38.31700 3.88200 24.52600
H  34.31500 0.87300 26.24400
H  35.49500 0.91200 24.90900
H  33.39600 2.58800 23.88800
H  32.59700 1.56600 25.08100
H  33.34700 0.94600 23.61800
H  29.78100 4.44300 29.36000
H  30.51800 3.17900 28.31200
H  30.76800 4.72600 27.90200
H  32.31300 3.30900 33.98300
H  32.61600 6.07400 37.12200
H  30.81300 6.15400 36.90300
H  31.79500 7.26000 36.02800

