158

Mg 1.89900 -1.45100 44.47200
C  5.24200 -0.28200 44.24600
C  0.81100 1.32400 42.71000
C  -1.09700 -2.94400 44.24200
C  3.23800 -4.55900 45.69400
N  2.94100 0.29300 43.48400
C  4.23900 0.60100 43.67300
C  4.56800 1.95000 42.98700
C  3.15800 2.53900 42.53200
C  2.24700 1.29800 42.93600
C  2.76300 3.95600 43.17400
C  5.62000 1.76800 41.80500
C  5.41000 0.50000 40.89500
H  5.15500 0.75000 39.37500
N  0.12400 -0.93100 43.61400
C  -0.14500 0.28100 42.93600
C  -1.53500 0.34100 42.58200
C  -2.17300 -0.76700 43.23400
C  -1.04100 -1.64100 43.68300
C  -2.19500 1.53200 41.91500
C  -3.64200 -1.07100 43.20500
O  -4.40400 -0.26400 42.64500
C  -4.29600 -2.20200 43.98600
N  1.18300 -3.54900 44.80800
C  -0.13200 -3.79500 44.74000
C  -0.38900 -5.22000 45.32400
C  1.03800 -5.73500 45.81600
C  1.88000 -4.57400 45.34200
C  -1.69600 -5.54300 46.16500
C  1.41700 -7.03500 45.12300
C  2.01500 -8.03100 46.07600
N  3.81600 -2.32600 44.99600
C  4.16600 -3.52300 45.46200
C  5.64100 -3.56400 45.67400
C  6.05700 -2.33200 45.15300
C  4.93200 -1.62700 44.75300
C  6.50100 -4.74600 46.19100
C  7.26300 -1.52700 44.92100
O  8.41300 -1.85600 45.17100
C  6.79400 -0.11100 44.32000
C  7.31000 0.95100 45.25600
O  7.27100 0.84600 46.48100
O  7.85200 1.97300 44.58300
C  8.70700 3.00500 45.23000
H  0.50700 2.24400 42.20600
H  -2.07200 -3.40400 44.41900
H  3.67500 -5.42200 46.20200
H  5.08300 2.66000 43.63500
H  3.21100 2.46400 41.44600
H  2.90600 4.83900 42.55000
H  3.38300 4.05500 44.06500
H  1.69700 3.99000 43.39900
H  6.64800 1.81700 42.16300
H  5.46000 2.62500 41.15100
H  4.67900 -0.15400 41.37000
H  6.33100 -0.08300 40.93500
H  -1.47800 2.22800 41.48100
H  -2.70900 2.09600 42.69300
H  -2.82400 1.19000 41.09300
H  -5.34400 -1.95200 44.15100
H  -3.82800 -2.34900 44.96000
H  -4.42800 -3.14800 43.46100
H  -0.78800 -5.89100 44.56400
H  1.10700 -5.79000 46.90300
H  -1.88700 -4.59900 46.67600
H  -1.45200 -6.41900 46.76800
H  -2.59400 -5.76900 45.59000
H  1.97300 -6.80100 44.21500
H  0.47600 -7.51600 44.85500
H  1.25300 -8.70000 46.47400
H  2.50800 -7.51500 46.90000
H  2.78300 -8.54100 45.49500
H  6.30300 -4.89100 47.25300
H  7.57700 -4.57700 46.18500
H  6.42200 -5.64300 45.57700
H  7.25900 0.03700 43.34500
H  8.53700 3.82500 44.53300
H  9.73100 2.63100 45.25300
H  8.44600 3.27400 46.25400
Mg 35.99200 48.82700 24.95800
C  36.16200 47.26900 28.16200
C  35.03800 51.66600 26.68200
C  35.79200 50.19900 22.03600
C  36.90200 45.78200 23.51300
N  35.64800 49.36800 27.24600
C  35.81000 48.60100 28.34300
C  35.68800 49.44400 29.63200
C  35.14100 50.83800 29.09900
C  35.28800 50.64900 27.60200
C  33.69300 51.28700 29.50600
C  36.94100 49.44400 30.46600
C  36.88700 49.22600 31.91400
H  35.52300 49.33200 32.67000
N  35.41600 50.61500 24.43500
C  35.09000 51.69700 25.26300
C  35.02300 52.86900 24.41900
C  35.17900 52.43200 23.10000
C  35.48300 50.99700 23.17500
C  34.80700 54.30200 24.97800
C  34.99100 53.31300 21.88400
O  35.07900 52.90700 20.71800
C  34.79000 54.82000 22.03800
N  36.20600 48.08200 23.00800
C  36.14700 48.86000 21.94400
C  36.44700 48.09200 20.60300
C  36.95500 46.69100 21.17300
C  36.58900 46.87100 22.65800
C  35.17500 47.84500 19.80700
C  38.51900 46.48300 20.95900
C  38.83000 46.00400 19.51100
N  36.41900 46.90700 25.66700
C  36.83500 45.77700 24.92100
C  37.13400 44.68500 25.81900
C  36.89800 45.22600 27.11300
C  36.39500 46.57400 26.90500
C  37.62400 43.36100 25.43200
C  37.00300 44.97500 28.51900
O  37.52600 43.99200 29.05800
C  36.51100 46.22600 29.31300
C  35.33400 45.86200 30.12500
O  34.25100 45.59400 29.66500
O  35.69500 45.83500 31.44400
C  34.67000 45.15200 32.24700
H  34.77200 52.65100 27.07200
H  35.67700 50.69300 21.06900
H  37.25400 44.87400 23.02000
H  34.84000 49.03300 30.17900
H  35.91200 51.57200 29.33600
H  33.79100 52.19500 30.10200
H  33.20500 50.59500 30.19100
H  33.06100 51.42100 28.62800
H  37.32200 50.45200 30.29800
H  37.72700 48.79100 30.08700
H  37.56400 49.97600 32.32200
H  37.28500 48.25300 32.20100
H  35.27000 55.10500 24.40500
H  35.39300 54.34100 25.89700
H  33.76400 54.49800 25.22700
H  34.52900 55.20800 21.05300
H  35.79100 55.16600 22.29400
H  33.98100 55.14800 22.69000
H  37.29000 48.48100 20.03200
H  36.49700 45.73900 20.90300
H  34.27300 47.77600 20.41400
H  35.36000 46.97200 19.18000
H  35.10400 48.71600 19.15700
H  38.96700 45.91200 21.77300
H  38.97600 47.46500 21.08200
H  39.43800 45.10100 19.56600
H  39.45800 46.79000 19.09300
H  37.91400 45.75600 18.97400
H  36.90200 42.69800 24.95400
H  37.86300 42.91100 26.39600
H  38.50600 43.48300 24.80300
H  37.41100 46.47600 29.87500
H  33.76200 45.74200 32.36700
H  35.12800 45.01000 33.22600
H  34.36800 44.19900 31.81000

