158

Mg 7.96500 3.08500 28.33900
C  9.45100 1.89200 31.20400
C  6.05500 5.14500 30.20800
C  6.32100 3.85600 25.55700
C  9.74300 0.50700 26.53400
N  7.77700 3.36100 30.52500
C  8.55300 2.89300 31.50400
C  8.19200 3.54900 32.82400
C  7.07200 4.59600 32.44900
C  6.92100 4.31900 30.96200
C  5.80600 4.44900 33.25600
C  9.45200 4.08100 33.59800
C  9.62500 3.58800 35.06000
H  10.08200 4.59200 36.17600
N  6.52400 4.42800 27.92700
C  5.88000 5.16900 28.81800
C  5.06600 6.12600 28.16700
C  5.13900 5.82000 26.77600
C  5.98000 4.58600 26.69900
C  4.29100 7.11900 28.81600
C  4.57900 6.63400 25.66500
O  4.73100 6.20000 24.52300
C  3.72500 7.84200 25.81400
N  7.98300 2.19900 26.27800
C  7.23300 2.71200 25.29800
C  7.55300 2.06800 23.90200
C  8.74600 1.06400 24.19600
C  8.79800 1.23900 25.73500
C  6.28100 1.48900 23.25000
C  10.15000 1.59400 23.56300
C  11.02200 0.52500 22.97600
N  9.31400 1.57000 28.69400
C  10.00600 0.65700 27.85600
C  10.94700 -0.12700 28.70200
C  10.72500 0.34700 29.99200
C  9.75200 1.41200 29.90000
C  11.91600 -1.18500 28.04900
C  11.26300 0.23600 31.32500
O  12.11700 -0.45700 31.80400
C  10.40400 1.23500 32.15700
C  9.69800 0.43500 33.13400
O  8.68900 -0.30900 32.98000
O  10.33100 0.55100 34.32600
C  9.86000 -0.29100 35.36600
H  5.43500 5.78100 30.84300
H  5.73600 4.06700 24.65900
H  10.27400 -0.25300 25.95700
H  7.76100 2.70000 33.35400
H  7.52700 5.58600 32.46000
H  5.54700 5.48400 33.47800
H  5.98100 3.92800 34.19700
H  4.99900 4.00700 32.67100
H  9.31600 5.15300 33.73900
H  10.35300 3.85100 33.03100
H  10.48500 2.91900 35.06500
H  8.71300 3.06000 35.34000
H  4.74300 8.04400 28.45700
H  4.32000 7.13600 29.90600
H  3.26900 7.19700 28.44600
H  2.67300 7.62100 25.99300
H  3.81700 8.34400 24.85000
H  4.06000 8.62800 26.49100
H  7.77000 2.89300 23.22300
H  8.43100 0.02200 24.13200
H  6.27500 0.40300 23.15200
H  6.14400 1.99500 22.29400
H  5.51800 1.72600 23.99100
H  10.69300 2.18400 24.30200
H  10.01500 2.24500 22.69900
H  10.48900 -0.42500 22.95100
H  11.90000 0.48400 23.62000
H  11.27800 0.80500 21.95400
H  12.75500 -1.28400 28.73900
H  12.28900 -1.01200 27.04000
H  11.33800 -2.10900 28.08600
H  11.05100 1.94700 32.66800
H  10.57700 -0.30800 36.18700
H  9.83300 -1.28100 34.91100
H  8.86500 -0.05100 35.74300
Mg 7.76200 52.99600 41.60600
C  6.94800 49.59200 41.35800
C  10.70000 52.21400 40.01100
C  8.25100 56.17100 41.15800
C  4.60000 53.54400 42.92900
N  8.68000 51.14500 40.75600
C  8.13600 49.88100 40.78400
C  9.06900 48.86600 40.12600
C  10.38500 49.68600 40.18400
C  9.93600 51.10700 40.30300
C  11.42200 49.15800 41.13900
C  8.59700 48.48200 38.68100
C  9.13700 49.32200 37.44200
H  8.14200 49.68800 36.41800
N  9.26100 54.11200 40.63400
C  10.38800 53.61900 40.00500
C  11.21100 54.71800 39.61800
C  10.48400 55.87800 39.83200
C  9.28300 55.40800 40.56800
C  12.50400 54.60000 39.03000
C  10.87400 57.22700 39.33600
O  11.95600 57.33100 38.71400
C  9.94800 58.39500 39.36800
N  6.59200 54.62900 42.05700
C  7.01800 55.84500 41.78500
C  6.14000 56.92400 42.47100
C  4.90800 56.06100 42.93700
C  5.39500 54.64000 42.65500
C  6.75900 57.82500 43.55600
C  3.62800 56.25300 42.19400
C  3.56600 56.02500 40.62300
N  6.09400 51.80100 42.31500
C  4.84900 52.16200 42.81900
C  3.98200 50.98200 43.02300
C  4.81200 49.99500 42.45300
C  6.05400 50.52400 42.03000
C  2.49900 50.96300 43.31300
C  4.95500 48.51500 42.24600
O  4.29000 47.54600 42.57300
C  6.24700 48.21900 41.49300
C  5.84900 47.49600 40.21400
O  4.96600 47.97900 39.47800
O  6.41100 46.29000 40.01100
C  6.10900 45.61400 38.79000
H  11.67000 52.01600 39.55000
H  8.45200 57.24500 41.13500
H  3.62300 53.80100 43.34200
H  9.12200 48.10500 40.90400
H  10.85700 49.42800 39.23600
H  12.34000 48.96900 40.58200
H  11.05800 48.33900 41.75900
H  11.72500 49.90900 41.86900
H  7.53100 48.67000 38.54800
H  8.70500 47.41300 38.49800
H  9.66600 48.48500 36.98600
H  9.74900 50.17700 37.72900
H  12.91000 53.60300 39.20200
H  13.27100 55.17900 39.54400
H  12.48900 54.72800 37.94800
H  9.84100 58.80700 40.37100
H  8.96800 58.08200 39.00900
H  10.17600 59.22500 38.69900
H  5.92400 57.48400 41.56100
H  4.84900 56.26500 44.00600
H  6.76300 58.87200 43.25200
H  7.78200 57.59200 43.85000
H  6.18700 57.84000 44.48400
H  3.43700 57.32500 42.25100
H  2.81100 55.69000 42.64700
H  4.30200 55.32300 40.23100
H  3.43500 56.97000 40.09600
H  2.65100 55.51800 40.31800
H  2.08400 51.97000 43.34400
H  2.32600 50.39100 44.22400
H  2.08700 50.36100 42.50200
H  6.84100 47.48300 42.03400
H  6.83100 44.82900 38.56800
H  6.19400 46.28800 37.93700
H  5.14500 45.10900 38.72800

