158

Mg 40.97500 10.02700 30.20600
C  43.07000 10.95100 32.69000
C  38.76500 8.69800 32.59200
C  38.92100 8.78800 27.76400
C  43.20200 11.07300 27.79800
N  40.95400 9.80000 32.43300
C  41.89100 10.35000 33.20000
C  41.35600 10.46100 34.65800
C  40.10200 9.53100 34.64300
C  39.87000 9.31400 33.15000
C  40.19500 8.08800 35.42100
C  41.11300 11.95900 35.10200
C  41.77100 12.32400 36.48200
H  40.89000 12.74000 37.68500
N  39.18900 8.81800 30.21700
C  38.50000 8.39200 31.31100
C  37.33700 7.68000 30.88500
C  37.28900 7.71400 29.43300
C  38.50000 8.44300 29.07500
C  36.36000 6.99900 31.87400
C  36.31000 7.06500 28.38400
O  36.49400 7.05600 27.12900
C  35.28600 6.05900 28.86100
N  41.18200 9.76200 27.98500
C  40.01400 9.43000 27.29200
C  40.31900 9.62800 25.79700
C  41.73700 10.29400 25.79800
C  42.00000 10.51100 27.25800
C  40.16700 8.44200 24.88000
C  42.03100 11.48200 24.80300
C  41.21400 12.72400 25.21100
N  42.86000 10.70800 30.24000
C  43.57400 11.15400 29.19200
C  44.79800 11.76600 29.69400
C  44.64500 11.74600 31.06300
C  43.45900 11.01400 31.35600
C  45.85700 12.28000 28.78400
C  45.20700 12.16100 32.25300
O  46.30100 12.73100 32.47600
C  44.18200 11.66800 33.46200
C  44.88700 10.81200 34.45100
O  44.91200 9.58600 34.61000
O  45.50600 11.67600 35.36400
C  46.04600 11.02600 36.60000
H  38.05100 8.40400 33.36400
H  38.31200 8.29200 27.00600
H  43.84300 11.53800 27.04700
H  42.17500 9.94900 35.16400
H  39.32600 10.14400 35.10300
H  40.71300 8.34600 36.34500
H  40.68200 7.27600 34.88100
H  39.19500 7.78200 35.72900
H  40.08000 12.28600 35.22700
H  41.50500 12.59100 34.30500
H  42.49900 13.11200 36.29100
H  42.40600 11.47600 36.73900
H  36.50100 7.15300 32.94300
H  36.19900 5.94600 31.63900
H  35.43100 7.48800 31.58100
H  34.48800 6.60000 29.37100
H  35.77400 5.37800 29.55700
H  34.92300 5.37900 28.09000
H  39.55200 10.33500 25.48100
H  42.42300 9.58200 25.34100
H  40.88700 8.37300 24.06400
H  39.14100 8.38700 24.51500
H  40.33400 7.59000 25.53800
H  41.71300 11.25700 23.78500
H  43.10400 11.66400 24.75800
H  40.62300 12.53900 26.10700
H  40.55100 13.13100 24.44800
H  41.85500 13.53600 25.55500
H  45.49000 13.15800 28.25100
H  46.15800 11.56000 28.02300
H  46.75300 12.40500 29.39200
H  43.80800 12.57300 33.94300
H  46.87900 10.38300 36.31600
H  45.28700 10.45900 37.13800
H  46.65700 11.64900 37.25300
Mg 55.28700 24.43200 44.49300
C  52.62700 26.62600 43.67200
C  53.48300 21.78200 43.21000
C  58.09900 22.64100 44.77400
C  57.04700 27.40400 45.54400
N  53.30000 24.30400 43.70200
C  52.40400 25.27100 43.44600
C  51.02900 24.60000 43.03200
C  51.28400 23.06800 43.28100
C  52.85100 23.02400 43.25500
C  50.71900 22.50400 44.60400
C  50.65600 24.82200 41.51900
C  51.76100 25.10800 40.51900
H  52.37200 23.81200 40.02200
N  55.73100 22.44700 44.08800
C  54.84700 21.52900 43.57500
C  55.50500 20.27000 43.62300
C  56.85400 20.49300 44.00700
C  56.96800 21.90500 44.33300
C  54.82900 18.97100 43.31500
C  57.88000 19.35000 44.07900
O  57.59100 18.19600 43.69100
C  59.27700 19.67700 44.48400
N  57.31500 25.03200 44.87600
C  58.28100 24.05000 44.99000
C  59.63700 24.73700 45.16900
C  59.21400 26.15500 45.69000
C  57.74500 26.24500 45.27800
C  60.65300 24.11700 46.09800
C  60.05400 27.32400 45.01000
C  60.80100 28.10700 46.09600
N  54.98800 26.66500 44.66800
C  55.79800 27.65900 45.12800
C  54.96300 28.85300 45.16700
C  53.71500 28.52100 44.57600
C  53.80800 27.17900 44.28400
C  55.39200 30.14800 45.91100
C  52.39500 29.04700 44.28300
O  51.84000 30.11100 44.42100
C  51.66200 27.88400 43.51000
C  51.46800 28.37700 42.15500
O  52.41300 28.77500 41.49000
O  50.12800 28.38900 41.80200
C  49.69500 28.81000 40.49000
H  52.83200 20.93800 42.97000
H  58.99400 22.06900 45.02900
H  57.60200 28.25700 45.94000
H  50.20800 25.01300 43.61800
H  50.87700 22.39000 42.53000
H  51.52300 21.96200 45.10200
H  50.07700 21.64100 44.42900
H  50.24700 23.23000 45.26700
H  50.01300 25.70200 41.51700
H  49.96600 24.04600 41.18900
H  52.48300 25.76900 40.99900
H  51.31600 25.65800 39.68900
H  55.24400 18.49800 42.42500
H  53.78200 19.19600 43.11400
H  54.94800 18.32800 44.18800
H  59.63200 20.45200 43.80400
H  59.89600 18.78500 44.39000
H  59.24200 20.03600 45.51200
H  59.93200 24.84500 44.12500
H  59.21600 26.13900 46.78000
H  60.24300 23.43200 46.84000
H  61.20000 24.93100 46.57300
H  61.46100 23.62700 45.55400
H  59.47600 28.00900 44.39100
H  60.82300 26.94300 44.33700
H  61.76000 28.46300 45.72000
H  61.03600 27.48600 46.96000
H  60.27700 29.01200 46.40500
H  56.46200 30.33900 45.99200
H  54.87500 30.34700 46.84900
H  55.07100 30.98100 45.28500
H  50.69100 27.85600 44.00400
H  49.09800 29.72200 40.50400
H  49.07200 28.00600 40.10000
H  50.50100 28.90200 39.76100

