158

Mg 25.27700 -7.74700 47.93400
C  28.00300 -5.77900 46.79700
C  23.41700 -6.83400 45.42600
C  23.17000 -10.37200 48.73000
C  27.65900 -9.26500 50.24500
N  25.85800 -6.63400 46.15900
C  26.89200 -5.73100 45.98400
C  26.58900 -4.72500 44.82800
C  25.06200 -5.00500 44.49200
C  24.74800 -6.21200 45.45200
C  24.00100 -3.84800 44.43500
C  27.55800 -4.96300 43.62400
C  28.12100 -3.62500 43.01600
H  28.07400 -3.57400 41.47200
N  23.41300 -8.45700 47.22000
C  22.84800 -7.87400 46.18400
C  21.59900 -8.55300 45.93500
C  21.56900 -9.73000 46.74500
C  22.73400 -9.58200 47.62900
C  20.64000 -8.14900 44.75900
C  20.54600 -10.80600 46.66400
O  19.70600 -10.81100 45.75000
C  20.42200 -11.97100 47.62700
N  25.45600 -9.67000 49.25600
C  24.40400 -10.40600 49.47700
C  24.48300 -11.23300 50.76000
C  25.95000 -10.87200 51.23300
C  26.43300 -9.87600 50.18100
C  23.36100 -11.03500 51.85000
C  26.94900 -12.14800 51.50700
C  27.94600 -12.19900 52.64100
N  27.36900 -7.48300 48.58100
C  28.22100 -8.15400 49.48500
C  29.52500 -7.53700 49.48000
C  29.44900 -6.55400 48.46200
C  28.18300 -6.65400 47.88800
C  30.70400 -7.96300 50.22500
C  30.21200 -5.40700 47.82800
O  31.31000 -4.91600 48.12500
C  29.25900 -4.92900 46.68100
C  28.97900 -3.47000 46.82500
O  28.20500 -2.99000 47.59400
O  29.73400 -2.77000 45.86700
C  29.48800 -1.34500 45.84900
H  22.73000 -6.31600 44.75500
H  22.47500 -11.13800 49.08000
H  28.36800 -9.63100 50.99100
H  26.66600 -3.65900 45.04100
H  25.02000 -5.36900 43.46500
H  23.30400 -4.07600 45.24100
H  23.43000 -3.80000 43.50700
H  24.51900 -2.91200 44.64300
H  27.01700 -5.51100 42.85200
H  28.33200 -5.68200 43.89200
H  29.11200 -3.42200 43.42400
H  27.46800 -2.83100 43.37700
H  20.86100 -7.12400 44.46200
H  19.63400 -7.97300 45.13900
H  20.59200 -8.90400 43.97400
H  21.41000 -12.34300 47.90000
H  19.86000 -12.74200 47.10100
H  19.94900 -11.65700 48.55700
H  24.44200 -12.31500 50.63100
H  25.98900 -10.20100 52.09000
H  23.75200 -10.42200 52.66200
H  23.03700 -12.02400 52.17400
H  22.56900 -10.44100 51.39500
H  27.41500 -12.40900 50.55700
H  26.33300 -12.98800 51.82700
H  27.75600 -13.09000 53.23800
H  27.80700 -11.27300 53.20000
H  28.94000 -12.12900 52.20000
H  31.46700 -7.19500 50.09700
H  31.16600 -8.85500 49.80300
H  30.52300 -8.25900 51.25900
H  29.71600 -4.91900 45.69100
H  29.62100 -0.90700 46.83800
H  28.45300 -1.12300 45.58600
H  30.21200 -0.90400 45.16400
Mg 8.69300 46.86600 26.34900
C  6.72200 46.92100 29.20200
C  11.35700 47.80300 28.33200
C  10.51700 47.07800 23.59200
C  5.75300 46.80600 24.34100
N  8.96600 47.24400 28.54100
C  8.01700 47.18700 29.48800
C  8.49200 47.61500 30.90900
C  9.96400 48.17000 30.52800
C  10.16200 47.73400 29.02800
C  10.03000 49.65800 30.69400
C  8.32100 46.41800 31.87900
C  9.34800 46.24700 33.03100
H  9.14400 45.32900 34.24300
N  10.77600 47.17700 26.01000
C  11.68500 47.54800 26.93600
C  12.99600 47.59600 26.30400
C  12.75000 47.27800 24.94900
C  11.30000 47.21300 24.80900
C  14.29100 47.90400 27.07700
C  13.83400 46.98500 23.82800
O  13.42800 46.78900 22.71200
C  15.34500 46.93800 24.10900
N  8.15600 47.06500 24.23800
C  9.15600 47.13900 23.29200
C  8.56300 47.17900 21.83400
C  7.09100 46.83700 22.08600
C  6.97500 46.89500 23.63100
C  8.85100 48.58800 21.20200
C  6.67800 45.53100 21.42400
C  5.31900 45.37300 20.69800
N  6.67600 46.79800 26.63300
C  5.59800 46.69700 25.77900
C  4.44700 46.47700 26.61500
C  4.83100 46.62400 27.90500
C  6.20600 46.80200 27.92300
C  3.06400 46.15200 26.24100
C  4.36200 46.60400 29.26400
O  3.23900 46.45800 29.78800
C  5.56100 46.81600 30.12700
C  5.57100 45.52200 30.89700
O  5.95300 44.43800 30.45600
O  4.99200 45.68600 32.17200
C  4.93100 44.40700 32.93900
H  12.22800 48.10700 28.91700
H  11.10900 47.02100 22.67700
H  4.85100 46.67500 23.74100
H  7.90800 48.45200 31.29100
H  10.74700 47.77700 31.17600
H  9.76500 49.81800 31.73900
H  9.34000 50.15500 30.01200
H  11.07400 49.96500 30.63200
H  8.28300 45.56700 31.19900
H  7.41800 46.53700 32.47900
H  9.62800 47.27300 33.27300
H  10.20700 45.92600 32.44200
H  14.04300 48.14200 28.11100
H  14.72800 48.84700 26.74900
H  14.96100 47.04500 27.03600
H  15.67500 47.94900 24.35000
H  15.92200 46.65500 23.22900
H  15.55300 46.29900 24.96700
H  9.23400 46.51300 21.29100
H  6.38900 47.60900 21.77000
H  7.97300 49.11700 20.83300
H  9.47300 48.47900 20.31300
H  9.21700 49.33900 21.90200
H  6.49900 44.82000 22.23000
H  7.51000 45.11000 20.86000
H  4.60700 46.07200 21.13600
H  4.87400 44.38700 20.83100
H  5.42800 45.60400 19.63900
H  2.26400 46.70400 26.73200
H  2.94900 45.09000 26.46000
H  2.85700 46.29100 25.18000
H  5.42700 47.60700 30.86400
H  4.76200 43.50900 32.34500
H  4.20700 44.52000 33.74500
H  5.90400 44.39400 33.43000

