158

Mg 35.59200 2.57300 30.07400
C  33.14900 3.63200 32.32800
C  37.86400 2.49800 32.70300
C  37.98800 2.11200 27.94000
C  33.40400 3.47800 27.46800
N  35.47200 3.07900 32.27900
C  34.39300 3.47700 32.95200
C  34.65200 3.59200 34.52800
C  36.27300 3.40000 34.64200
C  36.59700 2.89600 33.12600
C  37.22700 4.61400 34.89700
C  33.85000 2.61500 35.34900
C  33.53700 2.88400 36.88700
H  34.36600 4.01600 37.57100
N  37.61500 2.28400 30.35500
C  38.33900 2.21000 31.47000
C  39.71700 1.90200 31.21800
C  39.75400 1.73200 29.77600
C  38.41500 2.03900 29.31900
C  40.76500 1.59400 32.26000
C  40.93500 1.23300 28.92600
O  40.86500 1.09000 27.70600
C  42.31400 0.88900 29.55400
N  35.67900 2.83600 27.94800
C  36.79300 2.45300 27.28800
C  36.59400 2.52900 25.78900
C  35.09600 2.96500 25.60300
C  34.65600 3.05300 27.06700
C  37.66600 3.37600 24.99200
C  34.27100 1.95600 24.73800
C  33.62200 0.73700 25.39200
N  33.62100 3.23400 29.92300
C  32.83300 3.51500 28.77700
C  31.46700 3.76400 29.24200
C  31.50700 3.85500 30.62400
C  32.85800 3.53100 30.98600
C  30.37700 3.95500 28.31300
C  30.74700 4.21000 31.80900
O  29.56100 4.43100 31.95300
C  31.76500 4.02400 32.96600
C  31.78100 5.34600 33.64800
O  32.52300 6.25800 33.31900
O  30.77100 5.40100 34.57400
C  30.78800 6.62400 35.41600
H  38.55800 2.67500 33.52800
H  38.73300 1.82700 27.19300
H  32.60800 3.64600 26.73900
H  34.47600 4.64300 34.75600
H  36.47300 2.59400 35.34800
H  36.60900 5.49700 35.05600
H  37.84400 4.82000 34.02200
H  37.90100 4.36200 35.71600
H  34.29300 1.62700 35.47700
H  32.89200 2.43700 34.86000
H  33.61400 1.96800 37.47300
H  32.51900 3.26500 36.96000
H  41.80500 1.69400 31.95000
H  40.69200 0.61400 32.73200
H  40.69400 2.38200 33.01000
H  42.79100 0.37200 28.72100
H  42.21500 0.18200 30.37800
H  42.90000 1.79900 29.67900
H  36.78500 1.52500 25.40800
H  35.09500 4.02600 25.35300
H  38.35500 3.84800 25.69200
H  37.09300 4.11400 24.43000
H  38.24000 2.77300 24.28900
H  34.99500 1.60900 24.00100
H  33.62800 2.59000 24.12700
H  34.00700 0.71500 26.41200
H  34.00900 -0.13900 24.87200
H  32.53300 0.73300 25.35800
H  29.42400 4.16400 28.79800
H  30.28300 3.10200 27.64200
H  30.44000 4.87400 27.73100
H  31.29400 3.29900 33.63100
H  30.48500 7.51300 34.86300
H  31.71800 6.82300 35.94900
H  29.97100 6.52400 36.13000
Mg 47.85300 24.47900 27.90000
C  48.62600 26.80300 30.40100
C  47.30700 22.22200 30.45500
C  47.27000 22.27200 25.57600
C  48.81400 26.83400 25.54700
N  48.12200 24.50900 30.19200
C  48.26600 25.61900 30.96500
C  48.05000 25.29600 32.46900
C  47.57500 23.77200 32.44400
C  47.77600 23.41400 30.99500
C  48.33700 22.87300 33.47100
C  47.01100 26.29200 33.12300
C  46.41700 25.91400 34.45600
H  46.53100 27.09300 35.41900
N  47.25400 22.59000 28.04400
C  47.09900 21.78600 29.14000
C  46.80900 20.40000 28.68300
C  46.61700 20.42500 27.27000
C  47.05900 21.82500 26.90200
C  46.59500 19.27200 29.66000
C  46.06600 19.30400 26.27000
O  45.91800 19.53400 25.12400
C  45.79900 17.98700 26.81400
N  48.04500 24.60400 25.76800
C  47.63300 23.49400 25.04100
C  47.82400 23.81300 23.46200
C  48.04300 25.34000 23.55000
C  48.31800 25.65800 25.00800
C  48.84000 22.88000 22.80300
C  47.01100 26.27200 22.81300
C  45.61000 26.47900 23.35300
N  48.68100 26.46500 27.92300
C  48.93700 27.29300 26.85900
C  49.46100 28.55300 27.43900
C  49.39400 28.39900 28.84100
C  48.82700 27.10600 29.09800
C  49.87100 29.82400 26.73100
C  49.69900 29.00100 30.08200
O  50.28200 29.98200 30.33100
C  49.11000 28.06100 31.18600
C  50.15400 27.73800 32.19700
O  51.04400 26.89100 32.04400
O  49.99800 28.53300 33.34900
C  50.66000 28.08200 34.59300
H  47.11300 21.61900 31.34400
H  47.17700 21.51200 24.79700
H  49.22800 27.51700 24.80300
H  48.99300 25.42900 32.99900
H  46.52400 23.67900 32.71400
H  49.30500 22.52100 33.11400
H  47.65600 22.06500 33.73800
H  48.50100 23.47300 34.36600
H  46.20800 26.43400 32.40000
H  47.54300 27.23100 33.27600
H  46.75300 24.94300 34.81900
H  45.35200 25.90500 34.22100
H  47.00900 19.61300 30.60900
H  46.95500 18.35900 29.18600
H  45.54600 19.18000 29.94200
H  46.55400 17.61300 27.50400
H  45.70900 17.42100 25.88700
H  44.77200 17.95800 27.18000
H  46.94600 23.80800 22.81600
H  48.92400 25.58000 22.95500
H  48.90700 21.95000 23.36800
H  49.70600 23.54200 22.77900
H  48.59600 22.57800 21.78500
H  46.81800 25.89200 21.81000
H  47.53800 27.22600 22.79500
H  45.71100 26.57800 24.43400
H  44.89300 25.71300 23.05800
H  45.34400 27.48200 23.01900
H  48.93200 30.37400 26.67600
H  50.16700 29.64100 25.69800
H  50.64000 30.41500 27.22900
H  48.33900 28.65400 31.67900
H  50.31700 27.06500 34.78500
H  50.37200 28.71200 35.43500
H  51.74600 28.11900 34.51500

