158

Mg 47.97800 24.58800 28.17300
C  48.71100 26.97600 30.60300
C  46.65700 22.42900 30.43100
C  47.68300 22.26200 25.67000
C  49.81600 26.57800 25.91200
N  47.74800 24.77000 30.27700
C  48.11600 25.76200 31.10400
C  47.80800 25.35100 32.55500
C  47.33900 23.88600 32.47400
C  47.17500 23.65500 30.96500
C  48.12500 22.72400 33.18500
C  46.78600 26.35300 33.27500
C  47.23800 26.81200 34.72400
H  47.00800 25.90700 35.89400
N  47.21200 22.58800 28.08500
C  46.62400 21.93000 29.13800
C  45.94900 20.69600 28.60700
C  46.26400 20.60700 27.18800
C  47.04800 21.84700 26.91000
C  45.25500 19.75700 29.47900
C  45.82600 19.58800 26.10700
O  46.03800 19.78400 24.88100
C  45.03100 18.38600 26.54800
N  48.70000 24.39100 26.14700
C  48.43900 23.37000 25.26500
C  49.09600 23.61800 23.87500
C  49.70700 25.01700 24.03200
C  49.35800 25.41900 25.47700
C  50.15800 22.54900 23.52500
C  49.06100 26.02700 22.98200
C  47.54500 26.30400 22.98500
N  49.01600 26.44900 28.13700
C  49.76400 27.06000 27.16900
C  50.40000 28.28100 27.71200
C  49.88000 28.35400 29.05500
C  49.12700 27.17000 29.26500
C  51.22300 29.29800 26.94900
C  49.82400 29.14000 30.24100
O  50.20100 30.24100 30.38900
C  49.16200 28.23600 31.30200
C  50.21800 27.95700 32.33300
O  51.26900 27.26900 32.17900
O  49.98100 28.74200 33.39600
C  50.87000 28.96700 34.54500
H  46.28600 21.75900 31.20900
H  47.57200 21.57100 24.83100
H  50.39500 27.16200 25.19300
H  48.73700 25.33000 33.12600
H  46.32500 23.76900 32.85700
H  48.83100 22.22300 32.52300
H  47.41800 21.99200 33.57500
H  48.66300 23.13600 34.03900
H  45.85800 25.80200 33.42500
H  46.55400 27.20300 32.63300
H  46.74300 27.71500 35.07900
H  48.27900 27.13400 34.74100
H  44.16900 19.74100 29.38100
H  45.42000 20.01100 30.52600
H  45.66100 18.78700 29.19200
H  44.08600 18.82800 26.86700
H  45.53900 17.81500 27.32500
H  44.85500 17.73300 25.69400
H  48.33900 23.62000 23.09000
H  50.78700 24.87600 24.06900
H  50.61000 22.18300 24.44700
H  50.83900 23.18400 22.95700
H  49.62300 21.80100 22.93900
H  49.31100 25.46500 22.08200
H  49.68500 26.91400 22.88000
H  47.06600 26.18900 22.01300
H  47.42800 27.33400 23.32100
H  46.97400 25.59100 23.57900
H  50.88800 29.37200 25.91400
H  52.21100 28.83700 26.94100
H  51.31500 30.21900 27.52400
H  48.37700 28.82300 31.77900
H  51.79600 28.41800 34.37300
H  50.47400 28.52500 35.45900
H  51.13300 30.01100 34.71600
Mg 6.30600 53.11700 41.53300
C  5.61800 49.70000 41.39700
C  9.63400 52.45100 40.83900
C  6.97600 56.56500 41.44700
C  2.95000 53.86000 41.87600
N  7.45300 51.19600 40.92500
C  6.98000 49.94600 41.06000
C  8.15500 48.90200 40.88300
C  9.45200 49.88800 40.84000
C  8.85500 51.29100 40.99100
C  10.52700 49.47500 41.93800
C  8.12700 48.17400 39.56800
C  8.08000 48.96000 38.26000
H  7.15700 48.45200 37.19800
N  8.08800 54.34100 41.21200
C  9.35400 53.82200 41.01500
C  10.28600 54.95500 40.75500
C  9.55100 56.09100 40.90000
C  8.11700 55.71600 41.31200
C  11.81100 54.84900 40.51900
C  10.15700 57.53100 40.68900
O  11.34600 57.60500 40.42500
C  9.39200 58.80000 40.69300
N  5.14400 54.93000 41.59200
C  5.63500 56.20400 41.62600
C  4.54300 57.18600 41.60300
C  3.22900 56.36500 41.71500
C  3.78100 54.97800 41.65800
C  4.60500 58.31900 42.67500
C  2.05500 56.49800 40.64300
C  1.01000 57.54100 41.16000
N  4.62600 52.02900 41.57100
C  3.31100 52.49000 41.77300
C  2.42700 51.33600 42.11700
C  3.30500 50.20700 41.87600
C  4.60600 50.69100 41.62000
C  1.03200 51.35800 42.56400
C  3.38700 48.73800 41.98000
O  2.51800 47.92700 42.36100
C  4.81200 48.37500 41.60100
C  4.83600 47.49500 40.46400
O  4.41800 47.76400 39.36000
O  5.36700 46.29200 40.76400
C  5.41400 45.36500 39.61900
H  10.65500 52.14900 40.59600
H  7.15300 57.64200 41.44500
H  1.92700 54.13400 42.14100
H  8.27700 48.17100 41.68200
H  10.08700 49.78100 39.96000
H  11.47700 49.08900 41.56700
H  10.04900 48.90200 42.73300
H  10.77500 50.45900 42.33600
H  7.32900 47.43200 39.57700
H  9.08200 47.64900 39.57800
H  9.05600 48.80300 37.80200
H  7.76200 49.98800 38.43500
H  12.09900 55.34200 39.59100
H  12.10200 53.81100 40.36400
H  12.31700 55.31400 41.36600
H  8.58000 58.77300 39.96700
H  9.93500 59.72300 40.48800
H  9.07900 59.01300 41.71500
H  4.54600 57.56100 40.58000
H  2.76300 56.43700 42.69800
H  3.68500 58.49400 43.23200
H  4.77600 59.30200 42.23700
H  5.41900 58.11300 43.37100
H  1.51500 55.57200 40.44500
H  2.37300 56.88300 39.67400
H  0.85600 58.19100 40.29900
H  1.41400 58.13800 41.97700
H  0.00800 57.21800 41.44200
H  0.76100 50.79100 43.45500
H  0.58000 50.92800 41.67000
H  0.76600 52.40200 42.73100
H  5.24500 47.79300 42.41500
H  5.91500 44.41000 39.77700
H  5.97000 45.76600 38.77200
H  4.40700 45.19200 39.23700

