158

Mg 48.51900 34.55300 26.49800
C  46.76300 33.13500 29.33700
C  48.71100 37.50600 28.08000
C  49.65900 35.72400 23.63900
C  47.69900 31.43700 24.72100
N  47.91300 35.22900 28.51200
C  47.31600 34.47600 29.47900
C  47.36700 35.28700 30.82900
C  47.44000 36.76300 30.38800
C  48.04300 36.52900 28.87700
C  46.07400 37.52200 30.41500
C  48.45800 34.80400 31.81200
C  48.06700 34.59800 33.29100
H  46.90800 35.45000 33.83700
N  49.22300 36.28500 25.95500
C  49.20800 37.38800 26.75200
C  50.02800 38.44000 26.06700
C  50.28500 38.01700 24.70900
C  49.70300 36.65800 24.68400
C  50.51600 39.75500 26.74800
C  50.93900 38.66900 23.54200
O  51.32400 38.15300 22.51400
C  51.10400 40.15100 23.59700
N  48.40500 33.79000 24.44500
C  49.15500 34.48100 23.56200
C  49.36400 33.68900 22.28200
C  48.84900 32.30100 22.65700
C  48.28100 32.46300 24.04700
C  48.70400 34.22800 20.96400
C  49.87900 31.17700 22.56900
C  50.99800 31.19600 23.58900
N  47.41200 32.66400 26.93200
C  47.16800 31.51800 26.04100
C  46.45400 30.54900 26.81700
C  46.14700 31.19600 28.09900
C  46.79700 32.43400 28.09500
C  46.10200 29.12600 26.39300
C  45.53600 31.01500 29.39400
O  45.06900 30.03900 29.98200
C  45.80400 32.37300 30.20100
C  46.35600 31.90400 31.54400
O  47.49500 31.54500 31.84600
O  45.30700 31.67200 32.42000
C  45.58500 31.01300 33.71600
H  48.91400 38.51300 28.45000
H  50.21000 35.93600 22.72000
H  47.62500 30.46900 24.22200
H  46.37400 35.07900 31.22700
H  48.16000 37.32600 30.98200
H  45.29000 36.87000 30.79800
H  45.91600 37.89800 29.40400
H  46.19600 38.31500 31.15300
H  49.33000 35.45800 31.83300
H  48.68600 33.78000 31.51500
H  48.96100 34.74600 33.89700
H  47.67000 33.58600 33.37100
H  49.84300 40.50400 26.33100
H  51.58200 39.90600 26.58200
H  50.29900 39.77500 27.81600
H  51.66400 40.34200 24.51300
H  50.20900 40.76300 23.70700
H  51.76700 40.55700 22.83300
H  50.42200 33.58400 22.04000
H  48.06000 32.07800 21.93800
H  48.04600 35.06400 21.20300
H  48.13300 33.54500 20.33500
H  49.52500 34.67300 20.40200
H  50.40300 31.06200 21.62000
H  49.31200 30.26400 22.75000
H  50.80000 30.34300 24.23800
H  50.99500 32.13300 24.14600
H  52.01700 31.06300 23.22600
H  46.12300 28.91100 25.32500
H  45.16500 28.69500 26.74900
H  46.90000 28.51400 26.81200
H  44.91100 32.98300 30.34000
H  46.65500 31.02400 33.92600
H  45.25800 29.97400 33.71700
H  45.10900 31.60000 34.50100
Mg -11.29200 16.89100 41.62100
C  -8.23200 15.32900 40.71900
C  -10.22000 19.64000 39.92900
C  -14.44900 18.10600 41.67600
C  -12.50100 13.74100 42.61900
N  -9.51600 17.35500 40.21800
C  -8.38300 16.55000 40.10200
C  -7.26100 17.26600 39.36900
C  -7.79500 18.76300 39.28300
C  -9.24600 18.63200 39.81700
C  -6.86300 19.80400 39.92900
C  -7.00500 16.48100 38.00000
C  -5.51400 16.27600 37.67900
H  -4.86600 17.10700 36.39600
N  -12.28300 18.62900 40.95000
C  -11.61300 19.65600 40.28700
C  -12.54300 20.78200 40.03500
C  -13.74400 20.35300 40.60100
C  -13.54500 18.96000 41.03600
C  -12.18700 22.08300 39.29600
C  -15.02300 21.23500 40.82300
O  -15.20000 22.31600 40.32000
C  -16.10600 20.72600 41.76700
N  -13.32700 15.99200 41.96000
C  -14.36200 16.82200 42.17300
C  -15.54900 15.92500 42.58200
C  -14.92400 14.54400 43.11600
C  -13.49300 14.74100 42.49500
C  -16.61600 16.47100 43.58000
C  -15.67200 13.22400 42.81200
C  -16.18200 12.53800 44.02000
N  -10.55900 14.94900 41.78000
C  -11.12600 13.79400 42.24200
C  -10.06900 12.82200 42.38000
C  -8.94200 13.41300 41.81600
C  -9.24900 14.70000 41.45700
C  -10.32900 11.39500 43.00100
C  -7.59600 13.14500 41.46100
O  -7.05300 12.03400 41.46700
C  -7.05400 14.39800 40.69600
C  -5.98900 14.94700 41.48000
O  -5.99300 15.30300 42.63700
O  -4.92200 15.07400 40.59600
C  -3.73300 15.58000 41.29700
H  -9.86000 20.57400 39.49400
H  -15.49000 18.43100 41.62400
H  -12.89800 12.85300 43.11500
H  -6.35800 17.29100 39.97800
H  -7.96800 18.97300 38.22800
H  -6.22900 19.43600 40.73600
H  -7.55300 20.47300 40.44400
H  -6.29600 20.42100 39.23200
H  -7.45200 17.04000 37.17900
H  -7.48600 15.50300 37.97100
H  -5.34300 15.22300 37.45600
H  -4.99400 16.60900 38.57800
H  -12.56100 22.07800 38.27200
H  -11.10200 22.17800 39.26000
H  -12.54600 22.90800 39.91100
H  -16.60800 21.59200 42.19700
H  -15.64100 20.24800 42.63000
H  -16.76700 20.02900 41.25100
H  -16.02100 15.86400 41.60100
H  -14.69700 14.69000 44.17200
H  -16.29500 16.13400 44.56600
H  -17.57400 15.99700 43.36700
H  -16.62300 17.56100 43.56900
H  -15.02900 12.58600 42.20600
H  -16.62900 13.41900 42.32900
H  -17.24400 12.29500 44.00500
H  -16.06400 13.05100 44.97400
H  -15.73800 11.56400 44.22300
H  -11.03600 11.65100 43.79000
H  -9.36000 11.07700 43.38400
H  -10.83400 10.81900 42.22500
H  -6.62100 14.06100 39.75300
H  -2.87500 15.74000 40.64400
H  -3.36900 14.80000 41.96600
H  -3.81500 16.46200 41.93200

