158

Mg 0.13300 7.95300 26.74300
C  0.82300 10.03900 29.50500
C  -0.25500 5.36300 28.76500
C  -0.60800 6.11700 24.04300
C  0.67000 10.78300 24.66600
N  0.35500 7.74200 28.79800
C  0.49000 8.68700 29.82500
C  0.40500 8.09100 31.20900
C  0.48600 6.56300 30.84700
C  0.18100 6.52100 29.35800
C  1.78700 5.89300 31.16700
C  -0.90700 8.55800 31.93500
C  -0.77600 8.68300 33.50700
H  0.38100 8.13500 34.22700
N  -0.34300 6.02900 26.46900
C  -0.54800 5.07400 27.41500
C  -0.89100 3.84500 26.89100
C  -0.89000 4.01200 25.47300
C  -0.62900 5.46000 25.28000
C  -1.30200 2.60600 27.70500
C  -1.23900 3.02500 24.42100
O  -1.34900 3.44000 23.24500
C  -1.33600 1.60600 24.65600
N  0.06900 8.47100 24.60900
C  -0.30500 7.44400 23.76700
C  -0.34900 8.00400 22.32200
C  -0.02500 9.58800 22.51800
C  0.18400 9.67100 24.01300
C  0.65400 7.30400 21.26600
C  -1.08700 10.52800 21.88900
C  -2.30200 10.89100 22.77500
N  0.78400 9.92000 26.95000
C  0.97200 10.94500 26.03700
C  1.33900 12.20200 26.74100
C  1.34300 11.83600 28.12800
C  0.94900 10.50900 28.18100
C  1.49600 13.56700 26.08800
C  1.53300 12.25200 29.42500
O  1.94500 13.28800 29.81600
C  1.11900 11.18300 30.43500
C  2.28500 10.87600 31.42200
O  3.30100 10.18300 31.20500
O  2.06000 11.50100 32.63500
C  3.07500 11.49700 33.63700
H  -0.26200 4.57200 29.51800
H  -0.68200 5.61000 23.07800
H  0.82900 11.64300 24.01100
H  1.25400 8.23200 31.87800
H  -0.20500 5.95800 31.43500
H  2.59800 6.52700 31.52300
H  2.08400 5.24800 30.33900
H  1.49600 5.14200 31.90100
H  -1.58800 7.70700 31.94100
H  -1.26300 9.49300 31.50400
H  -1.69300 8.19100 33.83200
H  -0.97200 9.70100 33.84300
H  -1.62200 2.85700 28.71600
H  -0.56400 1.80600 27.63800
H  -2.19300 2.19900 27.22700
H  -0.43300 1.40800 25.23300
H  -1.14000 1.08600 23.71800
H  -2.23700 1.30200 25.18800
H  -1.41100 7.81400 22.16300
H  0.95600 9.85400 22.12300
H  0.02100 7.04200 20.41800
H  1.08500 6.42800 21.75000
H  1.48100 7.90800 20.89300
H  -1.58400 10.18700 20.98100
H  -0.61700 11.49500 21.71000
H  -3.23600 10.44700 22.42900
H  -2.35000 11.97700 22.86300
H  -2.20500 10.58700 23.81700
H  1.28800 14.38200 26.78200
H  0.77300 13.66300 25.27800
H  2.51500 13.71700 25.73300
H  0.25100 11.53100 30.99600
H  3.01000 12.41200 34.22700
H  4.09100 11.29300 33.30000
H  2.76100 10.77300 34.38900
Mg 48.06600 24.90500 28.36800
C  48.74800 27.18500 30.98500
C  47.26500 22.71400 30.88300
C  47.56900 22.81200 26.00100
C  48.95700 27.41900 26.08900
N  47.94400 24.98400 30.68700
C  48.11100 26.03500 31.49900
C  47.80200 25.73200 32.95500
C  47.50800 24.19000 32.97900
C  47.61500 23.93100 31.41400
C  48.47800 23.26900 33.86600
C  46.61600 26.67700 33.30500
C  46.01600 26.61000 34.73100
H  46.21200 27.81300 35.70900
N  47.46600 23.02000 28.41100
C  47.13900 22.25600 29.51100
C  46.67900 20.97600 29.04200
C  46.56400 21.09800 27.65100
C  47.20300 22.33600 27.27400
C  46.27700 19.86000 30.04700
C  46.06400 20.10200 26.60200
O  46.09600 20.34700 25.39900
C  45.31000 18.82900 26.89000
N  48.18300 25.15500 26.34300
C  47.89200 24.09600 25.56500
C  48.17600 24.39500 24.08200
C  48.51900 25.93800 24.06700
C  48.54700 26.15000 25.60000
C  49.39100 23.63300 23.47300
C  47.58700 26.88100 23.26300
C  48.06700 27.20100 21.87500
N  48.80100 26.85500 28.47600
C  49.05200 27.75800 27.42900
C  49.55500 28.94800 27.93500
C  49.39700 28.78500 29.33600
C  48.91800 27.48400 29.60100
C  50.22000 30.10400 27.16800
C  49.76500 29.47200 30.55400
O  50.35500 30.47400 30.75600
C  49.26700 28.43900 31.67600
C  50.40200 28.19600 32.57000
O  51.18900 27.27400 32.47100
O  50.38600 29.13400 33.54000
C  51.19200 28.77800 34.74400
H  46.92300 21.98300 31.61900
H  47.55300 22.12600 25.15100
H  49.20900 28.26000 25.43900
H  48.65400 25.86200 33.62200
H  46.49300 23.96200 33.30500
H  49.34900 23.83800 34.19300
H  48.75300 22.31400 33.41800
H  47.87400 23.07000 34.75200
H  45.75000 26.48600 32.67300
H  47.00300 27.69600 33.27700
H  46.34400 25.68200 35.19900
H  44.93500 26.48400 34.67100
H  46.49300 18.87400 29.63500
H  45.22600 19.89000 30.33500
H  46.96300 19.86400 30.89400
H  46.06500 18.25000 27.42200
H  45.04600 18.35300 25.94600
H  44.52100 19.03000 27.61500
H  47.27900 24.29600 23.47100
H  49.56500 26.17300 23.87000
H  50.17600 24.16400 22.93400
H  48.98100 22.82700 22.86400
H  49.91300 23.20100 24.32700
H  47.33900 27.78700 23.81500
H  46.64500 26.34700 23.13900
H  49.09600 26.84500 21.81700
H  48.01100 28.25100 21.59000
H  47.47600 26.67600 21.12500
H  51.16300 30.32200 27.66900
H  49.64500 31.02400 27.27400
H  50.40400 29.89600 26.11400
H  48.44400 28.98000 32.14300
H  51.38300 29.60300 35.43100
H  52.17900 28.39100 34.49200
H  50.66000 27.98500 35.27100

