158

Mg 31.51100 57.81700 39.85500
C  28.53700 56.17400 38.84900
C  33.34000 55.23500 38.55900
C  34.22300 59.94500 40.03200
C  29.43900 60.66000 40.62000
N  30.97600 56.00500 38.79100
C  29.71800 55.51300 38.49200
C  29.84500 54.24000 37.65400
C  31.29800 53.81500 38.03900
C  31.93000 55.12900 38.38100
C  31.35600 52.96400 39.26300
C  29.55300 54.36100 36.05800
C  28.49500 53.49100 35.44700
H  27.42900 54.33500 34.68100
N  33.45600 57.62300 39.34500
C  34.08300 56.43700 38.93100
C  35.49100 56.69300 38.75300
C  35.76700 57.99100 39.16000
C  34.44700 58.59000 39.54800
C  36.51700 55.68200 38.29900
C  37.17100 58.70000 39.19900
O  38.18100 58.03000 38.92800
C  37.33200 60.13400 39.34500
N  31.77800 59.94800 40.27400
C  32.98200 60.48700 40.47300
C  32.90400 61.97400 40.90800
C  31.37700 62.16000 41.03000
C  30.81500 60.86900 40.59100
C  33.70000 62.34900 42.10600
C  30.80300 63.36500 40.16900
C  30.18900 64.50000 41.10300
N  29.41800 58.25500 40.03800
C  28.74300 59.44700 40.28800
C  27.25900 59.23600 40.18500
C  27.19400 57.85100 39.78100
C  28.47400 57.38200 39.54900
C  26.04700 60.26200 40.38600
C  26.26900 56.73900 39.38700
O  25.02400 56.73400 39.37700
C  27.11200 55.59100 38.75600
C  26.88800 54.38400 39.49000
O  27.65200 53.76000 40.22500
O  25.69000 53.91800 39.02600
C  25.31300 52.63700 39.58700
H  34.02100 54.45600 38.21000
H  35.10500 60.57700 40.15800
H  28.80200 61.48200 40.95300
H  29.21900 53.43600 38.04100
H  31.92900 53.40500 37.25000
H  32.41300 52.77300 39.45000
H  30.75600 52.07900 39.05100
H  30.83800 53.34900 40.14100
H  30.49600 54.11100 35.57200
H  29.20700 55.38400 35.90900
H  27.85000 52.99600 36.17300
H  29.06500 52.86000 34.76500
H  37.47600 56.05400 37.93700
H  36.16400 54.98700 37.53800
H  36.75500 55.00900 39.12400
H  37.04300 60.49300 40.33200
H  36.78900 60.64000 38.54700
H  38.34500 60.48400 39.14500
H  33.21800 62.64100 40.10500
H  31.03200 62.32100 42.05100
H  33.10300 62.48400 43.00700
H  34.20300 63.27800 41.84000
H  34.43200 61.66700 42.54100
H  29.93100 63.09100 39.57600
H  31.62600 63.79900 39.60000
H  30.51000 65.40100 40.58100
H  30.62000 64.39900 42.09900
H  29.10400 64.57800 41.17200
H  26.34100 61.04800 41.08200
H  25.21100 59.69200 40.79100
H  25.74700 60.69800 39.43400
H  26.80000 55.35100 37.73900
H  25.03100 52.70700 40.63700
H  26.07100 51.87100 39.42600
H  24.34800 52.32200 39.18900
Mg 9.93200 46.68500 26.29200
C  7.64400 47.12100 28.97000
C  12.32400 48.17300 28.31500
C  11.85600 46.80000 23.58100
C  7.19600 46.02300 24.27600
N  10.07200 47.26100 28.41100
C  9.01200 47.29900 29.34400
C  9.47200 47.67600 30.81300
C  10.77800 48.39100 30.41800
C  11.13300 47.82300 29.01200
C  10.58400 49.96200 30.43200
C  9.62400 46.34300 31.65300
C  9.33500 46.42300 33.13700
H  10.06900 45.39100 34.02400
N  11.89600 47.22700 25.97400
C  12.69800 47.85000 26.96000
C  14.01400 47.92500 26.43800
C  13.94600 47.55100 25.06200
C  12.56900 47.21900 24.80000
C  15.20000 48.41500 27.24200
C  15.09800 47.45300 24.02100
O  14.77000 47.12200 22.89500
C  16.47300 47.66900 24.32400
N  9.56700 46.54100 24.17400
C  10.59300 46.49500 23.28400
C  10.05200 46.25000 21.80300
C  8.58500 45.85100 22.10200
C  8.45600 46.01600 23.62600
C  10.32000 47.47200 20.92400
C  7.97900 44.51100 21.51200
C  7.43700 44.60300 20.07100
N  7.84700 46.76000 26.50500
C  6.86600 46.41100 25.62300
C  5.55900 46.44900 26.23100
C  5.79700 46.68900 27.61000
C  7.19400 46.90700 27.68600
C  4.20400 46.22900 25.52600
C  5.17100 46.88200 28.87500
O  3.97900 46.81900 29.21200
C  6.29500 47.34400 29.77300
C  6.10400 46.52700 31.04500
O  6.47900 45.35900 31.15900
O  5.43700 47.21400 32.01900
C  5.17400 46.35400 33.16400
H  13.05300 48.71100 28.92400
H  12.42300 46.94700 22.65900
H  6.32700 45.66300 23.72100
H  8.74800 48.35200 31.26900
H  11.58700 48.15100 31.10800
H  10.40200 50.32100 29.41900
H  11.47700 50.42400 30.85200
H  9.79600 50.28000 31.11500
H  10.64400 45.96700 31.57200
H  8.91400 45.66100 31.18600
H  8.27700 46.19200 33.26100
H  9.48500 47.45200 33.46300
H  15.03400 48.42200 28.32000
H  15.72200 49.28300 26.84100
H  15.94900 47.62300 27.24600
H  16.89600 46.86700 24.92900
H  16.69000 48.47500 25.02400
H  16.95000 47.84800 23.36000
H  10.55300 45.43300 21.28500
H  7.86600 46.56700 21.70400
H  10.99900 48.17100 21.41300
H  9.38800 47.96100 20.64200
H  10.71900 47.12900 19.96900
H  7.11800 44.21900 22.11300
H  8.78200 43.78300 21.63400
H  8.15100 44.11000 19.41100
H  7.36400 45.57600 19.58500
H  6.42400 44.22300 19.93900
H  3.84000 45.25200 25.84200
H  4.25200 46.31000 24.44000
H  3.42600 46.91900 25.85200
H  6.22600 48.39100 30.06700
H  4.29400 46.82700 33.59900
H  6.07800 46.24700 33.76500
H  4.82100 45.33100 33.03300

