158

Mg 1.71900 -1.39800 44.35200
C  4.95300 -0.39200 43.70200
C  0.63300 1.55100 42.53500
C  -1.24300 -2.70400 43.96400
C  2.97900 -4.35600 45.70900
N  2.70900 0.32100 43.22500
C  4.05500 0.52300 43.11400
C  4.32500 1.73400 42.12400
C  2.97400 2.48900 42.18500
C  2.03700 1.43200 42.73700
C  3.09500 3.76900 43.10000
C  4.76700 1.28800 40.68600
C  5.97700 2.11500 40.13800
H  6.04800 2.60900 38.67300
N  -0.05700 -0.67500 43.44100
C  -0.34500 0.58100 42.87000
C  -1.81200 0.74200 42.67900
C  -2.30600 -0.60600 42.95100
C  -1.20000 -1.36700 43.46400
C  -2.34900 1.96400 41.98400
C  -3.83900 -0.92900 42.81700
O  -4.58100 -0.16100 42.25500
C  -4.41600 -2.31000 43.09700
N  0.99000 -3.33100 44.67600
C  -0.34200 -3.54500 44.59300
C  -0.75300 -4.87600 45.18900
C  0.56800 -5.38300 45.79400
C  1.61300 -4.29100 45.37700
C  -1.91700 -4.90000 46.15300
C  0.94600 -6.81100 45.41600
C  1.42600 -7.69500 46.62800
N  3.51500 -2.13000 44.85300
C  3.89000 -3.32400 45.34700
C  5.31700 -3.36900 45.64300
C  5.87600 -2.20600 44.93800
C  4.65600 -1.54200 44.50100
C  6.05200 -4.42600 46.43000
C  7.06400 -1.51700 44.55800
O  8.25400 -1.75200 44.64400
C  6.44500 -0.26500 43.70300
C  6.95700 1.01400 44.30200
O  6.37800 1.50200 45.23100
O  8.09100 1.47600 43.67500
C  8.52000 2.78700 44.02600
H  0.27200 2.50700 42.15000
H  -2.21600 -3.19700 43.91400
H  3.44600 -5.25900 46.10700
H  5.10300 2.31900 42.61500
H  2.60000 2.92800 41.25900
H  4.10700 3.97500 43.44800
H  2.48200 3.69000 43.99800
H  2.75400 4.66400 42.58100
H  3.96500 1.31800 39.94900
H  5.21400 0.31400 40.89000
H  6.90400 1.54700 40.21000
H  6.11100 2.94600 40.83000
H  -1.90800 2.84700 42.44600
H  -3.41600 2.03300 42.19200
H  -2.12400 2.01300 40.91900
H  -3.88000 -3.01300 42.46000
H  -5.45100 -2.30600 42.75700
H  -4.42400 -2.60300 44.14700
H  -1.11500 -5.44600 44.33300
H  0.45700 -5.26900 46.87300
H  -1.65100 -5.55100 46.98600
H  -2.79100 -5.23700 45.59700
H  -2.21000 -3.92800 46.55100
H  1.73100 -6.66400 44.67500
H  0.07200 -7.33500 45.03000
H  1.64400 -7.01600 47.45200
H  2.32100 -8.20200 46.26800
H  0.65100 -8.45700 46.70700
H  5.84300 -4.35300 47.49800
H  7.13200 -4.36300 46.29600
H  5.71300 -5.40600 46.09300
H  6.82800 -0.21000 42.68400
H  8.50800 2.99300 45.09600
H  8.06300 3.56200 43.41100
H  9.57900 2.85300 43.77400
Mg -5.23400 24.52600 25.68200
C  -4.09200 25.77700 28.70700
C  -7.35700 22.51300 27.40800
C  -6.50200 23.42300 22.68700
C  -3.21900 26.78200 23.95800
N  -5.57800 24.15800 27.83400
C  -5.16900 24.88200 28.82900
C  -5.85200 24.66300 30.16400
C  -6.71200 23.43400 29.76100
C  -6.58100 23.31400 28.26300
C  -6.55800 22.13100 30.50100
C  -6.58800 25.92000 30.77700
C  -6.37700 26.09400 32.37100
H  -5.71600 25.06300 33.24700
N  -6.68300 23.06300 25.15000
C  -7.44800 22.42600 26.01900
C  -8.30400 21.59700 25.33800
C  -8.12500 21.81900 23.91300
C  -7.10700 22.87600 23.84700
C  -9.36400 20.73100 26.00100
C  -8.78700 21.18000 22.73500
O  -8.69900 21.59500 21.58800
C  -9.74200 19.97700 22.94300
N  -4.96200 25.12600 23.61300
C  -5.42200 24.38700 22.57000
C  -5.02100 25.06900 21.19500
C  -4.05800 26.18000 21.65000
C  -4.14200 26.06600 23.19400
C  -4.27400 24.04000 20.28200
C  -4.46700 27.49700 21.00000
C  -3.31700 28.41200 20.63100
N  -3.89400 25.98000 26.19200
C  -3.13500 26.77400 25.38900
C  -2.31900 27.63500 26.24200
C  -2.64300 27.24300 27.55100
C  -3.59800 26.18900 27.46300
C  -1.40300 28.65600 25.76200
C  -2.46900 27.58100 29.00100
O  -1.82600 28.47600 29.46600
C  -3.40100 26.53400 29.81800
C  -2.53600 25.74900 30.77100
O  -2.00500 24.66400 30.50800
O  -2.36700 26.39700 31.98900
C  -1.42600 25.84300 32.95900
H  -8.00200 21.84200 27.97900
H  -6.90800 23.12100 21.71900
H  -2.51400 27.45600 23.46700
H  -5.02900 24.36700 30.81500
H  -7.75500 23.71600 29.90700
H  -7.16700 21.29200 30.16400
H  -6.64500 22.30600 31.57300
H  -5.53200 21.77300 30.42300
H  -7.65400 25.74300 30.62900
H  -6.21200 26.74600 30.17300
H  -7.38000 26.32000 32.73400
H  -5.70700 26.92300 32.60200
H  -9.13900 19.68500 25.79000
H  -10.35000 20.89600 25.56600
H  -9.49600 20.78600 27.08200
H  -9.25500 19.32000 23.66300
H  -9.96100 19.63400 21.93200
H  -10.62400 20.43600 23.39000
H  -5.99000 25.30100 20.75300
H  -3.05600 25.99800 21.26100
H  -3.48300 24.53000 19.71400
H  -4.99600 23.63300 19.57300
H  -3.89500 23.24500 20.92400
H  -5.08600 28.05400 21.70300
H  -4.96200 27.32100 20.04500
H  -3.10300 28.26500 19.57200
H  -2.37400 28.05100 21.04300
H  -3.44600 29.44700 20.94700
H  -0.65400 28.37800 25.02000
H  -0.89500 29.11900 26.60800
H  -1.98200 29.39100 25.20300
H  -4.11700 27.18600 30.31900
H  -1.91600 24.99200 33.43200
H  -1.05000 26.48100 33.75800
H  -0.63600 25.35500 32.38800

