158

Mg 27.15200 51.05800 26.10600
C  25.11600 52.19000 28.84000
C  29.48100 49.96300 28.40800
C  29.09400 50.22500 23.61400
C  24.87400 52.49600 23.96000
N  27.09800 50.89000 28.28600
C  26.15900 51.37600 29.27500
C  26.51000 50.94800 30.62900
C  28.02800 50.55100 30.51100
C  28.22300 50.48200 28.94600
C  29.07200 51.43600 31.29300
C  25.61300 49.77800 31.06300
C  25.18000 49.58600 32.58500
H  25.82900 50.38100 33.72300
N  28.99500 50.08200 25.99800
C  29.77000 49.63700 27.03900
C  30.98300 48.97800 26.56800
C  30.91000 49.09800 25.14600
C  29.65700 49.87700 24.85100
C  31.95100 48.26500 27.43700
C  31.82200 48.57600 24.04500
O  31.70100 48.86800 22.85000
C  32.88900 47.63100 24.45700
N  26.89700 51.20200 24.07500
C  27.88200 50.86200 23.23500
C  27.50800 50.93800 21.77200
C  26.12800 51.78000 21.84800
C  25.87600 51.76500 23.34800
C  28.72400 51.54800 21.04800
C  25.06300 51.12900 21.05000
C  24.26300 52.12100 20.14700
N  25.45200 52.19800 26.29200
C  24.55100 52.70300 25.33000
C  23.50100 53.46100 25.91500
C  23.69900 53.32600 27.29000
C  24.87500 52.53100 27.50200
C  22.46900 54.18900 25.22700
C  23.26500 53.78800 28.61600
O  22.37700 54.55000 28.90500
C  24.06500 52.90600 29.68300
C  24.71000 53.85600 30.67200
O  25.69100 54.44100 30.37400
O  24.04000 53.83900 31.87200
C  24.34000 54.94000 32.88000
H  30.24900 49.58000 29.08400
H  29.73200 49.93300 22.77700
H  24.26600 53.05900 23.24800
H  26.64500 51.81000 31.28300
H  28.11600 49.56100 30.95800
H  28.57500 52.39000 31.46600
H  29.86400 51.59800 30.56200
H  29.52000 51.02900 32.19900
H  26.04200 48.82600 30.75100
H  24.66600 49.92600 30.54300
H  25.30900 48.56900 32.95500
H  24.12900 49.86700 32.65100
H  31.89100 47.19800 27.22600
H  31.95300 48.41900 28.51600
H  32.91700 48.65500 27.11600
H  33.42600 47.47300 23.52200
H  32.38200 46.76300 24.87900
H  33.52200 48.04700 25.24100
H  27.45800 49.90200 21.43600
H  26.21800 52.85500 21.69700
H  28.36400 52.46700 20.58700
H  29.12300 50.81800 20.34400
H  29.50300 51.94300 21.70000
H  24.26500 50.64900 21.61500
H  25.38300 50.36900 20.33700
H  24.30500 51.80100 19.10600
H  24.76600 53.08700 20.17400
H  23.26800 52.15400 20.59100
H  21.65000 54.47600 25.88500
H  22.09400 53.60100 24.38900
H  22.91000 55.07300 24.76500
H  23.52100 52.14800 30.24600
H  24.70800 55.79100 32.30700
H  25.14400 54.65200 33.55600
H  23.48200 55.32100 33.43300
Mg -0.80300 33.68800 27.18500
C  -2.78200 31.91200 29.42600
C  0.49100 35.40900 29.80900
C  0.61200 35.82200 24.88000
C  -2.33700 32.00900 24.53400
N  -1.14600 33.62800 29.34400
C  -1.84700 32.73100 30.06500
C  -1.59400 32.83500 31.55700
C  -0.60000 34.06000 31.68800
C  -0.36400 34.37700 30.21800
C  -1.11800 35.21500 32.57200
C  -1.05000 31.58000 32.21300
C  -1.79800 30.96200 33.40400
H  -1.02800 30.89900 34.74100
N  0.44700 35.29800 27.35000
C  0.85400 35.84200 28.52500
C  1.76600 36.95100 28.18700
C  1.87100 37.08900 26.79300
C  0.98700 36.04500 26.24900
C  2.42600 37.77900 29.24900
C  2.60800 38.06600 25.95000
O  2.81700 37.90800 24.74900
C  3.16400 39.36200 26.55900
N  -0.86700 33.84300 25.04000
C  -0.30900 34.87700 24.31000
C  -0.80100 34.85200 22.81400
C  -1.45300 33.44900 22.74200
C  -1.61100 33.11500 24.22800
C  -1.73400 35.96600 22.50200
C  -0.55600 32.42700 21.95100
C  0.48600 31.44900 22.71600
N  -2.16000 32.19500 26.97500
C  -2.66500 31.50500 25.85200
C  -3.59400 30.50700 26.26600
C  -3.66200 30.67200 27.67700
C  -2.87800 31.71500 28.00800
C  -4.40700 29.59500 25.39000
C  -4.27100 30.23000 28.83800
O  -5.15900 29.40900 28.94900
C  -3.67100 30.95300 30.07400
C  -4.81400 31.65600 30.71700
O  -5.44700 32.59100 30.24600
O  -5.10700 31.06600 31.92400
C  -6.25900 31.47800 32.74500
H  0.90000 36.02200 30.61500
H  1.03900 36.58300 24.22300
H  -2.69300 31.30100 23.78200
H  -2.55500 33.16400 31.95200
H  0.35600 33.72500 32.09100
H  -2.00400 35.06200 33.18800
H  -1.30600 36.01300 31.85400
H  -0.36400 35.34800 33.34800
H  0.00600 31.75600 32.41700
H  -0.98200 30.78400 31.47200
H  -1.89300 29.89100 33.22500
H  -2.79400 31.39700 33.48800
H  3.50500 37.71500 29.10900
H  2.26400 37.38300 30.25100
H  1.99600 38.77900 29.30600
H  2.27700 39.66100 27.11800
H  3.48500 39.98700 25.72600
H  3.92900 39.03900 27.26500
H  0.07000 34.93400 22.16400
H  -2.42200 33.49500 22.24500
H  -1.63200 36.69000 23.31100
H  -2.78100 35.66300 22.48800
H  -1.50700 36.29200 21.48700
H  -0.06200 32.89600 21.10000
H  -1.31300 31.77000 21.52200
H  0.12200 30.42500 22.62700
H  0.47700 31.59900 23.79600
H  1.46800 31.66800 22.29600
H  -5.40500 29.59700 25.83000
H  -3.97600 28.64000 25.08800
H  -4.60900 30.17600 24.49100
H  -3.13500 30.25700 30.71900
H  -6.00100 32.40400 33.25800
H  -6.52000 30.66600 33.42400
H  -7.11100 31.70100 32.10300

