158

Mg 8.48500 3.86300 27.72100
C  10.05400 2.48900 30.40200
C  6.63600 5.86600 29.86200
C  7.10900 5.31500 24.94900
C  10.26200 1.76800 25.53900
N  8.42100 4.13200 29.85400
C  9.16500 3.46000 30.77700
C  8.94200 3.98100 32.21100
C  7.67800 4.98000 32.02300
C  7.51800 5.00800 30.49500
C  6.43400 4.75600 32.85000
C  10.17000 4.62800 32.89500
C  9.82100 5.16400 34.29000
H  10.69000 4.70000 35.42900
N  7.11900 5.41500 27.47200
C  6.46800 6.10900 28.47800
C  5.48900 7.01100 27.79200
C  5.61700 6.86700 26.38200
C  6.66100 5.80100 26.18300
C  4.52600 7.82000 28.60100
C  4.85200 7.60300 25.32200
O  4.88700 7.39800 24.13300
C  3.95400 8.67200 25.70800
N  8.65600 3.61500 25.53600
C  8.06300 4.39500 24.62200
C  8.39100 3.98900 23.11300
C  9.56300 3.00400 23.32000
C  9.46000 2.74800 24.89800
C  7.13600 3.52000 22.32000
C  10.94900 3.43100 22.83700
C  11.63100 4.62000 23.64100
N  9.80600 2.38400 27.84400
C  10.45000 1.60600 26.92000
C  11.27000 0.70100 27.66100
C  11.20200 0.94900 28.99000
C  10.31200 2.03300 29.07700
C  12.07300 -0.38800 26.97100
C  11.62300 0.60200 30.34200
O  12.34400 -0.31400 30.79700
C  10.99000 1.69900 31.30200
C  10.31300 0.97800 32.35600
O  9.15800 0.53800 32.14600
O  11.07000 0.88000 33.46100
C  10.53900 0.03700 34.59600
H  5.97500 6.27800 30.62800
H  6.54800 5.56900 24.04800
H  10.78000 1.19600 24.76600
H  8.72800 3.13100 32.85900
H  8.06400 5.93200 32.38900
H  5.73500 4.10900 32.31800
H  5.91100 5.69700 33.01900
H  6.70600 4.35000 33.82400
H  10.40700 5.51300 32.30500
H  11.04400 3.99700 33.05600
H  8.82300 4.89600 34.63500
H  9.82400 6.25400 34.28800
H  4.63600 7.51700 29.64200
H  3.50700 7.64200 28.25500
H  4.68400 8.89800 28.63100
H  3.01700 8.34200 26.15700
H  3.65000 9.38100 24.93700
H  4.47900 9.22100 26.48900
H  8.82900 4.86300 22.63000
H  9.38200 2.03700 22.85100
H  6.25300 3.89500 22.83800
H  6.96700 2.44900 22.20200
H  7.17000 3.97100 21.32900
H  10.86500 3.58700 21.76100
H  11.54300 2.53300 23.00600
H  12.10500 4.20100 24.52900
H  10.79300 5.26400 23.90900
H  12.25500 5.24000 22.99700
H  12.35600 -0.09000 25.96100
H  11.41300 -1.24700 26.84800
H  12.94800 -0.65900 27.56100
H  11.85800 2.29000 31.59300
H  10.02600 0.81800 35.15800
H  11.29100 -0.38500 35.26300
H  9.82800 -0.67300 34.17300
Mg -10.79000 17.46000 41.83300
C  -7.25500 16.83800 41.75500
C  -10.08000 20.73900 40.99300
C  -13.93700 17.63500 40.79700
C  -11.06000 13.87000 41.87100
N  -8.86900 18.64100 41.43400
C  -7.58600 18.20900 41.52900
C  -6.65100 19.27800 40.98500
C  -7.46000 20.53300 41.33400
C  -8.91500 20.00600 41.33900
C  -7.00000 21.31300 42.61300
C  -6.42700 19.11100 39.38300
C  -5.00300 18.71800 39.03900
H  -4.92200 17.46400 38.19400
N  -11.91500 18.97100 41.06900
C  -11.47600 20.26200 40.81500
C  -12.62900 21.02000 40.31100
C  -13.76300 20.14900 40.23200
C  -13.22700 18.84000 40.75100
C  -12.44800 22.48100 39.79700
C  -15.10600 20.56000 39.76400
O  -15.36800 21.73500 39.62800
C  -16.24700 19.64200 39.67200
N  -12.24400 15.91200 41.10900
C  -13.52100 16.31300 40.90600
C  -14.47800 15.07600 40.90200
C  -13.45200 13.89000 41.03100
C  -12.15800 14.60300 41.37400
C  -15.49200 15.20300 42.01000
C  -13.32300 13.07200 39.69000
C  -13.66400 11.57300 39.75400
N  -9.45600 15.75400 41.97700
C  -9.75700 14.35100 42.09400
C  -8.56400 13.55000 42.34700
C  -7.54100 14.49900 42.26900
C  -8.13300 15.81200 41.97400
C  -8.44800 12.10300 42.74600
C  -6.12600 14.68700 42.29000
O  -5.25800 13.86300 42.37900
C  -5.87300 16.26600 41.93900
C  -5.09300 16.88800 43.01600
O  -5.45600 17.78000 43.81100
O  -3.80300 16.42100 42.89500
C  -3.01200 16.68300 44.06600
H  -9.92700 21.80800 40.83000
H  -15.02400 17.58800 40.70300
H  -11.22700 12.79300 41.94500
H  -5.67900 19.27500 41.47800
H  -7.44000 21.23600 40.50100
H  -6.20100 20.76400 43.11100
H  -7.86400 21.34300 43.27700
H  -6.66300 22.31500 42.34700
H  -6.70700 20.05700 38.91800
H  -7.05800 18.27100 39.09200
H  -4.41300 18.54400 39.93800
H  -4.59200 19.56900 38.49600
H  -11.42500 22.85700 39.79800
H  -13.05100 23.00800 40.53700
H  -12.70800 22.39200 38.74200
H  -16.58300 19.27200 40.64100
H  -15.90600 18.83400 39.02500
H  -17.03700 20.08600 39.06700
H  -15.16400 15.14000 40.05700
H  -13.63900 13.09400 41.75200
H  -15.18100 14.66600 42.90600
H  -16.38500 14.65000 41.72000
H  -15.83700 16.18600 42.32900
H  -12.24400 13.11900 39.54300
H  -13.95400 13.45400 38.88600
H  -12.86700 10.94200 40.14600
H  -13.76800 11.19600 38.73600
H  -14.57100 11.29700 40.29100
H  -9.35600 11.50500 42.83300
H  -7.91400 12.01100 43.69100
H  -7.85700 11.64200 41.95500
H  -5.21900 16.22800 41.06800
H  -3.63000 16.51500 44.94800
H  -2.68300 17.72100 44.01300
H  -2.14800 16.02200 43.99600

