158

Mg -10.94100 39.94800 41.46200
C  -9.96400 36.66000 40.71500
C  -7.82900 41.08800 40.34700
C  -12.20900 43.05600 41.28500
C  -14.29900 38.72400 41.66100
N  -9.16900 38.93900 40.67000
C  -8.95700 37.55500 40.46300
C  -7.58100 37.31700 39.82800
C  -6.82900 38.68700 40.04300
C  -8.01000 39.63400 40.38200
C  -5.71000 38.80300 41.14000
C  -7.63900 36.78100 38.32400
C  -6.59600 35.72100 37.88200
H  -5.65200 36.18600 36.79900
N  -10.04700 41.83300 40.93000
C  -8.75600 42.12700 40.54800
C  -8.69300 43.55300 40.27400
C  -9.96100 44.11600 40.48500
C  -10.81600 42.97600 40.93000
C  -7.40600 44.24500 39.67300
C  -10.31400 45.53100 40.21100
O  -9.49300 46.28100 39.76300
C  -11.78300 45.95900 40.25700
N  -13.05900 40.73700 41.62000
C  -13.20200 42.12200 41.54800
C  -14.75100 42.44000 41.63400
C  -15.38900 41.06400 41.73700
C  -14.24300 40.09400 41.66000
C  -15.24900 43.60600 42.67600
C  -16.56900 40.73900 40.81400
C  -17.96800 40.66600 41.45900
N  -11.84400 38.11900 41.58000
C  -13.17700 37.80700 41.67700
C  -13.37400 36.43000 41.72800
C  -12.10300 35.87300 41.43200
C  -11.20400 36.97200 41.23500
C  -14.56300 35.74300 42.01000
C  -11.33400 34.71600 41.18300
O  -11.69000 33.53500 41.27800
C  -9.96800 35.17300 40.71800
C  -8.91000 34.64900 41.58800
O  -8.68900 34.87200 42.80700
O  -8.06500 33.91000 40.85200
C  -6.72300 33.69800 41.36500
H  -6.81800 41.36700 40.04600
H  -12.63400 44.05600 41.40200
H  -15.31100 38.31600 41.65100
H  -7.03100 36.55900 40.38700
H  -6.45400 38.97400 39.06000
H  -4.90500 39.44600 40.78700
H  -5.28100 37.80500 41.22900
H  -5.99000 39.08200 42.15600
H  -7.44100 37.63000 37.67000
H  -8.59400 36.34700 38.02700
H  -7.18100 34.88700 37.49400
H  -6.01700 35.34600 38.72600
H  -6.77600 43.40900 39.36800
H  -6.95300 44.82400 40.47700
H  -7.59400 44.90500 38.82600
H  -12.08700 46.09600 41.29500
H  -12.41800 45.25200 39.72300
H  -11.79600 46.93900 39.77900
H  -14.94700 42.81300 40.62900
H  -15.58000 40.90100 42.79800
H  -15.73800 43.07900 43.49600
H  -15.89800 44.23200 42.06400
H  -14.42400 44.05300 43.23000
H  -16.44100 39.80700 40.26400
H  -16.69200 41.54500 40.09000
H  -18.22500 39.60800 41.51300
H  -18.76700 41.28900 41.05600
H  -17.89100 40.97800 42.50100
H  -15.02600 36.24200 42.86100
H  -14.46100 34.69400 42.28600
H  -15.19100 35.82700 41.12300
H  -9.90300 34.74400 39.71800
H  -5.95000 34.35700 40.96800
H  -6.34900 32.74200 40.99800
H  -6.53300 33.62500 42.43600
Mg -11.54100 16.91500 42.22100
C  -8.29900 17.87000 41.86300
C  -12.59300 20.23200 41.73500
C  -14.86500 16.00500 42.54800
C  -10.39500 13.62900 42.43800
N  -10.56600 18.81100 41.68300
C  -9.20000 18.98000 41.73100
C  -8.70700 20.39600 41.58400
C  -10.13900 21.16300 41.71600
C  -11.19600 20.04600 41.76500
C  -10.24200 22.18600 42.94000
C  -8.02200 20.64600 40.21100
C  -6.75200 21.37400 40.26000
H  -5.62500 21.06400 39.26300
N  -13.48000 17.93700 41.93500
C  -13.68300 19.29500 41.76900
C  -15.08300 19.59500 41.84900
C  -15.75100 18.40000 42.08300
C  -14.73200 17.38100 42.23500
C  -15.55600 21.05000 41.70700
C  -17.25500 18.37200 42.21800
O  -17.95400 19.35700 42.08600
C  -18.00400 16.97500 42.40200
N  -12.46100 15.04400 42.09000
C  -13.81300 14.96400 42.52300
C  -14.10100 13.52500 42.90500
C  -12.76000 12.73200 42.46100
C  -11.78000 13.87100 42.39600
C  -14.48200 13.38000 44.39600
C  -12.80300 11.99800 41.14400
C  -13.70300 10.76000 41.06400
N  -9.72200 15.87200 42.17900
C  -9.37000 14.54700 42.27500
C  -7.93000 14.45400 42.40200
C  -7.44400 15.73800 42.15800
C  -8.57300 16.55700 42.08900
C  -7.21800 13.18200 42.78700
C  -6.27900 16.51500 42.06700
O  -5.13300 16.08400 42.14200
C  -6.76400 18.01300 41.87900
C  -6.33700 18.81500 43.13400
O  -6.82600 18.58300 44.18200
O  -5.29900 19.58600 42.90600
C  -4.65300 20.20600 44.04200
H  -12.88400 21.25200 41.47600
H  -15.85300 15.66900 42.86900
H  -10.10300 12.61400 42.71600
H  -8.24700 20.65600 42.53800
H  -10.23600 21.84500 40.87200
H  -10.12300 23.19800 42.55200
H  -9.55000 21.98700 43.75900
H  -11.24500 22.24300 43.36400
H  -8.59800 21.10400 39.40700
H  -7.83200 19.69400 39.71600
H  -6.38000 21.12200 41.25300
H  -6.97000 22.44100 40.21200
H  -16.53500 21.13800 41.23600
H  -14.82300 21.60600 41.12200
H  -15.57000 21.48700 42.70600
H  -19.02300 17.16800 42.06600
H  -17.98200 16.64400 43.44000
H  -17.61600 16.23400 41.70300
H  -14.88100 13.12400 42.25800
H  -12.26900 12.01000 43.11300
H  -15.46500 12.94000 44.55900
H  -14.38100 14.32700 44.92800
H  -13.77500 12.75500 44.94200
H  -11.81200 11.73500 40.77300
H  -13.18000 12.71400 40.41300
H  -14.53500 10.97500 40.39200
H  -14.02900 10.65700 42.09900
H  -13.16400 9.87300 40.73400
H  -7.36600 12.95400 43.84300
H  -6.15900 13.33100 42.58000
H  -7.67500 12.41100 42.16600
H  -6.31200 18.24300 40.91400
H  -5.24600 21.01600 44.46400
H  -3.75600 20.76200 43.76700
H  -4.26300 19.51100 44.78600

