158

Mg 8.61600 3.50000 26.95400
C  9.87500 2.38800 30.05100
C  6.47800 5.64200 28.71200
C  7.18500 4.40100 24.00600
C  10.23500 0.99700 25.31100
N  8.05800 3.87000 29.20100
C  8.92400 3.42000 30.20400
C  8.44100 4.09400 31.50000
C  7.47900 5.19100 31.04600
C  7.24900 4.84600 29.59700
C  6.22000 5.25800 31.96300
C  9.69200 4.65900 32.28500
C  9.34500 5.32400 33.69200
H  9.82800 4.69900 35.00500
N  7.21900 4.99300 26.43300
C  6.43500 5.68400 27.29900
C  5.71200 6.75600 26.51800
C  5.91800 6.36100 25.10400
C  6.80600 5.16500 25.13400
C  4.80800 7.85000 27.16500
C  5.31400 7.02700 23.83500
O  5.60100 6.74500 22.65200
C  4.46000 8.32900 23.96800
N  8.70900 2.79100 24.83500
C  7.98300 3.29200 23.82300
C  8.30100 2.61600 22.47600
C  9.37100 1.62700 22.93100
C  9.44900 1.77000 24.48100
C  7.17300 1.97900 21.77200
C  10.81100 1.79300 22.24200
C  11.70900 2.98100 22.76700
N  9.79700 1.97400 27.48600
C  10.45500 1.04600 26.71700
C  11.20300 0.13700 27.55700
C  11.08800 0.65200 28.82000
C  10.14100 1.74200 28.77000
C  11.96000 -1.03700 27.02600
C  11.46700 0.49300 30.26100
O  12.18300 -0.30400 30.85300
C  10.76100 1.54200 31.03000
C  10.04800 0.94100 32.09300
O  8.89500 0.50600 32.05500
O  10.87200 0.87200 33.15800
C  10.28200 0.31900 34.41900
H  5.95700 6.38700 29.31700
H  6.77000 4.80700 23.08100
H  10.78800 0.14100 24.91900
H  7.93600 3.30200 32.05200
H  7.85500 6.20000 31.21800
H  6.08600 6.26000 32.37100
H  6.29900 4.46800 32.71000
H  5.40900 5.06700 31.26000
H  10.24900 5.34800 31.65000
H  10.36000 3.84300 32.56300
H  8.26800 5.32500 33.85800
H  9.66400 6.36400 33.76700
H  3.78300 7.71100 26.82200
H  5.10100 8.88200 26.97000
H  4.72000 7.67000 28.23700
H  5.13900 9.07700 24.37700
H  3.59100 8.21900 24.61600
H  4.20700 8.63900 22.95400
H  8.73600 3.40500 21.86200
H  9.15300 0.56300 22.83200
H  6.23400 2.06700 22.31800
H  7.43100 0.92100 21.73100
H  7.00900 2.36200 20.76500
H  10.67000 1.80600 21.16100
H  11.35600 0.87200 22.45100
H  11.16000 3.53600 23.52700
H  11.89700 3.68600 21.95800
H  12.70400 2.74700 23.14500
H  12.24600 -1.51300 27.96400
H  12.88700 -0.66900 26.58700
H  11.42400 -1.70900 26.35600
H  11.55300 2.13800 31.48500
H  9.77000 -0.64200 34.37600
H  9.67100 1.07800 34.90900
H  11.19300 0.18800 35.00300
Mg 8.44900 48.05000 26.22100
C  6.61700 47.91900 29.17800
C  11.21600 48.90700 28.04800
C  10.23000 48.14600 23.34500
C  5.59600 47.29400 24.46900
N  8.84400 48.39600 28.42200
C  7.94900 48.23000 29.44100
C  8.66700 48.39100 30.82200
C  9.98400 48.99300 30.36400
C  10.02800 48.75200 28.86200
C  10.20100 50.40200 30.90900
C  8.75200 46.97000 31.64900
C  9.50600 47.12200 32.91200
H  8.76100 47.35600 34.19900
N  10.42200 48.37100 25.72800
C  11.42900 48.63500 26.65700
C  12.69800 48.74600 25.92100
C  12.48800 48.39700 24.59500
C  10.99400 48.29100 24.53700
C  13.93100 49.07800 26.60600
C  13.43200 48.21700 23.55000
O  13.04000 48.01400 22.40700
C  14.94200 48.29700 23.81000
N  7.94000 48.01100 24.15200
C  8.90000 48.02300 23.13200
C  8.23800 47.70300 21.81400
C  6.80300 47.28600 22.15300
C  6.75000 47.56000 23.71700
C  8.27400 48.76800 20.71800
C  6.53800 45.83800 21.73200
C  7.19200 44.77000 22.63900
N  6.51700 47.70000 26.64500
C  5.48200 47.37900 25.84300
C  4.30600 47.12000 26.62600
C  4.69800 47.40700 27.96100
C  6.02400 47.72400 27.95900
C  2.89900 46.84200 26.17300
C  4.24200 47.55700 29.25900
O  3.12000 47.49200 29.75800
C  5.49300 47.69100 30.15300
C  5.55600 46.41600 30.91600
O  5.76400 45.32900 30.40600
O  5.24000 46.62300 32.23800
C  5.00400 45.41400 33.08200
H  12.14000 49.14900 28.57700
H  10.80100 47.93300 22.43900
H  4.68700 47.07000 23.90700
H  8.11500 49.07000 31.47100
H  10.79000 48.37400 30.75700
H  10.53600 51.05900 30.10700
H  10.90800 50.29500 31.73100
H  9.24900 50.80000 31.25900
H  9.26200 46.24300 31.01700
H  7.72100 46.64500 31.78600
H  10.25800 47.91100 32.88300
H  10.21400 46.29300 32.93900
H  14.66700 48.27300 26.59800
H  13.82200 49.42500 27.63400
H  14.42700 49.90700 26.10100
H  15.14600 47.56700 24.59300
H  15.30000 49.31500 23.96600
H  15.46600 47.73800 23.03500
H  8.81600 46.85600 21.44500
H  6.14000 47.96600 21.61800
H  8.02800 49.75000 21.12200
H  7.44200 48.45000 20.09000
H  9.22800 48.67700 20.19800
H  6.97800 45.81900 20.73500
H  5.46900 45.76700 21.52900
H  6.43000 44.17900 23.14700
H  7.79200 45.25700 23.40900
H  7.90600 44.12900 22.12100
H  2.83900 46.49500 25.14100
H  2.26900 47.72900 26.25200
H  2.39600 46.05900 26.74000
H  5.45700 48.47700 30.90700
H  4.26100 44.74500 32.64700
H  4.59000 45.65900 34.06000
H  5.97900 44.96600 33.26800

