158

Mg 8.68500 2.99500 27.69400
C  9.81900 1.60500 30.34500
C  6.76100 5.23000 29.42500
C  7.21500 4.08700 24.65000
C  10.19300 0.44700 25.63800
N  8.16900 3.26000 29.66300
C  8.85500 2.61300 30.63300
C  8.49200 3.22000 32.01200
C  7.45800 4.33400 31.71000
C  7.33100 4.25800 30.19500
C  6.07600 4.19800 32.37000
C  9.83400 3.82400 32.71300
C  10.21500 3.39600 34.12600
H  10.58600 4.40000 35.25700
N  7.25700 4.39800 27.13800
C  6.64800 5.35400 28.01400
C  5.96800 6.34400 27.25600
C  6.04800 5.99100 25.88400
C  6.88900 4.76500 25.87300
C  5.24500 7.49000 27.95100
C  5.36000 6.69100 24.72700
O  5.34800 6.25500 23.59900
C  4.72100 8.07400 24.93200
N  8.59000 2.21800 25.38100
C  8.03200 2.93200 24.42000
C  8.38700 2.47900 23.02200
C  9.45700 1.39400 23.30100
C  9.41800 1.34100 24.84800
C  7.06600 2.04600 22.11300
C  10.78600 1.56600 22.60700
C  10.82700 0.96000 21.16200
N  9.78200 1.21900 27.93800
C  10.37300 0.42100 27.04200
C  11.16100 -0.55100 27.83100
C  11.08400 -0.04700 29.22600
C  10.16900 1.01500 29.13800
C  11.94100 -1.65200 27.31900
C  11.40500 -0.24300 30.63900
O  12.19300 -0.98500 31.21200
C  10.60600 0.86900 31.43600
C  9.84200 0.11700 32.50600
O  8.78800 -0.45600 32.34000
O  10.45000 0.20600 33.76400
C  9.74100 -0.19600 34.93300
H  6.12400 5.86200 30.04800
H  6.95900 4.58100 23.71100
H  10.78600 -0.25300 25.04500
H  8.11500 2.43100 32.66200
H  7.89200 5.30700 31.93900
H  6.10300 3.54300 33.24000
H  5.27600 3.80400 31.74300
H  5.84600 5.21100 32.70000
H  9.83300 4.91300 32.66300
H  10.64000 3.61300 32.01100
H  11.08100 2.74000 34.03800
H  9.42800 2.69600 34.40800
H  5.19200 7.52200 29.03900
H  4.17800 7.45900 27.72800
H  5.58400 8.40900 27.47300
H  5.44800 8.78300 25.32700
H  3.74100 8.00200 25.40400
H  4.51900 8.51600 23.95700
H  8.74600 3.29500 22.39500
H  8.97200 0.46100 23.01200
H  7.12700 1.13400 21.52000
H  6.88300 2.83000 21.37800
H  6.23700 1.94600 22.81400
H  11.48000 1.07200 23.28600
H  10.87500 2.65000 22.67600
H  11.09600 1.84700 20.58900
H  9.87700 0.56600 20.80000
H  11.58500 0.18400 21.05400
H  11.62400 -1.91200 26.30900
H  11.58200 -2.45400 27.96400
H  13.01900 -1.49300 27.31200
H  11.30800 1.58000 31.87100
H  9.86100 0.71600 35.51800
H  10.10800 -1.03100 35.53000
H  8.71500 -0.41900 34.64000
Mg 7.29600 53.62700 42.22200
C  6.85700 50.15100 41.48500
C  10.52500 53.29800 41.08400
C  7.51300 57.04500 42.10900
C  3.90000 53.89300 42.97100
N  8.47700 51.92400 41.35300
C  8.13300 50.60500 41.22700
C  9.30000 49.83000 40.69000
C  10.53500 50.75200 40.99200
C  9.79900 52.07200 41.15900
C  11.49800 50.33600 42.16800
C  9.16500 49.47400 39.17000
C  8.65100 50.51200 38.14800
H  8.07500 50.05200 36.85600
N  8.71500 54.98500 41.46700
C  10.06600 54.65000 41.16500
C  10.81900 55.88000 40.94300
C  9.94500 56.98300 41.32100
C  8.65500 56.36500 41.64500
C  12.29600 55.93000 40.44300
C  10.40100 58.43500 41.29600
O  11.55400 58.75700 40.96500
C  9.43300 59.57900 41.57500
N  5.91500 55.21400 42.48600
C  6.26700 56.52200 42.47500
C  5.03500 57.41500 42.66700
C  3.89700 56.46800 42.87700
C  4.59100 55.06900 42.80200
C  5.09400 58.50900 43.71600
C  2.67900 56.54100 41.91700
C  1.35300 55.84900 42.21300
N  5.74400 52.32600 42.38300
C  4.41600 52.57700 42.80600
C  3.77400 51.33200 42.97200
C  4.63800 50.33400 42.43700
C  5.85400 51.00000 42.08400
C  2.38100 51.05000 43.52300
C  4.83600 48.92900 42.12400
O  4.03400 48.00200 42.34800
C  6.27500 48.72200 41.54800
C  6.11800 48.13900 40.19400
O  5.43600 48.62400 39.28000
O  6.87900 47.03000 40.12800
C  6.64400 46.26400 38.95600
H  11.60700 53.20500 40.96900
H  7.62300 58.12800 42.19500
H  2.83000 53.90800 43.19000
H  9.43100 48.89500 41.23400
H  11.10600 50.80000 40.06500
H  12.18500 49.51200 41.97700
H  10.89600 50.19900 43.06600
H  12.04500 51.24500 42.42000
H  8.59800 48.55400 39.02300
H  10.17600 49.38900 38.77200
H  9.41800 51.23000 37.85800
H  7.83000 51.09700 38.56400
H  12.30000 56.37900 39.45000
H  12.70200 54.91900 40.41900
H  13.01400 56.53900 40.99200
H  8.63500 59.46500 40.84100
H  10.11400 60.42000 41.44400
H  9.02400 59.55900 42.58500
H  4.91900 57.87500 41.68600
H  3.55600 56.54700 43.90900
H  6.07600 58.97500 43.63100
H  5.00000 58.06400 44.70700
H  4.49700 59.40800 43.55800
H  3.05500 56.06900 41.00900
H  2.51700 57.53900 41.50900
H  0.51400 56.50600 41.98500
H  1.43500 55.51000 43.24600
H  1.29500 54.93300 41.62500
H  1.79900 51.97000 43.57500
H  2.48100 50.66500 44.53800
H  1.69100 50.46100 42.91900
H  7.00900 48.10200 42.06300
H  7.17000 46.59500 38.06000
H  5.55900 46.21800 38.85700
H  6.80300 45.18800 39.01800

