158

Mg 35.52000 3.21200 30.62000
C  32.93900 4.14300 32.87700
C  37.79800 3.86700 33.16700
C  37.98100 3.04400 28.38400
C  33.19000 3.09700 28.11100
N  35.33500 3.88800 32.73700
C  34.23000 4.15800 33.47600
C  34.53300 4.24800 34.99600
C  36.12300 4.44900 34.92500
C  36.47900 4.03900 33.52500
C  36.87500 5.71300 35.45900
C  33.76400 3.10900 35.80600
C  34.51900 2.58800 37.02900
H  34.95100 3.55200 38.14900
N  37.62200 3.17300 30.78500
C  38.42200 3.30700 31.95800
C  39.80800 3.00300 31.59900
C  39.88700 2.82200 30.21000
C  38.45000 3.06200 29.71800
C  40.81500 2.82700 32.72300
C  41.08900 2.35300 29.34500
O  40.99600 2.18400 28.10500
C  42.35000 2.08400 29.95600
N  35.53800 3.14200 28.54800
C  36.67000 3.04400 27.83800
C  36.47200 2.73000 26.41100
C  34.84800 2.66700 26.30600
C  34.45400 2.95300 27.71000
C  37.20300 3.51500 25.23900
C  34.26900 1.28300 25.77600
C  33.10300 1.28700 24.82800
N  33.49500 3.58800 30.41600
C  32.64900 3.53800 29.36400
C  31.23700 3.85000 29.71900
C  31.31500 4.00100 31.08200
C  32.67200 3.90300 31.45100
C  30.01200 3.99600 28.83900
C  30.59300 4.34700 32.22200
O  29.41300 4.59300 32.29400
C  31.55500 4.27300 33.47000
C  31.41500 5.52700 34.30300
O  31.59600 6.66400 33.88100
O  31.13900 5.18400 35.63800
C  31.25400 6.30700 36.59200
H  38.56800 4.05800 33.91700
H  38.76900 3.06000 27.62800
H  32.54900 2.82000 27.27100
H  34.16100 5.22200 35.31500
H  36.50700 3.57200 35.44400
H  37.53700 5.31700 36.22900
H  36.11600 6.32900 35.94100
H  37.50800 6.27000 34.76800
H  33.59400 2.23800 35.17300
H  32.74900 3.44200 36.02100
H  35.39400 2.04100 36.67800
H  34.02700 1.76800 37.55100
H  41.53800 3.64300 32.69700
H  41.26600 1.85100 32.54300
H  40.36100 2.82400 33.71400
H  43.05100 1.93700 29.13400
H  42.24300 1.17100 30.54100
H  42.53800 2.96100 30.57500
H  36.79200 1.68900 26.36300
H  34.42100 3.45000 25.67800
H  37.01600 2.93900 24.33200
H  38.28100 3.43300 25.37000
H  36.87900 4.55100 25.13800
H  33.78000 0.89400 26.66900
H  35.05500 0.53800 25.65500
H  32.15800 0.86400 25.16700
H  33.31600 0.84400 23.85500
H  32.92700 2.32500 24.54600
H  30.33000 4.77000 28.14100
H  29.19900 4.35400 29.47000
H  29.60700 3.12500 28.32400
H  31.41100 3.48600 34.21000
H  30.85000 7.21800 36.15000
H  32.25800 6.39100 37.00800
H  30.62100 6.09600 37.45400
Mg 48.34800 24.42900 27.98100
C  48.99100 26.81900 30.36300
C  47.40800 22.24800 30.57500
C  47.36800 22.29500 25.63900
C  49.16900 26.81900 25.46800
N  48.38200 24.53800 30.29700
C  48.51700 25.70000 31.02200
C  48.32900 25.43100 32.51000
C  47.75800 23.92600 32.53400
C  47.85800 23.54600 31.03600
C  48.46000 22.97700 33.45200
C  47.58700 26.51300 33.26300
C  47.94900 26.75700 34.76700
H  46.95700 26.71300 35.94700
N  47.54600 22.49200 28.05900
C  47.24000 21.77800 29.23100
C  46.73900 20.48000 28.70600
C  46.66200 20.51600 27.26200
C  47.20200 21.74700 26.93300
C  46.31500 19.45500 29.71200
C  46.38800 19.39000 26.34700
O  46.63900 19.47300 25.13100
C  45.42700 18.32500 26.75900
N  48.57500 24.44800 25.74400
C  48.00900 23.43300 25.06000
C  47.97800 23.72100 23.57900
C  48.27300 25.27700 23.59000
C  48.67700 25.56800 25.00200
C  49.00000 22.82800 22.79900
C  47.07400 26.14300 23.08500
C  45.69000 25.80300 23.68300
N  49.10500 26.26500 27.87100
C  49.38700 27.15600 26.80200
C  49.90400 28.43500 27.28500
C  49.76500 28.33200 28.67500
C  49.21700 27.02800 28.96000
C  50.42100 29.63200 26.57400
C  50.01800 29.04400 29.88500
O  50.51600 30.10400 30.09900
C  49.52400 28.07200 31.08400
C  50.59900 27.84500 32.08900
O  51.27800 26.84300 32.06600
O  50.58700 28.87000 32.98200
C  51.43900 28.63700 34.11400
H  47.04100 21.76400 31.48300
H  47.23300 21.51000 24.89200
H  49.27400 27.60500 24.71700
H  49.33500 25.47700 32.92600
H  46.73800 24.16900 32.83200
H  48.81200 23.51200 34.33500
H  49.23600 22.42500 32.92200
H  47.75700 22.25200 33.86200
H  46.55400 26.18600 33.37900
H  47.51400 27.45200 32.71500
H  48.47700 27.69900 34.91200
H  48.67100 25.96300 34.95400
H  45.24100 19.32400 29.84600
H  46.58400 19.68400 30.74400
H  46.81400 18.53500 29.40900
H  44.49000 18.58200 27.25300
H  45.85200 17.62700 27.48100
H  45.20700 17.77000 25.84700
H  47.00500 23.48700 23.14700
H  49.18600 25.55900 23.06600
H  48.62200 22.28900 21.93100
H  49.41700 22.07200 23.46400
H  49.73700 23.50100 22.36000
H  46.87200 25.85100 22.05400
H  47.26900 27.21200 23.17400
H  45.09000 25.41800 22.85900
H  45.15700 26.71600 23.94700
H  45.61300 25.06400 24.48000
H  51.47800 29.71400 26.82700
H  49.88400 30.50200 26.95200
H  50.39100 29.38600 25.51200
H  48.78000 28.71900 31.54900
H  50.73700 28.11700 34.76600
H  51.73800 29.60100 34.52700
H  52.33800 28.08600 33.83600

