158

Mg 24.91500 1.29400 29.40000
C  27.15900 0.93900 32.13100
C  22.31500 1.23400 31.58600
C  23.10300 1.84000 26.69900
C  27.70500 1.15100 27.20200
N  24.77300 0.92100 31.65700
C  25.81300 1.05200 32.56800
C  25.24200 1.16300 33.98800
C  23.71500 1.12300 33.83300
C  23.54700 1.07500 32.24000
C  22.96100 -0.04800 34.57000
C  25.66100 2.46600 34.72400
C  26.09000 2.35900 36.21700
H  25.84200 3.55300 37.14300
N  23.01600 1.37900 29.17300
C  22.07800 1.39400 30.17400
C  20.81900 1.67900 29.60200
C  20.98300 1.70300 28.17300
C  22.42500 1.66700 27.95700
C  19.50700 1.92200 30.35600
C  19.95300 1.93600 27.05300
O  20.20100 1.83000 25.87400
C  18.53300 2.26000 27.43400
N  25.28200 1.29000 27.15200
C  24.37900 1.68800 26.35500
C  24.91400 2.02200 24.95700
C  26.46800 1.94500 25.14900
C  26.53000 1.48200 26.62700
C  24.39000 1.06600 23.86500
C  27.36800 3.23500 24.86600
C  26.98800 4.57400 25.39700
N  26.97100 0.87100 29.56200
C  27.94200 0.92300 28.60300
C  29.13200 0.47900 29.21000
C  28.91400 0.53700 30.63100
C  27.56200 0.80200 30.76100
C  30.45700 0.21300 28.46800
C  29.54800 0.49400 31.92900
O  30.71900 0.28200 32.13200
C  28.40900 0.73100 32.96200
C  28.43900 -0.30000 33.98200
O  28.16700 -1.50800 33.72200
O  28.96500 0.13200 35.12100
C  29.11800 -0.72600 36.29000
H  21.56500 1.39500 32.36400
H  22.46300 1.90600 25.81700
H  28.62800 1.10900 26.62000
H  25.66800 0.32000 34.53200
H  23.28400 2.08100 34.12200
H  23.67100 -0.75500 34.99900
H  22.24000 -0.60600 33.97200
H  22.27200 0.37100 35.30400
H  24.78500 3.11400 34.75000
H  26.49500 3.01500 34.28700
H  27.15700 2.14900 36.29600
H  25.51000 1.55900 36.67600
H  19.13400 2.88800 30.01600
H  19.61300 2.04700 31.43300
H  18.75200 1.15600 30.18100
H  17.98700 1.49200 27.98100
H  17.93000 2.43500 26.54300
H  18.48500 3.23400 27.92200
H  24.70700 3.07300 24.75600
H  26.98200 1.20300 24.53800
H  23.69700 0.30400 24.22200
H  25.20400 0.56300 23.34200
H  23.89200 1.65300 23.09300
H  27.49200 3.26400 23.78400
H  28.39900 3.15300 25.21300
H  26.85300 5.30300 24.59900
H  27.71200 4.97900 26.10500
H  26.16400 4.55500 26.11000
H  31.11000 1.08500 28.48800
H  30.37400 -0.15600 27.44600
H  31.06100 -0.58500 28.89900
H  28.71000 1.67100 33.42400
H  29.93500 -0.32000 36.88600
H  29.24700 -1.79900 36.14800
H  28.27500 -0.54900 36.95800
Mg 27.15400 50.41100 26.40600
C  25.33000 51.66400 29.29300
C  29.60500 49.29900 28.53700
C  29.04300 49.80700 23.62400
C  24.83100 52.12300 24.42800
N  27.42500 50.53800 28.67800
C  26.51700 51.01900 29.66900
C  27.04800 50.72300 31.03100
C  28.50100 50.05400 30.74400
C  28.57400 49.99400 29.19700
C  29.76500 50.74900 31.32200
C  26.04400 49.84500 31.82600
C  25.63600 50.26700 33.22200
H  26.70300 50.62000 34.31700
N  28.99900 49.50800 26.07900
C  29.83500 49.12400 27.09600
C  31.02500 48.56600 26.55800
C  30.98100 48.75500 25.10900
C  29.67900 49.38300 24.86200
C  32.16800 48.06900 27.38000
C  31.97400 48.44500 24.02900
O  31.79200 48.55800 22.79300
C  33.33100 47.74200 24.47300
N  27.05600 51.04300 24.35700
C  27.83300 50.48400 23.36100
C  27.44600 51.02100 22.00800
C  26.10000 51.67300 22.29200
C  25.97700 51.57700 23.79700
C  28.44400 51.96800 21.28400
C  24.89100 51.02700 21.50400
C  24.16400 49.90500 22.13800
N  25.47900 51.68900 26.70300
C  24.66700 52.29300 25.79500
C  23.60600 53.05800 26.46200
C  23.80300 52.78200 27.84000
C  24.96400 51.98200 27.94300
C  22.55600 53.94100 25.82100
C  23.31100 53.02900 29.19100
O  22.27100 53.62900 29.52600
C  24.30300 52.34200 30.23000
C  24.92600 53.37500 31.17300
O  25.94100 54.06100 30.95200
O  24.21200 53.41900 32.27700
C  24.74700 54.19900 33.40600
H  30.41300 48.83200 29.10500
H  29.52500 49.66200 22.65500
H  24.12700 52.69600 23.82100
H  27.09600 51.68600 31.54000
H  28.53300 49.02300 31.09700
H  30.38000 51.02300 30.46400
H  30.33900 50.13500 32.01700
H  29.44400 51.63300 31.87200
H  26.46800 48.85200 31.97500
H  25.11600 49.75800 31.26100
H  25.01400 49.46300 33.61500
H  25.15200 51.24100 33.16300
H  31.76600 47.69300 28.32100
H  32.80600 48.88600 27.71600
H  32.75400 47.22900 27.00800
H  33.75800 47.94000 25.45700
H  33.96800 47.78100 23.58900
H  33.23200 46.66000 24.56200
H  27.31600 50.19100 21.31400
H  26.10200 52.75500 22.15400
H  29.48900 51.98800 21.59500
H  28.06100 52.98900 21.30700
H  28.35200 51.69600 20.23300
H  25.27000 50.68500 20.54100
H  24.25000 51.87700 21.27000
H  23.14300 50.14100 22.43900
H  24.63000 49.48800 23.03000
H  24.25800 49.10200 21.40700
H  21.68900 53.84600 26.47600
H  22.30600 53.63200 24.80600
H  23.01000 54.93200 25.81800
H  23.70800 51.56100 30.70300
H  24.63600 55.20500 33.00100
H  25.73600 53.81800 33.65800
H  24.13300 54.16000 34.30600

