158

Mg 34.41100 2.86400 29.20300
C  32.43100 4.11800 31.72900
C  37.05800 2.46300 31.67600
C  36.59700 2.49400 26.72800
C  31.96500 3.74100 26.86100
N  34.70600 3.20900 31.48300
C  33.70300 3.69100 32.24200
C  34.09500 3.66100 33.74900
C  35.60100 3.40000 33.63400
C  35.83700 3.05900 32.19600
C  36.45500 4.71900 34.00500
C  33.27600 2.67600 34.60000
C  33.07500 3.26500 36.02200
H  34.05800 4.28400 36.58600
N  36.45800 2.30900 29.18000
C  37.30300 2.19200 30.28200
C  38.60400 1.79300 29.78300
C  38.65900 1.99500 28.36700
C  37.20800 2.31400 28.00900
C  39.74800 1.55000 30.67300
C  39.80000 1.86600 27.33800
O  39.56900 1.99900 26.11600
C  41.23300 1.54700 27.63600
N  34.26500 3.13700 27.18700
C  35.26800 2.81600 26.37700
C  34.97700 3.00800 24.90800
C  33.47300 3.08100 24.90800
C  33.17400 3.25400 26.41800
C  35.74300 4.10700 24.28600
C  32.66000 1.84400 24.35400
C  32.32500 0.64500 25.14200
N  32.56900 3.77800 29.21800
C  31.64200 3.93900 28.21900
C  30.36900 4.42500 28.75600
C  30.59100 4.47200 30.14700
C  31.99000 4.15200 30.35300
C  29.18400 4.65900 27.94100
C  30.05100 4.84700 31.41000
O  28.94200 5.27600 31.73000
C  31.21400 4.55200 32.50300
C  31.31300 5.82800 33.21100
O  32.11500 6.69700 32.99500
O  30.37500 5.93200 34.22900
C  30.46200 7.04900 35.18000
H  37.77500 2.30600 32.48500
H  37.22500 2.46600 25.83400
H  31.25400 3.92100 26.05300
H  33.86000 4.66800 34.09600
H  36.00500 2.63100 34.29200
H  36.92100 4.43200 34.94700
H  35.83300 5.56100 34.30800
H  37.08900 4.93700 33.14500
H  33.95800 1.84800 34.79000
H  32.32800 2.38700 34.14500
H  33.09800 2.43400 36.72600
H  32.15100 3.84000 35.97300
H  40.14000 0.56900 30.40500
H  39.53800 1.53100 31.74200
H  40.43200 2.39500 30.59500
H  41.53100 2.12200 28.51200
H  41.93700 1.77400 26.83500
H  41.33200 0.48400 27.85900
H  35.16000 2.06600 24.39100
H  33.07200 4.02500 24.53800
H  36.44000 4.67200 24.90600
H  35.03900 4.74700 23.75400
H  36.35100 3.58600 23.54700
H  33.27600 1.41500 23.56400
H  31.79100 2.29500 23.87400
H  31.23600 0.61600 25.11400
H  32.54700 0.82100 26.19400
H  32.81500 -0.25100 24.76300
H  29.32200 5.42400 27.17700
H  28.26300 4.67700 28.52300
H  29.04700 3.70800 27.42500
H  30.95300 3.84000 33.28600
H  29.55000 7.10200 35.77400
H  30.54600 7.92000 34.53000
H  31.34000 6.97700 35.82200
Mg -12.41700 39.11500 41.28800
C  -10.33400 36.33300 40.57400
C  -10.28100 41.07100 39.66500
C  -14.88300 41.59100 41.23000
C  -14.86800 36.78800 42.49700
N  -10.41600 38.79300 40.45500
C  -9.81800 37.56300 40.10200
C  -8.57200 37.66800 39.18900
C  -8.54900 39.23600 38.92900
C  -9.83500 39.74400 39.74000
C  -7.23200 39.95100 39.29600
C  -8.50100 36.77900 37.92700
C  -7.61300 35.51100 37.82500
H  -6.44300 35.67200 36.92500
N  -12.43300 41.13300 40.80900
C  -11.35700 41.76000 40.21700
C  -11.63500 43.13200 40.02600
C  -13.01800 43.33900 40.32900
C  -13.55100 41.99600 40.83100
C  -10.70500 44.19400 39.45800
C  -13.79000 44.66100 40.31000
O  -13.27100 45.65300 39.81600
C  -15.11500 44.80600 40.99800
N  -14.57000 39.15800 41.79400
C  -15.30700 40.36300 41.76400
C  -16.67500 40.14500 42.34000
C  -16.70000 38.60600 42.57700
C  -15.30900 38.11500 42.30600
C  -17.08100 41.03200 43.49000
C  -17.76700 37.85100 41.75900
C  -19.01800 37.66000 42.57000
N  -12.66300 36.96100 41.34900
C  -13.62600 36.21500 42.10200
C  -13.17500 34.87000 42.21600
C  -11.95100 34.83600 41.59600
C  -11.66300 36.15300 41.15600
C  -13.84200 33.67000 42.90900
C  -10.79300 34.06700 41.27100
O  -10.62600 32.83600 41.46300
C  -9.71700 34.94500 40.56400
C  -8.38300 34.84900 41.29700
O  -7.45200 34.07500 40.96000
O  -8.16400 35.82600 42.26000
C  -6.71400 36.03100 42.49200
H  -9.73800 41.63300 38.90200
H  -15.69100 42.32200 41.29300
H  -15.59400 36.12800 42.97700
H  -7.74700 37.34500 39.82300
H  -8.85800 39.48700 37.91400
H  -6.40700 39.24900 39.17100
H  -7.29300 40.10100 40.37400
H  -7.12400 40.90500 38.78100
H  -8.12200 37.42900 37.13800
H  -9.51600 36.60900 37.56800
H  -8.13700 34.57700 37.62600
H  -7.22100 35.22700 38.80200
H  -9.73300 43.76800 39.20900
H  -10.72300 44.99400 40.19900
H  -11.13200 44.48700 38.49900
H  -15.79100 44.64200 40.15900
H  -15.31500 45.77000 41.46600
H  -15.13800 44.13500 41.85700
H  -17.39300 40.28200 41.53100
H  -16.76700 38.45100 43.65400
H  -17.51200 40.43900 44.29600
H  -17.84600 41.76200 43.22500
H  -16.19300 41.54100 43.86600
H  -17.45300 36.80800 41.71800
H  -17.99200 38.37500 40.83000
H  -19.05800 38.50900 43.25200
H  -18.85100 36.72300 43.10000
H  -19.92500 37.73500 41.97000
H  -13.10000 32.96600 43.28500
H  -14.52500 33.32300 42.13400
H  -14.48700 33.95000 43.74200
H  -9.74500 34.55600 39.54600
H  -6.14200 36.28300 41.59900
H  -6.44600 35.18500 43.12600
H  -6.52600 36.90100 43.12000

