158

Mg 18.01200 -1.22600 27.15700
C  17.00000 0.79400 29.86600
C  19.81800 -3.14800 29.29700
C  19.09200 -2.82100 24.46900
C  16.25800 0.96400 25.02700
N  18.46800 -1.04400 29.33300
C  17.84800 -0.28800 30.25600
C  18.28100 -0.62300 31.68400
C  19.26800 -1.82200 31.47400
C  19.24600 -2.06200 29.93200
C  20.67100 -1.60500 32.08000
C  17.12900 -0.92200 32.68600
C  17.09000 -0.23800 34.08600
H  18.42900 0.21800 34.64700
N  19.20300 -2.76500 26.88400
C  19.86600 -3.47600 27.92200
C  20.59000 -4.66900 27.37200
C  20.33400 -4.57300 25.92200
C  19.45900 -3.39300 25.69800
C  21.46400 -5.74600 28.18100
C  20.97200 -5.38900 24.83100
O  20.97100 -5.17600 23.67500
C  21.96600 -6.41800 25.17100
N  17.91500 -0.84000 24.99900
C  18.38700 -1.70400 24.13300
C  18.05300 -1.45200 22.65800
C  16.98100 -0.30000 22.90200
C  17.05500 -0.03500 24.43600
C  19.27300 -0.84900 21.81400
C  15.48700 -0.69100 22.40700
C  14.63100 -1.36900 23.45400
N  16.94200 0.49200 27.39200
C  16.31400 1.26100 26.38900
C  15.59200 2.36500 27.02200
C  15.81900 2.22100 28.38300
C  16.59700 1.05700 28.57900
C  14.82300 3.38000 26.33800
C  15.52600 2.76100 29.72000
O  14.74000 3.65700 30.14300
C  16.33600 1.86700 30.72700
C  17.15400 2.76500 31.64000
O  18.36400 2.93700 31.57900
O  16.29500 3.28400 32.61000
C  16.92300 4.16700 33.59900
H  20.40900 -3.84100 29.90000
H  19.40100 -3.40600 23.60000
H  15.66700 1.50500 24.28500
H  18.88200 0.22400 32.01500
H  18.96200 -2.71700 32.01600
H  20.74400 -0.69900 32.68100
H  21.34400 -1.43600 31.23900
H  20.96200 -2.53000 32.57900
H  17.02300 -2.00200 32.78600
H  16.24800 -0.51300 32.19100
H  16.57200 -0.94200 34.73600
H  16.40800 0.59600 33.91600
H  22.51500 -5.87600 27.92400
H  20.94800 -6.70300 28.24600
H  21.46600 -5.47500 29.23700
H  21.46700 -7.04700 25.90800
H  22.94800 -6.10400 25.52500
H  22.17200 -7.09300 24.34000
H  17.60000 -2.36200 22.26400
H  17.27300 0.63700 22.42700
H  20.16600 -0.89200 22.43700
H  19.13900 0.13700 21.36800
H  19.63300 -1.52900 21.04200
H  15.51300 -1.28800 21.49500
H  15.14800 0.31400 22.15700
H  14.16100 -0.61100 24.08000
H  15.16100 -2.14000 24.01400
H  13.82300 -1.88700 22.93700
H  13.79500 3.06400 26.16000
H  15.31600 3.50200 25.37300
H  14.92200 4.29300 26.92600
H  15.59600 1.38400 31.36500
H  16.95000 5.19700 33.24300
H  17.96000 3.84400 33.69800
H  16.27400 4.10900 34.47300
Mg 30.67200 58.54300 40.58300
C  28.06300 56.49100 39.42800
C  32.99800 55.98600 39.81200
C  33.20700 60.80900 40.68700
C  28.37400 61.16500 40.71200
N  30.47400 56.43600 39.81800
C  29.32600 55.83000 39.32000
C  29.65300 54.44600 38.78800
C  31.17200 54.29200 39.36200
C  31.57000 55.68500 39.73900
C  31.32200 53.23400 40.49100
C  29.48200 54.27700 37.22100
C  28.34000 53.39400 36.69100
H  27.46100 54.02800 35.58900
N  32.86400 58.36700 40.35200
C  33.62000 57.20400 40.14100
C  34.96400 57.52500 40.20900
C  35.09900 58.95500 40.38600
C  33.67100 59.46500 40.50600
C  36.03200 56.50700 39.90300
C  36.37500 59.75400 40.34000
O  37.45300 59.20600 40.28100
C  36.31800 61.26000 40.35700
N  30.75200 60.59800 40.82500
C  31.88400 61.29100 40.95300
C  31.64600 62.86000 41.12400
C  30.11200 62.90400 41.15100
C  29.70300 61.45600 40.85900
C  32.22000 63.44600 42.47200
C  29.49800 63.92600 40.20100
C  28.31300 64.76900 40.78900
N  28.62300 58.82300 40.27700
C  27.81500 59.92500 40.36400
C  26.42900 59.54300 40.13000
C  26.51500 58.26200 39.80600
C  27.89300 57.82900 39.75300
C  25.23000 60.56400 40.16200
C  25.68900 57.12800 39.39900
O  24.46100 57.04500 39.37500
C  26.69100 55.94600 39.18100
C  26.20100 54.79600 40.03800
O  26.73800 54.31000 41.01900
O  25.01600 54.35400 39.56000
C  24.45900 53.12400 40.18800
H  33.62500 55.10900 39.63500
H  33.97400 61.58600 40.71900
H  27.73600 62.02500 40.93000
H  28.96100 53.79700 39.32300
H  31.85000 54.06500 38.54000
H  32.04400 52.55000 40.04500
H  30.47200 52.56900 40.64400
H  31.61800 53.64900 41.45500
H  30.36100 53.85400 36.73400
H  29.27000 55.21100 36.70100
H  27.62600 53.19500 37.49000
H  28.79900 52.46700 36.34700
H  35.64500 55.56100 39.52500
H  36.51000 56.24000 40.84600
H  36.81700 56.85700 39.23200
H  35.71100 61.71500 39.57400
H  37.33300 61.62200 40.19100
H  35.97200 61.41600 41.37800
H  31.92500 63.40800 40.22400
H  29.72600 63.15100 42.14000
H  33.16000 62.98200 42.77000
H  31.50300 63.24800 43.26900
H  32.54200 64.46300 42.24900
H  29.16700 63.34300 39.34100
H  30.21900 64.67200 39.86300
H  28.71200 65.70700 41.17500
H  27.81600 64.27000 41.62100
H  27.56900 64.93300 40.01000
H  24.34000 60.06800 39.77500
H  25.44900 61.37300 39.46400
H  25.08800 60.81300 41.21300
H  26.58600 55.72400 38.11900
H  23.91300 53.53700 41.03600
H  25.25900 52.47200 40.54200
H  23.78200 52.55900 39.54800

