158

Mg 24.18700 -6.26700 45.15900
C  26.45300 -3.95300 43.80800
C  21.69500 -4.89700 43.23100
C  22.40000 -9.00000 45.87900
C  26.94100 -7.71700 46.98600
N  24.13500 -4.72900 43.63300
C  25.15100 -3.82100 43.28800
C  24.61400 -2.77800 42.29700
C  23.02600 -2.82900 42.49300
C  22.95600 -4.25200 43.08300
C  22.44900 -1.79500 43.52000
C  25.20300 -2.91600 40.84900
C  25.27300 -1.65200 39.93000
H  24.74400 -1.78900 38.49000
N  22.30700 -6.85500 44.63300
C  21.37600 -6.14200 43.91900
C  20.07700 -6.80700 44.01600
C  20.28100 -7.95400 44.73900
C  21.71900 -7.98100 45.10500
C  18.87100 -6.21000 43.34100
C  19.25900 -8.99800 44.97800
O  18.13200 -8.78000 44.55500
C  19.49100 -10.16800 45.80100
N  24.66800 -8.18700 46.13800
C  23.73500 -9.09500 46.37300
C  24.29800 -10.33100 47.30800
C  25.69100 -9.77500 47.69100
C  25.80300 -8.47400 46.89400
C  23.42100 -10.65800 48.45600
C  26.85700 -10.78300 47.26700
C  27.73500 -11.22200 48.46100
N  26.22100 -5.92000 45.42700
C  27.22400 -6.54900 46.23400
C  28.40900 -5.80000 46.11800
C  28.13500 -4.79500 45.18500
C  26.86100 -4.93100 44.77700
C  29.59600 -6.18900 46.96900
C  28.67100 -3.58500 44.58500
O  29.73000 -2.97100 44.83300
C  27.69200 -3.20800 43.45900
C  27.61000 -1.77000 43.41100
O  27.21700 -1.01500 44.28900
O  27.92400 -1.30400 42.09500
C  27.83600 0.11400 41.97100
H  20.81400 -4.39300 42.82900
H  21.85800 -9.81200 46.36700
H  27.75300 -8.05500 47.63300
H  24.87000 -1.78400 42.66300
H  22.36400 -2.76000 41.63000
H  21.77600 -1.10200 43.01500
H  23.24700 -1.17300 43.92400
H  22.02300 -2.17700 44.44800
H  24.48800 -3.55800 40.33400
H  26.16900 -3.40800 40.96800
H  26.30700 -1.31000 39.88400
H  24.71800 -0.85900 40.42900
H  19.24300 -5.87200 42.37400
H  18.57900 -5.32800 43.91100
H  18.00200 -6.84300 43.16100
H  18.54900 -10.57500 46.17000
H  19.91400 -9.87600 46.76200
H  20.13800 -10.89100 45.30400
H  24.43400 -11.10400 46.55200
H  25.67500 -9.48300 48.74100
H  22.64400 -9.89400 48.44200
H  23.90100 -10.85300 49.41500
H  22.97500 -11.59900 48.13400
H  27.55100 -10.35800 46.54200
H  26.52700 -11.75300 46.89400
H  28.21300 -12.18000 48.25400
H  27.21500 -11.20200 49.41900
H  28.60700 -10.57400 48.54400
H  29.34400 -6.79500 47.84000
H  30.14000 -5.28600 47.24800
H  30.31200 -6.74400 46.36400
H  28.21900 -3.50000 42.55000
H  26.76500 0.30600 42.03600
H  28.35900 0.46500 41.08100
H  28.15300 0.57700 42.90600
Mg 49.02500 35.14100 27.08900
C  47.00300 34.01300 29.81000
C  49.61200 37.95100 28.94700
C  50.05700 36.53500 24.33900
C  47.80000 32.39900 25.23000
N  48.46000 35.78200 29.25000
C  47.68700 35.15000 30.15200
C  47.67300 35.92200 31.44900
C  48.08200 37.37100 31.00500
C  48.78600 37.01600 29.65300
C  46.88500 38.46000 30.97100
C  48.60500 35.33800 32.58700
C  47.88700 35.05200 33.93800
H  46.91500 36.07800 34.41300
N  49.94600 36.89300 26.74200
C  50.10800 37.92700 27.59600
C  50.86800 39.01200 26.97700
C  50.87900 38.72600 25.55800
C  50.27400 37.36900 25.46800
C  51.26000 40.21100 27.75200
C  51.47800 39.49000 24.44300
O  51.42000 39.01600 23.31200
C  52.15900 40.78000 24.63900
N  48.98100 34.47700 25.06500
C  49.55900 35.29200 24.13400
C  49.32300 34.68000 22.76100
C  48.82500 33.20100 23.05900
C  48.56300 33.35500 24.58600
C  48.23900 35.43400 21.92700
C  49.83700 32.01500 22.79500
C  49.66300 31.26100 21.46500
N  47.75200 33.46500 27.44000
C  47.43100 32.39500 26.61000
C  46.67400 31.39700 27.34500
C  46.43100 31.98000 28.61700
C  47.07900 33.24900 28.59700
C  46.03300 30.04600 26.88900
C  45.58200 31.88500 29.80300
O  44.69600 30.99200 30.11100
C  46.02700 33.13400 30.62900
C  46.63800 32.57200 31.93100
O  47.75800 32.11200 32.04800
O  45.68000 32.39400 32.93900
C  46.06700 31.52800 34.01000
H  49.74700 38.87500 29.51300
H  50.35400 36.92600 23.36400
H  47.42900 31.60700 24.57500
H  46.62900 35.83900 31.75300
H  48.92300 37.84500 31.51100
H  47.15800 39.39700 31.45500
H  46.05500 37.97900 31.48900
H  46.58800 38.73300 29.95800
H  49.43300 35.93200 32.97200
H  48.96600 34.42100 32.12100
H  48.64500 34.96700 34.71600
H  47.34300 34.10800 33.92000
H  50.43000 40.88400 27.96900
H  51.90700 40.96500 27.30300
H  51.76300 39.81900 28.63500
H  51.43500 41.36400 25.20700
H  52.41900 41.31600 23.72700
H  53.00800 40.49200 25.26000
H  50.24100 34.61500 22.17600
H  47.83300 32.97500 22.66700
H  47.29900 34.90500 21.77100
H  48.56600 35.82000 20.96100
H  47.87600 36.24100 22.56200
H  49.76100 31.33800 23.64600
H  50.83900 32.44400 22.81000
H  50.65200 31.30100 21.01000
H  48.93100 31.67800 20.77200
H  49.40100 30.25500 21.79200
H  46.25200 29.89600 25.83200
H  44.95800 30.04500 27.07000
H  46.58900 29.31600 27.47700
H  45.16000 33.74600 30.87500
H  45.13500 31.23100 34.49100
H  46.70400 32.02900 34.73900
H  46.50000 30.57100 33.72100

