158

Mg 50.84600 45.46800 42.74900
C  47.96800 46.87300 41.14800
C  50.38800 42.62600 40.95800
C  53.98100 44.64400 43.49600
C  51.32800 48.71400 44.16400
N  49.40200 44.91000 41.25900
C  48.28500 45.55100 40.76000
C  47.38700 44.73300 39.94500
C  48.13300 43.34000 39.90300
C  49.34800 43.56000 40.80500
C  47.19500 42.16800 40.25800
C  47.03400 45.24800 38.52900
C  45.51600 45.23700 38.14900
H  45.05800 44.05600 37.25300
N  52.06000 43.79400 42.36300
C  51.63400 42.71700 41.62700
C  52.63200 41.76300 41.73000
C  53.74800 42.24800 42.48200
C  53.33500 43.59700 42.82700
C  52.45600 40.41000 41.11900
C  55.01900 41.47000 42.77100
O  55.16600 40.31700 42.39300
C  56.21900 42.19600 43.45500
N  52.50600 46.65400 43.39900
C  53.67900 46.02500 43.77800
C  54.66800 47.02700 44.33000
C  53.75800 48.17700 44.70400
C  52.43300 47.82100 44.07800
C  55.57000 46.55500 45.51700
C  54.32500 49.60000 44.44400
C  54.36900 50.47900 45.62500
N  49.87100 47.39000 42.75400
C  50.09000 48.51600 43.47200
C  48.99000 49.49200 43.21400
C  48.10800 48.81100 42.34400
C  48.72800 47.58900 42.05600
C  48.84900 50.90400 43.72200
C  46.86800 48.96500 41.64400
O  46.06800 49.89700 41.66300
C  46.68300 47.68100 40.90600
C  45.48100 47.06800 41.57900
O  45.50900 46.21200 42.40000
O  44.32200 47.40000 40.95400
C  43.10800 46.96500 41.63100
H  50.17900 41.70800 40.40400
H  54.98200 44.35500 43.82500
H  51.37900 49.57800 44.82900
H  46.44400 44.68300 40.48900
H  48.44700 43.13800 38.87800
H  46.19600 42.41200 40.61800
H  47.69200 41.69900 41.10700
H  47.25500 41.48000 39.41500
H  47.59400 44.69600 37.77400
H  47.31900 46.29500 38.42800
H  45.33400 46.11600 37.53100
H  44.83600 45.21200 39.00000
H  51.42500 40.19200 40.84000
H  52.69900 39.55400 41.74900
H  53.00600 40.34000 40.18100
H  55.87500 42.43000 44.46200
H  56.49900 43.05500 42.84500
H  57.13800 41.61400 43.53000
H  55.28200 47.15800 43.43900
H  53.49700 48.10600 45.76000
H  55.26900 47.09000 46.41800
H  56.57500 46.89400 45.26500
H  55.63500 45.48900 45.73400
H  53.60300 50.01800 43.74200
H  55.27100 49.51700 43.90900
H  55.39500 50.80400 45.79800
H  53.97300 50.10400 46.56900
H  53.79600 51.36500 45.35200
H  48.07500 51.02600 44.47900
H  48.66600 51.36200 42.75000
H  49.75400 51.38500 44.09200
H  46.45700 48.01000 39.89100
H  42.47000 47.81700 41.86500
H  43.29700 46.36500 42.52100
H  42.79600 46.29600 40.82900
Mg -9.03600 40.38200 39.20200
C  -9.01900 37.05100 38.23600
C  -5.76400 40.74100 38.11100
C  -9.49400 43.78300 39.23700
C  -12.47800 40.00200 39.89300
N  -7.63100 39.11400 38.21900
C  -7.81000 37.74800 38.07600
C  -6.44300 37.12000 37.58500
C  -5.38600 38.21100 38.01100
C  -6.28500 39.44300 38.14100
C  -4.50000 37.86300 39.27600
C  -6.36600 36.63400 36.11300
C  -6.87300 37.59500 35.01600
H  -7.85500 37.13900 33.97400
N  -7.85900 42.02800 38.74600
C  -6.53800 41.95100 38.40500
C  -6.07700 43.29500 38.25300
C  -7.09100 44.23600 38.40800
C  -8.18600 43.34400 38.83400
C  -4.70100 43.60900 37.96300
C  -7.04300 45.76500 38.31000
O  -6.06600 46.34400 37.88100
C  -8.21400 46.73000 38.58900
N  -10.76600 41.73700 39.44600
C  -10.63900 43.03500 39.52300
C  -11.92100 43.78000 39.96500
C  -12.84600 42.56800 40.25400
C  -12.04700 41.32400 39.73300
C  -11.77800 44.75400 41.19600
C  -14.35700 42.64300 39.82800
C  -15.46700 42.94300 40.95800
N  -10.44800 38.87900 39.12200
C  -11.85200 38.87500 39.48400
C  -12.34100 37.54300 39.35700
C  -11.26400 36.80100 38.85700
C  -10.17800 37.64800 38.71600
C  -13.66200 36.93500 39.73800
C  -10.80900 35.46200 38.53600
O  -11.38400 34.34600 38.51100
C  -9.27800 35.53100 38.22800
C  -8.42600 34.76600 39.24500
O  -8.42200 34.78300 40.47000
O  -7.60200 34.05800 38.48600
C  -6.49700 33.48000 39.23300
H  -4.70700 40.99100 38.00100
H  -9.62100 44.86800 39.26300
H  -13.47600 39.90200 40.32500
H  -6.47800 36.23600 38.22100
H  -4.71200 38.37800 37.17000
H  -4.70300 38.50500 40.13300
H  -3.43600 37.86300 39.03700
H  -4.74500 36.86200 39.63300
H  -6.96500 35.74300 35.92600
H  -5.32500 36.39000 35.89800
H  -5.98100 38.05000 34.58400
H  -7.40400 38.44000 35.45400
H  -4.49900 43.70900 36.89700
H  -3.98000 42.86100 38.29500
H  -4.34300 44.45200 38.55500
H  -8.66600 46.69900 39.58100
H  -8.86300 46.43900 37.76300
H  -7.94700 47.78100 38.47900
H  -12.29900 44.38300 39.14000
H  -12.86600 42.34100 41.32000
H  -12.33200 44.50100 42.10000
H  -12.11900 45.78000 41.05400
H  -10.74300 44.80600 41.53300
H  -14.59200 41.68900 39.35600
H  -14.47700 43.47200 39.13100
H  -16.22100 42.16100 41.05200
H  -15.92700 43.89800 40.70600
H  -14.88400 42.93000 41.87900
H  -14.18300 37.54300 40.47800
H  -13.50900 35.98200 40.24500
H  -14.22100 36.78200 38.81400
H  -9.03600 35.07800 37.26700
H  -5.91800 34.33000 39.59500
H  -5.86300 32.87900 38.58200
H  -6.88700 32.81600 40.00400

