158

Mg -2.01000 17.17800 26.34500
C  -2.58400 14.71100 28.63600
C  -2.58900 19.71600 28.56500
C  -1.69200 19.48900 23.70100
C  -2.36000 14.65100 23.84300
N  -2.68900 17.20000 28.37500
C  -2.76300 16.01400 29.20600
C  -2.92100 16.48200 30.72100
C  -2.97400 18.07100 30.55300
C  -2.73300 18.36800 29.07300
C  -4.25700 18.75900 31.17300
C  -1.81000 15.89500 31.61200
C  -1.61500 16.69100 32.98100
H  -1.06100 15.92300 34.22200
N  -2.11600 19.30800 26.22000
C  -2.28500 20.13100 27.30100
C  -2.19000 21.51600 26.83300
C  -1.88300 21.47100 25.40200
C  -1.86700 20.02500 25.05600
C  -2.39200 22.81200 27.68100
C  -1.75000 22.60500 24.40300
O  -1.36500 22.43300 23.19600
C  -1.89100 24.08200 24.83100
N  -2.00700 17.06600 24.04500
C  -1.84500 18.15800 23.25700
C  -1.93300 17.75400 21.79500
C  -2.37900 16.24400 21.85000
C  -2.20600 15.95000 23.34000
C  -2.83900 18.78700 20.99700
C  -1.61600 15.27300 20.89700
C  -2.48200 14.42200 19.97600
N  -2.13100 15.09400 26.18400
C  -2.23700 14.17800 25.18600
C  -2.40200 12.86400 25.72400
C  -2.49800 13.01400 27.09800
C  -2.37800 14.35500 27.30300
C  -2.44500 11.63700 24.91400
C  -2.59700 12.25800 28.35600
O  -2.62500 11.06400 28.45500
C  -2.59300 13.34800 29.41000
C  -1.36500 13.07700 30.17900
O  -0.20900 13.40900 29.85100
O  -1.63700 12.32900 31.29500
C  -0.64300 12.14600 32.36300
H  -2.76300 20.56900 29.22400
H  -1.56200 20.15300 22.84400
H  -2.69400 14.01900 23.01800
H  -3.86700 16.04500 31.04000
H  -2.05600 18.48000 30.97300
H  -3.76600 19.53100 31.76600
H  -4.67100 18.08100 31.91900
H  -5.02300 18.99200 30.43400
H  -0.86100 15.86900 31.07700
H  -2.08800 14.86800 31.85000
H  -2.58100 17.07200 33.31100
H  -1.00200 17.57900 32.82800
H  -1.45500 23.36700 27.71900
H  -2.74700 22.71100 28.70700
H  -3.05600 23.40700 27.05400
H  -2.87300 24.28400 25.25800
H  -1.77600 24.74900 23.97700
H  -1.13100 24.34400 25.56800
H  -0.92700 17.69600 21.37900
H  -3.42200 16.19900 21.53600
H  -3.29900 19.56300 21.60900
H  -3.50700 18.29400 20.29200
H  -2.05500 19.28400 20.42500
H  -0.86600 14.63500 21.36600
H  -1.08000 15.99300 20.27800
H  -2.77400 15.05500 19.13800
H  -3.36600 14.01700 20.46700
H  -1.95500 13.59300 19.50300
H  -3.25100 11.83700 24.20800
H  -2.66700 10.81300 25.59200
H  -1.47100 11.43300 24.47000
H  -3.37900 13.26800 30.16000
H  0.14500 12.89800 32.34300
H  -0.18200 11.16700 32.49600
H  -1.27100 12.33700 33.23300
Mg 25.43900 1.99300 29.99800
C  27.41500 1.55700 32.82500
C  22.55100 1.78800 32.03200
C  23.52200 1.92500 27.22100
C  28.29500 1.30300 27.90900
N  25.02500 1.78800 32.21200
C  26.05500 1.67400 33.11100
C  25.43400 1.68200 34.52900
C  23.86000 1.53000 34.31300
C  23.77700 1.70500 32.75500
C  23.23400 0.18100 34.80200
C  25.71500 2.99100 35.24700
C  26.37900 2.96300 36.65200
H  25.76700 3.79300 37.75600
N  23.33300 1.93500 29.67300
C  22.33600 1.91700 30.64700
C  21.07200 1.87600 29.93100
C  21.34400 1.76300 28.55100
C  22.76700 1.85300 28.43200
C  19.77500 1.68100 30.67400
C  20.37300 1.38500 27.41900
O  20.73900 1.21600 26.26300
C  18.94700 1.17400 27.66100
N  25.81700 1.74700 27.92000
C  24.87300 1.87800 26.99400
C  25.45600 2.10000 25.56900
C  26.92400 1.73700 25.75600
C  27.06100 1.62900 27.25900
C  24.75800 1.46100 24.31200
C  28.03700 2.68500 25.10700
C  27.88500 4.16100 25.51600
N  27.54200 1.68600 30.26200
C  28.49700 1.31600 29.36700
C  29.57200 0.86100 30.11100
C  29.26800 0.98500 31.43100
C  27.98300 1.53100 31.51700
C  30.87400 0.49000 29.59200
C  29.78800 0.80000 32.78700
O  30.89500 0.36800 33.21100
C  28.61500 1.29900 33.78600
C  28.34100 0.18400 34.78700
O  27.74600 -0.79600 34.43900
O  28.80000 0.63900 35.98800
C  28.78700 -0.40000 37.03100
H  21.64300 1.78300 32.63800
H  22.83900 2.10400 26.38900
H  29.06000 1.10100 27.15600
H  25.79100 0.78800 35.04000
H  23.24900 2.35800 34.67200
H  23.64500 -0.67000 34.26100
H  22.18600 0.17900 34.50300
H  23.26400 -0.08900 35.85800
H  24.76900 3.52600 35.33300
H  26.35800 3.67600 34.69500
H  27.39100 3.36900 36.66100
H  26.48800 1.95800 37.06000
H  19.22400 0.76500 30.46300
H  19.16200 2.52900 30.36900
H  19.90300 1.91400 31.73200
H  18.42900 1.98800 28.16900
H  18.91400 0.29200 28.30100
H  18.39200 0.92000 26.75800
H  25.39800 3.16800 25.35900
H  27.14100 0.82600 25.19900
H  23.70400 1.30600 24.54200
H  25.18800 0.48400 24.08900
H  24.74700 2.15600 23.47200
H  27.82700 2.62500 24.03900
H  29.06300 2.34500 25.25200
H  28.77500 4.67900 25.87300
H  27.05700 4.26800 26.21700
H  27.59300 4.64600 24.58400
H  31.22700 1.34700 29.01900
H  30.69200 -0.41000 29.00300
H  31.52500 0.25900 30.43500
H  28.84700 2.13600 34.44400
H  27.76500 -0.44700 37.40900
H  29.47900 -0.13100 37.82900
H  29.15400 -1.35100 36.64500

