158

Mg 1.80800 41.43800 26.80200
C  3.36600 42.25200 29.92200
C  -0.79000 40.14800 28.54900
C  0.48400 40.62300 23.87100
C  4.83700 42.22400 25.28500
N  1.34700 41.25400 29.03300
C  2.07300 41.71700 30.10300
C  1.21400 41.71300 31.37200
C  -0.07600 40.84200 30.91300
C  0.14500 40.77300 29.41100
C  -0.14500 39.44400 31.63600
C  0.95600 43.15600 31.93700
C  1.31700 43.41400 33.38100
H  1.18800 42.35300 34.45200
N  0.05800 40.57300 26.21700
C  -0.85300 40.05800 27.08900
C  -1.98300 39.52500 26.22600
C  -1.53500 39.54500 24.88800
C  -0.27500 40.28500 24.97300
C  -3.18600 38.76200 26.81900
C  -2.20600 38.95100 23.64500
O  -1.63300 39.05200 22.57800
C  -3.56100 38.15200 23.76200
N  2.63000 41.32800 24.96100
C  1.84700 40.99200 23.88100
C  2.60800 41.24500 22.51100
C  3.99000 41.74800 22.95100
C  3.85900 41.68600 24.50200
C  2.63100 39.99700 21.61800
C  4.36700 43.19600 22.34900
C  3.75300 44.35200 23.05000
N  3.71000 42.12200 27.41000
C  4.81100 42.46800 26.66400
C  5.91300 42.85700 27.56300
C  5.30500 42.76800 28.82600
C  4.02000 42.35900 28.73100
C  7.33000 43.18200 27.32500
C  5.65400 42.80000 30.20500
O  6.73600 42.99500 30.66700
C  4.37600 42.57300 31.02600
C  4.75100 41.39400 31.82100
O  4.89100 40.25900 31.37200
O  4.71400 41.75800 33.11600
C  4.86700 40.69500 34.10300
H  -1.68500 39.79700 29.06800
H  0.04300 40.54200 22.87600
H  5.78200 42.53400 24.83300
H  1.69800 41.19200 32.19900
H  -1.03400 41.29200 31.17200
H  0.56100 39.35300 32.46200
H  -0.18000 38.62600 30.91700
H  -1.13400 39.19000 32.01500
H  -0.12600 43.28900 31.94500
H  1.39100 43.89500 31.26500
H  0.66200 44.24600 33.63900
H  2.37100 43.67900 33.46800
H  -3.34400 38.86300 27.89300
H  -3.13000 37.67400 26.83000
H  -4.15600 39.16500 26.52700
H  -3.57100 37.36100 24.51200
H  -3.70700 37.77600 22.74900
H  -4.43500 38.78600 23.90900
H  2.12100 42.04700 21.95600
H  4.82900 41.12500 22.64100
H  2.24100 39.17900 22.22300
H  3.67300 39.80900 21.35700
H  2.09400 40.17600 20.68600
H  3.84100 43.31700 21.40200
H  5.41300 43.36700 22.09500
H  3.05100 43.89400 23.74600
H  3.19400 45.10100 22.49000
H  4.57400 44.88200 23.53200
H  7.63600 42.84900 26.33300
H  7.82700 42.56800 28.07600
H  7.45000 44.24900 27.50800
H  4.11400 43.51900 31.50100
H  4.53000 39.76800 33.63900
H  4.40800 40.93800 35.06200
H  5.89400 40.66800 34.46700
Mg -5.62800 24.96800 25.92500
C  -3.69300 26.34100 28.55500
C  -7.17300 23.03100 28.30000
C  -7.16200 23.05600 23.44000
C  -3.48500 26.37300 23.61500
N  -5.33900 24.55000 28.13100
C  -4.60700 25.38900 28.99000
C  -5.11400 25.23500 30.44700
C  -6.06500 23.99900 30.34700
C  -6.19900 23.82900 28.82200
C  -5.55000 22.65700 30.93800
C  -5.88600 26.47200 30.89700
C  -5.96300 26.68900 32.40600
H  -5.45000 25.60000 33.44900
N  -7.03000 23.34700 25.87000
C  -7.54500 22.75900 26.93400
C  -8.66200 21.85900 26.57600
C  -8.73600 21.90000 25.20400
C  -7.68700 22.77100 24.71100
C  -9.41600 20.96600 27.57300
C  -9.67700 21.20200 24.29600
O  -9.62900 21.28800 23.05300
C  -10.85300 20.37000 24.88000
N  -5.33300 24.71200 23.93300
C  -6.10400 23.90800 23.09700
C  -5.74900 24.18000 21.61500
C  -4.53500 25.19800 21.63100
C  -4.42000 25.48000 23.17300
C  -5.39300 22.85000 20.84800
C  -4.72100 26.49400 20.71900
C  -3.52700 26.77300 19.87700
N  -3.92400 26.18100 25.96300
C  -3.13700 26.69500 24.99000
C  -2.16700 27.66300 25.47900
C  -2.27900 27.53300 26.85100
C  -3.41000 26.68300 27.14500
C  -1.20200 28.44400 24.55800
C  -1.87900 27.92700 28.17800
O  -1.05700 28.80200 28.58400
C  -2.81000 27.31100 29.27100
C  -1.92900 26.72600 30.29800
O  -1.15800 25.78100 30.08200
O  -2.20900 27.16100 31.57700
C  -1.49200 26.60700 32.76100
H  -7.66300 22.32400 28.97300
H  -7.69700 22.71100 22.55200
H  -2.96100 26.81000 22.76300
H  -4.27300 25.13900 31.13300
H  -7.08100 24.20900 30.68100
H  -4.67800 22.81800 31.57300
H  -5.28700 21.98800 30.11900
H  -6.37000 22.15600 31.45200
H  -6.91200 26.37800 30.54200
H  -5.52300 27.40300 30.46300
H  -6.96100 27.02000 32.69300
H  -5.49600 27.65600 32.59400
H  -10.46100 21.27400 27.59600
H  -9.14900 21.09500 28.62200
H  -9.25800 19.92600 27.28800
H  -10.46400 19.45400 25.32600
H  -11.53900 20.18000 24.05500
H  -11.38600 21.01600 25.57800
H  -6.70600 24.50500 21.20600
H  -3.60700 24.68900 21.36900
H  -5.14700 22.18600 21.67600
H  -4.50500 23.00900 20.23500
H  -6.26000 22.47600 20.30400
H  -4.72500 27.30600 21.44700
H  -5.73900 26.40700 20.33900
H  -3.11500 27.67100 20.33800
H  -3.78900 26.90800 18.82800
H  -2.74100 26.02000 19.94100
H  -1.31400 27.97600 23.58000
H  -0.17600 28.30600 24.90000
H  -1.49600 29.48500 24.42500
H  -3.44400 28.08900 29.69700
H  -0.54400 27.13900 32.84600
H  -1.17500 25.56400 32.72100
H  -2.12100 26.68400 33.64800

