158

Mg -12.46300 38.48800 41.30500
C  -10.35900 35.74600 40.35500
C  -10.17900 40.56600 39.68100
C  -14.69700 40.87800 41.32500
C  -14.81900 36.05600 42.31400
N  -10.42600 38.19700 40.31700
C  -9.73600 36.99700 40.07800
C  -8.47200 37.18700 39.34000
C  -8.31000 38.73000 39.27100
C  -9.73800 39.23600 39.81700
C  -7.15200 39.39600 40.03200
C  -8.42100 36.44400 37.95700
C  -7.22200 35.47900 37.74700
H  -6.29600 35.82800 36.52700
N  -12.47000 40.57200 40.75700
C  -11.42100 41.21100 40.05600
C  -11.75700 42.64900 39.99700
C  -13.07100 42.75300 40.37600
C  -13.49300 41.36600 40.89800
C  -10.86700 43.63500 39.22100
C  -13.93100 43.95200 40.22300
O  -13.36900 45.01800 39.87600
C  -15.34700 43.88200 40.31100
N  -14.37100 38.43500 41.72200
C  -15.15900 39.59600 41.59200
C  -16.64400 39.41100 42.02200
C  -16.69900 37.81400 42.26800
C  -15.23600 37.37700 42.13600
C  -17.15800 40.32800 43.11600
C  -17.68900 37.07500 41.35400
C  -18.84400 36.13400 41.97100
N  -12.66100 36.34700 41.31100
C  -13.55500 35.52500 41.95300
C  -13.08600 34.12600 41.87100
C  -11.88200 34.20000 41.19000
C  -11.59200 35.56000 40.94900
C  -13.71000 32.95600 42.56500
C  -10.78000 33.45100 40.76000
O  -10.71400 32.18800 40.80000
C  -9.73200 34.38400 40.23300
C  -8.50600 34.16600 41.03200
O  -7.62300 33.47900 40.61400
O  -8.43200 34.88600 42.19900
C  -7.13700 34.86600 42.84200
H  -9.54700 41.09200 38.96200
H  -15.41000 41.70200 41.40900
H  -15.44700 35.26400 42.72600
H  -7.65800 36.90400 40.00800
H  -8.29500 39.03000 38.22300
H  -6.49600 38.69600 40.55100
H  -7.63600 40.01700 40.78600
H  -6.60400 39.94500 39.26700
H  -8.43300 37.16500 37.14000
H  -9.30500 35.82900 37.78400
H  -7.49800 34.46600 37.45200
H  -6.56800 35.46800 38.61900
H  -10.61800 44.42300 39.93100
H  -11.35700 44.05600 38.34300
H  -9.89500 43.22400 38.94900
H  -15.48100 44.10400 41.37000
H  -15.84000 43.02000 39.86100
H  -15.76400 44.76600 39.82900
H  -17.11300 39.62100 41.06100
H  -16.87300 37.61100 43.32500
H  -16.51700 41.05900 43.60900
H  -17.51800 39.75100 43.96700
H  -18.12300 40.69900 42.77000
H  -17.02100 36.45400 40.75700
H  -18.14300 37.86800 40.76000
H  -19.80800 36.54100 41.66700
H  -18.75500 36.14800 43.05700
H  -18.64200 35.16100 41.52300
H  -14.61400 32.50300 42.15900
H  -14.00800 33.31500 43.55000
H  -12.96800 32.18300 42.76500
H  -9.63100 34.06800 39.19500
H  -6.40500 35.48600 42.32400
H  -6.83300 33.86300 43.14200
H  -7.35100 35.49400 43.70700
Mg 0.70200 44.02000 26.15700
C  2.11400 43.92200 29.24000
C  -2.42500 43.16600 27.47800
C  -0.63300 44.13200 23.05300
C  3.89200 44.64000 24.75100
N  0.00800 43.43200 28.06400
C  0.81000 43.55200 29.25100
C  -0.04000 43.57900 30.57200
C  -1.45800 43.17300 30.00200
C  -1.34700 43.28900 28.40200
C  -2.03300 41.85700 30.54900
C  -0.03400 44.95100 31.34800
C  -0.16600 44.84500 32.86200
H  -0.38400 43.51400 33.68400
N  -1.22200 43.63800 25.39200
C  -2.34800 43.28800 26.17500
C  -3.50700 43.22900 25.29700
C  -3.06200 43.63900 23.99000
C  -1.58900 43.82700 24.08800
C  -4.94100 42.86100 25.86000
C  -3.85300 43.98900 22.71800
O  -3.34300 44.38800 21.71300
C  -5.37100 44.00900 22.71300
N  1.51000 44.18300 24.16500
C  0.78300 44.23600 23.02900
C  1.55300 44.67700 21.79600
C  2.95100 45.09000 22.42600
C  2.82000 44.60000 23.86800
C  1.65000 43.62800 20.77800
C  3.14700 46.62400 22.34500
C  2.88400 47.47900 21.09200
N  2.62100 44.30800 26.78800
C  3.84500 44.44200 26.11900
C  4.86700 44.47500 27.12800
C  4.24300 44.27200 28.33800
C  2.92300 44.12700 28.05000
C  6.38200 44.65600 26.89000
C  4.54600 44.08000 29.69500
O  5.56000 44.21200 30.38900
C  3.12000 43.85000 30.38300
C  3.16400 42.59600 31.16200
O  2.85100 41.45600 30.77400
O  3.68400 42.80100 32.48700
C  3.92800 41.62300 33.31700
H  -3.39000 43.10500 27.98700
H  -1.05800 44.26100 22.05500
H  4.91900 44.75800 24.40000
H  0.31700 42.87100 31.32000
H  -2.20600 43.92400 30.25500
H  -1.12700 41.30800 30.80600
H  -2.51200 41.25600 29.77600
H  -2.77700 42.12900 31.29800
H  -0.93500 45.50800 31.09000
H  0.74900 45.65200 31.05800
H  -0.95500 45.50800 33.21800
H  0.67600 45.36800 33.31600
H  -4.82400 41.98900 26.50300
H  -5.54400 42.66700 24.97200
H  -5.26700 43.68300 26.49700
H  -5.79400 43.03700 22.46000
H  -5.58000 44.62600 21.83900
H  -5.82400 44.39100 23.62800
H  1.13000 45.52500 21.25700
H  3.80000 44.61700 21.93200
H  1.10200 42.72200 21.03600
H  2.68400 43.44100 20.48800
H  1.21700 44.05000 19.87200
H  4.21900 46.77900 22.47400
H  2.66500 47.06900 23.21600
H  3.83800 47.95100 20.85900
H  2.08100 48.18100 21.31500
H  2.57900 46.79200 20.30200
H  6.89000 43.75300 26.55100
H  6.61800 45.10700 27.85300
H  6.54100 45.42700 26.13600
H  2.93000 44.64600 31.10200
H  3.06700 40.96200 33.22500
H  3.98000 42.00600 34.33600
H  4.88000 41.18300 33.01700

