158

Mg 0.05700 7.45100 26.21100
C  0.64000 9.78400 28.90800
C  -0.42700 5.07300 28.49500
C  -0.14100 5.28000 23.72700
C  0.82200 10.03700 23.90200
N  -0.01300 7.46800 28.46800
C  0.20600 8.51300 29.37400
C  0.03900 7.96900 30.84400
C  0.10100 6.45600 30.56800
C  -0.15300 6.29700 29.12100
C  1.48000 5.82100 31.00700
C  -1.23500 8.50400 31.35200
C  -1.11500 8.93400 32.75300
H  -0.24100 8.04300 33.72100
N  -0.34500 5.47500 26.14200
C  -0.56400 4.63300 27.19600
C  -0.91500 3.33700 26.65700
C  -0.97100 3.44300 25.21400
C  -0.40200 4.76300 24.99100
C  -1.09300 2.10600 27.61200
C  -1.49300 2.46500 24.10500
O  -1.49100 2.63500 22.87200
C  -1.96100 1.05600 24.62300
N  0.21300 7.71400 24.09100
C  0.07700 6.65600 23.26000
C  0.04400 7.02200 21.84300
C  0.37300 8.53500 21.88700
C  0.37700 8.85200 23.40500
C  0.88600 6.26700 20.72700
C  -0.59800 9.41900 21.14400
C  -0.11400 10.28900 19.98000
N  0.71200 9.47700 26.34100
C  1.06500 10.37800 25.30200
C  1.50000 11.62200 25.97400
C  1.25500 11.45400 27.37300
C  0.78500 10.13000 27.53500
C  2.02400 12.84600 25.35300
C  1.29800 12.14500 28.66100
O  1.58500 13.31000 28.89000
C  0.86400 11.03600 29.71900
C  1.92000 10.93100 30.80000
O  2.94100 10.28100 30.71800
O  1.59000 11.72200 31.83400
C  2.62600 11.93200 32.88700
H  -0.52400 4.32000 29.27900
H  -0.21200 4.63500 22.84800
H  1.11500 10.79200 23.17000
H  0.89000 8.30200 31.43900
H  -0.64800 5.91000 31.14000
H  1.11700 5.08600 31.72400
H  2.09300 6.62500 31.41500
H  1.89800 5.37800 30.10300
H  -1.91200 7.65000 31.31800
H  -1.57100 9.26900 30.65300
H  -2.07800 8.72100 33.21700
H  -0.93900 10.00900 32.76000
H  -2.00700 1.65000 27.23100
H  -1.20400 2.57000 28.59200
H  -0.26300 1.40400 27.53600
H  -2.48400 0.61000 23.77700
H  -2.77700 1.22400 25.32600
H  -1.08800 0.55100 25.03700
H  -1.00500 6.82600 21.62500
H  1.42300 8.65600 21.62000
H  0.18300 5.68500 20.13100
H  1.58700 5.58400 21.20700
H  1.47900 6.95500 20.12600
H  -0.92900 10.15600 21.87500
H  -1.52000 8.93900 20.81700
H  -0.89300 10.37600 19.22300
H  0.90000 10.07400 19.64300
H  -0.02700 11.30500 20.36600
H  2.79700 12.55700 24.64100
H  2.37000 13.58400 26.07600
H  1.23400 13.32700 24.77700
H  -0.03700 11.28500 30.28000
H  2.57700 11.11900 33.61100
H  2.36500 12.84300 33.42400
H  3.66600 12.05200 32.58500
Mg 41.99200 41.52800 27.48300
C  41.15000 43.91500 29.89900
C  42.86600 39.32200 29.93900
C  42.87500 39.28500 25.14600
C  41.49600 43.98500 25.11800
N  42.01800 41.67400 29.78600
C  41.57300 42.70200 30.55500
C  41.69100 42.33600 32.07900
C  42.41100 40.91200 32.01900
C  42.49900 40.61200 30.53300
C  43.84600 40.72700 32.74300
C  40.39500 42.39800 32.79300
C  40.19800 43.22000 34.12600
H  39.51100 42.38000 35.21400
N  42.73900 39.59200 27.53900
C  43.00800 38.85300 28.64300
C  43.48500 37.52600 28.27100
C  43.42100 37.47600 26.84900
C  43.02300 38.84200 26.44500
C  44.05700 36.44500 29.27300
C  43.88100 36.37400 25.93700
O  43.91900 36.46900 24.71000
C  44.42900 35.03100 26.60000
N  42.13500 41.57400 25.50000
C  42.46200 40.54700 24.70000
C  42.41000 40.85900 23.20100
C  41.61100 42.22400 23.26100
C  41.78700 42.66400 24.68400
C  43.73400 40.99700 22.57300
C  40.11900 42.07200 22.76400
C  38.98600 41.79400 23.79700
N  41.60800 43.51900 27.46500
C  41.30700 44.35100 26.36800
C  40.72300 45.60800 26.82800
C  40.72000 45.51000 28.19100
C  41.20000 44.20400 28.52800
C  40.54000 46.87800 25.95300
C  40.56900 46.28800 29.45300
O  40.16300 47.45400 29.59800
C  40.86200 45.25500 30.63500
C  41.92900 45.80900 31.51500
O  43.09200 46.01200 31.18000
O  41.35700 46.02600 32.79400
C  42.21600 46.69700 33.84600
H  43.14300 38.53100 30.63800
H  43.11300 38.51100 24.41400
H  41.29000 44.67000 24.29300
H  42.28900 43.11300 32.55500
H  41.73800 40.18100 32.46800
H  44.59200 40.33900 32.05000
H  43.68700 39.90800 33.44400
H  44.24300 41.63600 33.19400
H  40.05400 41.37300 32.93400
H  39.67400 42.77400 32.06600
H  39.47900 44.02800 33.99200
H  41.16000 43.61800 34.44900
H  44.97700 36.02400 28.86700
H  43.37300 35.62300 29.48300
H  44.25200 36.96300 30.21200
H  45.40900 35.12000 27.06800
H  44.53300 34.37800 25.73300
H  43.67500 34.60600 27.26200
H  41.82000 40.11400 22.66800
H  42.08100 42.97500 22.62500
H  44.02600 42.01700 22.32300
H  43.79900 40.61800 21.55300
H  44.53100 40.48300 23.11100
H  40.14700 41.25000 22.05000
H  39.90600 43.07200 22.38600
H  38.06200 42.27900 23.48100
H  39.25100 42.09100 24.81200
H  38.69600 40.74500 23.85300
H  39.49600 47.13600 25.77800
H  41.00100 46.75200 24.97300
H  41.10600 47.69800 26.39500
H  40.03900 45.16100 31.34500
H  43.22200 46.92800 33.49700
H  42.33000 45.97500 34.65500
H  41.75800 47.64100 34.14100

