158

Mg 46.61400 24.43900 28.78300
C  47.27200 26.75600 31.37400
C  45.57300 22.17300 31.08300
C  46.57600 22.04400 26.27100
C  47.95600 26.73000 26.49700
N  46.36700 24.50400 30.99600
C  46.76200 25.48300 31.84300
C  46.25000 25.16100 33.26200
C  45.69300 23.72900 33.13700
C  45.97700 23.39900 31.68800
C  46.33600 22.68400 34.08800
C  45.30800 26.22000 33.86100
C  44.46400 25.81900 35.05900
H  44.46400 26.56500 36.40500
N  46.09100 22.35900 28.72400
C  45.69900 21.59800 29.78400
C  45.43400 20.27800 29.27500
C  45.77900 20.18300 27.86900
C  46.17000 21.55500 27.55600
C  44.82000 19.13600 30.24900
C  45.81200 19.03300 26.90700
O  46.09200 19.08600 25.74700
C  45.36400 17.71000 27.34700
N  47.09800 24.35100 26.69400
C  46.86800 23.32900 25.85000
C  47.30500 23.70800 24.40100
C  47.78400 25.16200 24.56800
C  47.68200 25.42400 26.06500
C  48.42200 22.74900 23.80600
C  46.92800 26.21000 23.65200
C  45.43000 26.38200 23.96500
N  47.39600 26.38600 28.80500
C  47.88900 27.18000 27.82400
C  48.28000 28.42700 28.39600
C  48.17500 28.27600 29.79100
C  47.51500 27.02800 29.96500
C  48.96600 29.48300 27.50500
C  48.30700 28.95800 31.06200
O  48.72300 30.08800 31.37600
C  47.71800 27.96800 32.14800
C  48.54700 27.70600 33.28300
O  49.45400 26.90700 33.28000
O  48.37300 28.65700 34.17800
C  49.25900 28.72100 35.37900
H  45.26000 21.40900 31.79800
H  46.53500 21.33500 25.44100
H  48.31600 27.41400 25.72600
H  47.21200 25.13900 33.77500
H  44.61800 23.69400 33.31700
H  45.58800 21.91700 34.28700
H  46.63600 23.20500 34.99700
H  47.28200 22.24900 33.76400
H  44.66500 26.73900 33.15000
H  46.00000 26.93700 34.30100
H  44.70400 24.76800 35.22400
H  43.43700 25.84600 34.69500
H  44.74300 19.47700 31.28100
H  45.45900 18.25400 30.29300
H  43.82200 18.91000 29.87200
H  44.30400 17.70300 27.59900
H  46.08000 17.39200 28.10500
H  45.32700 17.10100 26.44400
H  46.43600 23.51700 23.77200
H  48.81900 25.29900 24.25500
H  48.79700 22.07600 24.57700
H  49.16200 23.45100 23.42000
H  48.05900 22.16800 22.95800
H  47.14100 26.09300 22.58900
H  47.37400 27.18900 23.82500
H  45.10800 27.37300 24.28400
H  45.22900 25.71300 24.80100
H  44.88800 26.07300 23.07100
H  48.56200 29.54100 26.49400
H  50.01500 29.20100 27.41700
H  48.93600 30.40300 28.08800
H  46.78800 28.44900 32.45200
H  48.86400 27.95900 36.05100
H  49.26700 29.63000 35.98100
H  50.29700 28.41800 35.23500
Mg 26.06300 51.99500 25.87100
C  23.73500 52.96100 28.48400
C  28.23200 51.15000 28.28700
C  28.19300 51.30800 23.33500
C  23.74200 53.07700 23.41700
N  26.03200 52.30000 28.20800
C  24.98000 52.51700 29.04600
C  25.28300 52.18700 30.51900
C  26.70300 51.49800 30.41200
C  27.05600 51.67300 28.88700
C  27.78600 52.01600 31.36300
C  24.19600 51.16800 31.09600
C  23.18900 51.53900 32.11600
H  23.26900 50.93100 33.50200
N  28.00100 51.52400 25.82000
C  28.71900 51.09400 26.88700
C  30.01700 50.71500 26.46400
C  30.01400 50.68500 25.01300
C  28.69200 51.17600 24.64100
C  31.16600 50.38300 27.42300
C  31.06600 50.38600 23.94300
O  30.92800 50.46800 22.74300
C  32.42600 49.97900 24.44500
N  25.99500 52.30700 23.70800
C  27.03500 51.91300 22.92300
C  26.74900 52.32100 21.45600
C  25.19800 52.60900 21.43800
C  24.99300 52.72300 22.93200
C  27.72100 53.37000 20.83500
C  24.31900 51.51200 20.76700
C  23.18200 52.06800 19.87700
N  24.20300 52.88500 25.87400
C  23.33400 53.16200 24.80000
C  22.05300 53.57900 25.34300
C  22.21100 53.53700 26.73900
C  23.45300 53.08000 27.03400
C  20.90400 54.11000 24.55800
C  21.47600 53.86400 27.99900
O  20.34200 54.33000 28.17500
C  22.48200 53.55400 29.11000
C  22.72900 54.67300 29.96900
O  23.67900 55.42400 29.92900
O  21.76100 54.91700 30.87900
C  21.80700 56.20300 31.56500
H  28.90400 50.77900 29.06300
H  28.85800 51.01400 22.52000
H  22.96700 53.26600 22.67100
H  25.27500 53.08400 31.13800
H  26.68200 50.42200 30.58800
H  28.37700 51.18700 31.75200
H  27.39000 52.68600 32.12600
H  28.43700 52.64300 30.75300
H  24.66500 50.25600 31.46600
H  23.52500 50.85400 30.29700
H  22.16800 51.52100 31.73400
H  23.46900 52.56600 32.35100
H  30.97900 50.57100 28.48000
H  32.04500 50.97200 27.16000
H  31.43700 49.33300 27.31700
H  32.38700 49.30200 25.29800
H  32.93600 50.87400 24.80300
H  32.86800 49.45300 23.59900
H  26.91200 51.40000 20.89500
H  24.96200 53.59600 21.04000
H  28.51500 52.81300 20.33900
H  28.27700 53.90000 21.60900
H  27.31900 54.03400 20.07100
H  23.92400 50.84600 21.53300
H  25.02600 50.89200 20.21500
H  22.28900 51.58700 20.27600
H  23.24700 51.78100 18.82800
H  22.99300 53.13000 20.03100
H  20.80800 55.15200 24.86300
H  19.99800 53.56700 24.82700
H  21.13000 54.18500 23.49400
H  22.00900 52.78600 29.72300
H  22.59700 56.09500 32.30800
H  20.91300 56.52200 32.10100
H  22.28500 56.90300 30.88100

