158

Mg 44.41100 5.03800 47.25700
C  42.10900 7.93000 46.90000
C  41.52500 3.01800 46.76000
C  46.37600 2.47500 46.98400
C  46.95700 7.19100 46.55400
N  42.06600 5.45500 47.00100
C  41.45100 6.65200 46.86100
C  39.95400 6.40700 46.61900
C  39.76200 4.85900 46.92300
C  41.24500 4.42100 46.88200
C  38.86900 4.47200 48.17000
C  39.53200 6.78500 45.20300
C  38.42300 7.80300 45.09400
H  37.60700 7.78700 43.81400
N  43.99500 3.02100 47.18800
C  42.81800 2.35300 46.90600
C  43.12400 0.97700 46.71700
C  44.52800 0.71400 46.77300
C  45.00300 2.07600 47.09300
C  42.04200 -0.13100 46.59100
C  45.27200 -0.63500 46.58600
O  44.73200 -1.64300 46.23700
C  46.82000 -0.82600 46.58900
N  46.42400 4.87300 46.75400
C  47.06300 3.69100 46.81300
C  48.56700 3.89800 47.00000
C  48.75500 5.37700 46.49200
C  47.29500 5.89400 46.64100
C  49.05500 3.59200 48.46800
C  49.34900 5.64000 45.01700
C  50.82500 5.99700 44.98100
N  44.57900 7.13200 47.03100
C  45.72200 7.85300 46.75600
C  45.39700 9.32500 46.74800
C  44.04800 9.38500 46.89900
C  43.54100 8.04700 46.93600
C  46.36100 10.42900 46.61500
C  42.85300 10.27600 46.99200
O  42.84100 11.52900 46.95700
C  41.62600 9.38500 46.95900
C  40.70500 9.58500 48.12300
O  40.59300 8.84900 49.11600
O  39.97700 10.66600 47.86300
C  38.88200 10.99500 48.70900
H  40.69900 2.31300 46.64900
H  47.15100 1.70800 46.93400
H  47.84600 7.80200 46.38100
H  39.37000 6.98900 47.33300
H  39.27400 4.21700 46.18900
H  39.54000 4.54200 49.02600
H  38.54400 3.43500 48.09400
H  38.04900 5.18200 48.28900
H  39.19800 5.93000 44.61400
H  40.46600 7.11500 44.74900
H  38.76700 8.79000 45.40300
H  37.77100 7.43300 45.88500
H  41.95900 -0.78400 47.45900
H  42.31700 -0.77400 45.75500
H  40.99300 0.13800 46.46300
H  47.02600 -1.82700 46.21000
H  47.32900 -0.53100 47.50700
H  47.22900 -0.22100 45.77900
H  49.06000 3.15100 46.37900
H  49.33800 5.93400 47.22500
H  48.12700 3.47900 49.03000
H  49.59800 4.46800 48.82100
H  49.69200 2.71200 48.37800
H  48.66500 6.40900 44.65800
H  49.30600 4.75700 44.37900
H  51.07500 6.54000 44.07000
H  51.31500 5.02500 44.92400
H  51.14900 6.48400 45.90200
H  47.35100 10.15400 46.97900
H  45.95700 11.31100 47.11200
H  46.48700 10.82900 45.60900
H  41.08600 9.66200 46.05300
H  38.99600 12.03700 49.00700
H  38.55000 10.46900 49.60400
H  37.91800 11.00300 48.20000
Mg 34.41500 3.59000 30.30200
C  32.20700 4.53000 32.72800
C  36.99000 3.69400 32.68800
C  36.68100 2.90100 27.87900
C  31.93100 3.82400 27.84700
N  34.59700 4.05300 32.37800
C  33.49000 4.17700 33.21700
C  33.84800 4.25800 34.74600
C  35.46300 4.29800 34.63600
C  35.69600 3.92500 33.13400
C  36.12200 5.74200 34.94900
C  33.23200 3.10600 35.63800
C  32.81300 3.70100 36.99400
H  33.68500 4.76800 37.67300
N  36.51100 3.38100 30.30600
C  37.38400 3.43800 31.37400
C  38.72300 3.10200 30.95600
C  38.62800 2.80300 29.55300
C  37.22700 3.01700 29.18300
C  39.91500 3.23500 31.79800
C  39.65300 2.23400 28.61600
O  39.53700 2.08000 27.37500
C  40.91400 1.55200 29.12500
N  34.26100 3.36400 28.13100
C  35.34600 2.98300 27.36200
C  34.99300 2.77900 25.90300
C  33.44700 3.13600 25.99700
C  33.20900 3.49200 27.42700
C  35.77100 3.77800 24.96000
C  32.61600 2.00100 25.33900
C  32.10900 0.94400 26.29800
N  32.45300 4.08100 30.23000
C  31.55800 4.04500 29.21300
C  30.25200 4.37000 29.73300
C  30.40300 4.51300 31.13100
C  31.76100 4.37000 31.35500
C  28.95700 4.50900 28.98900
C  29.75800 4.77300 32.40900
O  28.60700 5.03000 32.69700
C  30.97100 4.90400 33.50200
C  31.06700 6.21100 34.13700
O  31.56600 7.27000 33.65300
O  30.51900 6.11800 35.33200
C  30.54100 7.27000 36.22500
H  37.85000 3.83900 33.34500
H  37.30700 2.61900 27.02900
H  31.16200 3.87300 27.07300
H  33.42800 5.20400 35.08900
H  35.95600 3.52000 35.22000
H  35.44500 6.39700 35.49900
H  36.47600 6.10600 33.98400
H  37.01500 5.71300 35.57300
H  33.99600 2.33900 35.76500
H  32.47400 2.65700 34.99500
H  32.74300 2.89900 37.72900
H  31.82400 4.14200 36.86500
H  39.88800 3.89300 32.66600
H  40.79700 3.53200 31.23000
H  40.32000 2.26700 32.09300
H  40.61700 0.62000 29.60500
H  41.32400 2.30500 29.79900
H  41.55700 1.44600 28.25200
H  35.16100 1.74400 25.60400
H  33.25800 4.03300 25.40700
H  35.16000 4.46700 24.37800
H  36.37500 3.24200 24.22700
H  36.28800 4.52200 25.56600
H  33.17000 1.48800 24.55200
H  31.82800 2.50700 24.78100
H  32.71800 1.05300 27.19600
H  32.12100 -0.09500 25.96800
H  31.08300 1.10500 26.62600
H  28.47400 3.54300 28.84400
H  29.10400 4.83600 27.96000
H  28.36000 5.18000 29.60700
H  30.85600 4.20700 34.33200
H  31.27800 8.03900 35.99600
H  30.79500 6.92900 37.22900
H  29.54400 7.69500 36.34000

