158

Mg 1.74200 -1.82200 44.28900
C  4.82900 -0.60700 43.48000
C  0.30800 0.67000 42.30500
C  -1.37200 -3.25700 44.55100
C  3.11500 -4.54900 45.82200
N  2.53400 -0.26600 42.81900
C  3.85800 0.10600 42.74900
C  3.97500 1.41800 42.02700
C  2.53000 1.78700 41.68300
C  1.70900 0.62800 42.31900
C  2.13700 3.21900 42.15100
C  4.96600 1.45400 40.82700
C  5.86500 2.72500 40.60600
H  6.39800 3.08700 39.21900
N  -0.24800 -1.36000 43.63900
C  -0.58800 -0.25300 42.87900
C  -2.09700 -0.24400 42.68600
C  -2.56000 -1.39800 43.29900
C  -1.39200 -2.10100 43.79400
C  -2.86400 0.79900 41.80000
C  -4.07500 -1.79200 43.34000
O  -4.92700 -1.01600 42.86800
C  -4.64300 -3.07900 43.98400
N  0.98700 -3.57300 45.00200
C  -0.31800 -3.93400 45.12500
C  -0.58000 -5.10400 46.10500
C  0.85100 -5.54000 46.47300
C  1.67200 -4.56000 45.63200
C  -1.49400 -4.78700 47.29200
C  1.21000 -6.97800 45.98100
C  2.06300 -7.76300 46.93300
N  3.60500 -2.42300 44.72100
C  4.06900 -3.57300 45.38900
C  5.48400 -3.49400 45.56700
C  5.87200 -2.32100 44.87800
C  4.67300 -1.80400 44.31400
C  6.40600 -4.43400 46.26600
C  6.97200 -1.47200 44.59300
O  8.14400 -1.57100 44.92400
C  6.32100 -0.34400 43.66200
C  6.48400 0.94800 44.38200
O  5.72300 1.26900 45.23900
O  7.48800 1.80100 43.82400
C  7.38200 3.15000 44.34600
H  -0.19300 1.42300 41.69300
H  -2.27800 -3.79900 44.82800
H  3.46500 -5.43700 46.35200
H  4.35400 2.16400 42.72600
H  2.45000 1.63000 40.60700
H  2.31300 3.96900 41.38000
H  2.73400 3.52700 43.00900
H  1.10300 3.38700 42.45300
H  4.45500 1.35700 39.87000
H  5.62300 0.59800 40.98100
H  6.71500 2.63600 41.28300
H  5.31200 3.63500 40.83800
H  -3.29900 0.33700 40.91300
H  -2.06800 1.50500 41.56600
H  -3.69000 1.31700 42.28800
H  -4.25900 -3.03900 45.00300
H  -4.33000 -3.96300 43.42900
H  -5.72900 -3.10600 44.08000
H  -1.12200 -5.88900 45.57800
H  1.01700 -5.32500 47.52800
H  -1.77800 -3.75900 47.06500
H  -1.12100 -4.90800 48.30900
H  -2.35800 -5.42400 47.10300
H  1.71600 -7.02800 45.01700
H  0.26700 -7.50500 45.83900
H  1.53000 -8.67600 47.19800
H  2.37800 -7.36000 47.89600
H  2.99300 -7.96200 46.40100
H  5.87900 -4.72400 47.17500
H  7.33700 -4.00600 46.63900
H  6.69200 -5.26400 45.62100
H  6.89800 -0.25600 42.74100
H  8.28000 3.64800 43.98100
H  7.42400 3.18700 45.43500
H  6.45600 3.59900 43.98700
Mg 48.52700 34.39000 27.12800
C  46.67700 33.23400 29.95700
C  48.98500 37.30000 29.06200
C  49.96400 35.81700 24.46300
C  47.53600 31.71300 25.38700
N  47.92000 35.13000 29.34800
C  47.35900 34.43000 30.33000
C  47.56500 35.10400 31.73100
C  47.70900 36.58800 31.30300
C  48.24000 36.36700 29.82800
C  46.34600 37.36000 31.43400
C  48.77600 34.47000 32.44300
C  48.65700 34.16900 33.96000
H  47.69500 35.06900 34.75700
N  49.33000 36.29700 26.79900
C  49.45700 37.35000 27.73400
C  50.24500 38.44800 27.18400
C  50.54100 38.00800 25.76800
C  49.96000 36.65600 25.60400
C  50.78900 39.56900 27.92900
C  51.35100 38.75800 24.72200
O  51.50600 38.27100 23.62900
C  52.03000 40.02300 25.00000
N  48.63100 33.88300 25.13400
C  49.40800 34.51800 24.28900
C  49.50500 33.73000 22.98000
C  48.73100 32.41200 23.29700
C  48.27100 32.68700 24.73300
C  48.92900 34.39100 21.76900
C  49.63500 31.15200 23.22100
C  50.72500 31.06200 24.38300
N  47.25600 32.88900 27.49900
C  47.06300 31.79300 26.72100
C  46.29600 30.79300 27.49500
C  46.07500 31.38300 28.71700
C  46.69200 32.65300 28.70400
C  45.88600 29.45300 26.99000
C  45.47600 31.16100 30.01200
O  44.87700 30.22400 30.44600
C  45.65400 32.43600 30.79400
C  46.01500 32.02500 32.19000
O  47.12200 31.59300 32.50500
O  44.98900 32.28500 33.08100
C  45.06400 32.00900 34.49000
H  49.29200 38.21600 29.57100
H  50.36000 36.25900 23.54700
H  47.44400 30.82700 24.75600
H  46.60100 34.88100 32.18800
H  48.56600 37.02400 31.81600
H  45.64400 36.89000 32.12300
H  45.94400 37.55800 30.44100
H  46.51300 38.35400 31.84900
H  49.65800 35.07400 32.23100
H  48.96800 33.52900 31.92800
H  49.69700 34.18800 34.28800
H  48.29200 33.17000 34.19900
H  50.47900 39.74300 28.96000
H  50.68800 40.45900 27.30800
H  51.86700 39.41000 27.95800
H  52.56000 40.34600 24.10400
H  52.74600 39.95500 25.81900
H  51.19200 40.66900 25.26500
H  50.48700 33.28300 22.82400
H  47.78200 32.28200 22.77600
H  48.91100 35.46400 21.96400
H  48.01300 33.97700 21.34600
H  49.66700 34.16100 21.00100
H  50.11800 31.23700 22.24800
H  48.98800 30.27800 23.29700
H  50.38400 30.29400 25.07800
H  50.90700 31.91700 25.03500
H  51.62500 30.70800 23.88100
H  46.32200 29.22600 26.01700
H  44.82000 29.56000 26.79400
H  46.19300 28.67900 27.69300
H  44.62600 32.79300 30.85400
H  44.16500 31.53300 34.88300
H  45.27200 32.95600 34.99000
H  45.91200 31.35500 34.69400

