158

Mg 50.12000 46.35700 42.83000
C  46.84100 46.91200 41.65800
C  49.85000 43.24300 41.29800
C  53.38400 45.97200 43.38300
C  50.25500 49.75600 43.63100
N  48.41100 45.19700 41.69000
C  47.23900 45.65900 41.34900
C  46.55200 44.68800 40.38700
C  47.45200 43.37300 40.47500
C  48.65600 43.98100 41.19400
C  46.79700 42.19000 41.26500
C  46.42200 45.20500 38.89900
C  45.01100 45.00700 38.27100
H  45.04800 43.76600 37.35100
N  51.46200 44.79100 42.48400
C  51.13200 43.58300 41.90600
C  52.32200 42.90600 41.66900
C  53.38100 43.62700 42.22900
C  52.76700 44.86200 42.74200
C  52.33400 41.63600 40.94100
C  54.90500 43.12600 42.23200
O  55.29300 42.07300 41.79400
C  55.89700 43.89900 42.97500
N  51.54000 47.62400 43.53500
C  52.80300 47.28300 43.60700
C  53.68100 48.50600 44.00200
C  52.63200 49.62800 44.14400
C  51.40100 48.98700 43.68200
C  54.56800 48.29400 45.30100
C  53.08100 50.95800 43.36500
C  53.04500 52.27100 44.09500
N  48.75600 47.99700 42.96200
C  48.98400 49.32100 43.18000
C  47.72300 50.06100 43.00600
C  46.83300 49.20600 42.45600
C  47.54700 47.93800 42.39100
C  47.58700 51.51100 43.26200
C  45.55500 49.07900 41.89100
O  44.66200 49.96300 41.79900
C  45.45000 47.55800 41.36800
C  44.27100 46.97900 42.06200
O  44.36900 46.52700 43.19500
O  43.29500 46.84900 41.18300
C  42.18900 46.05600 41.64600
H  49.67600 42.24300 40.89600
H  54.45400 45.95700 43.60100
H  50.28300 50.84700 43.68700
H  45.56200 44.44800 40.77500
H  47.76700 42.88300 39.55400
H  45.74500 42.09800 40.99300
H  46.77300 42.34500 42.34300
H  47.28400 41.23900 41.05000
H  47.17100 44.72000 38.27400
H  46.67200 46.26600 38.87000
H  44.86600 45.89800 37.66000
H  44.11900 44.85200 38.87900
H  51.87800 40.83500 41.52400
H  53.34100 41.22400 40.88500
H  51.76300 41.70400 40.01500
H  56.72200 43.18700 42.99700
H  55.54400 44.00700 44.00000
H  56.30600 44.74700 42.42500
H  54.25400 48.54900 43.07600
H  52.47700 49.79700 45.21000
H  54.28000 48.58800 46.31100
H  55.38700 48.95500 45.01800
H  54.89300 47.25400 45.30100
H  52.42000 51.04800 42.50300
H  54.09600 50.77600 43.01200
H  52.68100 52.13800 45.11300
H  52.62300 53.11000 43.54300
H  54.10300 52.51900 44.18700
H  48.07900 51.70400 44.21600
H  46.53600 51.79000 43.34100
H  48.06500 52.17400 42.54200
H  45.18700 47.55900 40.31000
H  41.28100 46.58700 41.93100
H  42.47200 45.41200 42.47900
H  41.91600 45.34900 40.86300
Mg 41.99300 41.47600 26.35700
C  40.90900 43.76900 28.73900
C  43.37500 39.55500 28.78400
C  43.08300 39.33200 23.93900
C  40.94800 43.62500 23.87200
N  42.19100 41.77800 28.54700
C  41.53000 42.67900 29.36900
C  41.85000 42.41000 30.82200
C  42.87300 41.17300 30.76500
C  42.81400 40.75000 29.27600
C  44.32000 41.44000 31.36600
C  40.46000 42.16400 31.75300
C  40.44400 43.02000 33.07700
H  39.83800 42.37800 34.33500
N  42.97600 39.64400 26.44500
C  43.44300 39.00700 27.53400
C  44.08800 37.77100 27.14200
C  43.97000 37.64600 25.74900
C  43.27400 38.89000 25.29000
C  44.52900 36.70500 28.19700
C  44.43200 36.49500 24.82700
O  44.15200 36.48300 23.69100
C  45.38200 35.40800 25.28100
N  42.04100 41.47600 24.22100
C  42.54600 40.51700 23.41400
C  42.35800 40.75400 21.96900
C  41.47600 42.07300 22.00000
C  41.47900 42.42700 23.47600
C  43.58900 40.80700 21.21000
C  39.95100 41.90600 21.45600
C  39.24200 40.57600 21.87300
N  41.21700 43.38100 26.26100
C  40.82900 44.13800 25.13000
C  40.37400 45.42900 25.57800
C  40.40700 45.33000 26.96400
C  40.93100 44.10100 27.35300
C  39.81000 46.48900 24.68600
C  40.12600 45.99900 28.19800
O  39.71300 47.09900 28.38000
C  40.44300 45.05600 29.39300
C  41.47700 45.71500 30.18500
O  42.60700 45.94100 29.74700
O  40.94500 46.11900 31.39000
C  41.95400 46.60900 32.26800
H  43.81100 38.96900 29.59600
H  43.42700 38.64700 23.16100
H  40.64500 44.22100 23.01000
H  42.36800 43.28800 31.20800
H  42.52000 40.45700 31.50600
H  45.02100 40.97400 30.67400
H  44.33400 40.95800 32.34300
H  44.50600 42.51400 31.37200
H  40.36700 41.11300 32.02600
H  39.54800 42.40400 31.20700
H  39.88100 43.93000 32.87400
H  41.48000 43.32300 33.22700
H  44.03400 35.76300 27.96000
H  44.28100 37.07700 29.19100
H  45.61200 36.59100 28.14500
H  46.36000 35.84200 25.49000
H  45.47100 34.61000 24.54400
H  44.86700 34.78600 26.01300
H  41.78500 39.87200 21.68100
H  42.03400 42.81000 21.42400
H  43.48300 41.69900 20.59300
H  43.69600 39.89700 20.61800
H  44.43300 40.88600 21.89500
H  40.02200 42.06100 20.37900
H  39.29500 42.64900 21.90900
H  39.44400 39.76700 21.17100
H  38.16200 40.71500 21.92900
H  39.49400 40.24200 22.88000
H  39.21500 46.08500 23.86700
H  40.64200 47.11000 24.35300
H  39.13100 47.12100 25.25800
H  39.48500 44.95900 29.90300
H  42.57700 47.34000 31.75300
H  42.38500 45.75800 32.79600
H  41.38500 47.26800 32.92400

