158

Mg 45.01800 4.10900 48.59500
C  43.11900 6.89100 48.01300
C  42.25700 2.11800 47.96500
C  47.06700 1.43000 48.09000
C  47.89000 6.16000 48.37300
N  42.99300 4.51900 47.91200
C  42.36200 5.71700 47.74300
C  40.92800 5.56900 47.29400
C  40.62300 4.04600 47.66800
C  42.07600 3.50900 47.90400
C  39.56400 3.85900 48.88600
C  40.72900 5.95100 45.76300
C  39.53000 6.94700 45.43000
H  38.85800 6.71700 44.23700
N  44.68700 2.04800 48.37300
C  43.44600 1.44000 48.11800
C  43.68500 0.03200 47.95900
C  45.12600 -0.24600 47.99600
C  45.65900 1.12600 48.04100
C  42.58500 -0.91600 47.61800
C  45.80900 -1.58400 47.75800
O  45.05300 -2.55600 47.62000
C  47.33500 -1.81000 47.85100
N  47.19200 3.85900 48.44000
C  47.75500 2.60800 48.28600
C  49.27900 2.68100 48.13500
C  49.58200 4.20600 48.18400
C  48.14400 4.82100 48.33000
C  50.11100 1.98300 49.22500
C  50.32800 4.79300 46.99600
C  51.45000 4.03100 46.22400
N  45.43500 6.10400 48.40000
C  46.64200 6.78400 48.40100
C  46.36200 8.21700 48.35000
C  44.95000 8.27000 48.33900
C  44.50100 6.99200 48.31500
C  47.27700 9.42900 48.34100
C  43.81300 9.23000 48.22800
O  43.84700 10.46900 48.12400
C  42.54700 8.35800 47.94700
C  41.53700 8.63900 49.06700
O  41.32400 7.98200 50.09200
O  40.78600 9.71300 48.62500
C  39.45100 9.88400 49.23500
H  41.34700 1.51600 47.91400
H  47.77900 0.69300 47.71100
H  48.75600 6.81300 48.49900
H  40.39700 6.25100 47.95900
H  40.28300 3.45300 46.81900
H  39.19700 4.80100 49.29400
H  40.15900 3.28400 49.59500
H  38.72100 3.20800 48.65600
H  40.66500 5.12200 45.05900
H  41.53300 6.63400 45.48800
H  39.92200 7.95900 45.53200
H  38.75300 6.77500 46.17500
H  42.74000 -1.14800 46.56400
H  41.55100 -0.60700 47.76700
H  42.61900 -1.77400 48.28900
H  47.68400 -1.67000 46.82800
H  47.56100 -2.85900 48.04400
H  47.79100 -1.12700 48.56800
H  49.49800 2.15000 47.20900
H  50.06500 4.54800 49.09900
H  50.59400 1.06400 48.89200
H  49.43300 1.60900 49.99300
H  50.90200 2.59900 49.65300
H  50.65000 5.77800 47.33500
H  49.55900 4.97300 46.24400
H  51.69300 3.07800 46.69300
H  52.33800 4.66300 46.26600
H  51.11500 3.93200 45.19200
H  46.70200 10.19900 48.85600
H  47.39100 9.54700 47.26300
H  48.25200 9.36900 48.82300
H  42.14700 8.72500 47.00100
H  38.68000 9.58100 48.52600
H  39.14800 10.90100 49.48200
H  39.36400 9.37600 50.19500
Mg 7.02800 53.42300 40.41400
C  6.67300 49.90700 40.38200
C  10.33300 53.00500 39.95700
C  7.09900 56.61500 39.59800
C  3.65700 53.68000 41.03500
N  8.36100 51.61800 40.07600
C  7.99300 50.27500 40.13200
C  9.21600 49.36600 40.19900
C  10.35100 50.36600 40.46800
C  9.69200 51.77900 40.17800
C  11.02900 50.27000 41.90300
C  9.43000 48.57600 38.86400
C  9.54600 49.32900 37.49400
H  8.25000 49.28900 36.59900
N  8.51600 54.65700 39.86600
C  9.85900 54.30100 39.69700
C  10.58500 55.41600 39.32800
C  9.75100 56.52000 39.31400
C  8.38500 56.00100 39.55000
C  12.11200 55.51400 39.14300
C  10.23100 57.95900 39.02000
O  11.41500 58.25800 38.93200
C  9.23100 59.06500 38.79800
N  5.49800 54.93400 40.05200
C  5.85100 56.26400 39.98800
C  4.60800 57.20900 40.09500
C  3.43900 56.23000 40.60200
C  4.24400 54.84400 40.58800
C  4.83300 58.37500 41.09100
C  2.15500 56.33600 39.71400
C  1.02200 56.95900 40.41700
N  5.50100 52.20400 40.70700
C  4.23500 52.38500 41.01800
C  3.50100 51.14600 41.11700
C  4.49300 50.15100 40.92400
C  5.64500 50.83900 40.60200
C  2.13700 50.91900 41.66900
C  4.79200 48.71300 41.08700
O  4.09000 47.81600 41.49100
C  6.13100 48.53900 40.51100
C  6.04300 47.83600 39.18300
O  5.42300 48.27400 38.18800
O  6.55400 46.62500 39.28300
C  6.52700 45.76500 38.02000
H  11.41300 52.84800 39.92300
H  6.96000 57.67400 39.37300
H  2.61100 53.88800 41.26800
H  9.06000 48.60000 40.95800
H  11.16200 50.42400 39.74100
H  12.11500 50.36200 41.88600
H  10.78500 49.30900 42.35600
H  10.85300 51.21400 42.41900
H  8.62000 47.84700 38.83300
H  10.31500 47.95000 38.97300
H  10.35100 48.88900 36.90600
H  9.89400 50.36000 37.55400
H  12.48200 54.51400 39.36900
H  12.49100 56.11300 39.97100
H  12.43100 55.80000 38.14100
H  8.68400 58.80900 37.89000
H  9.79600 59.98400 38.64400
H  8.56200 59.01200 39.65600
H  4.44100 57.67200 39.12300
H  3.28500 56.48900 41.64900
H  5.08300 59.14400 40.36000
H  5.71000 58.20800 41.71600
H  3.98500 58.57900 41.74600
H  1.98100 55.32600 39.34300
H  2.38400 56.99000 38.87300
H  1.18200 56.82700 41.48700
H  0.17100 56.33500 40.14500
H  0.82000 57.95900 40.03200
H  1.71200 51.85500 42.03000
H  2.22400 50.35900 42.60000
H  1.52100 50.54800 40.84900
H  6.69300 47.98700 41.26400
H  6.10200 44.80700 38.31800
H  7.53400 45.76000 37.60300
H  5.85200 46.11900 37.24000

