158

Mg 35.66600 1.39600 29.78200
C  33.48600 2.48000 32.11900
C  38.24200 1.27400 32.23500
C  37.99700 0.41800 27.40700
C  33.18800 1.67300 27.30200
N  35.86800 1.95300 31.80300
C  34.77300 2.26300 32.61600
C  35.10400 2.35400 34.09200
C  36.70200 2.31700 34.03600
C  36.94200 1.78500 32.58700
C  37.49700 3.67100 34.22700
C  34.50600 1.24300 35.03600
C  34.22700 1.52100 36.44700
H  34.73900 2.87900 36.99900
N  37.72400 0.70500 29.85100
C  38.59500 0.70300 30.98400
C  39.92300 0.14400 30.62000
C  39.87100 0.06100 29.20500
C  38.48700 0.32700 28.80200
C  41.08200 -0.07600 31.61300
C  40.97800 -0.31600 28.28000
O  40.81500 -0.57200 27.07200
C  42.45500 -0.23500 28.73800
N  35.55400 1.05600 27.70200
C  36.69700 0.79500 26.95000
C  36.36200 0.63700 25.49200
C  34.77700 0.73600 25.49300
C  34.51700 1.25800 26.88200
C  37.15000 1.62700 24.56000
C  34.09500 -0.65100 25.20500
C  32.98800 -0.66700 24.06700
N  33.72000 2.07000 29.65800
C  32.83100 2.16400 28.61200
C  31.49900 2.59700 29.13900
C  31.72300 2.74100 30.55100
C  33.05700 2.33200 30.80900
C  30.27600 2.93900 28.31700
C  31.12500 3.15000 31.79600
O  29.97100 3.39200 32.19400
C  32.24400 2.98000 32.86100
C  32.46200 4.22400 33.67700
O  33.21500 5.09000 33.40800
O  31.63700 4.23800 34.80100
C  31.79000 5.41500 35.57700
H  38.98200 1.23200 33.03700
H  38.79400 0.45900 26.66100
H  32.38900 1.55600 26.56800
H  34.77600 3.33400 34.44000
H  37.14100 1.66700 34.79400
H  38.11500 3.58500 35.12200
H  36.79000 4.48500 34.38200
H  38.06300 3.91200 33.32700
H  35.18800 0.39700 34.95700
H  33.54300 0.89600 34.66200
H  34.71100 0.74400 37.03800
H  33.14600 1.48100 36.57800
H  40.43100 -0.26600 32.46600
H  41.74900 0.77200 31.77200
H  41.67500 -0.96400 31.39500
H  43.15900 -0.04700 27.92700
H  42.56100 -1.08100 29.41700
H  42.51500 0.64500 29.37800
H  36.79000 -0.34500 25.28900
H  34.33200 1.55000 24.92000
H  37.64000 2.37700 25.18100
H  36.56400 2.07600 23.75800
H  37.90700 1.00200 24.08600
H  33.54300 -0.85600 26.12200
H  34.94900 -1.30500 25.02900
H  33.17100 -1.42500 23.30600
H  32.90100 0.24200 23.47200
H  31.94900 -0.74400 24.38800
H  29.98500 3.97300 28.50100
H  29.46400 2.22800 28.47100
H  30.45700 2.76200 27.25700
H  31.90400 2.15500 33.48700
H  31.02700 6.14300 35.29800
H  32.78100 5.86800 35.54800
H  31.53800 5.12500 36.59700
Mg 35.66700 49.31200 24.87000
C  35.49400 47.53200 27.92600
C  34.29500 52.03400 26.43800
C  35.08400 50.74900 21.81700
C  36.60500 46.37500 23.31800
N  35.07900 49.75700 26.93400
C  35.09200 48.89300 28.03100
C  34.89400 49.66400 29.34100
C  34.36500 51.04700 28.93600
C  34.62900 50.97900 27.35100
C  32.94200 51.39600 29.26800
C  36.08100 49.77600 30.28900
C  35.78200 49.45100 31.81600
H  34.33200 49.63500 32.36200
N  34.74300 51.14000 24.24700
C  34.29700 52.19100 25.03500
C  33.87000 53.25500 24.23200
C  34.00400 52.83700 22.85200
C  34.61800 51.49300 22.90700
C  33.44700 54.58000 24.83100
C  33.65800 53.64900 21.60800
O  33.84300 53.16600 20.45500
C  33.03800 55.09400 21.68500
N  35.57300 48.60800 22.79300
C  35.47400 49.42300 21.79000
C  35.88400 48.76200 20.41700
C  36.55500 47.45500 20.95500
C  36.27500 47.43500 22.49900
C  34.78500 48.54300 19.38300
C  38.11700 47.47100 20.84400
C  38.77800 46.69500 19.69200
N  36.09900 47.32400 25.46000
C  36.56500 46.22500 24.72500
C  36.73600 45.11700 25.58900
C  36.30000 45.57000 26.86900
C  35.92700 46.89800 26.71900
C  37.20400 43.73500 25.20800
C  36.02500 45.18500 28.25700
O  36.17200 44.12900 28.83600
C  35.62800 46.48200 29.06500
C  34.39500 46.15100 29.84900
O  33.26600 46.40500 29.52700
O  34.73000 45.79900 31.15900
C  33.64800 45.41700 32.11000
H  34.11100 53.00600 26.90000
H  35.15000 51.17900 20.81500
H  36.93400 45.50600 22.74400
H  34.10300 49.16800 29.90400
H  34.93800 51.84900 29.40000
H  32.58200 50.75000 30.06800
H  32.25600 51.47600 28.42500
H  32.96400 52.38200 29.73300
H  36.59100 50.73900 30.25500
H  36.93000 49.14300 30.03100
H  36.41600 50.04900 32.46900
H  36.21500 48.46400 31.97600
H  32.43800 54.78100 24.47200
H  34.01700 55.47800 24.59300
H  33.42000 54.56300 25.92100
H  32.67200 55.21900 20.66500
H  33.70100 55.91900 21.94700
H  32.13800 55.02100 22.29600
H  36.64100 49.39500 19.95300
H  36.16500 46.55500 20.48000
H  35.13600 49.10600 18.51800
H  33.85200 49.04800 19.63000
H  34.61300 47.48500 19.18200
H  38.57400 46.97500 21.70000
H  38.36600 48.53000 20.77800
H  38.87900 45.62600 19.88000
H  39.78700 47.07400 19.53300
H  38.17300 46.88700 18.80600
H  37.86000 43.43300 26.02400
H  37.84500 43.82500 24.33000
H  36.42200 42.97700 25.19500
H  36.50200 46.71300 29.67400
H  33.69700 44.33100 32.18600
H  32.69200 45.82600 31.78300
H  33.88700 45.97100 33.01800

