158

Mg 54.03000 24.73500 44.11300
C  51.38300 26.97500 44.01700
C  51.86700 22.29700 42.81900
C  56.61600 22.67300 43.75300
C  56.16600 27.47600 44.75600
N  51.94800 24.71400 43.44400
C  51.03200 25.72300 43.49500
C  49.57500 25.25900 43.11300
C  49.71500 23.68900 43.31200
C  51.24200 23.54700 43.19400
C  49.26300 23.10100 44.72700
C  48.99800 25.64800 41.72300
C  49.91400 26.17900 40.61400
H  50.26700 25.14400 39.49500
N  54.22000 22.76200 43.35100
C  53.22100 21.92800 42.93600
C  53.77700 20.59200 42.72300
C  55.14700 20.55000 43.07100
C  55.38800 21.98200 43.48000
C  52.88100 19.36700 42.27400
C  56.16100 19.43000 42.97100
O  55.82200 18.30200 42.64000
C  57.60600 19.65000 43.18000
N  56.21800 25.11200 43.96200
C  57.02400 24.05100 43.94400
C  58.48000 24.57800 44.16200
C  58.35300 26.06900 44.35200
C  56.80600 26.27900 44.40900
C  59.35300 23.77400 45.19900
C  59.04300 27.11000 43.33800
C  59.99800 28.24700 43.84900
N  53.87700 26.80300 44.40300
C  54.77700 27.72900 44.84600
C  54.14900 28.95300 45.18400
C  52.79800 28.70200 44.91300
C  52.69100 27.39800 44.32200
C  54.87200 30.16900 45.77300
C  51.39300 29.25000 44.91400
O  51.05100 30.43700 45.14100
C  50.46000 28.15600 44.19400
C  50.08800 28.85200 42.96600
O  50.87400 29.40900 42.23400
O  48.68800 28.97300 42.76500
C  48.43000 29.60800 41.44900
H  51.21600 21.44600 42.60800
H  57.48300 22.08600 44.06500
H  56.76700 28.34200 45.04200
H  48.86800 25.67000 43.83300
H  49.27800 23.14700 42.47400
H  50.13400 22.83400 45.32500
H  48.68900 22.21100 44.47000
H  48.58800 23.75200 45.28300
H  48.24600 26.42500 41.85900
H  48.53900 24.81100 41.19700
H  50.77400 26.66600 41.07300
H  49.38700 26.99500 40.12000
H  53.11600 18.56000 42.96700
H  52.90300 19.14100 41.20700
H  51.84100 19.67800 42.37200
H  58.06700 18.77200 42.72700
H  57.84200 19.65800 44.24400
H  57.96500 20.59800 42.77900
H  58.87900 24.43300 43.15800
H  58.78100 26.32400 45.32200
H  58.65200 23.52500 45.99600
H  60.16300 24.39300 45.58400
H  59.67000 22.83900 44.73800
H  58.21300 27.52900 42.77000
H  59.57300 26.51000 42.59800
H  60.93000 28.10100 43.30200
H  60.21700 28.24400 44.91700
H  59.62800 29.22000 43.52700
H  55.27300 29.80500 46.71900
H  54.16200 30.93300 46.08900
H  55.75900 30.44200 45.20100
H  49.63000 28.03600 44.89000
H  48.59700 29.11300 40.49300
H  48.77900 30.62600 41.27500
H  47.36600 29.84100 41.49100
Mg 46.64800 16.58600 28.34100
C  45.22700 16.03200 31.50000
C  49.11100 18.56700 29.89400
C  47.77400 17.48900 25.35000
C  44.05000 14.95200 26.90700
N  47.07900 17.26000 30.50700
C  46.37800 16.86400 31.63200
C  47.17500 17.39300 32.87000
C  48.28400 18.26800 32.37700
C  48.12600 18.06100 30.81100
C  48.20100 19.74000 32.77800
C  47.65500 16.19000 33.83100
C  47.61400 16.27700 35.36800
H  47.71500 17.69500 35.95800
N  48.36700 17.69100 27.73400
C  49.23800 18.35800 28.48700
C  50.20800 18.95400 27.62500
C  49.81000 18.77100 26.28800
C  48.61700 17.90100 26.37900
C  51.52400 19.63500 28.09200
C  50.49000 19.33600 25.01900
O  49.99200 19.13900 23.89800
C  51.79400 20.10000 25.01400
N  45.81900 16.44200 26.41800
C  46.59000 16.82500 25.31700
C  45.97300 16.40700 23.96600
C  44.84500 15.41300 24.48600
C  44.89700 15.54900 26.00900
C  45.41000 17.66300 23.16000
C  44.94400 13.94000 23.90400
C  45.70200 12.90800 24.78100
N  44.91600 15.79500 28.99500
C  43.95700 15.05600 28.31500
C  42.99700 14.50900 29.22100
C  43.45800 14.85100 30.50400
C  44.67600 15.64500 30.27900
C  41.73800 13.70500 28.79400
C  43.17300 14.78900 31.89900
O  42.22500 14.26400 32.47400
C  44.30400 15.56800 32.62000
C  43.59600 16.70600 33.28800
O  43.23300 17.69600 32.74900
O  43.52300 16.43700 34.64600
C  42.95300 17.50500 35.37600
H  49.80500 19.21700 30.43100
H  47.93300 17.86900 24.33900
H  43.39800 14.29100 26.33300
H  46.39300 17.91500 33.42100
H  49.29500 17.95500 32.64100
H  47.23300 19.81900 33.27400
H  48.09100 20.44400 31.95300
H  49.10300 19.88600 33.37100
H  48.73700 16.15700 33.70300
H  47.17900 15.27200 33.49000
H  48.34700 15.65800 35.88500
H  46.61100 15.87800 35.52000
H  52.46200 19.13000 27.86300
H  51.46400 19.58500 29.17900
H  51.64900 20.61800 27.63700
H  51.59600 21.12400 25.32800
H  52.10700 20.25800 23.98200
H  52.45200 19.49200 25.63500
H  46.70000 15.88000 23.34800
H  43.85200 15.75700 24.19700
H  44.34400 17.69300 22.93700
H  45.92400 17.86900 22.22000
H  45.77100 18.56800 23.64800
H  45.46200 14.08800 22.95700
H  43.98800 13.45000 23.71700
H  45.85200 12.00400 24.19100
H  45.02800 12.55600 25.56200
H  46.65200 13.21900 25.21500
H  41.79700 12.62800 28.95200
H  41.57900 13.79900 27.72000
H  40.95300 13.99700 29.49200
H  44.84400 14.95600 33.34300
H  43.70500 18.29400 35.37100
H  42.75600 17.30300 36.42900
H  41.99100 17.85200 34.99800

