158

Mg 8.64400 3.16400 27.48300
C  10.02500 1.85800 30.33700
C  6.77300 5.38300 29.52900
C  7.25400 4.40600 24.69700
C  9.83900 0.39300 25.61300
N  8.41500 3.58400 29.72000
C  9.15600 2.95100 30.66000
C  8.86600 3.59800 32.02500
C  7.68700 4.59600 31.73800
C  7.62300 4.57500 30.24900
C  6.27700 4.25100 32.17700
C  10.10600 4.30200 32.63000
C  10.47200 3.96700 34.11700
H  10.74700 5.08800 35.14900
N  7.33500 4.79500 27.07500
C  6.65000 5.50700 28.10000
C  5.77800 6.39100 27.41100
C  5.91300 6.16700 25.99100
C  6.92800 5.09100 25.87700
C  4.93100 7.41200 28.05200
C  5.10900 6.76900 24.81100
O  5.45000 6.59000 23.63400
C  3.81600 7.54900 25.11100
N  8.76200 2.53800 25.31200
C  8.01200 3.22800 24.35600
C  8.07300 2.50900 22.94200
C  8.88600 1.22200 23.31500
C  9.16700 1.33700 24.80800
C  6.77900 2.12800 22.29900
C  10.17100 0.84600 22.50200
C  10.03600 -0.47000 21.79600
N  9.58900 1.46300 27.79600
C  10.08100 0.48300 27.01700
C  10.80600 -0.47700 27.88800
C  10.95300 0.05700 29.13700
C  10.15200 1.25000 29.07600
C  11.54100 -1.70300 27.35800
C  11.52900 -0.09200 30.46500
O  12.26200 -0.96900 30.96400
C  10.93600 1.10900 31.29100
C  10.20200 0.50100 32.42300
O  9.15500 -0.07200 32.29900
O  11.00500 0.64100 33.55400
C  10.34900 0.13900 34.79000
H  6.32700 6.16800 30.14300
H  6.74700 4.70500 23.77700
H  10.23400 -0.51000 25.14300
H  8.31200 2.85600 32.59900
H  7.88000 5.59700 32.12400
H  5.77500 5.16900 32.48000
H  6.22800 3.53100 32.99400
H  5.62100 3.79300 31.43700
H  10.00500 5.37700 32.48000
H  10.93900 3.90600 32.04800
H  11.37500 3.36700 34.00100
H  9.70600 3.29600 34.50800
H  5.32700 7.77300 29.00200
H  3.93200 7.00600 28.21000
H  5.12300 8.30800 27.46100
H  3.21900 7.63200 24.20300
H  4.19400 8.48400 25.52400
H  3.38200 6.94800 25.90900
H  8.67600 3.05700 22.21800
H  8.21300 0.36400 23.31900
H  6.10800 2.33400 23.13200
H  6.63200 1.07700 22.04900
H  6.55800 2.84400 21.50800
H  11.05900 0.81000 23.13300
H  10.41400 1.73300 21.91700
H  10.21200 -0.40600 20.72200
H  9.09200 -0.97800 21.98700
H  10.78200 -1.20900 22.08800
H  12.58800 -1.42400 27.23900
H  11.06200 -2.00800 26.42800
H  11.45100 -2.48700 28.11000
H  11.71500 1.81700 31.57300
H  9.66800 -0.70200 34.65900
H  9.64900 0.93700 35.03900
H  11.02800 -0.07800 35.61500
Mg 43.55100 4.12500 46.76900
C  41.80000 6.93500 46.67900
C  40.67500 2.25800 46.51200
C  45.48600 1.36000 46.39700
C  46.56500 6.08500 46.55000
N  41.49900 4.55700 46.47900
C  40.98400 5.80400 46.68500
C  39.47200 5.78600 46.43500
C  39.11300 4.31500 46.77900
C  40.53500 3.66800 46.61900
C  38.42400 3.93900 48.11200
C  39.08700 6.25800 45.00500
C  40.18000 6.26700 43.91900
H  39.68300 6.16700 42.48200
N  43.09200 2.05800 46.40500
C  41.88100 1.49900 46.42900
C  41.95800 0.07700 46.12000
C  43.33800 -0.24600 46.18300
C  44.05600 1.05700 46.36800
C  40.77900 -0.83300 46.10200
C  43.93100 -1.58400 46.08000
O  43.21300 -2.51100 45.68900
C  45.40000 -1.80100 46.32900
N  45.72100 3.79100 46.56700
C  46.26000 2.51500 46.49300
C  47.80300 2.58200 46.36900
C  48.10700 4.09100 46.44200
C  46.68500 4.73000 46.48300
C  48.63100 1.62800 47.37600
C  48.98100 4.71900 45.32000
C  50.11000 5.73700 45.74800
N  44.16700 6.12100 46.66500
C  45.35500 6.79100 46.54400
C  45.14300 8.24600 46.73100
C  43.75100 8.40400 46.71500
C  43.20700 7.02400 46.66000
C  46.23300 9.27200 46.79000
C  42.65100 9.33300 46.78400
O  42.56300 10.53800 46.82000
C  41.37500 8.40000 46.61700
C  40.49600 8.68300 47.75900
O  40.72800 8.37000 48.89900
O  39.30000 9.34200 47.36400
C  38.28800 9.42900 48.44700
H  39.79100 1.62100 46.43700
H  46.20500 0.58900 46.11400
H  47.42500 6.75300 46.47500
H  39.05100 6.48800 47.15500
H  38.39900 3.88000 46.08000
H  38.11300 4.70100 48.82700
H  39.30600 3.44200 48.51600
H  37.58900 3.26100 47.94000
H  38.83100 7.30900 45.13700
H  38.16800 5.70200 44.82100
H  40.87200 5.43200 44.03200
H  40.72100 7.21100 43.97500
H  39.86500 -0.48700 46.58500
H  40.90100 -1.81800 46.55300
H  40.53200 -0.88100 45.04200
H  45.65700 -1.27000 47.24600
H  45.82300 -1.44900 45.38800
H  45.62000 -2.84700 46.54200
H  47.99900 2.24000 45.35300
H  48.62200 4.33900 47.37100
H  49.26800 0.97600 46.77700
H  47.88200 0.99600 47.85100
H  49.23300 2.19000 48.09100
H  48.35000 5.39700 44.74600
H  49.41600 3.98500 44.64100
H  49.56700 6.22200 46.55900
H  50.34300 6.42100 44.93200
H  51.01500 5.18600 46.00600
H  47.01100 8.99800 46.07700
H  46.64000 9.13800 47.79200
H  45.81400 10.27600 46.72200
H  40.79500 8.65500 45.73000
H  37.33800 9.15700 47.98700
H  38.22400 10.45200 48.81700
H  38.17300 8.70400 49.25200

