158

Mg -2.60900 16.91900 25.53100
C  -2.89000 14.45000 28.18400
C  -3.46400 19.23900 27.80600
C  -2.70800 19.05600 23.09200
C  -2.55000 14.23100 23.34400
N  -3.07600 16.84300 27.72300
C  -3.05700 15.79200 28.64300
C  -3.36700 16.32700 30.08100
C  -3.54500 17.86800 29.78300
C  -3.37000 17.98500 28.34300
C  -4.76200 18.63000 30.35600
C  -2.30300 16.00200 31.20500
C  -2.48100 16.69200 32.55700
H  -1.98600 16.04900 33.88100
N  -2.76900 18.94200 25.47500
C  -3.28500 19.76900 26.41700
C  -3.30900 21.18500 25.93500
C  -2.81400 21.13100 24.66900
C  -2.72200 19.65700 24.33500
C  -3.63300 22.37800 26.82300
C  -2.43200 22.27100 23.73500
O  -1.86400 22.05000 22.69700
C  -2.72000 23.70400 24.11600
N  -2.40700 16.66900 23.45600
C  -2.59000 17.68900 22.60000
C  -2.62900 17.26200 21.10500
C  -2.88400 15.78200 21.25200
C  -2.42900 15.53100 22.74600
C  -3.50800 18.07600 20.14500
C  -2.17700 14.92400 20.21600
C  -3.17800 14.26200 19.25200
N  -2.53200 14.72200 25.66700
C  -2.56900 13.79100 24.66500
C  -2.82000 12.43400 25.22700
C  -2.65700 12.64000 26.62200
C  -2.62200 14.05100 26.83600
C  -3.06400 11.20300 24.47200
C  -2.61100 11.96100 27.95800
O  -2.73000 10.81200 28.31400
C  -2.69900 13.22900 29.04500
C  -1.54000 13.18300 29.94500
O  -0.47200 13.80300 29.78700
O  -1.84200 12.47100 31.07700
C  -0.88300 12.32800 32.14200
H  -3.62700 20.07500 28.49000
H  -3.07800 19.77000 22.35400
H  -2.69700 13.44700 22.59900
H  -4.31600 15.93200 30.44500
H  -2.60900 18.30800 30.12900
H  -5.48500 19.01200 29.63500
H  -4.46900 19.50300 30.94000
H  -5.31200 17.89500 30.94400
H  -1.26000 15.95000 30.89400
H  -2.60500 14.97500 31.41100
H  -3.47200 17.14000 32.62900
H  -1.84700 17.57800 32.53800
H  -4.20300 22.11200 27.71300
H  -4.25800 23.09500 26.29100
H  -2.72600 22.84000 27.21200
H  -2.32000 24.41600 23.39400
H  -2.25000 23.80700 25.09400
H  -3.78700 23.75800 24.33200
H  -1.64000 17.42700 20.67600
H  -3.95700 15.59000 21.22100
H  -4.14500 17.37200 19.60900
H  -2.92800 18.65800 19.42900
H  -4.01900 18.77000 20.81200
H  -1.63600 14.12600 20.72400
H  -1.34600 15.47700 19.77700
H  -4.22400 14.44800 19.49400
H  -3.04700 13.18500 19.35600
H  -2.99300 14.61500 18.23800
H  -3.24900 10.52700 25.30700
H  -2.17700 10.90100 23.91500
H  -3.96400 11.32600 23.87000
H  -3.59900 13.22900 29.65900
H  -1.00800 11.33300 32.57000
H  -1.11500 12.85900 33.06400
H  0.11600 12.50000 31.74300
Mg -2.86300 34.87900 26.65300
C  -4.42800 32.87600 28.92900
C  -1.85400 37.02600 29.28400
C  -1.65500 37.04900 24.37400
C  -4.38800 32.99200 24.02600
N  -3.37200 35.06700 28.87900
C  -3.73700 33.94500 29.57100
C  -3.50700 34.16100 31.08600
C  -2.66900 35.46500 31.15100
C  -2.71700 35.95700 29.70900
C  -3.14700 36.54600 32.13700
C  -3.03400 32.97100 31.95100
C  -1.95400 33.12400 33.02100
H  -2.15900 32.28800 34.35200
N  -1.90000 36.71400 26.81800
C  -1.55600 37.39900 27.96300
C  -0.78200 38.57700 27.57400
C  -0.70500 38.55100 26.15500
C  -1.45700 37.40000 25.72000
C  -0.28300 39.59100 28.53600
C  -0.06700 39.55800 25.16100
O  -0.08300 39.52800 23.91600
C  0.94200 40.46800 25.69900
N  -3.25200 35.19100 24.40300
C  -2.46000 36.07900 23.74400
C  -2.68600 35.93600 22.20800
C  -3.33700 34.50400 22.11700
C  -3.73500 34.22000 23.60500
C  -3.68000 36.92700 21.65100
C  -2.37600 33.44600 21.47300
C  -0.85800 33.52500 21.76000
N  -4.26700 33.29800 26.51900
C  -4.72100 32.57500 25.37900
C  -5.40000 31.41500 25.87200
C  -5.41700 31.48100 27.25800
C  -4.61500 32.64400 27.56700
C  -6.12800 30.41000 25.03000
C  -5.81000 30.86900 28.53500
O  -6.44900 29.86600 28.79400
C  -5.29400 31.83700 29.66900
C  -6.41700 32.36400 30.45900
O  -7.30800 33.05300 30.02300
O  -6.30700 31.93400 31.79800
C  -7.28000 32.08800 32.87800
H  -1.29300 37.57400 30.04400
H  -1.34600 37.75200 23.59700
H  -4.62600 32.26900 23.24300
H  -4.48800 34.36900 31.51300
H  -1.61500 35.23600 31.30800
H  -2.56800 37.46900 32.11900
H  -3.04800 36.05800 33.10600
H  -4.18300 36.78100 31.89200
H  -2.58500 32.24900 31.26800
H  -3.92500 32.53500 32.40300
H  -1.98900 34.14200 33.40900
H  -0.98500 32.98600 32.54200
H  0.80200 39.69700 28.56400
H  -0.57600 39.42300 29.57200
H  -0.67700 40.54900 28.19500
H  0.35600 41.18300 26.27700
H  1.38900 40.95400 24.83200
H  1.59700 39.80000 26.25900
H  -1.75300 36.10100 21.66900
H  -4.26500 34.50400 21.54500
H  -4.50500 36.64200 20.99700
H  -3.06400 37.61900 21.07600
H  -4.12900 37.51300 22.45300
H  -2.43400 33.57000 20.39200
H  -2.76900 32.47200 21.76400
H  -0.76700 34.06600 22.70200
H  -0.40600 34.19500 21.02800
H  -0.35100 32.57000 21.62300
H  -6.35600 29.62500 25.75100
H  -5.42700 29.92300 24.35200
H  -6.96100 30.82400 24.46300
H  -4.64500 31.33200 30.38300
H  -6.80900 32.64500 33.68700
H  -7.70500 31.14000 33.20900
H  -7.99400 32.85100 32.56800

