158

Mg 2.75000 -0.77700 44.04300
C  5.88800 0.69700 43.57000
C  1.51600 2.00400 42.16100
C  -0.31400 -2.27800 43.82900
C  4.00000 -3.60700 45.25300
N  3.67100 1.07400 42.85000
C  4.95100 1.50500 42.90100
C  5.19800 2.87000 42.31900
C  3.77900 3.37500 42.04100
C  2.94200 2.07500 42.33800
C  3.38400 4.63000 42.83300
C  6.17200 2.94500 41.11600
C  6.12200 1.81200 40.03500
H  5.97700 2.04900 38.44900
N  0.91900 -0.26900 43.04200
C  0.58900 0.94600 42.45400
C  -0.80400 0.95400 42.09700
C  -1.30800 -0.32400 42.48100
C  -0.18800 -1.05800 43.17600
C  -1.46900 2.05700 41.43000
C  -2.65700 -0.78400 42.12300
O  -3.40800 -0.13100 41.42900
C  -3.20900 -2.14600 42.52300
N  1.94000 -2.77500 44.41600
C  0.65100 -3.13500 44.36600
C  0.35700 -4.42600 45.07500
C  1.78300 -4.90800 45.45700
C  2.60500 -3.69600 45.03000
C  -0.59200 -4.36600 46.28400
C  2.27800 -6.29300 44.95600
C  2.94900 -7.23900 45.87300
N  4.48400 -1.31500 44.50800
C  4.90300 -2.51600 45.01200
C  6.35800 -2.45900 45.22900
C  6.78900 -1.14000 44.70200
C  5.61600 -0.58600 44.17300
C  7.17700 -3.60400 45.93100
C  7.91000 -0.31600 44.44500
O  9.05800 -0.47400 44.72900
C  7.36700 0.97600 43.79600
C  7.43600 2.01000 44.84100
O  6.71200 2.21000 45.74800
O  8.46600 2.83300 44.57000
C  8.84700 3.87000 45.61600
H  1.17500 2.92400 41.68200
H  -1.29700 -2.75300 43.83900
H  4.46100 -4.50300 45.67400
H  5.71000 3.48100 43.06200
H  3.70400 3.63200 40.98500
H  2.55800 4.48500 43.52900
H  3.10800 5.40300 42.11600
H  4.15200 5.02000 43.50100
H  7.09200 2.99800 41.69800
H  6.03000 3.92900 40.66900
H  5.33500 1.09900 40.27900
H  7.07400 1.29100 40.14300
H  -1.54500 1.76700 40.38200
H  -1.00400 3.03900 41.50100
H  -2.39900 2.15000 41.99100
H  -4.22300 -2.17100 42.12400
H  -3.40500 -2.08800 43.59400
H  -2.63600 -2.99300 42.14700
H  -0.01400 -5.19700 44.39900
H  1.90300 -4.80900 46.53500
H  -0.03000 -4.43700 47.21400
H  -1.41000 -5.08600 46.26500
H  -1.11800 -3.41200 46.24900
H  2.90100 -6.19800 44.06700
H  1.37300 -6.74100 44.54500
H  3.89300 -7.60400 45.46700
H  2.30100 -8.10500 46.00500
H  3.15400 -6.75500 46.82800
H  8.07900 -3.21900 46.40800
H  7.47100 -4.36300 45.20600
H  6.67100 -4.10600 46.75600
H  7.86500 1.22200 42.85900
H  8.41700 4.85700 45.44600
H  9.93500 3.88800 45.68100
H  8.44500 3.50800 46.56200
Mg 44.96300 4.29400 47.12900
C  43.36500 7.42600 46.71500
C  41.87400 2.77300 46.50000
C  46.57800 1.44500 46.64600
C  48.01800 6.03800 46.90700
N  42.90400 5.05800 46.53800
C  42.40200 6.36300 46.63100
C  40.91300 6.43500 46.44300
C  40.55000 4.92100 46.43900
C  41.87800 4.16100 46.48700
C  39.47200 4.43800 47.51500
C  40.48400 7.24200 45.12500
C  41.30400 7.02000 43.83300
H  40.52200 6.84300 42.54900
N  44.32100 2.33900 46.79000
C  43.01200 1.86900 46.63300
C  43.00000 0.43600 46.48400
C  44.35300 0.02400 46.48400
C  45.13300 1.32300 46.69900
C  41.81800 -0.42600 46.19400
C  44.96300 -1.44900 46.38100
O  44.19300 -2.34800 46.21400
C  46.42900 -1.77800 46.46600
N  47.07200 3.83300 46.54800
C  47.44100 2.53300 46.59100
C  48.97600 2.37500 46.60500
C  49.42000 3.90200 46.51700
C  48.11900 4.67100 46.61800
C  49.35100 1.60300 47.91700
C  50.44300 4.46600 45.51300
C  51.81000 4.89500 46.09500
N  45.68100 6.33500 47.02600
C  46.90200 6.83600 47.07300
C  46.79800 8.33900 47.05700
C  45.44500 8.58300 47.00000
C  44.83300 7.33800 46.88100
C  47.93600 9.27300 47.11400
C  44.35700 9.68700 46.93100
O  44.44500 10.86800 46.89200
C  43.02300 8.91100 46.73900
C  42.00500 9.28200 47.79700
O  41.97000 8.81000 48.86700
O  41.16700 10.23100 47.28100
C  39.94300 10.32500 48.15500
H  40.85300 2.39400 46.43200
H  47.24700 0.58700 46.55600
H  48.99400 6.51800 47.00400
H  40.47100 6.82800 47.35900
H  40.11300 4.59400 45.49600
H  38.56200 4.27900 46.93700
H  39.27000 5.23100 48.23500
H  39.74300 3.48300 47.96600
H  40.40800 8.30800 45.33600
H  39.45400 6.92600 44.95800
H  41.87600 6.10900 44.00600
H  42.01300 7.83600 43.69500
H  40.90600 0.12200 46.43200
H  41.84200 -1.38200 46.71700
H  41.81500 -0.64800 45.12700
H  46.95000 -1.50300 47.38400
H  46.89400 -1.30800 45.60000
H  46.72800 -2.82200 46.36800
H  49.35700 1.83000 45.74200
H  49.81800 4.08700 47.51500
H  49.64800 0.59900 47.61100
H  48.52500 1.46800 48.61600
H  50.18100 2.12700 48.39000
H  49.86500 5.16000 44.90300
H  50.85800 3.71300 44.84400
H  52.17600 5.78000 45.57500
H  52.57100 4.11500 46.08100
H  51.72100 5.21700 47.13300
H  48.34900 9.33700 46.10700
H  48.76500 8.88100 47.70300
H  47.73800 10.23400 47.59100
H  42.64500 9.34100 45.81200
H  39.17500 10.85700 47.59400
H  40.28500 11.03700 48.90600
H  39.59400 9.37400 48.55600

