158

Mg 1.81300 -1.30100 43.61500
C  5.28900 -0.88700 42.61000
C  1.18500 1.42800 41.45100
C  -1.34700 -2.07700 43.76600
C  2.84900 -4.49500 44.65000
N  3.14400 -0.05200 42.13800
C  4.46900 0.00500 41.95400
C  4.97600 1.16300 41.15200
C  3.67000 1.99200 40.93700
C  2.54900 1.09700 41.56300
C  3.58900 3.46000 41.48600
C  5.80700 0.85100 39.94000
C  7.23700 1.29300 39.93500
H  7.72900 2.10200 38.68400
N  0.16400 -0.32300 42.91900
C  0.13200 0.79800 42.04900
C  -1.24800 1.19500 41.89400
C  -2.04300 0.26600 42.62600
C  -1.13400 -0.77500 43.17500
C  -1.60300 2.46100 41.06200
C  -3.54300 0.24300 42.67100
O  -4.24200 1.09200 42.07300
C  -4.27300 -0.73100 43.54700
N  0.84500 -3.10100 44.06400
C  -0.47400 -3.11400 44.15600
C  -0.93800 -4.50800 44.70400
C  0.44400 -5.29800 44.95400
C  1.47700 -4.28800 44.47800
C  -1.95500 -4.49700 45.88900
C  0.48700 -6.68100 44.24100
C  -0.15000 -7.67500 45.19000
N  3.66200 -2.39900 43.86000
C  3.91800 -3.65900 44.35100
C  5.34200 -3.85000 44.64700
C  5.90700 -2.79000 43.87400
C  4.86400 -1.93700 43.48900
C  5.97900 -5.02900 45.25900
C  7.21400 -2.28000 43.44600
O  8.36900 -2.67900 43.61200
C  6.81900 -0.89400 42.73700
C  7.39400 0.15500 43.57000
O  6.86900 0.36700 44.61800
O  8.40800 0.83200 43.02000
C  8.94600 2.01200 43.69800
H  1.02600 2.21100 40.70600
H  -2.38800 -2.35100 43.94600
H  3.01900 -5.49500 45.05400
H  5.55800 1.73700 41.87300
H  3.44000 2.10600 39.87700
H  2.87700 3.39400 42.30900
H  3.34800 4.13300 40.66300
H  4.50700 3.81500 41.95300
H  5.33500 1.33200 39.08300
H  5.86900 -0.23600 39.87500
H  7.87800 0.41200 39.97200
H  7.49700 1.97100 40.74800
H  -1.52300 2.30400 39.98700
H  -0.93700 3.29300 41.28900
H  -2.62700 2.81500 41.18200
H  -4.69900 -1.61600 43.07400
H  -5.18000 -0.16200 43.75400
H  -3.88200 -1.03200 44.51900
H  -1.52600 -5.00300 43.93200
H  0.59100 -5.34100 46.03400
H  -1.48300 -4.67500 46.85500
H  -2.70500 -5.28300 45.80800
H  -2.46900 -3.53600 45.92100
H  1.48400 -7.11700 44.17800
H  0.02200 -6.49100 43.27400
H  -1.05900 -8.02300 44.70000
H  -0.47400 -7.20800 46.12000
H  0.48600 -8.54300 45.36800
H  6.19300 -5.86200 44.59000
H  5.28000 -5.40100 46.00800
H  6.91000 -4.68700 45.71100
H  7.34200 -0.84800 41.78200
H  9.63900 1.73500 44.49200
H  8.18600 2.75600 43.93400
H  9.53200 2.51400 42.92800
Mg -10.60800 39.51700 42.35200
C  -9.21000 36.56200 41.37300
C  -8.03200 41.17800 40.91900
C  -12.19000 42.50100 42.85800
C  -13.69800 37.79000 43.01300
N  -8.79000 38.95700 41.24800
C  -8.41600 37.64200 41.01600
C  -7.13100 37.59400 40.22300
C  -6.59400 39.10800 40.25500
C  -7.86900 39.75900 40.82300
C  -5.28000 39.37400 41.05400
C  -7.37300 36.96500 38.83000
C  -6.39100 35.89500 38.34800
H  -5.52800 36.17800 37.17700
N  -10.10400 41.58600 42.02200
C  -9.03800 42.09000 41.38200
C  -9.01800 43.48700 41.49000
C  -10.16900 43.91300 42.18100
C  -10.86800 42.63300 42.43700
C  -7.80400 44.25000 41.05900
C  -10.51400 45.31100 42.57000
O  -9.76500 46.23400 42.23100
C  -11.69700 45.66000 43.46300
N  -12.72200 40.01100 42.78700
C  -12.92400 41.34400 43.18400
C  -14.40000 41.45000 43.71000
C  -14.93100 39.95500 43.65800
C  -13.72400 39.17500 43.07400
C  -14.44000 42.12000 45.12400
C  -16.26700 39.67100 42.98800
C  -17.40400 39.91300 43.91200
N  -11.30300 37.57600 42.34900
C  -12.50500 36.97100 42.67200
C  -12.43200 35.54700 42.52800
C  -11.15400 35.35300 41.98900
C  -10.49100 36.61600 41.92000
C  -13.53600 34.51300 42.72400
C  -10.29800 34.31600 41.46300
O  -10.56000 33.13500 41.28600
C  -8.88800 35.03600 41.14100
C  -7.85500 34.55600 42.08500
O  -7.65200 34.94100 43.22900
O  -6.97700 33.69600 41.45500
C  -5.88000 33.01700 42.10100
H  -7.15300 41.64200 40.46600
H  -12.78300 43.38300 43.10900
H  -14.61400 37.24800 43.26000
H  -6.37500 37.06600 40.80300
H  -6.26600 39.47300 39.28200
H  -4.66100 40.08300 40.50500
H  -4.71700 38.45100 40.91800
H  -5.47700 39.58200 42.10600
H  -7.28300 37.76100 38.09000
H  -8.37500 36.54800 38.72700
H  -6.99700 35.02000 38.11400
H  -5.70200 35.69300 39.16800
H  -7.96100 44.66100 40.06200
H  -6.92000 43.61800 41.13900
H  -7.59000 45.00700 41.81400
H  -11.69600 46.69600 43.80300
H  -11.65200 45.19500 44.44800
H  -12.61300 45.47100 42.90400
H  -14.94600 42.05100 42.98200
H  -15.04100 39.59200 44.68000
H  -13.50800 42.67400 45.23000
H  -14.45100 41.35400 45.89900
H  -15.25200 42.83200 45.27000
H  -16.25900 38.65300 42.60000
H  -16.27400 40.33600 42.12400
H  -17.15900 40.09600 44.95900
H  -17.93600 38.96400 43.98100
H  -18.12000 40.68100 43.62000
H  -13.65500 34.36000 43.79700
H  -13.19900 33.53800 42.37200
H  -14.51600 34.75600 42.31100
H  -8.59400 34.81700 40.11500
H  -6.13300 32.03600 42.50300
H  -5.39400 33.63300 42.85700
H  -5.07900 32.86800 41.37600

