158

Mg 30.48400 58.55800 41.03500
C  27.46600 56.93600 40.34200
C  32.16000 55.59400 40.21700
C  33.47100 60.06400 41.30100
C  28.84800 61.57900 41.12800
N  29.81600 56.55800 40.37900
C  28.57600 56.13100 40.10700
C  28.55700 54.66200 39.53000
C  29.99100 54.15500 39.96100
C  30.74800 55.51600 40.10900
C  30.00300 53.26900 41.25100
C  28.34200 54.70700 37.96100
C  27.08100 54.04500 37.34300
H  26.37100 54.95500 36.25100
N  32.57300 57.86100 40.97700
C  33.00100 56.66200 40.56700
C  34.46500 56.68400 40.57100
C  34.89700 57.95000 40.92000
C  33.66100 58.67400 41.10700
C  35.32100 55.45600 40.17500
C  36.25900 58.38700 41.17800
O  37.13700 57.57000 40.95800
C  36.66900 59.76000 41.70900
N  31.10800 60.53500 41.19100
C  32.40100 60.93300 41.36900
C  32.44000 62.44300 41.26200
C  31.00600 62.85700 41.45500
C  30.22200 61.59300 41.14000
C  33.38100 63.15800 42.30400
C  30.57500 64.06700 40.57700
C  30.45500 63.75100 39.03700
N  28.50800 59.23100 40.75300
C  27.96100 60.52100 40.94100
C  26.52300 60.41500 40.73000
C  26.28500 59.00700 40.45900
C  27.55700 58.34200 40.57600
C  25.59400 61.55800 40.76900
C  25.25000 58.03000 40.15700
O  24.04200 58.14900 40.05600
C  25.98900 56.67400 40.01100
C  25.42700 55.65800 40.96200
O  24.97600 55.96800 42.05500
O  25.31300 54.41400 40.34500
C  24.60000 53.46300 41.27000
H  32.56200 54.59900 40.01400
H  34.36600 60.68900 41.30800
H  28.33000 62.54000 41.16100
H  27.71400 54.03200 39.81300
H  30.42000 53.61200 39.11800
H  30.31700 52.25200 41.01800
H  29.04100 53.27500 41.76300
H  30.75000 53.59800 41.97300
H  29.06800 54.09400 37.42800
H  28.40200 55.70400 37.52300
H  26.32700 53.97500 38.12700
H  27.45800 53.11300 36.92100
H  34.69700 54.79900 39.57000
H  35.48900 54.90700 41.10200
H  36.25300 55.54100 39.61700
H  37.75800 59.73800 41.68600
H  36.19800 59.71400 42.69100
H  36.30600 60.47600 40.97100
H  32.81300 62.52100 40.24100
H  30.68900 63.07000 42.47600
H  34.30700 62.59000 42.38800
H  32.92200 63.19400 43.29300
H  33.58500 64.20500 42.07700
H  31.26100 64.91200 40.63500
H  29.67200 64.45700 41.04600
H  29.43500 64.02800 38.77100
H  30.68100 62.70100 38.84900
H  31.03700 64.49200 38.49000
H  26.00100 62.42200 41.29300
H  24.58900 61.28900 41.09600
H  25.36900 61.93700 39.77200
H  25.70600 56.32100 39.02000
H  25.27000 52.73000 41.71900
H  23.94100 52.86700 40.63900
H  23.93500 53.81300 42.06000
Mg 26.04900 51.04800 26.64600
C  23.76000 51.92200 29.25300
C  28.33300 50.23500 29.02900
C  28.35700 51.00000 24.15300
C  23.66800 52.32900 24.25800
N  26.05200 51.28500 28.88000
C  25.04800 51.58200 29.74300
C  25.45100 51.42600 31.16900
C  26.96100 51.10100 31.12300
C  27.16300 50.82900 29.56300
C  28.02100 52.14000 31.66600
C  24.62400 50.22700 31.92600
C  23.88400 50.64100 33.14900
H  24.71200 51.11800 34.31300
N  28.09200 50.51000 26.58600
C  28.83700 50.13300 27.70800
C  30.10600 49.76200 27.30500
C  30.24300 50.18100 25.88700
C  28.90700 50.64900 25.48600
C  31.18200 49.25700 28.30500
C  31.44400 50.22900 25.04900
O  31.35000 50.67700 23.96400
C  32.66800 49.88700 25.60200
N  25.96900 51.60400 24.55300
C  27.05700 51.40200 23.73300
C  26.78600 51.78500 22.23800
C  25.26900 52.11200 22.26300
C  24.93800 51.94600 23.79100
C  27.79900 52.91400 21.78200
C  24.35400 51.36200 21.31800
C  23.96500 52.03300 19.94600
N  24.07300 51.85100 26.64900
C  23.20300 52.28200 25.61600
C  21.94600 52.76400 26.24200
C  22.12800 52.52600 27.60600
C  23.43500 52.03100 27.82400
C  20.74300 53.23800 25.46500
C  21.42100 52.66800 28.92500
O  20.27100 53.02200 29.21300
C  22.58100 52.53600 30.03100
C  22.78300 53.83300 30.75200
O  23.07900 54.88200 30.20400
O  22.60600 53.66800 32.09900
C  22.61900 54.86400 32.96400
H  28.90700 49.79500 29.84700
H  29.02600 51.07300 23.29200
H  22.94600 52.68500 23.52000
H  25.29100 52.39100 31.65000
H  27.26700 50.16600 31.59100
H  28.45800 51.62200 32.52000
H  27.54500 52.99400 32.14800
H  28.84100 52.40900 31.00000
H  25.25400 49.35000 32.07400
H  24.05900 49.83900 31.07900
H  23.18600 49.83900 33.39100
H  23.36500 51.55400 32.85900
H  30.67800 48.79000 29.15100
H  31.79900 50.08100 28.66300
H  31.70800 48.41000 27.86400
H  33.51000 50.23700 25.00600
H  32.63000 48.80400 25.72300
H  32.79800 50.46400 26.51700
H  26.92100 50.89200 21.62800
H  25.16000 53.10400 21.82400
H  28.45800 52.53600 21.00000
H  28.39400 53.13500 22.66800
H  27.27600 53.77200 21.35900
H  23.38100 51.17600 21.77200
H  24.65700 50.34300 21.07800
H  23.83600 51.26300 19.18500
H  24.77700 52.67100 19.59700
H  23.09100 52.67800 20.03300
H  20.90200 54.28000 25.18400
H  19.82000 53.19100 26.04200
H  20.66800 52.65900 24.54500
H  22.18200 51.92600 30.84200
H  21.60500 55.01300 33.33400
H  23.00500 55.77100 32.49800
H  23.19000 54.75200 33.88600

