158

Mg 16.16000 -0.91000 27.01100
C  15.02100 0.82400 29.90100
C  18.46600 -2.49600 28.98600
C  17.69300 -2.04900 24.31400
C  14.17400 1.06200 25.13800
N  16.63500 -0.81900 29.16900
C  15.99700 -0.16100 30.17900
C  16.39600 -0.52500 31.52100
C  17.69400 -1.35600 31.18700
C  17.58300 -1.64900 29.64700
C  19.11000 -0.74000 31.52200
C  15.29000 -1.21900 32.37500
C  15.18200 -0.70900 33.81300
H  16.40100 0.01900 34.53500
N  17.77800 -2.28600 26.69000
C  18.57700 -2.85100 27.62000
C  19.36000 -3.86300 27.01700
C  19.06600 -3.83900 25.62900
C  18.20900 -2.68800 25.48200
C  20.21800 -4.75500 27.84100
C  19.60100 -4.71000 24.41200
O  19.19200 -4.54700 23.26500
C  20.68200 -5.80300 24.59000
N  16.06800 -0.45200 25.05700
C  16.78700 -1.07100 24.07700
C  16.54700 -0.48500 22.69900
C  15.23300 0.36600 22.97400
C  15.05800 0.24600 24.45200
C  17.80200 0.31100 22.13600
C  13.97100 0.02100 22.20000
C  13.83900 0.80300 20.89500
N  14.78400 0.51100 27.44500
C  14.01000 1.17100 26.52700
C  13.06900 1.97500 27.22400
C  13.41000 1.87200 28.57600
C  14.54400 1.06400 28.62200
C  12.01100 2.70000 26.49200
C  13.06600 2.36200 29.84800
O  12.19600 3.10300 30.24500
C  14.07600 1.61300 30.80400
C  14.71200 2.73800 31.63700
O  15.51000 3.55300 31.24900
O  14.16700 2.72800 32.94100
C  14.26100 4.14300 33.42100
H  19.11900 -2.95900 29.72900
H  18.19600 -2.40900 23.41400
H  13.41700 1.64200 24.60600
H  16.79400 0.39800 31.94100
H  17.58000 -2.37600 31.55300
H  19.56100 -0.21700 30.67900
H  19.79500 -1.52800 31.83600
H  19.05900 0.06800 32.25200
H  15.46400 -2.29400 32.33100
H  14.33000 -1.09900 31.87200
H  15.15000 -1.68200 34.30300
H  14.29000 -0.18200 34.15200
H  20.66200 -5.52500 27.20900
H  19.69200 -5.22600 28.67200
H  20.99200 -4.07600 28.19700
H  21.45400 -5.49700 25.29700
H  20.99300 -6.06100 23.57800
H  20.13300 -6.69100 24.90200
H  16.28200 -1.39400 22.15900
H  15.51300 1.41300 22.86100
H  18.50400 -0.43100 21.75600
H  18.16600 0.90600 22.97400
H  17.46300 0.97500 21.34000
H  13.13200 0.17800 22.87800
H  13.98500 -1.03200 21.91800
H  14.76600 1.23900 20.52400
H  13.09600 1.55800 21.15300
H  13.65600 0.12300 20.06300
H  12.63900 3.36800 25.90300
H  11.34100 3.30300 27.10500
H  11.46500 1.97200 25.89200
H  13.54100 0.99000 31.52100
H  14.06900 4.91900 32.68000
H  15.15700 4.37000 33.99800
H  13.42000 4.26000 34.10500
Mg -1.60200 33.66400 27.12000
C  -3.44500 32.28000 29.85400
C  0.09700 35.69500 29.30900
C  -0.28400 35.25500 24.40900
C  -3.73200 32.02200 24.92100
N  -1.67800 33.96700 29.42200
C  -2.42500 33.24500 30.31300
C  -2.01000 33.67100 31.77100
C  -0.93900 34.82800 31.46800
C  -0.84600 34.89900 29.95300
C  -1.31800 36.22200 32.11700
C  -1.54300 32.47500 32.68700
C  -2.48500 31.92500 33.65800
H  -2.07700 31.89100 35.13500
N  -0.20200 35.21600 26.86800
C  0.33600 35.94100 27.91600
C  1.30200 36.82200 27.37000
C  1.16100 36.76900 25.90500
C  0.20800 35.71600 25.65000
C  2.07200 37.75900 28.22300
C  1.84300 37.56400 24.90800
O  1.70900 37.38100 23.68200
C  2.86400 38.65500 25.36400
N  -1.97200 33.74900 24.98400
C  -1.26400 34.34500 24.09100
C  -1.66100 34.03900 22.63600
C  -2.48400 32.71500 22.84700
C  -2.78000 32.82300 24.35800
C  -2.48100 35.15000 22.04300
C  -1.78100 31.31700 22.53600
C  -2.68500 30.18800 21.93100
N  -3.21000 32.35500 27.26000
C  -3.96200 31.73200 26.29200
C  -4.87100 30.85100 26.92000
C  -4.65600 30.99600 28.30700
C  -3.70200 31.95100 28.47800
C  -5.93500 29.99200 26.18800
C  -5.12600 30.63700 29.60800
O  -6.04500 29.78600 29.89900
C  -4.37200 31.48300 30.65400
C  -5.45600 32.37000 31.13700
O  -6.13300 33.19200 30.55500
O  -5.82700 31.97200 32.35900
C  -7.05200 32.62200 32.82700
H  0.69100 36.23000 30.05400
H  0.06400 35.58900 23.43000
H  -4.29700 31.52200 24.13200
H  -2.88300 34.13200 32.23200
H  0.07000 34.62400 31.82700
H  -1.75600 36.86900 31.35700
H  -0.44700 36.76400 32.48600
H  -2.07600 36.17500 32.89800
H  -0.69800 32.87800 33.24400
H  -1.12200 31.69000 32.05900
H  -2.69300 30.86400 33.52200
H  -3.47100 32.37600 33.54700
H  1.67100 37.74400 29.23700
H  1.92300 38.80400 27.94900
H  3.13300 37.51200 28.25600
H  3.42700 39.06300 24.52400
H  3.57500 38.13200 26.00400
H  2.29000 39.42700 25.87600
H  -0.75600 33.80400 22.07600
H  -3.42000 32.74200 22.28900
H  -2.35200 36.07100 22.61000
H  -3.52100 34.92400 21.80600
H  -2.04600 35.48200 21.10100
H  -1.48300 30.99800 23.53400
H  -0.84500 31.51800 22.01300
H  -2.86300 29.41200 22.67600
H  -2.20600 29.60300 21.14600
H  -3.63300 30.57900 21.56100
H  -5.46500 29.04100 25.93700
H  -6.33000 30.66500 25.42700
H  -6.74600 29.75900 26.87700
H  -3.90500 30.83300 31.39400
H  -7.82700 32.44900 32.08100
H  -6.86100 33.68800 32.95400
H  -7.44100 32.12300 33.71500

