158

Mg 17.13300 -1.70200 27.58500
C  15.86000 0.20100 30.17700
C  19.36500 -3.19500 29.71700
C  18.21300 -3.52300 24.91500
C  15.10800 0.09000 25.41200
N  17.54000 -1.49400 29.72000
C  16.93900 -0.63200 30.59700
C  17.44100 -0.92300 31.97600
C  18.62200 -1.89900 31.76200
C  18.60100 -2.19500 30.30200
C  20.02800 -1.36300 32.07600
C  16.27200 -1.52200 32.90100
C  16.11500 -0.97500 34.37500
H  17.40300 -0.23100 34.88400
N  18.54200 -3.21400 27.36700
C  19.31300 -3.74900 28.41700
C  20.01500 -4.91900 27.87400
C  19.83000 -4.85700 26.45400
C  18.82300 -3.83000 26.17800
C  20.92700 -5.68800 28.79100
C  20.43300 -5.75000 25.39700
O  20.16000 -5.76200 24.17400
C  21.55200 -6.70900 25.76100
N  16.79700 -1.69200 25.41800
C  17.29800 -2.55400 24.52700
C  16.94400 -2.16400 23.08900
C  15.81500 -1.09000 23.29300
C  15.87800 -0.85300 24.79500
C  18.17200 -1.66700 22.28200
C  14.43600 -1.56700 22.75300
C  13.70300 -2.53300 23.70900
N  15.64000 -0.28100 27.74200
C  14.85400 0.32500 26.74200
C  13.99100 1.33600 27.38100
C  14.35500 1.28400 28.73000
C  15.34100 0.34500 28.89000
C  13.07300 2.28400 26.71000
C  14.03900 1.85900 30.03300
O  13.26000 2.70800 30.43700
C  14.92000 1.10300 31.08400
C  15.58800 2.00700 32.06500
O  16.73600 2.39900 32.07400
O  14.61300 2.55500 32.82300
C  15.00900 3.45600 33.93200
H  20.09900 -3.75100 30.30300
H  18.54200 -4.07600 24.03300
H  14.45600 0.53700 24.65900
H  17.86300 -0.02600 32.43000
H  18.46400 -2.85100 32.26900
H  19.95600 -0.32700 32.40900
H  20.60000 -1.39500 31.14900
H  20.41000 -2.04300 32.83800
H  16.33700 -2.60900 32.87600
H  15.34800 -1.34900 32.34900
H  15.85200 -1.74800 35.09700
H  15.28400 -0.27400 34.28900
H  21.93000 -5.27100 28.69400
H  20.91700 -6.75800 28.58500
H  20.70700 -5.52800 29.84700
H  21.03500 -7.64900 25.95100
H  22.18800 -6.50700 26.62300
H  22.21300 -6.71900 24.89400
H  16.51300 -3.05700 22.63500
H  16.05600 -0.18600 22.73500
H  18.08000 -0.66700 21.85700
H  18.41500 -2.46600 21.58100
H  19.05800 -1.59300 22.91200
H  14.53600 -2.12800 21.82400
H  13.78000 -0.72900 22.51600
H  13.21700 -1.92500 24.47200
H  14.40300 -3.22500 24.17800
H  12.90900 -2.93300 23.08000
H  12.44100 2.77100 27.45300
H  12.45600 1.70600 26.02100
H  13.74200 2.97700 26.20100
H  14.25200 0.43600 31.62900
H  14.25300 3.34200 34.70800
H  15.04600 4.49700 33.61100
H  15.98700 3.28200 34.37800
Mg 37.13600 49.70500 24.76100
C  37.28100 47.86600 27.85800
C  35.68600 52.22900 26.44400
C  36.26000 51.25200 21.69000
C  38.10500 46.97600 23.03200
N  36.46700 49.88300 26.92700
C  36.67500 49.11900 28.04500
C  36.15700 49.69100 29.28600
C  35.63000 51.07400 28.76300
C  35.90200 51.06200 27.22000
C  34.15600 51.42700 28.95700
C  37.27500 49.85600 30.40200
C  36.94500 49.42200 31.84500
H  35.42300 49.32300 32.22100
N  36.25400 51.60300 24.18500
C  35.77700 52.52200 25.06600
C  35.24600 53.69700 24.29500
C  35.33300 53.35900 22.96000
C  35.95700 51.96500 22.85800
C  34.69400 54.95500 24.98200
C  34.95200 54.24000 21.77300
O  35.18300 53.83600 20.66300
C  34.39500 55.57500 21.91700
N  37.29100 49.32000 22.76500
C  36.83900 50.02300 21.67500
C  37.08900 49.29400 20.41700
C  38.00000 48.10800 20.83200
C  37.77800 48.12700 22.33000
C  35.68500 48.82100 19.84800
C  39.52800 48.30400 20.59400
C  40.37300 47.09000 20.13600
N  37.61300 47.84500 25.23000
C  37.96300 46.80000 24.43400
C  38.52400 45.65000 25.29100
C  38.27200 46.06100 26.62100
C  37.72000 47.40500 26.54600
C  39.19900 44.45000 24.75300
C  38.36200 45.56500 28.04900
O  38.84400 44.63100 28.62000
C  37.65600 46.78100 28.82900
C  36.49700 46.33100 29.72100
O  35.28300 46.30800 29.41000
O  36.97300 45.85700 30.97500
C  36.03100 45.11700 31.77100
H  35.32500 53.12100 26.96100
H  35.94300 51.63500 20.71800
H  38.44700 46.13600 22.42300
H  35.32200 49.18100 29.76600
H  36.27200 51.90200 29.06400
H  33.50500 50.57000 29.13200
H  33.73000 52.03900 28.16200
H  34.05000 51.87000 29.94700
H  37.48900 50.91800 30.51800
H  38.23400 49.42400 30.11600
H  37.51100 49.97700 32.59300
H  37.34700 48.43400 32.06700
H  35.29300 55.82000 24.69800
H  34.76300 54.92100 26.06900
H  33.63200 55.12200 24.79900
H  33.61500 55.64100 22.67600
H  33.86700 55.73900 20.97800
H  35.14200 56.35200 22.08000
H  37.61000 49.87800 19.65900
H  37.61700 47.19300 20.38000
H  35.54800 49.33200 18.89500
H  34.84400 49.07600 20.49200
H  35.72300 47.73500 19.76300
H  40.02000 48.87300 21.38300
H  39.59100 48.96000 19.72500
H  41.07800 46.62600 20.82500
H  40.98900 47.35600 19.27700
H  39.63800 46.40700 19.70900
H  39.99400 44.60400 24.02300
H  38.51500 43.69700 24.36200
H  39.69600 43.99000 25.60800
H  38.41500 47.05800 29.56000
H  35.69700 45.79800 32.55400
H  36.44900 44.21500 32.21900
H  35.11800 44.84600 31.24100

