158

Mg 47.36800 34.82700 27.48400
C  45.92700 32.89400 30.05200
C  47.79400 37.29300 29.71700
C  48.47300 36.68400 24.86600
C  46.29500 32.28900 25.24100
N  46.73000 35.14900 29.61700
C  46.26100 34.14000 30.50400
C  46.38600 34.63900 31.92000
C  46.59100 36.16400 31.73900
C  47.07000 36.23900 30.24900
C  45.33900 36.96700 32.01400
C  47.67400 33.99100 32.60000
C  47.62400 33.98900 34.08100
H  46.75100 34.97400 34.83000
N  48.15000 36.67400 27.32600
C  48.27700 37.55500 28.36900
C  48.98300 38.72100 27.93000
C  49.17900 38.62600 26.53300
C  48.64500 37.26400 26.18300
C  49.42600 39.80300 28.79300
C  49.74900 39.57600 25.56300
O  49.66300 39.35400 24.34200
C  50.32400 40.91300 26.06300
N  47.34500 34.52100 25.31900
C  47.93600 35.41500 24.50900
C  47.87600 34.90900 23.09000
C  47.42400 33.41100 23.20200
C  46.97900 33.36400 24.66800
C  47.05400 35.80800 22.13800
C  48.59100 32.40800 22.84600
C  49.67300 32.27400 23.95400
N  46.53900 32.95700 27.56400
C  46.14800 32.05900 26.59900
C  45.59200 30.85100 27.26200
C  45.54600 31.16400 28.62300
C  46.07400 32.48700 28.76300
C  45.00600 29.58400 26.61800
C  45.05500 30.66400 29.81900
O  44.51500 29.64800 30.20600
C  45.00400 31.86900 30.70500
C  45.23200 31.49900 32.09600
O  46.24200 31.04900 32.62200
O  44.03200 31.78000 32.77800
C  44.00100 31.21900 34.10100
H  48.13500 38.04900 30.42700
H  48.91100 37.26300 24.05100
H  46.01700 31.41800 24.64300
H  45.45600 34.31800 32.38800
H  47.36000 36.62100 32.36100
H  45.63800 37.77200 32.68500
H  44.51700 36.38900 32.43400
H  45.02700 37.41100 31.06900
H  48.53400 34.57000 32.26400
H  47.76400 32.96000 32.26000
H  48.59100 34.22700 34.52600
H  47.33700 33.00700 34.45600
H  49.34300 39.59500 29.86000
H  48.76300 40.61000 28.48000
H  50.49300 39.91800 28.60400
H  49.47200 41.32000 26.60800
H  50.45300 41.55500 25.19200
H  51.29400 40.90300 26.55900
H  48.86700 34.75300 22.66300
H  46.56200 33.07900 22.62300
H  47.61400 35.99600 21.22100
H  46.78700 36.77200 22.57200
H  46.10900 35.32800 21.88300
H  49.06000 32.79300 21.94100
H  48.27700 31.39100 22.61500
H  49.44600 31.53000 24.71800
H  49.87400 33.23100 24.43700
H  50.63700 32.13800 23.46300
H  45.13500 28.71800 27.26700
H  45.50600 29.30400 25.69100
H  43.98300 29.83600 26.33700
H  44.03300 32.31800 30.49700
H  43.01900 31.00900 34.52600
H  44.32200 32.06400 34.71100
H  44.74400 30.43300 34.24200
Mg 16.07500 52.11300 25.17700
C  17.80600 50.97900 28.00300
C  13.33700 52.84000 27.18700
C  14.08100 52.42000 22.46100
C  18.69600 50.82100 23.20900
N  15.57500 51.76700 27.37800
C  16.57300 51.51000 28.37700
C  16.03700 51.82000 29.79000
C  14.53200 52.12700 29.45900
C  14.42700 52.28600 27.93000
C  13.57200 51.19700 30.28000
C  16.81000 52.83200 30.65500
C  17.08900 52.51800 32.06200
H  15.97500 51.84100 32.92300
N  14.03800 52.72900 24.85900
C  13.16100 53.05500 25.78300
C  11.98600 53.58700 25.21700
C  12.12400 53.53000 23.77000
C  13.49300 52.93900 23.61600
C  10.71100 54.07800 25.93800
C  11.26300 54.02000 22.66100
O  11.63100 54.00200 21.49000
C  9.95700 54.65900 22.99800
N  16.37300 51.63900 23.18200
C  15.36200 51.88200 22.27700
C  15.77700 51.29300 21.01300
C  17.33300 51.12900 21.11700
C  17.50800 51.25000 22.61800
C  15.10500 49.90000 20.70000
C  18.14800 52.18600 20.24600
C  19.39600 51.82300 19.33000
N  17.94900 51.26000 25.50900
C  18.90500 50.82900 24.61600
C  19.99900 50.31600 25.34700
C  19.58800 50.31200 26.68500
C  18.35300 50.89500 26.75100
C  21.28800 49.89400 24.71900
C  19.99600 49.93900 28.01100
O  21.06300 49.47300 28.50300
C  18.89900 50.45400 28.89300
C  18.52100 49.43000 29.89500
O  17.79400 48.46300 29.74500
O  19.19600 49.68400 31.11200
C  18.67000 48.97100 32.22400
H  12.57100 53.23400 27.85800
H  13.54700 52.45500 21.50900
H  19.46000 50.29200 22.63600
H  16.10100 50.90600 30.38200
H  14.29300 53.12500 29.82600
H  12.86500 50.84600 29.52700
H  13.07600 51.90200 30.94700
H  13.90400 50.33300 30.85600
H  16.16900 53.71300 30.63800
H  17.76900 53.07600 30.19700
H  17.41300 53.43300 32.55800
H  17.94100 51.84900 31.94100
H  10.75000 55.16700 25.92400
H  10.74800 53.80400 26.99200
H  9.86000 53.64300 25.41500
H  9.22100 53.97700 23.42300
H  9.54200 55.23000 22.16700
H  10.26200 55.36600 23.76900
H  15.51100 51.97600 20.20700
H  17.65100 50.20700 20.63000
H  14.43400 50.04400 19.85300
H  14.39300 49.68100 21.49600
H  15.79900 49.06000 20.66900
H  18.45100 52.99900 20.90400
H  17.36900 52.53500 19.56900
H  19.57500 50.74800 19.30200
H  20.28200 52.36600 19.65700
H  19.16800 52.13600 18.31100
H  21.16800 48.83800 24.48000
H  22.13900 50.00900 25.39100
H  21.51400 50.52000 23.85600
H  19.31100 51.30200 29.44000
H  19.33000 48.11200 32.34600
H  17.59700 48.77600 32.23000
H  18.82300 49.62100 33.08500

