158

Mg 48.26900 15.78400 27.88400
C  46.31900 15.01300 30.78400
C  50.38700 17.38200 29.93700
C  49.82200 16.70100 25.18900
C  45.72900 14.17000 26.00500
N  48.25900 16.26300 30.00200
C  47.41200 15.84800 31.03500
C  47.92100 16.22300 32.42100
C  49.01000 17.28700 32.10900
C  49.28100 16.90200 30.62200
C  48.58100 18.81100 32.30100
C  48.26700 14.98300 33.23800
C  47.97600 15.05500 34.74100
H  47.36100 16.31400 35.30300
N  49.98300 16.81000 27.59100
C  50.74500 17.39700 28.53300
C  51.97600 17.91100 27.90900
C  51.75700 17.77000 26.46700
C  50.43600 17.15800 26.36000
C  53.05300 18.56800 28.83800
C  52.64900 18.23800 25.36200
O  52.24900 18.16900 24.18400
C  53.97000 18.88300 25.66200
N  47.85400 15.45000 25.87900
C  48.60100 16.04100 24.87700
C  48.12600 15.54500 23.46700
C  46.86700 14.72500 23.75300
C  46.74300 14.83100 25.28600
C  47.76600 16.80300 22.53100
C  46.88300 13.23900 23.26400
C  47.42100 12.17100 24.27900
N  46.43000 14.77400 28.21400
C  45.54800 14.17000 27.36200
C  44.49700 13.56600 28.10300
C  44.72500 13.80600 29.45500
C  45.94500 14.55200 29.48400
C  43.35200 12.67700 27.48000
C  44.29600 13.67800 30.77800
O  43.32100 13.14500 31.28700
C  45.23600 14.50600 31.69200
C  44.41800 15.57700 32.25500
O  44.35400 16.73100 31.84500
O  43.90000 15.17100 33.48400
C  43.09100 16.12700 34.25800
H  51.06000 17.82500 30.67300
H  50.28500 16.97300 24.23800
H  44.87600 13.72600 25.48800
H  47.00900 16.75000 32.70100
H  49.91200 17.05900 32.67600
H  47.55800 18.95700 32.64500
H  48.73000 19.38400 31.38600
H  49.24500 19.20200 33.07200
H  49.34400 14.82400 33.18000
H  47.88200 14.11600 32.70100
H  48.95900 14.88500 35.18100
H  47.28600 14.23500 34.93800
H  54.00000 18.76500 28.33600
H  53.22200 18.02800 29.77000
H  52.64500 19.48700 29.25900
H  53.77700 19.90900 25.97800
H  54.54700 19.01500 24.74700
H  54.53700 18.22100 26.31500
H  48.89900 14.91600 23.02700
H  45.94700 15.14300 23.34500
H  48.53200 16.98700 21.77800
H  47.82500 17.68700 23.16600
H  46.77200 16.79400 22.08300
H  47.49300 13.16900 22.36400
H  45.92600 12.82600 22.94600
H  47.72900 12.57800 25.24200
H  48.27100 11.64700 23.84300
H  46.56500 11.56300 24.57300
H  43.80300 11.71000 27.25700
H  42.97500 13.23700 26.62500
H  42.48800 12.61600 28.14300
H  45.60900 13.96500 32.56200
H  43.08200 17.09500 33.75600
H  43.64600 16.30600 35.17900
H  42.07400 15.79500 34.46900
Mg 48.22500 34.66100 26.49300
C  46.32800 33.17000 29.20200
C  48.53800 37.47200 28.41300
C  49.57900 36.11500 23.83800
C  46.98300 32.07400 24.43100
N  47.62700 35.16200 28.66000
C  46.90300 34.40800 29.50200
C  46.86900 35.12400 30.82900
C  47.16300 36.61600 30.44800
C  47.85800 36.39800 29.09500
C  45.94500 37.64000 30.41400
C  47.89800 34.55400 31.81600
C  47.37200 34.39600 33.18300
H  46.49400 35.53900 33.69600
N  49.07500 36.45100 26.23500
C  49.22100 37.46400 27.14600
C  50.08200 38.50400 26.58800
C  50.33000 38.15200 25.26400
C  49.65400 36.86000 25.09800
C  50.53200 39.59700 27.42700
C  51.04800 38.87600 24.19600
O  51.24900 38.41600 23.06300
C  51.55900 40.22000 24.55400
N  48.25200 34.22400 24.33600
C  48.86600 34.97300 23.45800
C  48.88200 34.34300 22.11900
C  48.00700 33.08800 22.24800
C  47.75600 33.05300 23.75400
C  48.32700 35.32000 20.98700
C  48.64100 31.84000 21.63800
C  47.63100 30.82500 21.08900
N  47.03900 32.95100 26.71800
C  46.63500 31.99100 25.78300
C  45.77100 30.95900 26.49900
C  45.70000 31.42000 27.81000
C  46.45500 32.62200 27.91000
C  45.13400 29.67500 25.96900
C  45.13400 31.03900 29.09000
O  44.45900 30.09800 29.50700
C  45.40400 32.29200 29.93900
C  45.78700 31.86700 31.27200
O  46.84900 31.41900 31.63000
O  44.69600 31.98300 32.06300
C  44.90800 31.34200 33.33500
H  48.51000 38.42000 28.95500
H  50.03400 36.50500 22.92500
H  46.58300 31.25000 23.83700
H  45.81000 34.96700 31.03100
H  47.86500 37.11600 31.11500
H  45.09300 37.27500 30.98700
H  45.70300 37.64800 29.35100
H  46.23000 38.60800 30.82500
H  48.74000 35.24400 31.75200
H  48.29300 33.60500 31.45100
H  48.17400 34.37900 33.92200
H  46.89000 33.41800 33.17700
H  50.58400 39.36100 28.49000
H  49.88000 40.46900 27.48300
H  51.53200 39.88800 27.10700
H  50.99200 40.70600 25.34800
H  51.44400 40.85600 23.67700
H  52.59700 40.05300 24.84100
H  49.93400 34.08400 21.99700
H  46.99500 33.25300 21.87900
H  47.64200 34.84500 20.28500
H  49.20300 35.68200 20.44900
H  47.71100 35.91100 21.66500
H  49.18300 31.37900 22.46400
H  49.38800 32.09300 20.88600
H  47.66000 30.96400 20.00800
H  46.60100 31.04300 21.36900
H  47.84300 29.79700 21.38200
H  44.75100 29.04700 26.77400
H  45.82600 29.09700 25.35700
H  44.25000 29.93700 25.38800
H  44.43700 32.78900 30.02000
H  43.94500 31.18300 33.82100
H  45.57800 32.02800 33.85300
H  45.33900 30.34300 33.28000

