158

Mg 16.50700 -1.80400 28.12700
C  15.16200 0.21000 30.78700
C  18.46100 -3.58100 30.33300
C  18.06800 -3.29700 25.46700
C  14.98600 0.54100 25.92000
N  16.85300 -1.59600 30.30600
C  16.19800 -0.74800 31.18800
C  16.49700 -1.14700 32.61100
C  17.53900 -2.28200 32.40400
C  17.65600 -2.46600 30.95900
C  18.84700 -2.05700 33.14100
C  15.13800 -1.47600 33.37800
C  15.09200 -1.03300 34.86900
H  16.31500 -0.51800 35.62600
N  17.97100 -3.25500 27.91200
C  18.57100 -3.95900 28.95000
C  19.27700 -5.11200 28.42900
C  19.22500 -5.01100 26.99200
C  18.42500 -3.78200 26.75000
C  20.21700 -5.98300 29.28700
C  19.75000 -5.91900 25.99000
O  19.48700 -5.83400 24.78500
C  20.47100 -7.18400 26.41500
N  16.61600 -1.37000 26.02600
C  17.21300 -2.20600 25.13300
C  16.81800 -1.89100 23.71100
C  15.72000 -0.81300 23.95000
C  15.74300 -0.52100 25.42300
C  17.98200 -1.34800 22.83100
C  14.26700 -1.30400 23.66400
C  13.87000 -1.44100 22.17600
N  15.10500 -0.11100 28.23800
C  14.71900 0.74000 27.23000
C  13.86700 1.75700 27.87400
C  14.01900 1.55800 29.19400
C  14.80000 0.47400 29.40800
C  13.12600 2.82100 27.16900
C  13.68100 2.09900 30.46400
O  13.00600 3.04900 30.74400
C  14.49700 1.26300 31.60400
C  15.37100 2.21800 32.33100
O  16.54300 2.43000 32.11900
O  14.75800 2.68800 33.46100
C  15.56100 3.31500 34.45300
H  19.06400 -4.14800 31.04500
H  18.47500 -3.78800 24.58100
H  14.63300 1.34500 25.27100
H  17.00100 -0.30500 33.08500
H  17.13000 -3.19200 32.84200
H  19.21200 -3.03000 33.47100
H  18.69200 -1.46900 34.04500
H  19.60400 -1.70000 32.44200
H  14.97400 -2.55200 33.42700
H  14.23100 -1.18600 32.84600
H  14.50100 -1.63200 35.56200
H  14.44700 -0.16100 34.76400
H  20.07600 -5.82200 30.35600
H  21.21000 -5.64700 28.98700
H  20.24800 -7.06800 29.18800
H  19.68000 -7.75700 26.90000
H  21.31800 -6.82900 27.00200
H  20.84000 -7.73900 25.55300
H  16.37000 -2.76200 23.23200
H  15.84900 0.12800 23.41600
H  17.75600 -0.31400 22.56800
H  18.03900 -1.89400 21.88900
H  18.93700 -1.25300 23.34700
H  13.58200 -0.58400 24.11200
H  14.19600 -2.25800 24.18500
H  14.33400 -0.71200 21.51000
H  12.78400 -1.50800 22.24100
H  14.09300 -2.44000 21.80200
H  12.13100 2.60000 26.78300
H  13.70100 3.16800 26.31000
H  12.96000 3.59000 27.92300
H  13.71700 0.84500 32.23900
H  15.26300 4.36300 34.47700
H  16.64800 3.28500 34.37200
H  15.32700 2.96300 35.45800
Mg -11.20300 16.46200 42.03500
C  -7.93000 14.95500 41.58400
C  -9.87700 19.27200 40.60600
C  -14.23300 17.47300 41.63700
C  -12.23300 13.35100 43.16100
N  -9.09400 16.95800 41.10500
C  -7.95300 16.25700 41.09100
C  -6.84800 17.07700 40.56400
C  -7.38700 18.55400 40.70000
C  -8.89200 18.25200 40.79200
C  -6.94500 19.49700 41.88900
C  -6.42300 16.68800 39.07000
C  -4.83700 16.36500 38.97200
H  -4.10800 16.75100 37.63900
N  -11.98000 18.23700 41.36500
C  -11.34800 19.29000 40.78700
C  -12.22200 20.34500 40.33200
C  -13.50600 19.76100 40.52300
C  -13.27300 18.41900 41.17000
C  -11.69500 21.59700 39.65000
C  -14.86500 20.49600 40.26400
O  -14.83500 21.62500 39.72400
C  -16.20800 19.89100 40.63700
N  -12.93300 15.53400 42.31700
C  -14.07700 16.17400 42.16200
C  -15.30200 15.33200 42.54200
C  -14.58600 14.22600 43.37500
C  -13.20100 14.29600 42.80900
C  -16.41100 16.06100 43.32200
C  -15.28600 12.86100 43.03600
C  -15.72000 11.97700 44.21700
N  -10.27200 14.47700 42.30800
C  -10.86500 13.30700 42.82000
C  -9.84500 12.30500 43.02500
C  -8.64800 12.91900 42.52600
C  -8.97400 14.24800 42.13700
C  -10.13300 10.94600 43.62400
C  -7.22000 12.69900 42.28400
O  -6.45800 11.76000 42.51200
C  -6.65900 14.07500 41.81900
C  -5.78500 14.62600 42.89700
O  -6.10100 14.98200 44.04500
O  -4.51500 14.88100 42.33200
C  -3.59100 15.59100 43.22200
H  -9.39000 20.22400 40.38500
H  -15.26500 17.82800 41.66000
H  -12.63300 12.42200 43.57300
H  -5.96000 16.99700 41.19100
H  -7.18000 19.05200 39.75300
H  -6.99100 18.98900 42.85300
H  -7.62000 20.35200 41.87700
H  -5.93800 19.73400 41.54600
H  -6.58300 17.36700 38.23200
H  -6.78600 15.71000 38.75400
H  -4.67500 15.29200 39.07600
H  -4.20300 16.85400 39.71200
H  -12.00600 22.42300 40.29000
H  -12.10000 21.78900 38.65600
H  -10.62600 21.67200 39.45000
H  -17.06800 20.51100 40.38600
H  -16.35500 19.87600 41.71700
H  -16.39900 18.92500 40.17000
H  -15.57200 14.95400 41.55600
H  -14.69700 14.44900 44.43600
H  -16.98500 15.32800 43.88800
H  -16.99700 16.64500 42.61200
H  -16.07200 16.78700 44.06200
H  -14.60300 12.34500 42.36000
H  -16.17800 12.98600 42.42200
H  -16.78000 11.73300 44.14400
H  -15.54200 12.44300 45.18700
H  -15.25500 10.99500 44.13000
H  -9.15900 10.45900 43.67800
H  -10.77600 10.30300 43.02400
H  -10.58600 11.13200 44.59800
H  -6.15800 13.90700 40.86500
H  -3.10100 14.89900 43.90700
H  -4.08600 16.27200 43.91500
H  -2.80000 16.21000 42.80000

