158

Mg 47.54700 34.83400 27.92100
C  45.47300 33.51300 30.40600
C  48.34300 37.41900 30.08500
C  49.21400 36.27600 25.46800
C  46.50100 32.24700 25.86900
N  47.00000 35.34000 30.00600
C  46.24200 34.66800 30.85400
C  46.57100 35.04400 32.26300
C  47.00700 36.59700 32.04700
C  47.48500 36.43000 30.62500
C  45.84800 37.71900 32.04900
C  47.76900 34.19400 32.84900
C  47.97000 34.33200 34.34100
H  47.13400 35.35700 35.11000
N  48.62100 36.60900 27.78200
C  48.86100 37.53900 28.75700
C  49.71500 38.57300 28.31400
C  50.05800 38.22200 26.92100
C  49.34200 36.98400 26.68100
C  50.12300 39.75800 29.10800
C  50.91100 38.97100 25.93500
O  51.05000 38.55300 24.76300
C  51.62300 40.28800 26.29500
N  47.75700 34.39800 25.89900
C  48.53500 35.11000 25.07600
C  48.48100 34.52000 23.63400
C  47.82300 33.13900 23.84600
C  47.37400 33.21700 25.30400
C  47.77900 35.42200 22.57300
C  48.58400 31.82000 23.52500
C  50.11400 31.80600 23.63500
N  46.24900 33.26000 28.04700
C  45.93600 32.25200 27.09800
C  44.97300 31.28100 27.69300
C  44.73000 31.73700 28.96800
C  45.48500 32.96100 29.08400
C  44.37600 30.00200 26.98000
C  43.97600 31.56400 30.18600
O  43.17300 30.73000 30.54700
C  44.38000 32.70100 31.08100
C  44.71400 32.21500 32.40600
O  45.65800 31.41700 32.59700
O  43.84300 32.73700 33.31500
C  44.03600 32.32100 34.75000
H  48.57600 38.15800 30.85400
H  49.76300 36.64700 24.60100
H  46.20600 31.42500 25.21300
H  45.74000 34.88100 32.95000
H  47.76800 36.94800 32.74400
H  44.92700 37.20700 32.32900
H  45.63800 38.25400 31.12300
H  46.06100 38.43700 32.84000
H  48.68000 34.53800 32.35900
H  47.67300 33.14200 32.57800
H  49.00700 34.56100 34.58700
H  47.71500 33.35800 34.75700
H  50.70100 39.34600 29.93500
H  49.29700 40.25600 29.61400
H  50.79000 40.43900 28.58000
H  52.35300 39.99500 27.04900
H  50.96200 41.09700 26.60500
H  52.13100 40.56700 25.37200
H  49.46400 34.30200 23.21700
H  46.88500 33.02800 23.30300
H  47.65200 36.41600 23.00300
H  46.76500 35.08900 22.35300
H  48.39300 35.63100 21.69700
H  48.55600 31.75300 22.43700
H  48.15000 30.91900 23.95900
H  50.49000 31.86900 22.61400
H  50.43100 30.82400 23.98700
H  50.47800 32.49000 24.40100
H  44.83400 30.05800 25.99200
H  43.29100 29.97900 27.07400
H  44.76900 29.14100 27.52100
H  43.41800 33.21000 31.02400
H  43.16900 31.82800 35.18800
H  44.24800 33.22500 35.32100
H  44.87400 31.62500 34.76800
Mg 42.93900 41.62900 26.10400
C  42.37000 44.25600 28.27300
C  43.82000 39.58600 28.62600
C  43.60300 39.18600 23.73800
C  42.41600 43.88900 23.45600
N  43.23100 41.97200 28.19400
C  42.80500 43.06400 28.84700
C  43.04300 42.72700 30.37200
C  43.88400 41.41400 30.33000
C  43.57400 40.92100 28.96000
C  45.35900 41.48100 30.78800
C  41.78900 42.77300 31.27600
C  41.74400 42.25900 32.66300
H  42.00500 43.16500 33.86800
N  43.55000 39.67600 26.18500
C  43.86700 38.98600 27.33300
C  44.11500 37.65400 27.00600
C  43.89700 37.49300 25.68900
C  43.66200 38.79200 25.10300
C  44.65200 36.69200 28.01700
C  43.87600 36.24200 24.83300
O  43.74700 36.26100 23.61600
C  44.08000 34.89000 25.38000
N  43.09900 41.59300 23.89200
C  43.42500 40.45400 23.20500
C  43.57500 40.76500 21.72300
C  42.95300 42.19800 21.62200
C  42.80400 42.63500 23.06300
C  45.04000 40.66200 21.13700
C  41.59200 42.26800 20.72100
C  40.30800 41.81100 21.44000
N  42.45500 43.66000 25.86500
C  42.20300 44.38500 24.77000
C  41.78200 45.73400 25.10100
C  41.82000 45.77000 26.54000
C  42.28200 44.48900 26.89700
C  41.58400 46.87600 24.18000
C  41.57100 46.52500 27.74300
O  41.24200 47.71200 27.85900
C  41.91200 45.55500 28.96900
C  43.04200 46.07300 29.65800
O  44.09600 46.36500 29.08800
O  42.96500 46.06600 31.04500
C  44.26500 46.41600 31.78500
H  44.10900 38.96300 29.47500
H  43.61000 38.37700 23.00400
H  42.12000 44.44500 22.56300
H  43.60700 43.54900 30.81200
H  43.38300 40.67500 30.95500
H  46.02800 41.24700 29.96000
H  45.59500 40.74900 31.56000
H  45.49800 42.48900 31.17700
H  40.99200 42.40000 30.63200
H  41.53800 43.82800 31.38600
H  42.56000 41.55500 32.82700
H  40.81300 41.69800 32.74200
H  45.50100 36.21400 27.52800
H  44.02400 35.84400 28.28900
H  45.03800 37.13000 28.93700
H  43.85800 34.25800 24.52100
H  43.28900 34.71800 26.11000
H  45.11800 34.72100 25.66700
H  42.90600 40.11700 21.15800
H  43.70300 42.80600 21.11700
H  45.67100 40.53300 22.01600
H  45.29600 41.51700 20.51200
H  45.07700 39.81100 20.45700
H  41.68300 41.89000 19.70200
H  41.43400 43.32700 20.51900
H  40.44200 41.01200 22.16800
H  39.48800 41.59400 20.75500
H  39.94800 42.67300 22.00100
H  40.84700 47.61600 24.49200
H  41.33600 46.53800 23.17400
H  42.57300 47.33400 24.19800
H  41.08600 45.44800 29.67100
H  43.91100 46.71300 32.77200
H  44.88000 47.16200 31.28200
H  44.85600 45.50400 31.87700

