158

Mg 1.48900 8.29300 25.70600
C  1.98100 9.63300 28.88200
C  1.90400 5.20800 27.15600
C  1.33100 6.90200 22.62900
C  2.28200 11.43400 24.19700
N  1.78500 7.47600 27.85000
C  1.84800 8.19200 28.99700
C  1.74700 7.31900 30.20500
C  1.90800 5.83800 29.60700
C  1.84400 6.18600 28.16300
C  3.21300 5.16900 30.10300
C  0.43100 7.54600 31.00400
C  0.46000 7.64900 32.52900
H  1.68500 7.10700 33.23500
N  1.45300 6.35100 25.03100
C  1.59000 5.23200 25.78300
C  1.40400 4.08100 24.93100
C  1.05400 4.52200 23.67900
C  1.32500 6.01300 23.68900
C  1.35600 2.63100 25.43500
C  0.73900 3.69800 22.44400
O  0.62100 4.20800 21.31400
C  0.45400 2.24300 22.67300
N  1.75100 9.11100 23.76700
C  1.61700 8.28500 22.65900
C  1.76900 9.10600 21.33000
C  1.68100 10.54700 21.88200
C  1.85800 10.36200 23.36500
C  3.02500 8.81100 20.57700
C  0.31800 11.33100 21.59600
C  0.17400 12.13800 20.24600
N  2.07800 10.18700 26.36000
C  2.32800 11.33800 25.65000
C  2.57300 12.39100 26.61700
C  2.48100 11.75200 27.90100
C  2.12000 10.41000 27.63300
C  2.72600 13.92600 26.25800
C  2.48900 12.03600 29.30900
O  2.81000 13.07200 29.86600
C  2.08000 10.71200 29.97200
C  3.11100 10.32600 31.02600
O  4.20300 9.79900 30.83200
O  2.68600 10.95100 32.21300
C  3.72800 11.05900 33.33000
H  2.13300 4.20300 27.51800
H  1.05400 6.46800 21.66600
H  2.41600 12.43100 23.77400
H  2.58100 7.59800 30.84900
H  1.12000 5.16400 29.94200
H  2.93000 4.28400 30.67300
H  3.85200 5.83200 30.68600
H  3.87400 4.87700 29.28600
H  -0.18900 6.69700 30.71700
H  -0.07700 8.42900 30.61500
H  -0.31500 7.12200 33.08500
H  0.39300 8.68400 32.86500
H  1.75200 1.92800 24.70200
H  0.35000 2.29600 25.68700
H  2.08600 2.65000 26.24400
H  1.45600 1.81500 22.69900
H  -0.12400 2.00300 21.78100
H  -0.18800 2.07100 23.53700
H  0.84800 8.98100 20.75900
H  2.49700 11.16100 21.50200
H  3.87700 9.42300 20.87200
H  2.99800 8.79300 19.48700
H  3.34000 7.79000 20.79000
H  0.26200 12.08000 22.38600
H  -0.42800 10.55400 21.76000
H  0.17900 13.20400 20.47400
H  -0.69700 11.72800 19.73500
H  1.02700 11.88200 19.61800
H  1.76100 14.33900 26.55100
H  3.06700 14.19600 25.25900
H  3.42700 14.41800 26.93300
H  1.12800 10.78000 30.49800
H  4.14500 12.05900 33.44700
H  4.67700 10.52400 33.29400
H  3.23000 10.79300 34.26300
Mg 26.83400 50.86500 26.05600
C  24.89500 52.21700 28.73700
C  29.27800 50.15000 28.10500
C  28.41200 49.55100 23.41300
C  24.34400 52.26600 23.81600
N  27.04700 51.13700 28.21100
C  26.12500 51.67400 29.13500
C  26.64000 51.52900 30.57500
C  28.20100 51.13200 30.33400
C  28.20500 50.84700 28.78600
C  29.22000 52.11700 30.81500
C  25.78600 50.41800 31.31900
C  25.06700 50.79800 32.63900
H  25.89500 51.31600 33.83500
N  28.68200 49.98900 25.75700
C  29.47800 49.67600 26.79500
C  30.59900 48.86500 26.30300
C  30.25000 48.51300 24.98000
C  29.09200 49.40200 24.62600
C  31.69400 48.34700 27.19800
C  30.83500 47.35900 24.09100
O  30.45100 47.17500 22.92500
C  31.94400 46.50000 24.54100
N  26.57600 51.15200 23.87300
C  27.26100 50.24300 23.05800
C  26.69000 50.15000 21.63900
C  25.31400 50.96000 21.90300
C  25.42700 51.53400 23.26700
C  27.46800 50.64000 20.40300
C  24.00500 50.05100 21.65400
C  22.95800 50.69500 20.64900
N  24.98500 52.10000 26.22900
C  24.15800 52.52400 25.17900
C  22.96000 53.12000 25.71600
C  23.16000 52.96100 27.16500
C  24.43800 52.35500 27.36000
C  21.80700 53.71300 24.97000
C  22.65400 53.23000 28.53300
O  21.61000 53.77300 28.83400
C  23.70000 52.78600 29.56000
C  24.06200 54.01700 30.38700
O  24.77200 54.96600 29.96400
O  23.43800 53.87400 31.63200
C  23.68900 55.06400 32.52600
H  30.12300 49.79900 28.70100
H  28.70500 48.82800 22.64800
H  23.58200 52.59000 23.10500
H  26.55800 52.47600 31.10700
H  28.41100 50.14400 30.74200
H  29.68700 51.64200 31.67900
H  28.70800 53.01600 31.15600
H  30.01800 52.43600 30.14500
H  26.51600 49.66600 31.61800
H  25.04000 49.89500 30.72000
H  24.39300 50.01800 32.99500
H  24.43000 51.61500 32.30100
H  31.71900 48.73000 28.21800
H  32.68300 48.60000 26.81600
H  31.60400 47.26700 27.31600
H  32.62000 47.03200 25.21000
H  32.56400 46.22100 23.68900
H  31.57800 45.59600 25.02900
H  26.56400 49.07700 21.50000
H  25.41800 51.89900 21.36000
H  26.97800 51.47200 19.89700
H  27.47600 49.86100 19.64000
H  28.44300 51.01900 20.70800
H  23.65300 49.86300 22.66800
H  24.42100 49.18800 21.13500
H  23.35700 51.69200 20.46300
H  21.96100 50.80200 21.07500
H  22.85100 50.23200 19.66800
H  22.12200 54.65800 24.52800
H  21.04700 53.93700 25.71900
H  21.47600 53.12900 24.11200
H  23.24100 51.94500 30.08000
H  24.29500 55.87600 32.12400
H  24.24500 54.53700 33.30100
H  22.71200 55.40100 32.87300

