158

Mg 17.13300 -1.70200 27.58500
C  15.86000 0.20100 30.17700
C  19.36500 -3.19500 29.71700
C  18.21300 -3.52300 24.91500
C  15.10800 0.09000 25.41200
N  17.54000 -1.49400 29.72000
C  16.93900 -0.63200 30.59700
C  17.44100 -0.92300 31.97600
C  18.62200 -1.89900 31.76200
C  18.60100 -2.19500 30.30200
C  20.02800 -1.36300 32.07600
C  16.27200 -1.52200 32.90100
C  16.11500 -0.97500 34.37500
H  17.40300 -0.23100 34.88400
N  18.54200 -3.21400 27.36700
C  19.31300 -3.74900 28.41700
C  20.01500 -4.91900 27.87400
C  19.83000 -4.85700 26.45400
C  18.82300 -3.83000 26.17800
C  20.92700 -5.68800 28.79100
C  20.43300 -5.75000 25.39700
O  20.16000 -5.76200 24.17400
C  21.55200 -6.70900 25.76100
N  16.79700 -1.69200 25.41800
C  17.29800 -2.55400 24.52700
C  16.94400 -2.16400 23.08900
C  15.81500 -1.09000 23.29300
C  15.87800 -0.85300 24.79500
C  18.17200 -1.66700 22.28200
C  14.43600 -1.56700 22.75300
C  13.70300 -2.53300 23.70900
N  15.64000 -0.28100 27.74200
C  14.85400 0.32500 26.74200
C  13.99100 1.33600 27.38100
C  14.35500 1.28400 28.73000
C  15.34100 0.34500 28.89000
C  13.07300 2.28400 26.71000
C  14.03900 1.85900 30.03300
O  13.26000 2.70800 30.43700
C  14.92000 1.10300 31.08400
C  15.58800 2.00700 32.06500
O  16.73600 2.39900 32.07400
O  14.61300 2.55500 32.82300
C  15.00900 3.45600 33.93200
H  20.09900 -3.75100 30.30300
H  18.54200 -4.07600 24.03300
H  14.45600 0.53700 24.65900
H  17.86300 -0.02600 32.43000
H  18.46400 -2.85100 32.26900
H  19.95600 -0.32700 32.40900
H  20.60000 -1.39500 31.14900
H  20.41000 -2.04300 32.83800
H  16.33700 -2.60900 32.87600
H  15.34800 -1.34900 32.34900
H  15.85200 -1.74800 35.09700
H  15.28400 -0.27400 34.28900
H  21.93000 -5.27100 28.69400
H  20.91700 -6.75800 28.58500
H  20.70700 -5.52800 29.84700
H  21.03500 -7.64900 25.95100
H  22.18800 -6.50700 26.62300
H  22.21300 -6.71900 24.89400
H  16.51300 -3.05700 22.63500
H  16.05600 -0.18600 22.73500
H  18.08000 -0.66700 21.85700
H  18.41500 -2.46600 21.58100
H  19.05800 -1.59300 22.91200
H  14.53600 -2.12800 21.82400
H  13.78000 -0.72900 22.51600
H  13.21700 -1.92500 24.47200
H  14.40300 -3.22500 24.17800
H  12.90900 -2.93300 23.08000
H  12.44100 2.77100 27.45300
H  12.45600 1.70600 26.02100
H  13.74200 2.97700 26.20100
H  14.25200 0.43600 31.62900
H  14.25300 3.34200 34.70800
H  15.04600 4.49700 33.61100
H  15.98700 3.28200 34.37800
Mg 47.95000 26.01300 29.25100
C  48.78300 28.16600 31.86100
C  46.51900 23.95100 31.59200
C  47.65400 23.60000 26.87300
C  49.85200 27.86300 27.12400
N  47.61600 26.14400 31.46000
C  48.01900 27.17700 32.33900
C  47.43600 26.96500 33.78700
C  46.87400 25.50800 33.62400
C  46.93000 25.13800 32.15000
C  47.47700 24.46500 34.54600
C  46.32500 28.07300 34.25600
C  46.33300 28.59800 35.64900
H  46.91900 27.77300 36.93800
N  47.24200 24.00200 29.21100
C  46.62800 23.44200 30.27700
C  46.15400 22.11400 29.89100
C  46.38400 22.04100 28.47100
C  47.15500 23.26900 28.12000
C  45.57700 21.10400 30.79100
C  45.97900 21.01800 27.45300
O  46.30000 21.01700 26.26500
C  45.16700 19.78800 28.04500
N  48.62200 25.79900 27.25800
C  48.42300 24.71900 26.46900
C  49.17900 24.84100 25.09800
C  49.50900 26.37300 25.09700
C  49.37100 26.71500 26.55600
C  50.33700 23.85800 25.03800
C  48.48200 27.24700 24.16500
C  49.16000 27.91200 23.01000
N  48.90800 27.78500 29.39600
C  49.71700 28.41500 28.39100
C  50.25700 29.63800 28.92800
C  49.93000 29.55600 30.36100
C  49.15400 28.40600 30.54300
C  51.15400 30.51100 28.23000
C  50.11200 30.16100 31.63800
O  50.69300 31.21700 31.98500
C  49.36800 29.34800 32.70100
C  50.39400 28.86300 33.70100
O  51.37800 28.15800 33.54500
O  50.12900 29.44900 34.89700
C  50.99400 28.96200 36.00200
H  46.03200 23.35600 32.36800
H  47.63300 22.82500 26.10400
H  50.28900 28.49700 26.35000
H  48.24200 26.96000 34.52100
H  45.82000 25.53800 33.89900
H  46.69400 24.00800 35.15100
H  48.31100 24.83200 35.14400
H  47.80900 23.63500 33.92200
H  45.33900 27.69800 33.98200
H  46.48000 28.88800 33.54900
H  45.28800 28.70200 35.93900
H  46.83600 29.56200 35.56600
H  44.51700 21.11200 30.53600
H  45.56000 21.27800 31.86700
H  45.98300 20.10400 30.63700
H  45.82800 19.46600 28.85000
H  44.91400 19.01900 27.31500
H  44.19800 19.99200 28.50000
H  48.45900 24.51800 24.34700
H  50.48700 26.63200 24.69100
H  51.33100 24.30300 24.99600
H  50.29600 23.13900 24.22000
H  50.37800 23.29800 25.97200
H  47.88700 27.94300 24.75700
H  47.70900 26.61900 23.72100
H  49.04800 27.21600 22.17800
H  50.21700 28.11200 23.18600
H  48.72500 28.85800 22.68800
H  52.05300 29.92400 28.04600
H  51.52900 31.33200 28.84100
H  50.71800 30.92300 27.32000
H  48.70500 29.96500 33.30600
H  52.00500 28.99100 35.59600
H  50.77900 27.95900 36.37100
H  50.86400 29.71300 36.78100

