158

Mg 6.95400 54.58500 41.51100
C  6.64500 51.01100 41.30800
C  10.07100 54.30600 40.34300
C  7.02100 57.82200 41.28200
C  3.47700 54.60400 42.19300
N  8.13200 52.81400 40.79700
C  7.96500 51.45900 40.91500
C  9.25000 50.60600 40.58200
C  10.30400 51.75900 40.68900
C  9.42600 53.01900 40.54800
C  10.99800 51.90900 42.14600
C  9.23100 49.89400 39.27700
C  8.89800 50.71400 38.01000
H  7.49700 50.68200 37.46800
N  8.34400 55.90600 40.79100
C  9.61900 55.56000 40.35600
C  10.34700 56.79300 40.08100
C  9.46800 57.90200 40.44300
C  8.23700 57.25900 40.91200
C  11.77200 56.86200 39.58800
C  9.80300 59.36900 40.24100
O  10.79900 59.73200 39.63100
C  8.85900 60.45600 40.78000
N  5.41100 56.02300 41.46800
C  5.76200 57.29800 41.50100
C  4.58600 58.16700 42.00200
C  3.42300 57.10000 41.91600
C  4.11500 55.81400 41.87300
C  4.83600 58.62800 43.51000
C  2.31000 57.22900 40.87300
C  0.87300 57.62900 41.28300
N  5.41500 53.14800 41.90100
C  4.05300 53.27100 42.12400
C  3.49100 52.01400 42.51700
C  4.47700 51.12900 42.16900
C  5.56700 51.86000 41.68900
C  2.08000 51.69900 42.86700
C  4.77300 49.72100 42.17700
O  4.05500 48.82800 42.66000
C  6.15900 49.59500 41.45300
C  5.82700 48.98300 40.15400
O  4.90700 49.29200 39.35400
O  6.54500 47.85100 40.02800
C  5.94600 46.88300 39.03800
H  11.15000 54.24600 40.18900
H  6.95000 58.91100 41.26400
H  2.41700 54.48900 42.42800
H  9.48100 49.90300 41.38300
H  11.12500 51.67900 39.97600
H  10.77800 51.00800 42.72000
H  10.56400 52.79500 42.61000
H  12.07300 52.08400 42.16500
H  8.54200 49.05100 39.23900
H  10.23900 49.48000 39.30800
H  9.61900 50.41400 37.25000
H  9.09300 51.76600 38.21700
H  12.21800 57.84100 39.41300
H  11.77200 56.26400 38.67600
H  12.28800 56.26900 40.34300
H  9.43000 61.37900 40.67600
H  8.62900 60.22400 41.82000
H  7.98800 60.62200 40.14600
H  4.48700 58.97500 41.27600
H  2.83800 57.03700 42.83400
H  5.90500 58.73300 43.69500
H  4.29200 58.05000 44.25700
H  4.38600 59.59900 43.71600
H  2.12000 56.23000 40.48100
H  2.59900 57.94200 40.10100
H  0.84800 57.94900 42.32400
H  0.20900 56.76600 41.31100
H  0.44200 58.42300 40.67200
H  1.36800 52.52400 42.85000
H  2.04000 51.25300 43.86000
H  1.61800 50.92000 42.26000
H  6.80700 48.92600 42.01900
H  6.28500 47.33900 38.10800
H  4.86600 46.74700 39.08700
H  6.29000 45.85100 39.11100
Mg -10.02600 40.48400 40.95000
C  -9.32800 37.09300 40.06100
C  -7.03900 41.27800 39.66200
C  -11.16200 43.57500 41.07900
C  -13.24200 39.36800 42.00400
N  -8.44700 39.31600 39.92200
C  -8.28300 37.97100 39.72100
C  -6.88800 37.52900 39.27800
C  -6.07900 38.88400 39.35200
C  -7.25400 39.90900 39.63300
C  -4.99300 39.08500 40.47500
C  -6.92300 36.83900 37.85600
C  -5.86000 35.76300 37.65000
H  -4.83900 35.92000 36.54100
N  -9.15100 42.20500 40.51700
C  -7.92000 42.38500 39.90800
C  -7.77000 43.77900 39.60400
C  -8.92300 44.49000 40.04900
C  -9.80500 43.43900 40.62300
C  -6.50100 44.31700 38.87900
C  -9.09800 46.03600 39.97400
O  -8.18000 46.79400 39.49800
C  -10.27900 46.60900 40.66800
N  -11.93100 41.32200 41.62200
C  -12.10300 42.68500 41.59800
C  -13.53700 43.10500 41.85300
C  -14.15000 41.73600 42.35100
C  -13.04300 40.73300 41.96500
C  -13.80800 44.36000 42.73900
C  -15.50900 41.35600 41.57300
C  -16.49900 40.49900 42.45700
N  -11.10600 38.60400 40.99700
C  -12.39200 38.36200 41.50300
C  -12.67100 36.85500 41.48000
C  -11.47500 36.33600 40.91800
C  -10.62100 37.42800 40.57200
C  -13.85400 36.05100 41.83600
C  -10.74400 35.09400 40.60200
O  -10.95500 33.89200 40.79800
C  -9.44500 35.57400 39.90200
C  -8.39500 34.82400 40.62900
O  -8.08500 34.90000 41.78700
O  -7.95200 33.95000 39.68100
C  -7.06500 32.96700 40.23800
H  -6.06200 41.63700 39.33000
H  -11.62300 44.55500 40.94300
H  -14.21000 38.92400 42.24900
H  -6.47000 36.84300 40.01500
H  -5.57900 39.16400 38.42500
H  -5.38900 39.80800 41.18800
H  -4.00500 39.31600 40.07800
H  -4.80200 38.16200 41.02300
H  -6.84400 37.68300 37.17000
H  -7.84400 36.38600 37.48800
H  -6.38200 34.82000 37.48500
H  -5.29500 35.70900 38.58000
H  -5.94100 44.92000 39.59300
H  -6.83300 44.93300 38.04300
H  -5.84800 43.51200 38.54100
H  -10.38500 46.11400 41.63300
H  -11.17900 46.59400 40.05400
H  -10.02400 47.64900 40.87300
H  -13.88000 43.36100 40.85100
H  -14.18000 41.68900 43.44000
H  -12.85400 44.70200 43.14200
H  -14.46300 44.06200 43.55700
H  -14.16000 45.27000 42.25200
H  -15.33000 40.78100 40.66400
H  -16.02700 42.29400 41.37100
H  -17.43100 41.02600 42.66200
H  -16.06900 40.40400 43.45400
H  -16.64900 39.46800 42.13600
H  -13.59400 35.00000 41.71100
H  -14.58000 36.37000 41.08800
H  -14.40400 36.18800 42.76700
H  -9.42900 35.34800 38.83600
H  -6.08200 33.41300 40.39000
H  -6.90800 32.22400 39.45700
H  -7.55500 32.35200 40.99300

