158

Mg 40.32900 9.77800 29.47600
C  42.52500 10.90200 31.93600
C  38.06600 8.81600 31.62400
C  38.57600 8.37400 26.81500
C  43.04000 10.28600 27.01500
N  40.36900 9.76800 31.53400
C  41.30100 10.38500 32.32500
C  40.71300 10.43400 33.71000
C  39.39500 9.57900 33.57600
C  39.27700 9.29200 32.15800
C  39.48000 8.18100 34.30600
C  40.44100 11.91300 34.10400
C  39.85100 12.12700 35.55900
H  40.73000 12.83900 36.50400
N  38.58100 8.84800 29.26500
C  37.77200 8.60000 30.29700
C  36.55200 7.98700 29.84400
C  36.59400 7.95900 28.42400
C  37.93600 8.49000 28.09000
C  35.35300 7.50300 30.70600
C  35.52300 7.52400 27.38300
O  35.83900 7.44900 26.26500
C  34.14600 7.21400 27.86900
N  40.74000 9.40500 27.24200
C  39.87400 8.74900 26.41400
C  40.40600 8.55000 25.04000
C  41.75200 9.39900 25.12400
C  41.86900 9.76200 26.55000
C  40.58200 7.06200 24.63800
C  41.88400 10.69400 24.21400
C  40.88300 11.85300 24.54600
N  42.39700 10.37000 29.42200
C  43.34800 10.58300 28.40200
C  44.55000 11.16000 28.97500
C  44.19900 11.35500 30.35600
C  42.90800 10.73800 30.56400
C  45.87200 11.30300 28.30400
C  44.71600 11.84400 31.61500
O  45.75500 12.37900 31.83700
C  43.65600 11.58600 32.71800
C  44.14900 10.88300 33.92400
O  44.78300 9.89900 33.93800
O  43.74800 11.56200 35.04600
C  44.15000 11.04400 36.35400
H  37.21700 8.64200 32.28800
H  37.97800 8.12900 25.93500
H  43.83400 10.17900 26.27300
H  41.37900 10.11400 34.51100
H  38.46600 10.06900 33.86500
H  39.00900 8.13900 35.28900
H  40.54000 7.93900 34.38400
H  39.22700 7.31400 33.69700
H  39.86400 12.38300 33.30700
H  41.41900 12.38100 33.99100
H  39.78400 11.10900 35.94300
H  38.84400 12.54400 35.54600
H  35.44100 6.41900 30.62300
H  34.37100 7.83700 30.37000
H  35.60000 7.79200 31.72800
H  33.95500 6.43100 28.60300
H  33.49300 7.08500 27.00600
H  33.87900 8.14200 28.37400
H  39.74600 9.04100 24.32400
H  42.62000 8.81700 24.81400
H  41.52900 6.64900 24.98500
H  40.55100 6.99500 23.55100
H  39.70500 6.50500 24.96700
H  41.78300 10.38500 23.17400
H  42.91000 11.04600 24.32300
H  40.18200 11.38800 25.24000
H  40.49200 12.37600 23.67400
H  41.26100 12.62600 25.21500
H  45.97200 12.33800 27.97600
H  45.97700 10.59100 27.48500
H  46.71300 11.03100 28.94100
H  43.23900 12.53100 33.06300
H  43.84100 11.74300 37.13200
H  45.21600 10.83300 36.42800
H  43.54000 10.16600 36.56700
Mg 54.88000 24.38000 44.10900
C  52.21300 26.69100 43.78700
C  52.60400 21.85000 43.28000
C  57.48800 22.40300 43.69200
C  57.07000 27.13800 44.63300
N  52.64100 24.34200 43.37100
C  51.72800 25.39200 43.43700
C  50.35600 24.89200 42.83400
C  50.46100 23.39100 43.17000
C  52.00600 23.11500 43.29800
C  49.73900 23.07800 44.49400
C  50.31700 25.14700 41.35700
C  48.92200 24.94700 40.71600
H  48.93300 24.66600 39.15600
N  55.09500 22.41400 43.58400
C  54.04700 21.55000 43.30600
C  54.59000 20.24700 43.07800
C  55.98600 20.38200 43.18500
C  56.25100 21.76500 43.43400
C  53.71200 19.07300 42.80000
C  56.91500 19.18700 42.91500
O  56.52500 18.05100 42.59200
C  58.41400 19.33800 42.98600
N  57.01600 24.78000 44.02900
C  57.83700 23.72400 43.96000
C  59.38100 24.15000 44.00200
C  59.18400 25.63100 44.40100
C  57.69300 25.92200 44.29200
C  60.15400 23.36300 45.08200
C  60.13000 26.55600 43.64500
C  60.97300 27.58400 44.47400
N  54.62700 26.47800 44.35800
C  55.64700 27.42400 44.66200
C  54.98200 28.71600 44.82000
C  53.61300 28.49000 44.52500
C  53.50000 27.11900 44.24200
C  55.66800 29.92600 45.15100
C  52.31300 29.10400 44.35800
O  51.96800 30.28300 44.54300
C  51.42000 27.99200 43.85000
C  50.79100 28.57900 42.56600
O  51.43800 28.80600 41.53500
O  49.44300 28.45500 42.59200
C  48.69800 28.97200 41.50600
H  51.82500 21.09000 43.19200
H  58.29100 21.67000 43.59000
H  57.79100 27.85600 45.02900
H  49.55800 25.30600 43.45100
H  50.09500 22.79800 42.33200
H  48.97400 22.32600 44.30300
H  49.18700 23.98600 44.73800
H  50.40800 22.90900 45.33800
H  51.04600 24.49700 40.87200
H  50.61200 26.18800 41.22600
H  48.31500 25.84300 40.84400
H  48.43800 24.10200 41.20600
H  54.15600 18.53400 41.96300
H  52.78100 19.42800 42.35700
H  53.53400 18.29100 43.53800
H  58.72500 19.99300 42.17200
H  58.97500 18.42300 42.79700
H  58.66300 19.63300 44.00500
H  59.84000 24.01400 43.02300
H  59.32500 25.77100 45.47200
H  59.59100 22.52700 45.49600
H  60.31800 23.89900 46.01600
H  61.08800 23.16700 44.55500
H  59.50500 27.20900 43.03500
H  60.76300 26.01100 42.94500
H  60.74200 28.58800 44.12000
H  62.01800 27.47300 44.18300
H  60.77500 27.62800 45.54500
H  55.06600 30.82900 45.04300
H  56.59000 29.89800 44.57000
H  55.91400 29.89300 46.21200
H  50.58700 27.68600 44.48200
H  47.94200 29.71700 41.75400
H  48.03600 28.14300 41.25700
H  49.27100 29.12400 40.59100

