158

Mg 56.22200 22.32400 43.48100
C  53.98400 24.47200 42.15600
C  53.85500 19.74100 43.26300
C  58.50600 20.06800 44.32300
C  58.63100 24.83900 43.33800
N  54.14600 22.13900 42.71100
C  53.44600 23.18600 42.27400
C  52.01100 22.73800 42.02300
C  51.86200 21.50500 42.93100
C  53.34800 21.03700 43.01100
C  51.13700 21.68800 44.28900
C  51.72200 22.52900 40.51200
C  50.57600 23.28900 39.93700
H  49.95400 23.02800 38.58100
N  56.19000 20.21700 43.72600
C  55.17100 19.34800 43.53600
C  55.64400 18.01400 43.68200
C  56.95800 18.00500 44.17100
C  57.27400 19.47800 44.10400
C  54.64600 16.87600 43.52300
C  57.85900 16.80500 44.41200
O  57.52800 15.66500 44.06000
C  59.09000 16.93500 45.20500
N  58.32200 22.39300 43.53700
C  59.00800 21.29000 44.00900
C  60.47300 21.66300 44.39600
C  60.54200 23.20400 44.03600
C  59.07300 23.55100 43.55500
C  61.01900 21.39000 45.87500
C  61.72100 23.65100 43.04600
C  63.17900 23.73500 43.63000
N  56.33700 24.37700 42.92300
C  57.37500 25.27300 42.99300
C  56.87800 26.57800 42.67200
C  55.58300 26.34000 42.32000
C  55.28900 24.96200 42.48100
C  57.66300 27.87000 42.77000
C  54.31000 26.98600 41.98100
O  54.05400 28.15300 41.80500
C  53.31600 25.73100 41.63200
C  53.27400 25.69600 40.18300
O  53.90800 25.02100 39.38600
O  52.26600 26.54800 39.70600
C  51.96200 26.49700 38.28800
H  53.10900 18.95500 43.12800
H  59.13900 19.34900 44.84700
H  59.46100 25.54800 43.39000
H  51.23400 23.44800 42.30500
H  51.20500 20.77900 42.45200
H  50.65000 22.65800 44.39200
H  51.83100 21.74200 45.12800
H  50.61200 20.80000 44.64000
H  51.55200 21.52000 40.13500
H  52.64800 22.73500 39.97700
H  50.83700 24.33800 40.07700
H  49.63600 23.05900 40.44000
H  54.94600 15.97500 44.05900
H  54.66600 16.56000 42.48000
H  53.59000 17.04500 43.73100
H  59.90500 17.30300 44.58000
H  59.38100 15.91100 45.43900
H  58.90100 17.60900 46.04100
H  61.14700 21.12100 43.73300
H  60.72100 23.71500 44.98100
H  60.24600 20.91600 46.48000
H  61.32400 22.29500 46.39900
H  61.90500 20.76200 45.78300
H  61.45800 24.62500 42.63400
H  61.84400 22.99500 42.18500
H  63.63600 24.62300 43.19400
H  63.87200 22.98100 43.25300
H  63.14800 23.71600 44.71900
H  56.94000 28.68100 42.86000
H  58.46300 27.94300 42.03300
H  58.12200 27.81500 43.75700
H  52.26800 25.88900 41.88800
H  52.54900 27.26700 37.78800
H  50.89600 26.63500 38.10600
H  52.24700 25.54700 37.83700
Mg -9.93100 39.09600 39.47700
C  -9.16900 35.84100 38.84600
C  -6.72300 40.04100 38.35400
C  -11.02400 42.25800 39.44800
C  -13.30700 38.11800 40.30300
N  -8.20000 38.08000 38.67100
C  -8.08400 36.68300 38.54700
C  -6.60800 36.29800 38.12000
C  -5.82700 37.65800 38.22900
C  -7.00000 38.66300 38.44300
C  -4.67700 37.69900 39.27900
C  -6.58500 35.63900 36.73000
C  -7.12300 36.47700 35.52100
H  -8.21100 35.84000 34.61900
N  -9.03800 40.83900 38.89000
C  -7.71500 41.05700 38.53100
C  -7.58000 42.50700 38.27100
C  -8.80100 43.17500 38.42800
C  -9.68500 42.07000 38.97600
C  -6.21700 43.10700 37.89300
C  -9.00600 44.70600 38.15300
O  -8.24300 45.31800 37.45300
C  -10.43000 45.35200 38.50100
N  -11.94200 40.07600 40.02200
C  -12.04600 41.39800 39.94900
C  -13.49900 41.88500 40.31300
C  -14.18200 40.54400 40.72700
C  -13.12200 39.49000 40.35000
C  -13.65300 42.96500 41.44200
C  -15.55000 40.21500 40.09100
C  -16.81900 40.86300 40.66400
N  -11.06800 37.41200 39.52100
C  -12.44100 37.12000 39.83800
C  -12.66600 35.69100 39.82500
C  -11.40300 35.18700 39.38300
C  -10.46800 36.23600 39.17400
C  -13.81400 34.89100 40.16400
C  -10.75000 33.93300 38.92900
O  -11.18300 32.82100 38.74500
C  -9.26800 34.29700 38.58100
C  -8.40900 33.48800 39.46900
O  -8.55200 33.30600 40.68100
O  -7.35800 32.93400 38.72800
C  -6.50900 32.06300 39.49800
H  -5.70100 40.39800 38.21800
H  -11.25700 43.31300 39.61000
H  -14.27000 37.73000 40.64200
H  -6.23300 35.67900 38.93400
H  -5.39300 37.78000 37.23700
H  -3.82900 38.22100 38.83500
H  -4.38200 36.70700 39.62000
H  -4.94000 38.35800 40.10700
H  -7.16100 34.71400 36.69500
H  -5.55500 35.31500 36.58500
H  -6.26400 36.71100 34.89200
H  -7.61300 37.38900 35.86000
H  -6.16200 44.06100 38.41600
H  -6.06300 43.22300 36.82000
H  -5.41100 42.47000 38.25600
H  -10.51000 45.48500 39.58000
H  -11.10100 44.65900 37.99300
H  -10.53600 46.31900 38.00900
H  -13.98200 42.21900 39.39500
H  -14.35300 40.57000 41.80300
H  -14.17900 43.88200 41.17700
H  -12.58900 43.07300 41.65100
H  -14.08500 42.60500 42.37600
H  -15.68100 39.13400 40.11100
H  -15.36200 40.38000 39.03000
H  -16.63000 41.44400 41.56700
H  -17.46100 40.05300 41.01200
H  -17.33100 41.34900 39.83500
H  -13.75700 33.94500 39.62400
H  -14.67700 35.49400 39.88100
H  -13.83400 34.61500 41.21800
H  -9.23600 34.01800 37.52800
H  -5.86400 32.73200 40.06700
H  -5.95700 31.40100 38.83000
H  -7.16900 31.47600 40.13800

