158

Mg 49.55500 45.74900 41.86800
C  46.20100 46.26300 41.11900
C  49.42000 42.75800 40.56300
C  52.96800 45.62100 42.32100
C  49.75800 49.22000 42.76900
N  48.09000 44.80000 40.67100
C  46.79500 45.15900 40.48500
C  45.97300 44.07300 39.72300
C  46.93900 42.84400 39.85200
C  48.20600 43.46300 40.48800
C  46.30000 41.70200 40.64600
C  45.59100 44.57100 38.31800
C  44.20100 44.25400 37.66400
H  44.13200 43.21000 36.64300
N  50.97700 44.35100 41.51000
C  50.70600 43.12300 40.99500
C  52.00900 42.31600 40.84000
C  53.05600 43.07000 41.47100
C  52.38600 44.41700 41.86100
C  52.13400 41.04300 40.14900
C  54.46600 42.61600 41.61100
O  54.80300 41.48200 41.21900
C  55.52000 43.48300 42.23500
N  51.14100 47.28600 42.36400
C  52.44000 46.89000 42.58200
C  53.29600 48.06800 43.05800
C  52.27900 49.28900 42.99900
C  50.97300 48.58100 42.67100
C  54.01500 47.95000 44.44200
C  52.61600 50.49600 42.16400
C  51.92400 51.88900 42.61400
N  48.29500 47.39700 42.02400
C  48.48800 48.72200 42.53700
C  47.18400 49.31200 42.66000
C  46.27300 48.37900 42.21800
C  46.98100 47.23500 41.76800
C  46.87300 50.71300 43.12000
C  44.84600 48.05300 42.01100
O  43.87100 48.62900 42.50000
C  44.76200 46.76300 41.18000
C  43.76000 45.76700 41.79600
O  42.86200 45.17800 41.16600
O  43.88900 45.78500 43.20200
C  42.88200 44.91600 43.81200
H  49.20700 41.76300 40.16600
H  54.05700 45.66000 42.39000
H  49.65800 50.25200 43.11100
H  45.07400 43.94300 40.32600
H  47.19900 42.50800 38.84800
H  46.41100 41.69500 41.73100
H  46.62500 40.74800 40.23100
H  45.21300 41.77700 40.65300
H  46.29700 44.20100 37.57400
H  45.78700 45.64200 38.26300
H  43.68400 45.18600 37.43700
H  43.62800 43.85100 38.49900
H  52.90600 40.99700 39.38000
H  51.20100 40.75300 39.66500
H  52.36800 40.25400 40.86300
H  55.12800 43.95500 43.13600
H  55.93800 44.18500 41.51300
H  56.29100 42.77200 42.53100
H  54.10400 48.16000 42.33300
H  52.10200 49.61700 44.02400
H  53.76600 48.82800 45.03700
H  55.09400 47.84000 44.33300
H  53.74900 47.01100 44.92800
H  52.29800 50.23500 41.15500
H  53.68400 50.71100 42.11700
H  52.70600 52.64700 42.65700
H  51.53500 51.76200 43.62400
H  51.13800 52.21200 41.93200
H  47.17400 51.54600 42.48400
H  47.41400 50.81500 44.06100
H  45.80300 50.68200 43.32400
H  44.31900 47.13300 40.25500
H  42.99800 43.93300 43.35500
H  41.88300 45.27200 43.56000
H  43.14600 44.85000 44.86700
Mg 35.00700 48.53200 25.63500
C  35.50100 46.82500 28.76800
C  33.89300 51.15500 27.41500
C  34.09700 49.91000 22.70200
C  35.72200 45.53500 24.07400
N  34.86400 48.93700 27.82400
C  34.99900 48.09500 28.91000
C  34.71000 48.73300 30.27300
C  34.05400 50.10600 29.77700
C  34.24000 50.07800 28.25800
C  32.60900 50.30300 30.26800
C  35.96500 49.03700 31.19600
C  35.90200 48.52200 32.58300
H  35.83800 49.56700 33.69100
N  34.25100 50.36800 25.18100
C  33.92100 51.34500 26.00900
C  33.56900 52.54900 25.24700
C  33.68400 52.23600 23.85600
C  33.99800 50.72500 23.89000
C  33.14400 53.86000 25.94600
C  33.47500 53.07200 22.66000
O  33.82000 52.62700 21.58100
C  32.93500 54.48400 22.84400
N  34.86700 47.82800 23.63600
C  34.50400 48.59000 22.56000
C  34.48100 47.86500 21.24300
C  35.09100 46.52800 21.68900
C  35.24600 46.57100 23.20600
C  33.20700 47.75900 20.39700
C  36.43300 46.16100 21.05200
C  36.38500 45.24400 19.79600
N  35.55600 46.58900 26.26400
C  35.93800 45.54000 25.48000
C  36.45100 44.41300 26.28700
C  36.26700 44.88800 27.61000
C  35.75000 46.17200 27.53800
C  36.99900 43.12000 25.87400
C  36.39000 44.56800 28.98100
O  36.86000 43.55300 29.54700
C  35.82200 45.79400 29.80500
C  34.66900 45.33100 30.64100
O  33.50400 45.10500 30.33700
O  35.06700 45.24400 31.98600
C  34.10300 44.86100 33.05700
H  33.58700 52.04800 27.96500
H  34.01600 50.36400 21.71200
H  36.02200 44.62400 23.55200
H  33.95100 48.16100 30.80700
H  34.67000 50.95700 30.06700
H  32.59600 50.81100 31.23200
H  31.97200 49.41900 30.28100
H  32.02000 50.85800 29.53700
H  36.18500 50.10300 31.25700
H  36.82800 48.55300 30.74000
H  36.86800 48.02400 32.67000
H  35.13700 47.75900 32.72400
H  33.88500 54.61100 25.67400
H  33.12400 53.75400 27.03100
H  32.16400 54.07800 25.52200
H  32.88200 54.96400 21.86700
H  33.75100 55.01000 23.33900
H  32.01100 54.46400 23.42300
H  35.30200 48.29600 20.66900
H  34.37800 45.77800 21.34700
H  32.44400 48.21300 21.02900
H  32.88800 46.74900 20.14000
H  33.29700 48.30200 19.45600
H  37.10200 45.64800 21.74300
H  36.98400 47.08700 20.88800
H  36.69200 45.73300 18.87200
H  35.33600 44.99200 19.64200
H  37.07600 44.44000 20.04900
H  37.77200 43.28400 25.12300
H  36.22500 42.52400 25.39100
H  37.39400 42.55700 26.71900
H  36.59700 46.14300 30.48900
H  33.14100 44.53100 32.66400
H  33.88600 45.67500 33.75000
H  34.55600 44.05300 33.63100

