158

Mg 1.61400 -1.12500 44.45300
C  4.96300 0.04600 44.02700
C  0.57300 1.76300 42.78300
C  -1.35000 -2.51700 44.31100
C  3.02200 -4.01100 45.97200
N  2.64900 0.69400 43.56000
C  3.99500 0.85200 43.44000
C  4.21000 2.16500 42.73100
C  2.89600 2.90500 42.73900
C  1.99500 1.65900 42.95900
C  2.78900 3.99900 43.88100
C  4.89000 1.86900 41.27100
C  6.29600 2.54000 41.02700
H  7.38300 1.68100 40.33300
N  -0.14700 -0.51100 43.67900
C  -0.38900 0.76600 43.11200
C  -1.75900 0.78200 42.63900
C  -2.39900 -0.42300 43.10300
C  -1.33700 -1.20500 43.76500
C  -2.37000 1.97700 41.94000
C  -3.84300 -0.74100 42.93500
O  -4.61100 0.12100 42.42400
C  -4.37900 -2.12600 43.19800
N  1.00100 -3.07900 44.87900
C  -0.33600 -3.34300 44.89500
C  -0.74000 -4.68400 45.51800
C  0.71000 -5.21900 46.00900
C  1.68300 -4.05400 45.68100
C  -1.82300 -4.59000 46.61400
C  1.12500 -6.57100 45.32800
C  1.75400 -7.62000 46.27800
N  3.56100 -1.88800 44.81900
C  3.94600 -3.00600 45.48300
C  5.37300 -3.08100 45.62300
C  5.83100 -1.83600 45.09500
C  4.68600 -1.17900 44.58200
C  6.14800 -4.22000 46.13600
C  7.01100 -0.97900 44.84500
O  8.18700 -1.15000 45.12500
C  6.46800 0.27000 44.01600
C  6.85900 1.42200 44.96000
O  6.10500 1.92000 45.78800
O  8.08200 1.91000 44.59900
C  8.52900 3.03100 45.44600
H  0.29200 2.63900 42.19500
H  -2.34900 -2.89300 44.54400
H  3.41800 -4.92500 46.42000
H  4.93700 2.79900 43.23800
H  2.69500 3.32100 41.75200
H  3.70300 4.30100 44.39300
H  2.20300 3.69000 44.74600
H  2.39200 4.90000 43.41400
H  4.24100 2.36300 40.54800
H  4.70200 0.84900 40.93400
H  6.75400 2.81900 41.97600
H  6.22700 3.48100 40.48200
H  -2.98400 2.55800 42.62700
H  -2.91000 1.60000 41.07100
H  -1.62800 2.62700 41.47800
H  -3.94800 -2.86300 42.52100
H  -5.45200 -2.16600 43.01000
H  -4.23600 -2.42200 44.23700
H  -1.07000 -5.23300 44.63600
H  0.64000 -5.35400 47.08800
H  -1.55500 -4.84100 47.64000
H  -2.70800 -5.13400 46.28200
H  -2.16700 -3.56300 46.73100
H  1.87900 -6.33900 44.57500
H  0.23000 -6.91900 44.81300
H  2.77900 -7.76600 45.93600
H  1.30600 -8.61100 46.34800
H  1.86400 -7.24100 47.29400
H  7.01200 -3.75100 46.60600
H  6.40900 -4.88700 45.31400
H  5.57100 -4.69900 46.92700
H  6.84400 0.47400 43.01300
H  8.30400 4.05700 45.15300
H  9.61400 2.96700 45.51800
H  8.16700 3.00900 46.47400
Mg 40.98400 9.10600 29.43700
C  43.06500 10.08700 32.04800
C  38.71700 7.83600 31.69600
C  39.14000 7.92200 26.83400
C  43.63400 9.52400 27.26800
N  40.95300 8.77700 31.57800
C  41.84600 9.40300 32.49300
C  41.24000 9.33500 33.95600
C  39.97800 8.48700 33.78300
C  39.88100 8.34700 32.24600
C  39.85500 7.22100 34.64600
C  40.91000 10.79000 34.58700
C  40.21200 10.79600 35.98800
H  40.90400 11.56400 37.05200
N  39.07200 8.18200 29.38100
C  38.26200 7.74000 30.38900
C  37.08300 7.27100 29.86400
C  37.12100 7.44100 28.51000
C  38.55100 7.82700 28.15800
C  36.01100 6.77400 30.76900
C  36.08000 7.23400 27.42000
O  36.19500 7.22900 26.20800
C  34.62300 6.96000 27.94900
N  41.42200 8.60000 27.35800
C  40.44900 8.20500 26.44100
C  40.90200 8.36900 24.98600
C  42.34200 8.90000 25.16800
C  42.52900 9.06200 26.71700
C  40.82400 7.16600 23.99900
C  42.62900 10.17600 24.32500
C  42.03400 11.49800 24.92600
N  42.97200 9.71300 29.56500
C  43.94000 9.95000 28.61500
C  45.04800 10.64300 29.21700
C  44.71300 10.74200 30.54300
C  43.48200 10.05600 30.75000
C  46.19700 11.25900 28.50000
C  45.16800 11.27500 31.79600
O  46.17800 11.84900 32.07800
C  44.09400 10.83500 32.88500
C  44.65900 9.89300 33.85300
O  45.22500 8.84400 33.56500
O  44.59300 10.42400 35.09600
C  44.83700 9.50800 36.21800
H  38.06200 7.43000 32.47000
H  38.53900 7.48700 26.03300
H  44.32900 9.81000 26.47600
H  41.96700 8.90300 34.64400
H  39.10000 9.09700 33.99600
H  40.81900 6.97000 35.08900
H  39.63400 6.31600 34.07900
H  39.05600 7.38100 35.37000
H  40.23200 11.32900 33.92600
H  41.81300 11.40100 34.55700
H  40.12400 9.72800 36.18500
H  39.20200 11.16600 35.81000
H  36.25500 6.79900 31.83100
H  35.71100 5.74200 30.58500
H  35.07400 7.31300 30.62800
H  33.94200 7.07900 27.10700
H  34.34200 7.70000 28.69900
H  34.44700 5.95600 28.33700
H  40.36400 9.26100 24.66500
H  43.13100 8.22400 24.83700
H  41.76800 6.93000 23.50800
H  40.15800 7.40000 23.16800
H  40.48100 6.28100 24.53500
H  42.15000 10.05000 23.35400
H  43.68800 10.31300 24.10700
H  42.78300 12.08100 25.46100
H  41.30500 11.19400 25.67600
H  41.51800 11.94500 24.07600
H  46.56500 12.13000 29.04400
H  45.81400 11.48400 27.50500
H  47.08600 10.63200 28.42900
H  43.78900 11.75000 33.39300
H  45.20500 8.50800 35.99100
H  43.88600 9.40500 36.74100
H  45.53000 9.93500 36.94300

