158

Mg 23.14600 -7.70500 45.87600
C  25.67200 -5.37200 44.74800
C  21.10100 -6.20500 43.54100
C  20.94900 -10.21500 46.41600
C  25.67000 -9.67000 47.35100
N  23.43900 -6.07200 44.25900
C  24.46900 -5.15900 44.07600
C  24.06900 -4.05400 43.05000
C  22.58100 -4.29300 42.84700
C  22.33900 -5.59700 43.55200
C  21.74900 -3.06600 43.31900
C  24.92300 -4.12400 41.66200
C  25.76000 -2.85400 41.31600
H  26.38000 -2.80300 39.94200
N  21.19800 -8.13400 45.15400
C  20.56200 -7.36000 44.24500
C  19.30000 -7.98800 44.00900
C  19.26300 -9.10700 44.82900
C  20.46300 -9.18500 45.60900
C  18.29100 -7.38800 43.04800
C  18.12700 -10.04100 44.90700
O  17.16200 -9.83500 44.13200
C  17.97000 -11.04600 46.04300
N  23.24200 -9.57500 47.05700
C  22.19400 -10.43700 47.01400
C  22.61300 -11.81000 47.59000
C  24.06800 -11.54200 48.09300
C  24.36900 -10.24300 47.43200
C  21.63700 -12.51000 48.54700
C  25.10000 -12.68800 47.87400
C  25.16600 -13.63900 48.98000
N  25.16800 -7.58800 46.12800
C  26.06900 -8.46200 46.70000
C  27.38200 -7.88900 46.65400
C  27.29300 -6.69800 45.93500
C  25.94400 -6.55500 45.56700
C  28.66500 -8.58200 47.14700
C  28.01400 -5.56500 45.57600
O  29.17400 -5.26500 45.81100
C  27.02100 -4.58900 44.74600
C  26.95300 -3.28200 45.42300
O  26.77000 -3.15700 46.58000
O  27.25300 -2.25300 44.52800
C  27.48000 -0.89300 45.10300
H  20.49300 -5.69100 42.79500
H  20.37400 -11.14200 46.46500
H  26.46100 -10.21600 47.87100
H  24.20800 -3.04700 43.44500
H  22.44000 -4.38500 41.77100
H  22.33800 -2.29400 43.81600
H  21.04600 -3.40500 44.08000
H  21.22200 -2.65600 42.45800
H  24.35600 -4.42400 40.78100
H  25.69300 -4.89200 41.74000
H  26.50300 -2.71200 42.10000
H  24.98800 -2.08700 41.38200
H  18.02200 -8.14500 42.31100
H  18.64100 -6.54200 42.45700
H  17.41100 -7.07000 43.60600
H  18.17000 -10.61700 47.02500
H  18.44500 -11.97000 45.71300
H  16.90600 -11.25300 46.15800
H  22.77100 -12.43000 46.70800
H  24.15400 -11.33600 49.16000
H  21.68700 -13.58400 48.36700
H  20.65400 -12.08000 48.35400
H  21.94700 -12.42700 49.58800
H  26.07300 -12.24200 47.67100
H  24.88000 -13.26900 46.97900
H  24.13900 -13.88200 49.25200
H  25.73500 -13.31500 49.85200
H  25.64300 -14.56800 48.66700
H  28.61900 -9.04700 48.13200
H  29.47400 -7.85300 47.11500
H  28.98900 -9.32100 46.41500
H  27.56100 -4.46200 43.80700
H  26.62000 -0.46600 45.62000
H  27.45900 -0.21400 44.25100
H  28.44700 -0.77200 45.59200
Mg 35.62500 49.44700 24.40700
C  35.67100 48.06600 27.42000
C  34.45200 52.38800 25.86700
C  35.14700 50.85100 21.28000
C  36.42000 46.48800 22.86700
N  35.02000 50.13900 26.45900
C  35.39100 49.41800 27.54000
C  35.30700 50.23600 28.84300
C  34.92600 51.67000 28.22200
C  34.76800 51.39200 26.77600
C  33.63600 52.42100 28.85500
C  36.62800 50.36600 29.63700
C  36.44100 49.97900 31.10500
H  35.19900 50.58900 31.83000
N  34.99000 51.42500 23.63200
C  34.52800 52.42200 24.43500
C  34.17600 53.50800 23.54000
C  34.23400 53.01500 22.19600
C  34.80300 51.71600 22.30000
C  33.65300 54.89600 24.05000
C  33.73500 53.66000 20.93500
O  34.14400 53.36800 19.83800
C  32.89900 54.83600 20.99600
N  35.55000 48.67700 22.21600
C  35.58200 49.56300 21.17500
C  35.86700 48.77500 19.87100
C  36.24000 47.33800 20.42300
C  36.06200 47.47500 21.87200
C  34.70200 48.68500 18.98500
C  37.61900 46.86800 20.02900
C  38.84100 47.28600 20.99400
N  35.91600 47.61400 25.01000
C  36.26800 46.46800 24.26100
C  36.61700 45.42900 25.24100
C  36.29600 45.99000 26.46700
C  35.88600 47.31400 26.28800
C  37.16000 44.14800 24.82600
C  36.24400 45.76800 27.89400
O  36.61500 44.71900 28.47500
C  35.72000 47.04900 28.55200
C  34.51700 46.84600 29.39900
O  33.38800 46.69100 28.94900
O  34.82400 46.87400 30.74400
C  33.82300 46.52600 31.66500
H  34.06100 53.25700 26.40000
H  35.26800 51.27400 20.28000
H  36.90800 45.64900 22.36700
H  34.48500 49.79900 29.40800
H  35.73400 52.39400 28.31600
H  33.44300 52.16500 29.89700
H  32.75000 52.35600 28.22400
H  33.96200 53.44400 29.04600
H  37.02000 51.38100 29.69600
H  37.37400 49.69700 29.20900
H  37.31500 50.42900 31.57600
H  36.46000 48.89300 31.19300
H  32.58600 54.70700 24.16800
H  33.72000 55.71800 23.33700
H  34.05500 55.10900 25.04100
H  32.17900 54.66900 21.79800
H  32.32200 55.00200 20.08600
H  33.48000 55.75700 20.99900
H  36.67300 49.23100 19.29600
H  35.46300 46.69400 20.01000
H  34.17600 49.61300 18.76200
H  33.87800 48.04700 19.30400
H  34.92600 48.29400 17.99200
H  37.79400 46.98600 18.96000
H  37.56300 45.78700 20.16200
H  38.97900 46.35600 21.54500
H  38.66900 48.12100 21.67300
H  39.74900 47.40700 20.40300
H  37.95900 43.93100 25.53500
H  37.57500 44.16900 23.81900
H  36.26200 43.53100 24.84000
H  36.55700 47.27000 29.21500
H  32.92400 46.01400 31.32300
H  33.61900 47.44100 32.22100
H  34.33800 45.81200 32.30800

