158

Mg 7.27400 3.39800 27.14600
C  8.69100 1.79800 29.90500
C  5.59800 5.55200 29.30500
C  5.55700 4.51500 24.52300
C  8.53900 0.77300 25.07700
N  7.26100 3.68800 29.35600
C  7.87800 2.92300 30.24800
C  7.56100 3.38000 31.67000
C  6.52700 4.60600 31.57200
C  6.42600 4.61500 29.99100
C  5.25500 4.26300 32.31300
C  8.88600 3.82500 32.39100
C  8.73500 4.47400 33.75700
H  9.78100 4.23600 34.88900
N  5.89100 4.89100 26.95200
C  5.40600 5.71200 27.92300
C  4.47300 6.65400 27.30500
C  4.39500 6.31900 25.89800
C  5.32800 5.23600 25.72400
C  3.80500 7.72300 28.06200
C  3.42500 6.83600 24.79300
O  3.47200 6.37000 23.65300
C  2.45700 7.96300 25.12400
N  7.18800 2.77400 25.12800
C  6.34800 3.42400 24.22600
C  6.48500 2.84600 22.73000
C  7.55300 1.71900 22.97100
C  7.79800 1.76800 24.47100
C  5.08300 2.38100 22.15800
C  8.75800 1.93000 22.09300
C  9.24500 0.68700 21.34700
N  8.42100 1.64600 27.36900
C  8.91300 0.68400 26.44300
C  9.65300 -0.30800 27.16000
C  9.59100 0.13100 28.54700
C  8.81000 1.28200 28.56900
C  10.44000 -1.46100 26.54500
C  10.02900 -0.25100 29.82900
O  10.61600 -1.23700 30.24100
C  9.47100 0.85200 30.78300
C  8.55800 0.06400 31.65000
O  7.57900 -0.53300 31.33400
O  9.06100 0.10800 32.95000
C  8.35300 -0.54300 33.95900
H  5.09800 6.23000 30.00000
H  5.17700 4.86000 23.55900
H  9.12900 0.08100 24.47300
H  7.11600 2.54700 32.21500
H  6.98300 5.54000 31.90000
H  5.24400 3.24100 32.69200
H  4.39700 4.32600 31.64400
H  5.18100 4.93500 33.16800
H  9.28900 4.52300 31.65700
H  9.65400 3.05300 32.44500
H  7.74000 4.18900 34.09800
H  8.68600 5.54700 33.57100
H  3.89400 8.69200 27.57200
H  4.14600 7.96800 29.06800
H  2.76900 7.49600 28.31100
H  1.99100 8.35700 24.22100
H  3.01100 8.78900 25.57100
H  1.67700 7.73100 25.85000
H  6.95900 3.65000 22.16800
H  7.04700 0.85800 22.53400
H  4.39700 2.36800 23.00500
H  5.05500 1.44100 21.60700
H  4.63300 3.12500 21.49900
H  9.61300 2.15700 22.73000
H  8.73900 2.76700 21.39500
H  8.55600 -0.15800 21.35200
H  10.18100 0.30100 21.75200
H  9.43200 0.96400 20.31000
H  9.70300 -2.10500 26.06400
H  10.85600 -1.92100 27.44100
H  11.15000 -1.00300 25.85700
H  10.31400 1.28100 31.32500
H  7.62300 0.18600 34.31100
H  9.08900 -0.69200 34.75000
H  7.82100 -1.45300 33.68500
Mg 29.26100 57.73300 41.31800
C  26.70300 55.70700 40.26100
C  31.46400 55.53900 40.16900
C  31.72700 60.15800 41.67700
C  26.89300 60.28300 42.13900
N  29.06500 55.78600 40.42800
C  27.93900 55.14600 40.04600
C  28.23600 53.83400 39.30000
C  29.79000 53.66100 39.71600
C  30.19600 55.07500 40.10200
C  29.98600 52.70500 40.99100
C  28.01600 53.79100 37.83100
C  28.49000 55.00600 37.01600
H  27.75300 55.25000 35.59000
N  31.27600 57.77300 40.92800
C  32.02400 56.73000 40.46800
C  33.44500 57.09500 40.45100
C  33.55600 58.41900 40.91500
C  32.13900 58.85100 41.18400
C  34.49500 56.08200 40.06000
C  34.90900 59.18100 41.11100
O  35.99500 58.70400 40.79600
C  34.98700 60.52800 41.68600
N  29.33100 59.95500 41.81900
C  30.45400 60.66000 42.01700
C  30.09700 62.11700 42.33200
C  28.57500 62.12200 42.56000
C  28.25400 60.62700 42.31400
C  30.93000 62.67000 43.54000
C  27.76200 63.13000 41.68900
C  26.58100 63.74900 42.44100
N  27.22600 57.99000 41.27400
C  26.41300 59.03500 41.65300
C  25.05800 58.55400 41.57300
C  25.14100 57.32800 41.02000
C  26.45700 57.00000 40.80200
C  23.82700 59.29700 41.94000
C  24.30900 56.22100 40.51200
O  23.11200 56.11200 40.40900
C  25.28400 55.12900 40.00300
C  24.98000 53.89500 40.88400
O  25.23600 53.88100 42.09400
O  24.64300 52.76400 40.17600
C  24.62000 51.50900 40.97000
H  32.22000 54.76400 40.03000
H  32.53400 60.86700 41.87400
H  26.05200 60.97100 42.24300
H  27.65900 53.03200 39.76000
H  30.35400 53.17900 38.91800
H  29.15300 52.07000 41.29100
H  30.40700 53.29300 41.80700
H  30.81200 52.05500 40.70100
H  26.95600 53.64800 37.62100
H  28.64400 53.02400 37.37800
H  29.56400 54.89900 36.86300
H  28.23500 55.85400 37.65200
H  34.13400 55.52200 39.19700
H  34.64400 55.35400 40.85800
H  35.44400 56.51200 39.74100
H  34.55300 61.27200 41.01800
H  35.98600 60.83800 41.99300
H  34.37200 60.62400 42.58000
H  30.28100 62.66200 41.40600
H  28.34900 62.32600 43.60700
H  31.52300 61.92300 44.06900
H  30.46600 63.24600 44.34100
H  31.60000 63.38500 43.06400
H  27.44300 62.65200 40.76300
H  28.45600 63.93600 41.45200
H  25.64500 63.25500 42.18200
H  26.45200 64.82500 42.32300
H  26.69100 63.63000 43.51900
H  23.83600 60.16000 41.27500
H  24.01500 59.70900 42.93100
H  22.93900 58.66600 41.89900
H  25.12000 54.88900 38.95200
H  24.14100 51.63300 41.94100
H  25.62400 51.11000 41.11400
H  24.04800 50.75300 40.43100

