158

Mg 25.35400 1.56500 29.24800
C  27.39300 1.03800 31.97200
C  22.59500 1.72200 31.47400
C  23.26900 1.67200 26.58200
C  28.00800 0.92200 27.09700
N  25.08900 1.38700 31.44800
C  26.10800 1.33600 32.38600
C  25.60900 1.48100 33.85900
C  24.01700 1.43100 33.58200
C  23.86400 1.57900 32.06700
C  23.45000 0.08300 34.13100
C  26.25900 2.57900 34.71200
C  26.46300 2.21900 36.21500
H  26.19800 3.36700 37.26000
N  23.24400 1.68100 29.05000
C  22.26500 1.69800 30.06700
C  20.96900 1.79400 29.51900
C  21.12600 1.61100 28.09400
C  22.59800 1.65200 27.87500
C  19.79700 1.94900 30.33500
C  20.07100 1.39400 27.01100
O  20.34700 1.34900 25.76900
C  18.55800 1.16200 27.45200
N  25.58100 1.43900 27.14100
C  24.60500 1.61500 26.27300
C  25.06000 1.53500 24.81400
C  26.66900 1.51100 24.98600
C  26.77000 1.31600 26.52300
C  24.65900 0.29700 24.02100
C  27.22000 2.83500 24.44000
C  26.88700 4.01700 25.33900
N  27.28900 1.00300 29.44500
C  28.29700 0.77000 28.47400
C  29.61300 0.42400 29.17000
C  29.32500 0.62600 30.56300
C  27.89800 0.94300 30.66700
C  30.99700 0.14300 28.58900
C  29.84100 0.53900 31.97000
O  30.97500 0.33700 32.34300
C  28.64700 0.88100 32.90900
C  28.53900 -0.23800 33.95200
O  27.94500 -1.29700 33.81200
O  29.08900 0.19500 35.16400
C  28.94000 -0.72700 36.28600
H  21.88700 1.91900 32.28100
H  22.58400 1.80100 25.74200
H  28.86300 0.79700 26.43000
H  25.87600 0.51600 34.29000
H  23.49500 2.30000 33.98200
H  22.58300 0.40500 34.70900
H  24.02500 -0.63300 34.71800
H  23.09000 -0.41300 33.23000
H  25.62700 3.46200 34.80300
H  27.14900 2.98500 34.23300
H  27.51900 1.94800 36.17900
H  25.99200 1.26900 36.46700
H  20.04800 2.44400 31.27300
H  19.43300 1.03400 30.80200
H  18.90000 2.38200 29.89400
H  18.58100 0.61700 28.39500
H  18.02100 0.72000 26.61200
H  18.15600 2.16700 27.58000
H  24.72300 2.39100 24.23000
H  27.14400 0.63100 24.55200
H  25.52700 -0.21600 23.60700
H  24.07900 0.65900 23.17100
H  24.07700 -0.38100 24.64400
H  26.63800 3.14200 23.57100
H  28.25500 2.86400 24.10100
H  26.80300 3.86100 26.41500
H  26.00600 4.58300 25.03600
H  27.77600 4.64500 25.27600
H  31.22800 0.66700 27.66100
H  30.97400 -0.93900 28.45900
H  31.73400 0.40000 29.34900
H  29.14000 1.76400 33.31400
H  28.03900 -0.40500 36.80800
H  29.76700 -0.53900 36.97100
H  28.94800 -1.77600 35.99100
Mg 42.70200 41.30800 26.19000
C  41.61700 43.74300 28.58600
C  43.69500 39.35600 28.72400
C  43.89500 39.17400 23.82800
C  42.38300 43.88700 23.83300
N  42.82100 41.59900 28.47000
C  42.18700 42.61800 29.22800
C  42.09200 42.22400 30.73200
C  42.79200 40.82800 30.74300
C  43.19900 40.57300 29.21500
C  43.92600 40.43500 31.68000
C  40.69900 42.15800 31.26600
C  40.35200 43.10400 32.42900
H  39.82100 42.41900 33.69600
N  43.61100 39.48700 26.25600
C  43.86100 38.84200 27.36700
C  44.40600 37.54500 27.02400
C  44.46200 37.43200 25.62700
C  44.00200 38.76600 25.15200
C  44.84300 36.50100 28.03300
C  45.01900 36.35300 24.71800
O  45.05400 36.42600 23.47600
C  45.37300 35.00400 25.31400
N  43.21700 41.53100 24.16400
C  43.56800 40.43500 23.38800
C  43.58100 40.79000 21.87900
C  42.85000 42.18400 21.90500
C  42.76400 42.58700 23.39100
C  45.00600 40.87000 21.30500
C  41.42300 42.15200 21.15200
C  40.19500 41.55800 21.85500
N  42.20000 43.46100 26.18700
C  42.03100 44.26800 25.11400
C  41.43800 45.53900 25.48500
C  41.26200 45.38500 26.89800
C  41.66300 44.07700 27.24200
C  41.20800 46.64600 24.55200
C  40.74000 45.96500 28.12300
O  40.09200 47.00800 28.28100
C  40.95900 44.89600 29.27600
C  41.87300 45.56500 30.22300
O  43.11800 45.56300 30.16100
O  41.10600 46.10200 31.23300
C  41.76000 46.74000 32.41300
H  43.96800 38.66800 29.52700
H  43.94600 38.42000 23.04000
H  42.18200 44.60500 23.03600
H  42.72300 42.86900 31.34400
H  42.09500 39.99100 30.78100
H  44.81300 40.11900 31.13000
H  43.76700 39.56100 32.31200
H  44.00500 41.24400 32.40600
H  40.44100 41.13400 31.53500
H  40.12500 42.41100 30.37400
H  39.69300 43.94100 32.19800
H  41.32900 43.52600 32.66600
H  44.64500 36.69700 29.08700
H  45.92000 36.34200 27.97900
H  44.53000 35.47500 27.84300
H  46.11800 35.18800 26.08800
H  45.90300 34.41600 24.56400
H  44.44500 34.52500 25.62400
H  43.10500 40.00900 21.28600
H  43.44400 42.98500 21.46500
H  45.74800 40.38900 21.94300
H  45.42100 41.79800 20.91300
H  44.92300 40.21400 20.43800
H  41.50900 41.58900 20.22300
H  41.00800 43.12900 20.90400
H  40.33800 40.94400 22.74400
H  39.64600 40.92600 21.15700
H  39.68400 42.44200 22.23800
H  42.24300 46.89500 24.31600
H  40.51400 47.39200 24.93800
H  40.81800 46.33700 23.58200
H  39.98000 44.78700 29.74100
H  41.63900 46.02700 33.22800
H  41.20300 47.63800 32.68200
H  42.83300 46.92500 32.36200

