158

Mg 25.24100 1.23700 30.01400
C  27.26600 1.17400 32.76400
C  22.54800 1.53800 31.99400
C  23.44700 1.19400 27.16700
C  28.11100 0.51900 28.09300
N  24.96500 1.32800 32.18200
C  25.90400 1.45000 33.12400
C  25.33500 1.60900 34.54700
C  23.74500 1.64600 34.29600
C  23.72100 1.39700 32.76900
C  22.86900 0.60700 35.13300
C  25.91200 2.79600 35.39000
C  26.42400 2.53200 36.83000
H  26.10600 3.46400 37.98500
N  23.21600 1.18200 29.59300
C  22.27300 1.38900 30.56900
C  20.97800 1.49900 29.87300
C  21.22400 1.46100 28.50000
C  22.67100 1.21500 28.34900
C  19.67300 1.66800 30.65000
C  20.17300 1.51500 27.32200
O  20.46200 1.44100 26.10000
C  18.63200 1.55100 27.67500
N  25.71000 0.79400 27.87700
C  24.76200 0.97500 26.92400
C  25.37000 1.06100 25.52200
C  26.93100 0.79200 25.82400
C  26.91100 0.63800 27.34000
C  24.74000 0.11100 24.45200
C  27.95300 1.84400 25.20300
C  27.86500 3.22400 25.88800
N  27.22100 0.82100 30.34000
C  28.25300 0.56500 29.47900
C  29.49800 0.30400 30.22000
C  29.14400 0.54800 31.49500
C  27.76400 0.90400 31.52300
C  30.89100 -0.07400 29.63000
C  29.69200 0.63700 32.85600
O  30.77100 0.53800 33.33000
C  28.39600 0.99000 33.76900
C  28.18000 -0.10600 34.76200
O  27.58000 -1.14100 34.52100
O  28.61700 0.31300 36.00700
C  28.50200 -0.66800 37.09700
H  21.66300 1.58000 32.63200
H  22.80500 1.28900 26.28900
H  29.02200 0.31500 27.52600
H  25.61300 0.73500 35.13600
H  23.27900 2.62600 34.40400
H  22.38200 1.18500 35.91900
H  23.58300 -0.13500 35.49100
H  22.24900 0.06200 34.42200
H  25.15600 3.57900 35.44200
H  26.76200 3.17800 34.82400
H  27.50600 2.44000 36.93000
H  26.14100 1.50400 37.05400
H  19.76600 1.79800 31.72800
H  19.11600 0.73000 30.64600
H  19.09000 2.55200 30.39200
H  18.33000 0.63500 28.18400
H  18.14700 1.59500 26.70000
H  18.36000 2.47400 28.18600
H  25.26700 2.11000 25.24700
H  27.21900 -0.21100 25.50900
H  24.13700 0.65400 23.72400
H  24.05400 -0.59900 24.91300
H  25.53900 -0.31100 23.84300
H  27.74200 1.99600 24.14500
H  28.92100 1.38700 25.41300
H  27.73400 3.05300 26.95700
H  27.07900 3.84000 25.45100
H  28.87700 3.60100 25.74600
H  30.76600 -0.47900 28.62600
H  31.30400 -0.83000 30.29700
H  31.49100 0.83700 29.63900
H  28.59400 1.88400 34.36100
H  28.98100 -1.59500 36.78100
H  27.46700 -0.82200 37.40300
H  29.01700 -0.34000 38.00000
Mg -1.38400 34.90900 28.06500
C  -3.13500 33.05400 30.35500
C  0.24300 36.54800 30.84900
C  -0.16300 37.02800 25.94600
C  -3.31900 33.35500 25.51400
N  -1.60400 34.91100 30.36400
C  -2.32900 33.99000 31.06100
C  -1.88500 33.91400 32.51200
C  -1.04500 35.21200 32.70000
C  -0.74900 35.58500 31.22100
C  -1.79100 36.33300 33.45700
C  -1.18300 32.55400 32.82700
C  -1.79400 31.56000 33.90400
H  -1.13700 31.44800 35.25200
N  -0.01200 36.46000 28.35500
C  0.57400 36.92600 29.50800
C  1.51000 37.95400 29.13100
C  1.36200 38.20500 27.68600
C  0.30900 37.26100 27.26600
C  2.53500 38.54000 30.11200
C  2.04300 39.22200 26.76800
O  1.77100 39.36100 25.59500
C  3.14900 40.10500 27.31500
N  -1.82100 35.26800 26.06800
C  -1.16900 36.20400 25.43600
C  -1.58900 36.20800 23.91200
C  -2.32700 34.92500 23.66800
C  -2.54100 34.51900 25.16400
C  -2.29800 37.43200 23.41100
C  -1.58300 33.82000 22.82300
C  -1.22600 34.25900 21.41200
N  -2.82000 33.46500 27.90500
C  -3.50800 32.88900 26.80000
C  -4.29600 31.76000 27.17800
C  -4.14400 31.83100 28.55800
C  -3.32000 32.86700 28.94700
C  -5.09400 30.84900 26.29800
C  -4.61800 31.15500 29.77400
O  -5.42700 30.22900 29.96600
C  -4.07400 32.00400 30.95500
C  -5.32200 32.40100 31.68500
O  -6.25900 33.09700 31.22400
O  -5.23000 31.98600 32.95500
C  -6.31100 32.42100 33.95400
H  0.79300 36.93600 31.70900
H  0.26500 37.55800 25.09300
H  -3.89000 32.83200 24.74400
H  -2.82700 33.98000 33.05600
H  -0.06900 35.03800 33.15400
H  -1.69400 36.21600 34.53600
H  -2.86200 36.29600 33.26000
H  -1.42900 37.30900 33.13300
H  -0.14900 32.66500 33.15400
H  -1.04300 31.99000 31.90500
H  -1.83800 30.53800 33.52600
H  -2.85000 31.74900 34.09600
H  3.52900 38.42800 29.67700
H  2.45700 38.10400 31.10800
H  2.46500 39.62300 30.21300
H  2.83000 40.74400 28.13800
H  3.55300 40.66900 26.47400
H  3.96400 39.52900 27.75400
H  -0.69300 36.06400 23.30900
H  -3.29500 35.02200 23.17700
H  -2.08600 38.32900 23.99200
H  -3.36100 37.28200 23.22400
H  -1.93500 37.71100 22.42200
H  -1.89800 32.78200 22.92700
H  -0.63900 33.74000 23.36400
H  -1.98100 33.68100 20.87900
H  -0.20600 34.03700 21.09800
H  -1.49300 35.31500 21.37900
H  -6.02400 31.23100 25.87600
H  -5.32100 29.89700 26.77800
H  -4.50700 30.67300 25.39600
H  -3.56400 31.25500 31.56000
H  -5.75900 32.89600 34.76500
H  -6.79200 31.46300 34.15300
H  -7.07000 33.07200 33.52000

