158

Mg 40.69300 10.57900 30.04500
C  42.83400 12.01500 32.56100
C  38.97900 9.05900 32.64900
C  38.87100 9.01300 27.80900
C  43.18500 11.25800 27.76400
N  41.05600 10.53100 32.39500
C  41.77400 11.32700 33.17800
C  41.42900 11.19800 34.64000
C  40.23600 10.15900 34.66800
C  40.08500 9.86500 33.16700
C  40.54900 8.89500 35.48000
C  41.18400 12.60200 35.31300
C  41.54800 12.63300 36.82000
H  40.47300 13.20000 37.75000
N  39.07900 9.37500 30.19100
C  38.53500 8.82500 31.33500
C  37.39700 8.02200 31.02700
C  37.22000 8.07000 29.59200
C  38.39400 8.89800 29.13300
C  36.60600 7.15700 31.97600
C  36.22500 7.45600 28.66100
O  36.29600 7.58600 27.42100
C  35.13700 6.64500 29.21400
N  41.02000 10.10600 28.04000
C  40.06000 9.48500 27.29400
C  40.56000 9.35000 25.84000
C  41.99700 9.96000 25.91100
C  42.07700 10.48100 27.32400
C  40.50000 7.96400 25.22400
C  42.27300 11.11200 24.81300
C  41.74400 12.53300 25.14700
N  42.51300 11.56500 30.09000
C  43.36700 11.79000 29.04700
C  44.48100 12.56600 29.50600
C  44.30600 12.77300 30.88300
C  43.13400 12.03100 31.15100
C  45.64900 12.96300 28.63300
C  44.88200 13.27500 32.06300
O  45.99000 13.72900 32.27100
C  43.81700 12.96900 33.25900
C  44.51800 12.23200 34.40600
O  44.97900 11.06500 34.42700
O  44.73200 13.10700 35.48200
C  45.50700 12.66200 36.65700
H  38.35200 8.64700 33.44300
H  38.28300 8.48100 27.05900
H  44.06200 11.30000 27.11500
H  42.34500 10.78400 35.06200
H  39.37900 10.71900 35.04200
H  40.50600 8.06600 34.77400
H  39.80300 8.76500 36.26500
H  41.52800 8.97400 35.95200
H  40.14600 12.86600 35.11300
H  41.70800 13.47600 34.92700
H  42.46000 13.21000 36.97400
H  41.84500 11.64300 37.16600
H  36.77100 6.13500 31.63300
H  35.52400 7.26500 31.91300
H  36.92900 7.23800 33.01400
H  34.44400 6.31300 28.44200
H  34.52200 7.32600 29.80300
H  35.50200 5.79100 29.78400
H  39.91500 9.99700 25.24400
H  42.81900 9.26700 25.73300
H  39.83600 8.02400 24.36100
H  40.26200 7.16000 25.92000
H  41.46800 7.75400 24.77000
H  41.74800 10.83100 23.90000
H  43.35900 11.02100 24.81100
H  41.27200 12.95100 24.25800
H  42.47900 13.23000 25.54800
H  41.00800 12.49800 25.95000
H  46.45300 13.11300 29.35300
H  45.34000 13.83100 28.05000
H  45.99800 12.07800 28.10100
H  43.37500 13.90900 33.59000
H  44.97100 12.78100 37.59900
H  46.37800 13.31700 36.66900
H  45.86000 11.64200 36.50200
Mg -6.23600 25.37500 25.68400
C  -4.80100 26.45000 28.62500
C  -8.30300 23.29800 27.48100
C  -7.27700 24.00700 22.81800
C  -3.68400 27.01700 23.93000
N  -6.37900 24.79000 27.74200
C  -5.78500 25.46000 28.81400
C  -6.44700 25.18900 30.18700
C  -7.19800 23.89400 29.81400
C  -7.37100 23.98100 28.25900
C  -6.63300 22.56700 30.19900
C  -7.40700 26.28800 30.77600
C  -7.62500 26.28000 32.31400
H  -6.84500 25.26800 33.19000
N  -7.61900 24.03600 25.22300
C  -8.47700 23.34800 26.10000
C  -9.55100 22.72400 25.35900
C  -9.15500 22.76600 23.98100
C  -8.00900 23.62200 23.97600
C  -10.75100 21.99800 25.98800
C  -9.87400 22.05300 22.79600
O  -9.44800 22.14300 21.63700
C  -11.02500 21.14300 23.04800
N  -5.58500 25.48800 23.64900
C  -6.12000 24.79000 22.63800
C  -5.40000 25.04100 21.27700
C  -4.35100 26.11800 21.65400
C  -4.54100 26.23900 23.18300
C  -4.90900 23.83500 20.43300
C  -4.59900 27.53300 21.02800
C  -3.67800 27.79000 19.86600
N  -4.51800 26.45500 26.14300
C  -3.61800 27.07100 25.31000
C  -2.70100 27.82800 26.08800
C  -3.17200 27.76400 27.45100
C  -4.23500 26.87600 27.40600
C  -1.54900 28.66900 25.60800
C  -2.93700 28.19700 28.75900
O  -2.15600 29.04800 29.20500
C  -3.96000 27.31900 29.65100
C  -3.23400 26.53900 30.67300
O  -2.65400 25.52600 30.37900
O  -3.14900 27.17500 31.87900
C  -2.14300 26.72500 32.86800
H  -9.15900 23.01600 28.09800
H  -7.69800 23.59500 21.89800
H  -2.88400 27.64100 23.52600
H  -5.56100 25.09800 30.81500
H  -8.18400 23.83000 30.27400
H  -6.28100 21.98400 29.34700
H  -7.34900 21.90400 30.68400
H  -5.83900 22.64200 30.94200
H  -8.40600 26.31000 30.34100
H  -6.98000 27.27400 30.59500
H  -8.66900 26.23400 32.62500
H  -7.29600 27.27000 32.62800
H  -10.80200 20.92600 25.79500
H  -11.65600 22.40600 25.53700
H  -10.90400 22.25800 27.03500
H  -11.49700 20.63300 22.20800
H  -11.83500 21.77300 23.41400
H  -10.76500 20.31900 23.71200
H  -6.05800 25.48500 20.53000
H  -3.36200 25.69000 21.49100
H  -5.44900 23.65100 19.50400
H  -4.95100 22.88100 20.95800
H  -3.85700 23.97300 20.18300
H  -4.36500 28.28500 21.78200
H  -5.64100 27.74800 20.79300
H  -4.34500 27.94100 19.01800
H  -2.94900 27.02900 19.59100
H  -2.97600 28.60800 20.03300
H  -1.88400 29.66400 25.31400
H  -0.99700 28.23900 24.77300
H  -0.88900 28.91200 26.44100
H  -4.69900 27.92500 30.17500
H  -2.52300 25.96500 33.55100
H  -1.92200 27.54500 33.55100
H  -1.26500 26.29500 32.38700

