158

Mg 6.69300 53.86600 40.22200
C  6.39000 50.45300 39.84800
C  9.94900 53.63100 38.84900
C  6.89700 57.24300 39.91400
C  3.25700 54.02200 40.70600
N  7.93800 52.25600 39.18300
C  7.64400 50.92000 39.34800
C  8.83000 50.00300 39.00800
C  10.03300 51.06300 39.01600
C  9.26100 52.41700 38.94700
C  10.99000 50.93300 40.21600
C  8.74900 49.20300 37.65400
C  8.10400 49.99000 36.42400
H  7.13800 49.47600 35.44500
N  8.26900 55.22400 39.49200
C  9.53200 54.96800 39.04300
C  10.26800 56.13500 38.94200
C  9.40800 57.26700 39.18600
C  8.12400 56.60700 39.60700
C  11.76300 56.17400 38.70900
C  9.70700 58.69900 39.21000
O  10.83500 59.04300 38.89100
C  8.69800 59.73400 39.77000
N  5.24200 55.42100 40.13700
C  5.62000 56.75200 40.20600
C  4.38700 57.64300 40.46000
C  3.22800 56.57200 40.64500
C  3.88400 55.21200 40.41400
C  4.57600 58.59200 41.73700
C  1.96900 56.81600 39.76600
C  1.61000 58.30800 39.30100
N  5.12400 52.55400 40.42200
C  3.80300 52.71800 40.71000
C  3.14700 51.42700 40.95500
C  4.13400 50.54600 40.64600
C  5.26200 51.21900 40.24700
C  1.65900 51.13100 41.21400
C  4.47700 49.10100 40.57300
O  3.72900 48.13500 40.89300
C  5.88000 49.01700 40.15600
C  5.80700 48.21800 38.98400
O  5.23300 48.62800 37.97400
O  6.53400 47.06000 39.06900
C  6.37400 46.09100 37.98600
H  11.01300 53.56100 38.61300
H  6.78200 58.31700 40.07400
H  2.18800 54.16700 40.87600
H  8.93900 49.27900 39.81500
H  10.65500 50.98900 38.12400
H  10.50100 50.34100 40.98900
H  11.24200 51.92000 40.60600
H  11.89400 50.33700 40.09500
H  8.31900 48.20200 37.70600
H  9.73600 49.17700 37.19100
H  8.85900 50.27800 35.69200
H  7.72500 50.91500 36.85700
H  12.02600 56.95900 38.00100
H  12.13200 55.25400 38.25500
H  12.28000 56.33400 39.65500
H  7.86600 59.88100 39.08000
H  9.26900 60.66100 39.81400
H  8.37000 59.51800 40.78700
H  4.20500 58.21000 39.54700
H  2.83000 56.63800 41.65800
H  3.59500 58.76900 42.17800
H  4.93400 59.56600 41.40400
H  5.22700 58.08200 42.44700
H  1.22900 56.54600 40.52000
H  1.97600 56.25700 38.83000
H  2.25700 58.56300 38.46100
H  1.74700 59.01800 40.11600
H  0.55400 58.27300 39.03300
H  1.58100 50.07300 41.46500
H  1.12300 51.29200 40.27900
H  1.21100 51.83300 41.91700
H  6.40300 48.34900 40.84000
H  7.19400 46.02900 37.27100
H  5.47900 46.34600 37.41800
H  6.27800 45.05100 38.29800
Mg 0.99600 42.93600 26.22400
C  2.65700 42.63500 29.41100
C  -2.07200 42.38600 27.80700
C  -0.29700 42.45400 23.22100
C  4.10900 43.39300 24.81800
N  0.37400 42.57000 28.32100
C  1.24100 42.56300 29.53100
C  0.36800 42.61200 30.78400
C  -1.02300 42.05100 30.13600
C  -0.92600 42.36500 28.63700
C  -1.44600 40.53200 30.20900
C  0.27300 44.07500 31.40200
C  0.73200 44.42300 32.79100
H  0.60000 43.31900 33.89100
N  -0.96500 42.70400 25.56700
C  -2.03500 42.53800 26.42400
C  -3.18400 42.33000 25.57200
C  -2.74100 42.26600 24.18300
C  -1.25100 42.40700 24.27200
C  -4.62200 42.30900 26.17200
C  -3.46500 41.96900 22.89100
O  -2.95200 41.93800 21.80500
C  -5.00000 41.76400 22.87600
N  1.77200 42.81600 24.31700
C  1.01200 42.82500 23.19400
C  1.91800 42.97000 21.88200
C  3.24900 43.56900 22.51500
C  3.00300 43.28900 23.99400
C  1.94000 41.62800 20.97600
C  3.24600 45.15400 22.32100
C  3.38700 45.71900 20.90200
N  3.01100 42.99400 26.90200
C  4.19500 43.23600 26.21700
C  5.30100 43.41600 27.17800
C  4.70600 43.14700 28.38400
C  3.34300 42.84900 28.23100
C  6.72800 43.65700 26.93000
C  5.04600 42.95000 29.82800
O  6.11400 42.96600 30.40300
C  3.66800 42.81400 30.51600
C  3.76600 41.64600 31.41200
O  3.46500 40.50400 31.04400
O  4.12800 42.05400 32.66500
C  4.27700 40.97600 33.61500
H  -3.06500 42.29300 28.25200
H  -0.70000 42.39700 22.20700
H  5.06600 43.60700 24.33800
H  0.68100 41.91500 31.56100
H  -1.91500 42.56700 30.49200
H  -2.46600 40.55100 30.59500
H  -0.86600 40.13600 31.04200
H  -1.22000 40.03800 29.26300
H  -0.70000 44.53400 31.23200
H  0.92000 44.67300 30.75900
H  -0.05100 45.09900 33.13600
H  1.75400 44.79800 32.84200
H  -5.50600 42.27900 25.53600
H  -4.67700 43.24500 26.72700
H  -4.78600 41.48600 26.86800
H  -5.26100 41.65000 21.82400
H  -5.32500 42.70200 23.32500
H  -5.35400 40.86400 23.37800
H  1.60300 43.80600 21.25800
H  4.14600 43.13700 22.07100
H  1.06900 41.04200 21.26900
H  2.76500 40.91600 20.95100
H  1.78800 41.94800 19.94500
H  4.03200 45.63900 22.90100
H  2.28400 45.51400 22.68600
H  3.49100 44.86400 20.23300
H  4.25400 46.37900 20.89000
H  2.52100 46.27600 20.54600
H  7.28600 43.14400 27.71300
H  6.99300 44.71000 27.03300
H  7.05000 43.30700 25.94900
H  3.46700 43.77500 30.98900
H  5.14500 40.36100 33.37700
H  3.41600 40.30800 33.63900
H  4.49300 41.42000 34.58700

