158

Mg 1.09500 -0.93600 43.76600
C  4.49900 -0.44000 43.08100
C  0.19800 1.66900 41.83700
C  -2.20100 -2.15700 43.66000
C  1.96000 -4.05000 45.11800
N  2.26400 0.26800 42.28400
C  3.63100 0.42800 42.31100
C  3.98600 1.66600 41.57700
C  2.59300 2.45700 41.55300
C  1.58300 1.41200 41.89000
C  2.44400 3.68400 42.39400
C  4.83000 1.48900 40.26700
C  6.23400 2.16600 40.09100
H  6.49000 2.96500 38.80100
N  -0.75300 -0.25500 43.01200
C  -0.83800 0.82200 42.11900
C  -2.15400 1.06700 41.89300
C  -2.93200 0.00300 42.42600
C  -1.98500 -0.86200 43.08900
C  -2.62300 2.37800 41.20700
C  -4.46500 -0.03700 42.42000
O  -5.10900 0.89700 41.94900
C  -5.19400 -1.22100 42.92700
N  0.02200 -2.83000 44.23000
C  -1.30300 -3.04900 44.21600
C  -1.73700 -4.46400 44.77600
C  -0.40600 -4.92700 45.38600
C  0.57800 -3.90200 44.84200
C  -3.04300 -4.61400 45.57600
C  -0.09500 -6.39800 45.00400
C  -0.26300 -7.35700 46.20700
N  2.85200 -2.05600 44.12200
C  3.02100 -3.23000 44.77600
C  4.42600 -3.44100 45.02000
C  5.06000 -2.38000 44.27600
C  4.06900 -1.54200 43.78800
C  5.17000 -4.53700 45.69900
C  6.32700 -1.75000 43.96700
O  7.46100 -2.07000 44.27400
C  6.02700 -0.49900 43.13200
C  6.62100 0.76400 43.69300
O  6.24400 1.17800 44.81500
O  7.67500 1.30600 42.99100
C  8.48500 2.24100 43.79100
H  0.02300 2.67700 41.45500
H  -3.19700 -2.60600 43.66100
H  2.27600 -4.90100 45.72600
H  4.63400 2.21700 42.25800
H  2.46100 2.71900 40.50400
H  3.30700 3.93000 43.01300
H  1.55000 3.72800 43.01500
H  2.45200 4.48600 41.65600
H  4.33700 1.94500 39.40800
H  4.91000 0.40600 40.16900
H  7.02000 1.41000 40.09100
H  6.45000 2.67100 41.03300
H  -1.92700 3.21100 41.10500
H  -3.44100 2.78500 41.80100
H  -2.92700 2.22400 40.17200
H  -5.09800 -1.34600 44.00600
H  -4.66000 -2.02100 42.41400
H  -6.23000 -1.25800 42.59100
H  -1.89700 -4.91900 43.79900
H  -0.40800 -4.71500 46.45600
H  -3.48600 -3.65200 45.83600
H  -2.79700 -4.96900 46.57700
H  -3.62600 -5.38100 45.06700
H  0.90100 -6.44400 44.56200
H  -0.70100 -6.75600 44.17200
H  -1.19300 -7.09700 46.71200
H  0.60100 -7.32500 46.87000
H  -0.40200 -8.36000 45.80200
H  4.64200 -4.81700 46.61100
H  6.15200 -4.14300 45.95900
H  5.18300 -5.39400 45.02600
H  6.35000 -0.79000 42.13300
H  7.92400 3.14500 44.02900
H  9.37600 2.45600 43.20100
H  8.91500 1.76400 44.67200
Mg 42.98500 41.64900 25.81300
C  42.24900 43.84900 28.32600
C  44.20300 39.51700 28.01800
C  43.89000 39.82700 23.10800
C  41.87500 44.17300 23.39300
N  43.28600 41.75100 27.92000
C  42.86500 42.70400 28.79400
C  42.92600 42.24800 30.25600
C  43.71700 40.85700 30.13600
C  43.75600 40.72000 28.59200
C  45.07600 40.79400 30.92800
C  41.52300 42.15800 30.90000
C  41.51700 41.54700 32.29600
H  41.00500 42.28100 33.55700
N  43.91400 39.91800 25.63200
C  44.27100 39.15900 26.67200
C  44.70400 37.83000 26.15800
C  44.56300 37.92100 24.75200
C  44.10500 39.29600 24.41000
C  45.10400 36.78400 27.10200
C  44.76900 36.77600 23.76700
O  44.58600 36.96600 22.56100
C  45.20800 35.43100 24.25800
N  42.81800 42.01700 23.54200
C  43.39200 41.04600 22.70200
C  43.33100 41.53000 21.21400
C  42.47100 42.85700 21.36200
C  42.37300 43.03300 22.87600
C  44.77500 41.81000 20.57300
C  41.02000 42.72500 20.72600
C  40.08200 41.69900 21.48200
N  42.29600 43.65500 25.80600
C  41.79200 44.49600 24.78900
C  41.32100 45.73700 25.38900
C  41.44900 45.56100 26.80400
C  42.03300 44.26600 26.97000
C  40.80900 46.90500 24.60600
C  41.25900 46.10700 28.09200
O  40.84600 47.21500 28.40700
C  41.85200 45.04800 29.15300
C  42.88600 45.64900 29.94200
O  43.89400 46.23100 29.57300
O  42.52100 45.37600 31.26700
C  43.50500 45.82200 32.35000
H  44.47700 38.77200 28.76700
H  44.13700 39.18600 22.25900
H  41.52200 44.98100 22.74800
H  43.52600 42.94700 30.83800
H  43.10700 40.03400 30.50800
H  45.28300 41.72600 31.45400
H  45.83600 40.52800 30.19400
H  44.97200 40.01800 31.68600
H  40.83600 41.60200 30.26200
H  41.08600 43.11700 31.18100
H  42.50500 41.14300 32.51700
H  40.88900 40.65700 32.28200
H  45.30000 37.12400 28.11900
H  46.05700 36.37700 26.76400
H  44.48100 35.89000 27.06600
H  44.44500 34.95000 24.87000
H  46.14400 35.60200 24.78800
H  45.33100 34.78100 23.39100
H  42.90600 40.78800 20.53800
H  42.97100 43.76400 21.02000
H  44.98000 42.88100 20.55600
H  44.81700 41.32900 19.59600
H  45.51700 41.32700 21.20900
H  41.14100 42.51600 19.66300
H  40.51500 43.69100 20.71000
H  39.31300 42.24000 22.03200
H  40.59600 41.07700 22.21600
H  39.60400 41.06800 20.73300
H  40.25700 46.62400 23.70900
H  41.64200 47.52500 24.27400
H  40.11900 47.47200 25.23200
H  40.91800 44.81400 29.66300
H  44.42000 46.32900 32.04100
H  43.89300 44.87400 32.72200
H  42.97600 46.39400 33.11200

