158

Mg 43.53500 2.99100 46.77200
C  42.88700 6.24900 45.52700
C  40.32100 2.18200 45.88000
C  44.34700 -0.26200 47.44500
C  47.01800 3.93200 47.04100
N  41.88900 4.02100 45.75000
C  41.81400 5.37300 45.43400
C  40.37500 5.79900 44.94800
C  39.60500 4.49300 45.19000
C  40.65000 3.55600 45.75100
C  38.32900 4.67100 46.02800
C  40.49400 6.12400 43.45100
C  39.73800 7.30500 42.93100
H  38.73500 7.09900 41.73800
N  42.53900 1.16300 46.72000
C  41.21700 1.05700 46.28500
C  40.88200 -0.31800 46.26400
C  41.94800 -1.08300 46.69700
C  43.01500 -0.08900 47.03300
C  39.70100 -0.88400 45.57100
C  42.02000 -2.57500 46.76000
O  40.98500 -3.18900 46.60000
C  43.25400 -3.22700 47.10500
N  45.34900 2.00100 47.16000
C  45.39200 0.63500 47.52500
C  46.69800 0.27900 48.13100
C  47.62600 1.53700 47.84000
C  46.63300 2.60000 47.35500
C  46.59500 -0.06700 49.64100
C  48.81300 1.24900 46.88400
C  48.65200 0.44200 45.59600
N  44.79100 4.70500 46.36700
C  46.12200 4.91500 46.51400
C  46.35800 6.33000 46.15400
C  45.10900 6.92700 45.91400
C  44.21400 5.88400 45.96700
C  47.69600 6.99400 45.97900
C  44.47700 8.19700 45.58200
O  44.96600 9.28900 45.40100
C  42.98800 7.76200 45.27700
C  42.13900 8.49000 46.25900
O  41.90300 8.09700 47.37300
O  41.74800 9.67100 45.73500
C  40.79700 10.44300 46.51300
H  39.26600 1.93900 45.74000
H  44.88300 -1.20400 47.57300
H  48.04700 4.29400 47.07600
H  40.02100 6.67000 45.49900
H  39.25100 4.11700 44.23100
H  37.45200 4.79100 45.39200
H  38.32600 5.53600 46.69000
H  38.12800 3.78000 46.62300
H  40.08900 5.31500 42.84300
H  41.54000 6.29700 43.19900
H  40.45800 8.07000 42.63900
H  39.09600 7.78600 43.66900
H  38.96900 -1.36100 46.22400
H  39.98900 -1.50100 44.71900
H  39.02900 -0.11300 45.19300
H  43.30100 -3.17600 48.19300
H  44.07800 -2.78400 46.54600
H  43.24700 -4.25200 46.73300
H  47.11200 -0.59600 47.63000
H  48.00700 1.93300 48.78100
H  45.62700 0.23700 50.03900
H  47.40900 0.45200 50.14600
H  46.76700 -1.13800 49.75600
H  49.66900 0.85900 47.43400
H  49.11100 2.25900 46.60200
H  49.11500 0.87400 44.70800
H  47.59300 0.58800 45.38200
H  49.05200 -0.56100 45.74100
H  48.29500 6.82900 46.87400
H  47.56900 8.05400 45.75700
H  48.22200 6.60800 45.10600
H  42.82300 8.11300 44.25800
H  41.23200 11.09200 47.27300
H  40.06900 9.78300 46.98600
H  40.16400 11.00500 45.82700
Mg 40.62300 8.20300 28.99700
C  42.47500 9.51900 31.82400
C  38.40700 6.81700 31.07900
C  39.47300 6.28100 26.38500
C  43.33300 9.16400 26.92000
N  40.52300 8.14800 31.15700
C  41.28300 8.83700 32.14300
C  40.59800 8.72000 33.57600
C  39.43600 7.70300 33.23600
C  39.45600 7.46800 31.74900
C  39.52900 6.47400 34.05900
C  40.08900 10.12900 34.00500
C  39.89500 10.39200 35.54600
H  40.75200 11.39600 36.25300
N  39.00900 6.93700 28.68900
C  38.17800 6.49600 29.71900
C  37.13100 5.72400 29.12500
C  37.36800 5.73600 27.74800
C  38.63200 6.37900 27.50600
C  36.00600 4.98800 29.97400
C  36.55400 5.14300 26.57200
O  36.96900 5.17500 25.42800
C  35.15700 4.61900 26.87100
N  41.29300 7.77600 26.95100
C  40.70400 6.96500 26.12000
C  41.50300 6.78800 24.86000
C  42.50800 7.97600 24.86400
C  42.37800 8.38800 26.35100
C  42.25300 5.37100 24.85200
C  42.12700 9.15700 23.94200
C  41.32100 10.43800 24.46900
N  42.52900 9.16500 29.25500
C  43.45700 9.57900 28.30400
C  44.45800 10.38200 29.00400
C  44.13300 10.36900 30.38500
C  42.91800 9.65200 30.45000
C  45.69000 10.94900 28.28400
C  44.53600 10.83300 31.63500
O  45.49900 11.44600 32.02000
C  43.47500 10.29200 32.67600
C  44.05700 9.49300 33.76500
O  45.17200 8.95100 33.80800
O  43.31400 9.58300 34.90300
C  43.96500 9.10900 36.18000
H  37.71700 6.36700 31.79600
H  39.24000 5.75600 25.45600
H  44.20600 9.49600 26.35500
H  41.31200 8.32900 34.30100
H  38.48400 8.15300 33.51600
H  40.45600 6.41600 34.62900
H  39.44700 5.59100 33.42600
H  38.76100 6.52800 34.83000
H  39.13900 10.14400 33.47000
H  40.62800 10.92000 33.48400
H  39.89600 9.42000 36.04000
H  38.89600 10.82900 35.53000
H  35.04200 5.03700 29.46700
H  35.85000 5.33100 30.99700
H  36.20400 3.91700 29.99600
H  35.09500 3.88500 27.67500
H  34.67700 4.10400 26.03800
H  34.61200 5.51100 27.18000
H  40.86300 6.82600 23.97900
H  43.54700 7.71600 24.65900
H  41.78000 4.67700 25.54600
H  43.31000 5.45100 25.10400
H  42.21800 4.89200 23.87400
H  41.70000 8.87700 22.97900
H  43.14600 9.46200 23.70400
H  41.66500 11.35400 23.98700
H  41.62500 10.64600 25.49500
H  40.24600 10.41600 24.28800
H  45.52800 11.24300 27.24700
H  46.56600 10.30300 28.34400
H  45.96700 11.80200 28.90400
H  42.97300 11.15700 33.11000
H  44.25800 8.07900 35.97900
H  43.27400 9.19600 37.01900
H  44.79900 9.73300 36.50100

