158

Mg 47.10600 15.90100 28.60200
C  44.80500 15.77300 31.31500
C  49.12600 17.81500 30.74100
C  48.92800 16.71000 25.89700
C  44.53600 14.72000 26.52800
N  46.83700 16.89100 30.71600
C  45.95900 16.49300 31.66500
C  46.38600 16.85600 33.11900
C  47.58700 17.82300 32.75900
C  47.93600 17.46900 31.30100
C  47.36300 19.36500 32.86300
C  46.86400 15.55300 33.83200
C  46.63600 15.59800 35.36000
H  46.37900 16.98100 35.96700
N  48.87100 16.95700 28.38100
C  49.54700 17.72100 29.33500
C  50.77200 18.20700 28.79100
C  50.75900 17.88200 27.38000
C  49.56100 17.05200 27.13500
C  51.69900 19.13600 29.65500
C  51.67500 18.30600 26.28800
O  51.76100 17.76000 25.19900
C  52.80000 19.24400 26.63200
N  46.81200 15.59900 26.47300
C  47.69700 16.15400 25.58500
C  47.12400 15.97200 24.09400
C  45.79000 15.29700 24.30100
C  45.70200 15.09400 25.86600
C  47.04000 17.34300 23.46300
C  45.61900 14.00200 23.51100
C  46.20400 12.69300 23.98400
N  45.20100 15.15700 28.89200
C  44.29900 14.73200 27.91400
C  43.02900 14.39500 28.59800
C  43.21500 14.71500 29.94300
C  44.54500 15.22300 30.10400
C  41.74500 13.94700 28.02500
C  42.54100 14.84400 31.32900
O  41.39500 14.62800 31.65300
C  43.61500 15.49500 32.23200
C  43.06300 16.69500 32.92100
O  42.74700 17.76900 32.43200
O  42.96600 16.27500 34.31100
C  42.43600 17.33000 35.16000
H  49.82200 18.26000 31.45600
H  49.51400 16.96100 25.01000
H  43.67800 14.59500 25.86400
H  45.47700 17.25300 33.57200
H  48.46300 17.62500 33.37600
H  48.16500 19.95000 33.31200
H  46.42700 19.69300 33.31600
H  47.28200 19.75100 31.84700
H  47.94100 15.58200 33.67200
H  46.41000 14.63400 33.46200
H  47.54700 15.24500 35.84200
H  45.83600 14.92600 35.67200
H  52.64100 18.67200 29.94900
H  51.23800 19.25100 30.63600
H  51.95400 20.09900 29.21400
H  53.27900 19.07500 27.59600
H  52.39600 20.24800 26.50700
H  53.57300 18.93200 25.92900
H  47.87500 15.33300 23.62900
H  44.97500 15.99400 24.10800
H  45.99700 17.41000 23.15200
H  47.60900 17.44400 22.53900
H  47.40800 18.12900 24.12200
H  46.17900 14.16400 22.59000
H  44.61500 13.91700 23.09600
H  46.45900 12.01400 23.17100
H  45.42800 12.17100 24.54400
H  47.04300 12.86600 24.65900
H  41.72700 14.11000 26.94700
H  40.93300 14.46700 28.53200
H  41.68600 12.86700 28.15700
H  43.84200 14.65200 32.88500
H  42.92200 18.30200 35.07600
H  42.39100 16.93300 36.17400
H  41.42500 17.44300 34.76900
Mg 42.84900 41.85200 26.11400
C  41.96000 44.16900 28.52300
C  44.05800 39.68400 28.48300
C  43.83300 39.78800 23.66800
C  42.23500 44.37200 23.61600
N  42.93300 41.96200 28.26600
C  42.52400 42.96500 29.10600
C  42.53300 42.42000 30.57500
C  43.56100 41.26800 30.45600
C  43.55700 40.89600 28.96800
C  44.97000 41.49400 30.96100
C  41.09900 41.89100 30.99000
C  40.92800 41.68700 32.52400
H  40.07800 42.65400 33.32100
N  43.55500 39.88100 26.10300
C  44.04300 39.16300 27.11100
C  44.43600 37.86800 26.62400
C  43.93700 37.75300 25.28600
C  43.73800 39.19400 24.90600
C  44.99800 36.89400 27.59800
C  43.71300 36.52800 24.44300
O  43.36800 36.50300 23.29300
C  43.79500 35.25800 25.10100
N  43.16800 42.09100 23.94800
C  43.64200 41.05500 23.17200
C  43.89500 41.55800 21.74400
C  43.22200 42.88100 21.75100
C  42.86500 43.17300 23.18300
C  45.36600 41.68800 21.38900
C  41.90800 43.03100 20.79700
C  40.61500 42.51100 21.40300
N  42.31400 43.95900 26.01800
C  42.02600 44.79000 24.98400
C  41.53300 46.03300 25.55200
C  41.47200 45.83600 26.89700
C  41.98300 44.54700 27.12500
C  41.20400 47.24400 24.82900
C  41.04300 46.38500 28.13400
O  40.45200 47.37100 28.35400
C  41.24900 45.25500 29.29500
C  42.02500 45.92900 30.37100
O  43.23500 46.06800 30.43100
O  41.15700 46.41600 31.30500
C  41.60200 47.35600 32.32800
H  44.47000 38.96500 29.19400
H  44.11300 39.12500 22.84600
H  41.81800 44.99500 22.82200
H  42.83500 43.21900 31.25100
H  43.20500 40.41200 31.02800
H  45.06500 42.42600 31.51900
H  45.65100 41.51800 30.11100
H  45.23900 40.73300 31.69400
H  40.97000 40.89300 30.57100
H  40.22900 42.45100 30.64700
H  41.93200 41.64100 32.94600
H  40.54000 40.67900 32.67100
H  45.57400 36.12000 27.09300
H  44.11100 36.42600 28.02600
H  45.56200 37.34900 28.41200
H  44.78500 34.87600 25.35100
H  43.24600 34.55900 24.47000
H  43.08700 35.33000 25.92600
H  43.48100 40.74700 21.14500
H  43.83500 43.71000 21.39800
H  45.51600 41.37800 20.35500
H  45.90800 40.96200 21.99400
H  45.79900 42.67500 21.55700
H  42.07300 42.43400 19.89900
H  41.75300 44.05000 20.44200
H  40.08800 43.43600 21.63700
H  40.65600 41.81400 22.24000
H  39.91300 42.02300 20.72600
H  40.93800 48.06300 25.49700
H  40.47800 47.11300 24.02600
H  42.09800 47.67400 24.37800
H  40.36500 44.78100 29.72100
H  41.71600 46.77100 33.24000
H  40.80500 48.09100 32.44600
H  42.65800 47.61000 32.24200

