158

Mg 45.27200 4.78900 46.93300
C  43.64700 7.75400 46.29200
C  42.29500 3.10900 46.44700
C  46.91700 1.77900 47.53100
C  48.29900 6.46500 47.11200
N  43.26500 5.28300 46.24700
C  42.80600 6.60600 46.13900
C  41.39600 6.62300 45.59200
C  40.89600 5.25500 45.99700
C  42.21800 4.50800 46.29600
C  39.78300 5.25200 47.08100
C  41.39400 6.80100 44.00400
C  40.61500 8.13100 43.52800
H  40.89300 8.72600 42.10200
N  44.69800 2.72300 46.93000
C  43.42100 2.27200 46.78900
C  43.38300 0.87400 46.79700
C  44.70500 0.45500 47.07300
C  45.54000 1.62100 47.21700
C  42.24100 0.01100 46.44700
C  45.12100 -1.05100 47.09800
O  44.40000 -1.99900 46.79100
C  46.48600 -1.50700 47.52200
N  47.30600 4.18200 47.08300
C  47.72400 2.93100 47.38500
C  49.19900 2.88700 47.83200
C  49.73900 4.32800 47.55200
C  48.33300 5.04400 47.29900
C  49.57800 2.45000 49.29500
C  50.79000 4.55500 46.40100
C  51.94100 5.53800 46.78000
N  45.90100 6.77000 46.68700
C  47.22300 7.28200 46.81000
C  47.01200 8.72100 46.71600
C  45.62400 8.98000 46.54200
C  45.03100 7.75400 46.46900
C  48.00500 9.75200 47.02500
C  44.62200 9.98800 46.52500
O  44.60500 11.16900 46.71000
C  43.24900 9.20100 46.22000
C  42.15400 9.68900 47.16500
O  41.71200 9.02400 48.13400
O  41.70700 10.89200 46.72100
C  40.53500 11.49500 47.38400
H  41.28700 2.70400 46.33500
H  47.46900 0.90700 47.88600
H  49.16000 7.07300 47.39700
H  40.90000 7.48200 46.04400
H  40.50700 4.64400 45.18200
H  39.57100 6.29100 47.33300
H  40.23900 4.75800 47.93900
H  39.04000 4.56000 46.68300
H  40.82100 5.99600 43.54400
H  42.41900 6.89800 43.64700
H  40.77000 9.00600 44.16000
H  39.54200 7.94000 43.55700
H  41.27600 0.37700 46.79500
H  42.22800 -0.97600 46.91100
H  42.17800 -0.12800 45.36700
H  46.66000 -1.00200 48.47200
H  47.15400 -1.05200 46.79000
H  46.56300 -2.58600 47.66200
H  49.70400 2.19500 47.15900
H  50.04300 4.74700 48.51100
H  49.67100 1.36400 49.29200
H  48.83800 2.48600 50.09500
H  50.56800 2.80300 49.58400
H  50.31900 5.10900 45.58900
H  51.07300 3.60000 45.95900
H  51.57000 6.54700 46.60100
H  52.68000 5.17900 46.06400
H  52.19500 5.54400 47.84000
H  48.88900 9.43200 47.57600
H  47.50000 10.59200 47.50200
H  48.28100 10.20900 46.07400
H  43.01200 9.57000 45.22200
H  39.80400 10.71600 47.59800
H  40.06200 12.26900 46.77900
H  40.85800 12.02800 48.27800
Mg 42.79700 42.27300 26.13700
C  41.69300 44.52200 28.64400
C  44.35600 40.46600 28.54100
C  43.99500 40.28700 23.74400
C  41.84300 44.62200 23.76300
N  42.79500 42.39800 28.40900
C  42.27400 43.36800 29.21300
C  42.29700 42.93000 30.67000
C  43.29900 41.63700 30.57300
C  43.57800 41.51900 29.06000
C  44.65500 41.85700 31.40500
C  40.85100 42.64900 31.18500
C  40.69800 41.81100 32.43800
H  40.05900 42.68400 33.54900
N  43.89400 40.55700 26.07200
C  44.40100 39.89900 27.25600
C  45.08000 38.72200 26.81600
C  44.99100 38.64900 25.41400
C  44.30100 39.89100 25.03200
C  45.84900 37.82100 27.77000
C  45.49100 37.53300 24.46700
O  45.36900 37.66300 23.23500
C  46.10500 36.29100 25.10900
N  42.89500 42.50300 24.09900
C  43.38200 41.48800 23.29500
C  43.37900 41.82500 21.81700
C  42.55200 43.11300 21.77600
C  42.48800 43.50400 23.27800
C  44.79100 42.09200 21.12500
C  41.03400 42.99000 21.34600
C  40.40300 41.61500 21.58600
N  41.96900 44.23200 26.15000
C  41.63400 45.06300 25.13600
C  41.18300 46.30700 25.64600
C  41.03500 46.12700 26.98100
C  41.65700 44.86500 27.27800
C  40.90100 47.45900 24.73000
C  40.63800 46.74600 28.29600
O  40.10600 47.81200 28.55000
C  40.99100 45.65500 29.38100
C  41.87900 46.34300 30.38400
O  42.92800 46.82200 30.17500
O  41.33100 46.35200 31.65800
C  42.12000 46.94100 32.75300
H  44.72300 39.83700 29.35400
H  44.28000 39.70800 22.86300
H  41.56000 45.35200 23.00200
H  42.74600 43.74800 31.23400
H  42.81800 40.77200 31.03100
H  44.61500 42.79000 31.96700
H  45.48300 42.00000 30.71100
H  44.83200 41.01000 32.06700
H  40.15800 42.30900 30.41500
H  40.45100 43.64700 31.36300
H  41.71600 41.52800 32.70300
H  40.08200 40.97200 32.11400
H  46.88700 37.76600 27.44100
H  45.44800 36.80800 27.74200
H  45.95400 38.25000 28.76600
H  47.06500 36.60500 25.51800
H  46.26100 35.50800 24.36600
H  45.52000 35.87700 25.93000
H  42.78400 41.12900 21.22500
H  42.99400 43.94000 21.22100
H  44.81400 41.60100 20.15200
H  45.42000 41.48500 21.77600
H  45.08100 43.14100 21.06000
H  40.91700 43.42400 20.35300
H  40.49000 43.73900 21.92100
H  39.32400 41.74900 21.51900
H  40.57400 41.21900 22.58800
H  40.74100 40.97600 20.77000
H  40.27900 47.13900 23.89500
H  41.84200 47.76500 24.27400
H  40.48300 48.26900 25.32800
H  40.07600 45.37300 29.90300
H  41.64200 47.90500 32.92600
H  43.12500 47.26200 32.47900
H  42.03500 46.35700 33.67000

