158

Mg 1.40200 8.46000 25.09400
C  2.47300 10.42900 27.95100
C  1.69100 5.74200 27.03600
C  0.42200 6.72000 22.39600
C  1.67900 11.33700 23.08800
N  1.90500 8.11100 27.34100
C  2.32600 9.07200 28.27800
C  2.24200 8.39500 29.68400
C  2.32800 6.86400 29.30800
C  2.03400 6.89900 27.78500
C  3.58900 6.03400 29.67900
C  0.97600 8.76200 30.43200
C  1.02300 8.84400 31.97000
H  2.08600 7.99300 32.78100
N  0.95400 6.43100 24.78100
C  1.14000 5.44100 25.74300
C  0.65000 4.26700 25.16400
C  0.31500 4.51600 23.86300
C  0.52600 5.94000 23.60900
C  0.75600 2.95700 25.81100
C  -0.14300 3.59900 22.69300
O  -0.33900 3.99100 21.59100
C  -0.31900 2.13100 22.94400
N  1.28000 8.98900 23.07400
C  0.82100 8.05500 22.15200
C  0.95500 8.56600 20.73000
C  1.05800 10.16600 21.03100
C  1.47400 10.12700 22.49500
C  2.13800 8.06700 19.83400
C  -0.33700 10.82200 20.68500
C  -0.18900 12.21600 19.98500
N  1.96500 10.50000 25.42100
C  1.97900 11.53000 24.48000
C  2.36700 12.74500 25.15100
C  2.41400 12.40600 26.56900
C  2.20300 11.00300 26.66600
C  2.66600 14.05800 24.53700
C  2.72400 12.89700 27.88700
O  3.01700 13.99500 28.33900
C  2.75800 11.59000 28.82400
C  4.00900 11.37800 29.56000
O  4.97100 10.73500 29.26700
O  3.83000 11.92100 30.76200
C  4.94500 11.57800 31.69400
H  1.69700 4.89000 27.71900
H  0.10800 6.23000 21.47200
H  1.77400 12.27000 22.52900
H  3.03900 8.83300 30.28600
H  1.53700 6.25000 29.74100
H  4.03600 6.64800 30.46100
H  4.23300 5.77900 28.83700
H  3.17800 5.12600 30.11900
H  0.22000 8.06400 30.07200
H  0.72100 9.70700 29.95200
H  0.04300 8.74400 32.43700
H  1.26400 9.86800 32.25600
H  -0.23600 2.58300 26.06200
H  1.31900 2.93000 26.74400
H  1.37900 2.20900 25.32100
H  -0.89300 2.01400 23.86300
H  0.67700 1.69900 23.03900
H  -0.74400 1.64700 22.06500
H  0.07300 8.29300 20.15100
H  1.85600 10.63700 20.45700
H  2.78200 7.31700 20.29300
H  2.76500 8.84100 19.39100
H  1.59700 7.55100 19.04100
H  -0.81500 10.94500 21.65700
H  -0.98700 10.14400 20.13200
H  -0.91700 12.29600 19.17800
H  0.73400 12.51800 19.48800
H  -0.46000 12.99400 20.69800
H  2.04100 14.10700 23.64500
H  3.74600 14.13500 24.40700
H  2.40500 14.85600 25.23200
H  1.94600 11.68200 29.54600
H  5.00700 10.51500 31.92400
H  4.70000 12.10300 32.61800
H  5.89200 11.88900 31.25300
Mg 29.38100 59.38700 40.60300
C  26.35200 57.70700 40.13200
C  30.98600 56.60300 39.22000
C  32.21200 61.08600 40.66400
C  27.55000 62.30800 41.42000
N  28.67000 57.48000 39.58700
C  27.42400 56.93900 39.63900
C  27.39200 55.63700 38.80800
C  28.93300 55.18700 38.78900
C  29.58000 56.47800 39.27500
C  29.28800 53.88600 39.60200
C  26.73800 55.75900 37.42900
C  25.80500 54.60800 37.00000
H  25.81000 54.04400 35.61400
N  31.34700 58.93000 39.96300
C  31.78100 57.69200 39.55800
C  33.19700 57.70800 39.46200
C  33.61700 59.04800 39.99000
C  32.39800 59.71800 40.29000
C  34.08400 56.62400 38.84600
C  34.96300 59.53600 40.16100
O  35.88800 58.82500 39.84900
C  35.27900 60.84500 40.81600
N  29.74900 61.46900 40.82200
C  31.05000 61.87100 40.90400
C  31.06700 63.35100 41.39400
C  29.58000 63.72800 41.55000
C  28.90600 62.44400 41.30400
C  32.09900 63.67400 42.51700
C  29.18000 64.98700 40.70300
C  28.46600 66.14600 41.47800
N  27.42100 59.94700 40.81300
C  26.75900 61.15300 41.17200
C  25.33600 60.91700 41.25600
C  25.13300 59.57400 40.97000
C  26.42000 59.06800 40.61700
C  24.33900 61.93300 41.64400
C  24.07100 58.47300 40.81800
O  22.86300 58.49700 41.06600
C  24.88900 57.29600 40.22700
C  24.71200 56.23400 41.19800
O  24.66600 56.33000 42.39200
O  24.63500 54.99800 40.57400
C  24.80100 53.83000 41.45900
H  31.51700 55.78600 38.72800
H  33.08400 61.73600 40.75600
H  27.08900 63.27800 41.61800
H  26.84200 54.96200 39.46400
H  29.26000 54.94800 37.77700
H  29.76800 54.06900 40.56400
H  29.96200 53.31300 38.96400
H  28.46000 53.18600 39.71000
H  27.56100 55.82600 36.71700
H  26.25600 56.73600 37.38400
H  24.74900 54.85300 37.11600
H  25.88100 53.77000 37.69300
H  33.65600 55.78400 38.29900
H  34.60400 56.21900 39.71300
H  34.89200 57.02400 38.23400
H  35.17100 61.62800 40.06500
H  36.33700 60.69700 41.03300
H  34.77800 60.93300 41.78000
H  31.54400 63.99700 40.65700
H  29.38300 63.94000 42.60100
H  32.39000 62.67500 42.84200
H  31.62500 64.17300 43.36300
H  32.97500 64.21600 42.16200
H  28.45100 64.69800 39.94600
H  29.98800 65.44600 40.13200
H  27.39500 66.15000 41.27200
H  29.02500 67.07600 41.37600
H  28.51500 65.87700 42.53300
H  24.68600 62.88900 41.25400
H  24.23200 61.92300 42.72900
H  23.40400 61.55600 41.23000
H  24.48800 56.86700 39.30900
H  24.46100 52.95500 40.90600
H  24.16700 53.91500 42.34100
H  25.84100 53.57900 41.66500

