158

Mg 16.22100 -2.63600 27.79000
C  15.21800 -0.42800 30.46200
C  17.78500 -4.52700 30.20000
C  17.63000 -4.44100 25.40900
C  14.63300 -0.44900 25.48000
N  16.44700 -2.44100 30.08700
C  15.94100 -1.50600 30.94600
C  16.07200 -1.96000 32.41800
C  17.06000 -3.17300 32.31000
C  17.09100 -3.42000 30.75500
C  18.45600 -3.00700 33.01400
C  14.75000 -2.27800 33.03600
C  14.41400 -1.66700 34.42700
H  15.56400 -1.27400 35.30000
N  17.51200 -4.24800 27.87900
C  17.99800 -4.96400 28.90800
C  18.85600 -6.05200 28.49500
C  18.74900 -6.04100 27.05200
C  17.95700 -4.87100 26.71600
C  19.53200 -7.02500 29.47500
C  19.43700 -7.00000 26.07300
O  19.33800 -6.85300 24.84200
C  20.36900 -8.04700 26.67200
N  15.97700 -2.56600 25.78200
C  16.82600 -3.29700 25.07500
C  16.72200 -2.88800 23.57300
C  15.54900 -1.84600 23.58700
C  15.34700 -1.61500 25.06500
C  18.01800 -2.18500 23.07800
C  14.23400 -2.30800 22.91000
C  13.32800 -1.28700 22.16400
N  15.03600 -0.84300 27.86500
C  14.49600 -0.02400 26.85100
C  13.73800 1.07900 27.36000
C  14.03400 1.00500 28.78900
C  14.84000 -0.16500 29.01400
C  12.93700 2.06400 26.56600
C  13.84600 1.57100 30.08400
O  13.33100 2.62500 30.32100
C  14.42900 0.58600 31.22000
C  15.20300 1.49700 32.03600
O  16.35700 1.85300 31.88500
O  14.36300 1.85100 33.13000
C  14.93300 2.87000 33.95800
H  18.25000 -5.16200 30.95700
H  18.09700 -4.89400 24.53200
H  14.19600 0.19000 24.71000
H  16.51700 -1.09700 32.91300
H  16.63300 -4.06900 32.76000
H  18.54600 -3.83900 33.71300
H  18.45400 -2.04600 33.52800
H  19.15100 -3.11900 32.18200
H  14.69700 -3.34700 33.24500
H  13.93600 -1.97400 32.37900
H  13.78700 -2.37600 34.96900
H  13.84600 -0.75200 34.26300
H  19.65500 -8.06700 29.18000
H  19.17400 -6.90200 30.49700
H  20.55400 -6.64900 29.52700
H  19.69200 -8.87800 26.86800
H  21.10400 -7.73400 27.41400
H  21.02700 -8.37200 25.86600
H  16.43800 -3.82800 23.10000
H  15.82800 -0.86100 23.21300
H  18.19200 -2.39100 22.02200
H  18.92300 -2.23200 23.68500
H  17.91600 -1.10000 23.05500
H  13.62300 -2.68600 23.73000
H  14.58700 -3.09500 22.24400
H  12.66400 -0.98900 22.97500
H  12.72600 -1.71900 21.36400
H  13.98500 -0.45400 21.91400
H  12.90200 3.01400 27.10000
H  11.91700 1.68200 26.53600
H  13.31100 2.25100 25.56000
H  13.54100 0.24000 31.74800
H  15.36200 2.31300 34.79100
H  14.14500 3.46300 34.42100
H  15.70900 3.48700 33.50500
Mg 36.42900 50.04400 25.42900
C  36.80000 48.08400 28.32200
C  35.23200 52.59000 27.44100
C  35.99200 51.80500 22.68100
C  37.44700 47.31900 23.57600
N  36.15100 50.31500 27.57500
C  36.37700 49.39200 28.58600
C  36.14500 50.04200 29.95200
C  35.50100 51.32500 29.58800
C  35.64900 51.45600 28.11500
C  34.03000 51.56000 30.07500
C  37.50100 50.09400 30.80600
C  37.46900 49.92300 32.33000
H  36.04600 49.89900 32.94800
N  35.68100 51.94100 25.07900
C  35.31200 52.87600 26.03600
C  34.87000 54.10600 25.28700
C  35.09800 53.90200 23.95100
C  35.64100 52.49600 23.85800
C  34.28200 55.29100 25.99300
C  34.87000 54.86800 22.75200
O  35.18400 54.65300 21.58900
C  34.41000 56.29400 23.05400
N  36.57700 49.59600 23.43700
C  36.41400 50.49800 22.47700
C  36.74700 49.97700 21.02600
C  37.06700 48.50700 21.31000
C  37.13700 48.48500 22.89000
C  35.67200 50.20500 19.96900
C  38.39400 48.01700 20.65400
C  39.68500 48.55600 21.41400
N  37.01700 48.09700 25.84400
C  37.38500 47.11700 24.98700
C  37.70900 45.89500 25.71300
C  37.49900 46.18600 27.09500
C  37.03000 47.59900 27.03100
C  38.13200 44.57500 25.12300
C  37.44200 45.67200 28.47500
O  37.73300 44.53800 28.86700
C  37.09300 46.91300 29.34600
C  35.83900 46.60800 30.05500
O  34.74000 47.00200 29.67300
O  36.04600 45.95400 31.23100
C  34.85200 45.74500 32.04600
H  34.84500 53.35800 28.11400
H  35.84700 52.28800 21.71200
H  37.63500 46.43100 22.96800
H  35.46800 49.40800 30.52400
H  35.99100 52.17100 30.07100
H  33.55800 50.79400 30.69000
H  33.41500 51.60900 29.17600
H  34.06900 52.52900 30.57300
H  37.93800 51.08400 30.67800
H  38.15200 49.35800 30.33300
H  38.00200 50.80800 32.67800
H  38.05500 49.04500 32.59900
H  34.98600 56.10900 25.83600
H  34.27700 55.01200 27.04600
H  33.31200 55.61600 25.61600
H  35.14900 56.93400 23.53600
H  33.48100 56.26400 23.62400
H  34.15900 56.86000 22.15700
H  37.64600 50.54700 20.79200
H  36.20600 47.85700 21.15300
H  35.51200 49.36200 19.29700
H  35.93700 51.06300 19.35100
H  34.72900 50.37600 20.48900
H  38.30000 48.34700 19.62000
H  38.41600 46.92700 20.65100
H  39.41500 49.25500 22.20500
H  40.28900 48.93300 20.58900
H  40.17300 47.70100 21.88300
H  39.00300 44.85700 24.53200
H  37.32000 44.08500 24.58700
H  38.41400 43.90400 25.93500
H  37.95000 46.98800 30.01700
H  34.40700 46.64900 32.46100
H  35.19600 45.05700 32.81800
H  34.10500 45.11500 31.56200

