158

Mg 8.45600 3.29900 27.38500
C  9.75700 1.76000 30.33000
C  6.71900 5.39800 29.43800
C  7.21700 4.61300 24.58300
C  9.94700 0.65000 25.56100
N  8.42600 3.62800 29.59900
C  9.00700 2.86600 30.62900
C  8.80700 3.59200 32.04800
C  7.76000 4.66300 31.63000
C  7.60800 4.55900 30.09700
C  6.42900 4.60900 32.40900
C  10.27000 3.96200 32.68900
C  10.27300 4.99900 33.79900
H  10.52600 4.47800 35.19100
N  7.14700 4.85700 27.05300
C  6.43900 5.57900 28.07200
C  5.56000 6.54300 27.38400
C  5.73900 6.34900 25.93800
C  6.74000 5.24300 25.81200
C  4.94000 7.71600 28.09900
C  5.20300 7.15800 24.79300
O  5.37900 6.82500 23.59700
C  4.37200 8.44600 25.06600
N  8.74300 2.84900 25.28600
C  8.10800 3.54200 24.30700
C  8.24000 2.80700 22.93700
C  9.17300 1.64300 23.29900
C  9.31500 1.66900 24.80400
C  6.87900 2.24500 22.43700
C  10.57100 1.63100 22.58800
C  10.65700 0.67100 21.37000
N  9.66800 1.61800 27.81400
C  10.09700 0.60400 26.99100
C  10.73700 -0.52500 27.75000
C  10.66400 -0.01600 29.05800
C  9.89800 1.19700 29.07700
C  11.51300 -1.65800 27.15800
C  11.07700 -0.33700 30.37500
O  11.87300 -1.16900 30.84000
C  10.49300 0.80900 31.27500
C  9.57000 0.05200 32.28400
O  8.61500 -0.64700 31.97600
O  9.99200 0.25800 33.57100
C  9.19700 -0.41700 34.68700
H  6.13600 6.02700 30.11300
H  6.82700 5.12100 23.69800
H  10.19300 -0.28700 25.05700
H  8.40000 2.90900 32.79200
H  8.23300 5.62000 31.84900
H  6.21400 5.57100 32.87400
H  6.46700 3.83100 33.17200
H  5.55800 4.45100 31.77200
H  11.03500 4.17700 31.94300
H  10.54600 3.05900 33.23500
H  9.26100 5.40400 33.80400
H  11.03500 5.75800 33.62200
H  5.36700 7.62000 29.09700
H  3.86100 7.57600 28.04000
H  5.35500 8.64100 27.69800
H  5.10300 9.15000 25.46500
H  3.56900 8.15800 25.74400
H  3.98300 8.76200 24.09800
H  8.66000 3.48300 22.19300
H  8.64700 0.71400 23.08000
H  6.35400 1.87500 23.31800
H  7.16300 1.35200 21.87900
H  6.18500 2.88400 21.89200
H  11.32300 1.31000 23.31000
H  10.89200 2.62400 22.27300
H  9.67300 0.65900 20.90300
H  10.82100 -0.33800 21.75000
H  11.43900 1.00400 20.68800
H  12.27500 -1.24200 26.49900
H  10.79300 -2.27700 26.62300
H  12.01000 -2.31400 27.87200
H  11.35300 1.24600 31.78300
H  8.88900 0.41500 35.32000
H  9.77200 -1.09400 35.31800
H  8.35100 -1.05300 34.42400
Mg 35.24700 0.44800 29.43300
C  33.05900 1.52200 31.68900
C  37.79300 0.62400 31.83800
C  37.71200 -0.09600 27.03300
C  32.88600 0.70500 26.90100
N  35.46000 1.06400 31.48100
C  34.35700 1.50100 32.19900
C  34.72400 1.68600 33.73800
C  36.34500 1.63900 33.65000
C  36.56200 1.04000 32.30300
C  37.10900 2.99200 33.88400
C  34.11400 0.62700 34.69900
C  33.97300 1.04900 36.10200
H  35.05900 2.03000 36.74500
N  37.39600 0.09300 29.43000
C  38.19500 0.13900 30.57200
C  39.55100 -0.26700 30.21700
C  39.54800 -0.44900 28.79600
C  38.18800 -0.07200 28.35600
C  40.73800 -0.40600 31.18000
C  40.79900 -0.80800 27.86200
O  40.83000 -0.77700 26.63000
C  42.05000 -1.21500 28.49800
N  35.28000 0.31700 27.23900
C  36.40100 0.06900 26.50300
C  36.09700 0.06000 25.01900
C  34.51300 0.17500 24.91500
C  34.16600 0.43400 26.42000
C  36.80100 1.39400 24.44400
C  33.79200 -1.15500 24.58400
C  32.40700 -1.02000 23.87600
N  33.29600 0.97100 29.25100
C  32.41400 0.96500 28.18500
C  31.05700 1.18800 28.64900
C  31.25400 1.52500 30.04000
C  32.67200 1.33400 30.33600
C  29.77900 1.22800 27.79200
C  30.69200 1.94400 31.29900
O  29.50400 2.14700 31.61100
C  31.79100 1.86600 32.38800
C  31.77600 3.24400 33.02800
O  31.62700 4.34500 32.53200
O  31.93700 3.14000 34.36500
C  31.97700 4.39100 35.19400
H  38.58600 0.62400 32.58800
H  38.41100 -0.25100 26.20900
H  32.25600 0.81300 26.01600
H  34.46200 2.71900 33.96600
H  36.78800 0.95900 34.37700
H  37.93300 2.81300 34.57500
H  36.42900 3.75500 34.26300
H  37.62400 3.35600 32.99500
H  34.68200 -0.29700 34.59300
H  33.17700 0.26900 34.27300
H  34.10700 0.11100 36.64100
H  32.96200 1.44200 36.20600
H  41.47300 0.38400 31.02500
H  41.14500 -1.39600 30.97000
H  40.44300 -0.48900 32.22600
H  41.80300 -1.93800 29.27600
H  42.27900 -0.38000 29.16000
H  42.84500 -1.54500 27.82900
H  36.50400 -0.88400 24.65600
H  34.22600 0.94900 24.20300
H  37.51700 1.84500 25.13000
H  36.07500 2.16500 24.18600
H  37.33400 1.11400 23.53500
H  33.59100 -1.78200 25.45300
H  34.52800 -1.73800 24.03100
H  31.62900 -1.54700 24.42800
H  32.67200 -1.46800 22.91800
H  32.13900 0.03700 23.85700
H  30.04400 0.62800 26.92200
H  29.29400 2.19000 27.62600
H  28.97500 0.70900 28.31300
H  31.42900 1.04400 33.00600
H  30.98600 4.84100 35.12500
H  32.74000 5.04500 34.77400
H  32.27400 4.29100 36.23800

