158

Mg 24.93000 -5.71700 46.64300
C  26.93900 -3.52400 44.76100
C  22.33500 -4.87000 44.57300
C  23.52600 -8.55300 47.59200
C  27.94800 -6.69900 48.40200
N  24.68200 -4.28200 44.88300
C  25.58700 -3.47500 44.27000
C  24.98800 -2.49500 43.21200
C  23.46300 -2.80100 43.53300
C  23.47800 -4.04700 44.36400
C  22.71400 -1.60900 44.13100
C  25.52000 -2.62200 41.75800
C  25.93600 -1.33400 41.06200
H  25.40300 -1.01200 39.65100
N  23.11300 -6.57700 46.26500
C  22.22500 -6.03300 45.39400
C  21.07300 -6.92500 45.31500
C  21.37700 -8.07600 46.17300
C  22.69400 -7.76800 46.72700
C  19.76000 -6.70000 44.47500
C  20.46500 -9.28500 46.28800
O  19.40400 -9.30700 45.63400
C  20.77500 -10.41500 47.27600
N  25.61700 -7.32800 48.00200
C  24.81100 -8.35400 48.21300
C  25.48900 -9.35800 49.16500
C  26.81200 -8.55700 49.58800
C  26.85400 -7.52100 48.56900
C  24.62400 -9.95600 50.25200
C  28.12100 -9.43500 49.60300
C  29.09400 -8.99800 50.70700
N  26.88400 -5.06000 46.80100
C  28.00000 -5.58000 47.58100
C  29.21600 -4.83300 47.23300
C  28.81400 -4.06000 46.09400
C  27.46200 -4.21100 45.89100
C  30.62100 -4.96900 47.77900
C  29.38300 -3.21600 45.02600
O  30.51100 -2.84700 44.81600
C  28.10600 -2.72700 44.22300
C  28.05800 -1.27600 44.63700
O  27.74100 -0.86500 45.71100
O  28.42000 -0.43600 43.53200
C  28.41400 1.05900 43.78900
H  21.46900 -4.61400 43.95900
H  23.04200 -9.49100 47.87000
H  28.84500 -6.76600 49.02200
H  25.24800 -1.48100 43.51700
H  22.98600 -2.89200 42.55700
H  23.42600 -0.78300 44.15600
H  22.52600 -1.87000 45.17300
H  21.78300 -1.35000 43.62700
H  24.79200 -3.22000 41.21000
H  26.47600 -3.13700 41.84700
H  27.02500 -1.28400 41.07900
H  25.74200 -0.50800 41.74700
H  19.96800 -7.11400 43.48800
H  19.62000 -5.62000 44.50600
H  18.82500 -7.07400 44.89300
H  20.01400 -11.19300 47.22400
H  20.82100 -9.93000 48.25100
H  21.75900 -10.84300 47.08700
H  25.91700 -10.10100 48.49100
H  26.66300 -8.14000 50.58400
H  25.13500 -9.96800 51.21500
H  24.51400 -10.99300 49.93700
H  23.60000 -9.59700 50.14100
H  28.68600 -9.38600 48.67300
H  27.85400 -10.48700 49.70500
H  28.65300 -8.19600 51.29900
H  30.02300 -8.53100 50.37900
H  29.34000 -9.85200 51.33800
H  30.97900 -5.97400 47.55600
H  30.64500 -4.87600 48.86500
H  31.17500 -4.18700 47.26000
H  28.24200 -2.89100 43.15400
H  29.32100 1.19900 44.37600
H  27.69600 1.47500 44.49600
H  28.32500 1.60900 42.85200
Mg 46.80300 16.06700 27.95200
C  44.97400 15.62700 30.88500
C  49.27300 17.48000 29.76900
C  48.21000 17.12000 25.02700
C  43.99200 14.83300 26.19200
N  46.87800 16.82000 30.06500
C  46.17700 16.31000 31.11600
C  46.71500 16.69900 32.47000
C  47.93000 17.56000 31.95600
C  48.13900 17.16100 30.50700
C  47.70400 19.09200 31.89800
C  47.16300 15.43100 33.23600
C  46.94300 15.38200 34.78000
H  46.79500 16.59800 35.59600
N  48.55300 17.00000 27.53600
C  49.41900 17.51200 28.38200
C  50.53700 18.11700 27.72100
C  50.25900 18.04100 26.35300
C  48.95700 17.39900 26.21500
C  51.62900 18.87200 28.41900
C  51.04700 18.59400 25.14800
O  50.56400 18.62500 24.01100
C  52.45900 18.98300 25.40300
N  46.24400 15.89700 25.95000
C  47.01900 16.45800 24.90000
C  46.27400 16.27900 23.52600
C  45.17300 15.30800 23.93500
C  45.13200 15.32800 25.46400
C  45.81200 17.53400 22.75200
C  45.18500 13.77200 23.44300
C  43.73700 13.28300 23.12200
N  44.86600 15.33200 28.38700
C  43.86500 14.82800 27.57500
C  42.74300 14.34300 28.37400
C  43.15100 14.69400 29.71400
C  44.46300 15.27700 29.63800
C  41.40600 13.87200 27.89800
C  42.73200 14.67900 31.09600
O  41.64600 14.30700 31.53400
C  43.88600 15.31300 31.91400
C  43.35600 16.52700 32.60700
O  43.30800 17.63400 32.16200
O  42.85900 16.03400 33.84600
C  42.67500 17.10900 34.85300
H  49.97900 18.00400 30.41800
H  48.63000 17.39000 24.05600
H  43.17800 14.46000 25.56600
H  46.18100 17.45800 33.04100
H  48.84000 17.41500 32.53900
H  46.76600 19.29100 32.41500
H  47.52700 19.49900 30.90300
H  48.50400 19.69200 32.33000
H  48.22800 15.36300 33.01600
H  46.75800 14.53300 32.76900
H  47.71000 14.72700 35.19400
H  46.06900 14.73800 34.88200
H  52.54000 18.46400 27.98100
H  51.68100 18.61000 29.47600
H  51.66500 19.95800 28.32900
H  52.57700 19.88300 26.00700
H  52.88700 19.16900 24.41800
H  52.94000 18.09900 25.82300
H  46.99400 15.82000 22.84900
H  44.26700 15.78200 23.55600
H  46.11400 18.43000 23.29500
H  44.76500 17.51500 22.45100
H  46.42300 17.47700 21.85100
H  45.65300 13.04800 24.11000
H  45.79300 13.53900 22.56800
H  43.42400 12.54900 23.86400
H  43.61000 12.85200 22.12900
H  43.02700 14.10300 23.23600
H  41.05300 13.11200 28.59600
H  41.51300 13.39400 26.92500
H  40.74100 14.71700 27.72000
H  44.16400 14.63100 32.71700
H  43.23200 17.98700 34.52700
H  42.96100 16.90800 35.88500
H  41.61100 17.32800 34.76000

