158

Mg 40.42400 9.74400 29.61700
C  42.18800 11.06700 32.40600
C  38.21000 8.40100 31.90400
C  38.91700 8.26500 27.01600
C  43.24400 10.38200 27.66600
N  40.25600 9.64200 31.89200
C  40.97500 10.45000 32.80700
C  40.32500 10.55900 34.13600
C  39.24000 9.42400 34.04300
C  39.20000 9.11800 32.48700
C  39.42800 8.19700 34.96100
C  39.84800 11.91400 34.74400
C  39.22000 11.89800 36.16100
H  40.03600 12.44100 37.40400
N  38.68900 8.64800 29.48100
C  37.93400 8.17300 30.53600
C  36.87800 7.29200 30.06000
C  36.99800 7.37500 28.56700
C  38.23600 8.11700 28.26000
C  35.96600 6.46400 30.96000
C  36.12500 6.74300 27.41400
O  36.31000 6.95900 26.17200
C  34.95900 5.88300 27.81800
N  41.10000 9.30100 27.68900
C  40.22100 8.74500 26.78700
C  40.73800 8.97400 25.34000
C  42.22700 9.40200 25.52500
C  42.20900 9.73300 27.01500
C  40.60800 7.74700 24.36600
C  42.73200 10.53200 24.55900
C  42.60700 12.03200 24.96300
N  42.32700 10.63200 29.85400
C  43.36400 10.85300 28.97400
C  44.39800 11.61500 29.59500
C  43.90800 11.83200 30.89200
C  42.73200 11.01100 31.10500
C  45.54900 12.08800 28.87600
C  44.23400 12.47600 32.18000
O  45.19900 13.13200 32.42300
C  43.15000 11.96000 33.16100
C  43.80700 11.37700 34.37300
O  44.51400 10.35500 34.34700
O  43.40500 12.08500 35.44800
C  43.86600 11.60100 36.76300
H  37.49600 8.00400 32.63000
H  38.33900 7.96900 26.13700
H  43.99700 10.69500 26.93900
H  41.14200 10.16100 34.73700
H  38.28600 9.89400 34.28300
H  40.47700 8.16900 35.25500
H  39.31000 7.25200 34.43200
H  38.75100 8.26500 35.81300
H  38.98700 12.24700 34.16600
H  40.58500 12.71600 34.79700
H  38.90800 10.88000 36.39400
H  38.33700 12.53300 36.23500
H  36.33700 6.29600 31.97100
H  35.86500 5.48600 30.49000
H  34.95600 6.87000 31.02400
H  35.37100 5.01800 28.33700
H  34.32700 5.66900 26.95700
H  34.44000 6.45600 28.58700
H  40.30100 9.89200 24.94700
H  42.96300 8.63200 25.29300
H  40.26400 6.81900 24.82300
H  41.51800 7.51500 23.81400
H  39.80400 7.98700 23.66900
H  42.28400 10.37500 23.57800
H  43.78900 10.30900 24.41400
H  41.91200 12.24300 25.77500
H  42.18400 12.57900 24.12100
H  43.61300 12.42500 25.10700
H  45.31600 12.48400 27.88700
H  46.34600 11.35500 28.75100
H  45.82900 12.97500 29.44400
H  42.70200 12.88600 33.52200
H  44.95400 11.59000 36.83500
H  43.35500 10.66100 36.97300
H  43.56000 12.35500 37.48800
Mg 53.79500 23.92400 44.55300
C  51.36900 26.30500 43.62500
C  51.68500 21.48900 43.46000
C  56.46500 21.85900 44.34100
C  55.88800 26.60400 45.28800
N  51.90900 23.89400 43.49200
C  51.02400 24.98700 43.31700
C  49.63100 24.55600 42.80100
C  49.64600 23.06900 43.21900
C  51.15500 22.76300 43.46800
C  48.85700 22.84400 44.52700
C  49.66900 24.72000 41.24500
C  48.25800 24.64900 40.59700
H  48.24700 23.65800 39.43100
N  53.99300 21.88500 44.13500
C  52.99500 21.06700 43.75900
C  53.50200 19.68700 43.69100
C  54.95200 19.78000 43.86100
C  55.23800 21.25800 44.09700
C  52.69700 18.49100 43.34100
C  55.92400 18.59900 43.75200
O  55.57700 17.48100 43.39800
C  57.33400 18.67900 44.06900
N  55.93400 24.19600 44.59800
C  56.75100 23.18600 44.59900
C  58.20200 23.65200 44.82000
C  58.01800 25.13100 45.19200
C  56.55000 25.33000 45.04200
C  59.11400 22.84800 45.82400
C  58.89700 26.16200 44.37300
C  59.34200 27.47400 44.96400
N  53.66900 26.03800 44.50400
C  54.50500 26.98800 45.06300
C  53.91800 28.28600 45.21300
C  52.65200 28.10500 44.58900
C  52.59500 26.72000 44.17900
C  54.49700 29.47300 45.88100
C  51.35500 28.68200 44.30500
O  50.99100 29.84000 44.35500
C  50.51100 27.51200 43.57800
C  50.19200 27.96300 42.14600
O  51.01200 28.14200 41.29600
O  48.81800 28.04300 41.88200
C  48.52500 28.41800 40.45200
H  50.96300 20.71100 43.20300
H  57.32100 21.19700 44.19700
H  56.60300 27.39400 45.52600
H  48.86400 25.05700 43.39300
H  49.23500 22.47300 42.40400
H  49.45700 22.38700 45.31400
H  48.11500 22.11700 44.19400
H  48.41800 23.72800 44.98900
H  50.12200 23.82200 40.82500
H  50.18300 25.62900 40.93300
H  48.00400 25.63000 40.19700
H  47.40800 24.26400 41.16100
H  52.95100 17.94100 42.43500
H  51.62200 18.66700 43.30300
H  52.76500 17.77700 44.16200
H  57.97300 19.22800 43.37600
H  57.66400 17.64100 44.06300
H  57.39300 19.12000 45.06400
H  58.68400 23.54000 43.84900
H  58.09900 25.16600 46.27800
H  59.76400 23.48900 46.42000
H  59.70600 22.17500 45.20400
H  58.43000 22.42300 46.55900
H  58.18800 26.50200 43.61800
H  59.73700 25.60000 43.96300
H  60.42800 27.56300 44.94400
H  58.98500 27.48800 45.99400
H  58.80800 28.24100 44.40400
H  54.32100 30.36500 45.28000
H  55.58200 29.47700 45.98300
H  54.05100 29.65500 46.85900
H  49.55000 27.27300 44.03200
H  47.47900 28.61400 40.21500
H  48.89400 27.62400 39.80400
H  48.96300 29.41400 40.38900

