158

Mg 40.01200 9.71700 30.22200
C  41.69100 11.16000 33.04300
C  37.62600 8.50500 32.27900
C  38.47900 8.50300 27.53700
C  42.75900 10.63600 28.28400
N  39.73800 9.85300 32.44400
C  40.36000 10.61900 33.34000
C  39.89500 10.40100 34.81000
C  38.72200 9.36300 34.53300
C  38.65300 9.15600 33.02500
C  38.77600 8.03000 35.35200
C  39.53000 11.75300 35.63400
C  40.51100 12.19100 36.68800
H  40.02500 12.58500 38.07500
N  38.26900 8.68400 29.93100
C  37.43400 8.25600 30.93700
C  36.26300 7.63800 30.36700
C  36.48500 7.60000 28.98300
C  37.79300 8.22200 28.72700
C  35.20100 7.00200 31.26600
C  35.65500 7.07300 27.86700
O  36.03700 7.20300 26.67600
C  34.34700 6.33500 28.11200
N  40.57200 9.50700 28.21200
C  39.66400 9.09900 27.29500
C  40.10200 9.39000 25.89500
C  41.55400 10.01200 26.12200
C  41.68800 10.05500 27.64800
C  40.11100 8.07700 25.02500
C  41.90900 11.41800 25.47400
C  41.25300 12.69200 26.07900
N  41.88700 10.64200 30.50900
C  42.87900 10.90600 29.66700
C  43.97400 11.54800 30.32600
C  43.53100 11.64600 31.66200
C  42.26800 11.07700 31.71900
C  45.16800 12.30000 29.62000
C  43.93000 12.19200 32.94600
O  44.91000 12.82500 33.27200
C  42.80000 11.70800 33.93400
C  43.39600 10.69300 34.80000
O  43.75800 9.57900 34.47900
O  43.86000 11.47700 35.92000
C  44.96800 10.92200 36.63100
H  36.94600 8.01500 32.97900
H  38.01600 8.22400 26.58800
H  43.52000 10.98800 27.58500
H  40.66400 9.88000 35.38200
H  37.77000 9.80800 34.82400
H  39.75800 7.95500 35.81800
H  38.73300 7.17100 34.68200
H  38.04600 7.77500 36.12000
H  38.52600 11.69800 36.05500
H  39.38000 12.39600 34.76700
H  41.02900 13.04200 36.24600
H  41.24200 11.39500 36.83500
H  35.05100 5.97600 30.93200
H  34.29800 7.60500 31.16200
H  35.42500 6.74200 32.30000
H  34.08200 5.83800 27.17800
H  33.58100 7.05800 28.38900
H  34.71900 5.57400 28.79800
H  39.37800 10.06300 25.43600
H  42.31400 9.34600 25.71400
H  39.91300 7.30200 25.76600
H  41.09300 7.90500 24.58400
H  39.25300 7.95300 24.36500
H  41.52300 11.21100 24.47600
H  42.98400 11.57200 25.38800
H  40.47600 13.13400 25.45500
H  42.04000 13.43500 26.21800
H  40.83400 12.37900 27.03500
H  44.94200 12.88600 28.72900
H  45.95300 11.72500 29.12900
H  45.61400 12.98800 30.33900
H  42.50000 12.66600 34.35600
H  45.54600 10.20200 36.05200
H  44.54300 10.46300 37.52300
H  45.59700 11.70200 37.05900
Mg 48.61000 35.89000 28.36500
C  46.71800 34.49100 30.86600
C  48.71000 38.93300 30.20400
C  49.86900 37.63400 25.63500
C  47.95400 33.11500 26.31700
N  47.96400 36.54700 30.29500
C  47.29600 35.73200 31.18400
C  47.45400 36.43100 32.60800
C  47.68800 37.96900 32.26100
C  48.16800 37.80900 30.79200
C  46.31300 38.70600 32.28300
C  48.55900 35.73500 33.45400
C  49.48500 36.63700 34.29100
H  48.80900 37.66100 35.28200
N  49.43800 37.94200 28.12700
C  49.24600 39.04400 28.94300
C  49.90400 40.19600 28.37200
C  50.18600 39.87000 26.96800
C  49.83000 38.42900 26.84700
C  50.18500 41.51300 29.14500
C  50.82300 40.68800 25.88000
O  50.81200 40.32400 24.71800
C  51.36500 42.02600 26.25100
N  48.90800 35.50300 26.33500
C  49.48700 36.32700 25.40400
C  49.59700 35.66400 24.02500
C  49.19900 34.19600 24.31500
C  48.61900 34.26000 25.74700
C  48.60700 36.22100 22.97000
C  50.36200 33.15500 24.30900
C  50.21700 32.01700 23.22400
N  47.71600 34.05300 28.51000
C  47.53900 33.03800 27.64300
C  46.81800 31.92200 28.29400
C  46.48400 32.48600 29.55600
C  46.99300 33.82100 29.62000
C  46.52900 30.49000 27.81300
C  45.76500 32.17100 30.71800
O  45.18000 31.15200 31.00600
C  45.76400 33.49200 31.62000
C  46.05100 33.09500 33.05500
O  46.99300 32.41400 33.41800
O  45.11600 33.62300 33.87700
C  45.00300 33.12100 35.24000
H  48.66300 39.85800 30.78300
H  50.17300 38.13500 24.71300
H  47.77700 32.31400 25.59600
H  46.45500 36.30000 33.02400
H  48.32600 38.49200 32.97300
H  46.53800 39.66500 32.75100
H  45.56700 38.14100 32.84200
H  45.93700 38.74700 31.26100
H  49.23100 35.14300 32.83300
H  48.15300 34.96000 34.10400
H  50.06500 37.14400 33.52000
H  50.11800 35.91400 34.80500
H  49.22400 41.96700 29.38700
H  50.76500 42.30700 28.67500
H  50.74000 41.18400 30.02400
H  51.74600 42.51100 25.35200
H  52.19800 41.81300 26.92100
H  50.57500 42.65500 26.66100
H  50.62300 35.83800 23.70200
H  48.30900 33.79800 23.82800
H  49.14000 36.91200 22.31600
H  47.74500 36.69600 23.43800
H  48.26500 35.44600 22.28400
H  50.43900 32.68600 25.29000
H  51.24700 33.75000 24.08400
H  50.06900 31.11200 23.81300
H  51.11500 31.86800 22.62500
H  49.41300 32.28500 22.53800
H  46.88600 30.50400 26.78300
H  45.49000 30.16200 27.76600
H  46.98300 29.71800 28.43400
H  44.76300 33.92500 31.61900
H  43.91900 33.05000 35.33100
H  45.45900 33.67600 36.06000
H  45.41600 32.11400 35.18600

