158

Mg 0.87800 8.30800 27.22400
C  1.72500 10.17700 30.06400
C  0.82600 5.49000 29.31400
C  0.69300 6.47700 24.54700
C  1.59100 11.14100 25.31600
N  1.31400 7.94300 29.49000
C  1.33400 8.91900 30.45200
C  1.05500 8.29900 31.86100
C  1.13700 6.75000 31.54700
C  1.13900 6.67100 29.99300
C  2.27500 5.99200 32.23700
C  -0.32000 8.81300 32.48600
C  -0.68000 8.41600 33.91800
H  0.40600 8.17600 35.03200
N  0.72900 6.38000 27.00500
C  0.63000 5.38300 27.98200
C  0.30800 4.06400 27.29600
C  0.39500 4.33700 25.89200
C  0.54300 5.78600 25.74800
C  0.07300 2.66200 27.92300
C  0.37300 3.26600 24.73800
O  0.33600 3.66100 23.58700
C  0.34400 1.87000 25.00200
N  1.20900 8.74400 25.22900
C  0.91100 7.84100 24.26500
C  1.16200 8.35800 22.86000
C  1.15500 9.90000 23.14800
C  1.26000 9.94700 24.66400
C  2.54300 7.98000 22.21400
C  -0.07400 10.76700 22.73200
C  -1.43300 10.10000 22.67200
N  1.44600 10.27000 27.57700
C  1.78600 11.30000 26.68200
C  2.03200 12.52600 27.35200
C  2.14200 12.07700 28.68800
C  1.79900 10.69700 28.77100
C  2.22100 13.87600 26.83400
C  2.45800 12.53900 30.03400
O  2.87800 13.58500 30.46700
C  2.18700 11.32600 30.95500
C  3.34900 11.01400 31.88800
O  4.37300 10.36700 31.62700
O  3.14000 11.68400 33.07200
C  4.08100 11.46400 34.11500
H  0.62800 4.63800 29.96800
H  0.48400 5.86900 23.66400
H  1.70400 12.06300 24.74100
H  1.93000 8.48900 32.48300
H  0.27800 6.27300 32.01800
H  2.71400 6.63600 32.99900
H  2.96400 5.49400 31.55600
H  1.72600 5.18400 32.72000
H  -1.13400 8.57200 31.80200
H  -0.17300 9.89000 32.40400
H  -1.23900 7.48100 33.87400
H  -1.39100 9.12400 34.34200
H  0.82100 1.90100 27.70100
H  -0.80400 2.15900 27.51400
H  -0.08200 2.70300 29.00100
H  1.21700 1.45500 25.50500
H  0.43200 1.44700 24.00100
H  -0.58600 1.40200 25.32400
H  0.36800 8.07000 22.17000
H  2.00300 10.46800 22.76600
H  3.11700 8.80900 21.80000
H  2.28300 7.35300 21.36100
H  3.11500 7.37600 22.91800
H  0.13800 11.12200 21.72400
H  -0.29200 11.56700 23.43900
H  -1.84700 9.85000 21.69500
H  -2.20200 10.71200 23.14400
H  -1.33800 9.19100 23.26700
H  1.27400 14.41600 26.84400
H  2.68600 13.77100 25.85300
H  2.96400 14.39400 27.44000
H  1.32500 11.62000 31.55400
H  4.57100 12.42800 34.25100
H  4.78400 10.63200 34.14100
H  3.59500 11.31200 35.07800
Mg 45.10500 4.11000 48.78700
C  43.54700 7.05200 47.89900
C  42.32000 2.36500 48.13500
C  46.97500 1.40900 48.65500
C  48.25400 6.10400 48.97400
N  43.11900 4.71400 48.26800
C  42.68600 5.96200 47.88000
C  41.18300 5.96200 47.69600
C  40.78400 4.48300 47.71800
C  42.13100 3.79600 48.07200
C  39.56700 4.07800 48.59500
C  40.61000 6.84000 46.59300
C  39.23700 6.59500 46.01400
H  38.97200 6.49900 44.45300
N  44.71200 2.10100 48.62400
C  43.44500 1.57100 48.29400
C  43.56800 0.15700 48.02300
C  44.94700 -0.19300 48.07300
C  45.59600 1.15300 48.44300
C  42.32700 -0.65300 47.69300
C  45.52200 -1.51800 47.84300
O  44.82300 -2.45900 47.53500
C  46.93800 -1.84000 48.05300
N  47.28300 3.87000 48.94500
C  47.76200 2.53400 48.89800
C  49.28200 2.48300 49.10900
C  49.68300 4.02200 49.26300
C  48.33300 4.73000 49.02700
C  49.75400 1.45400 50.21100
C  50.99700 4.52100 48.54900
C  51.93400 5.39200 49.45800
N  45.77400 6.18400 48.59000
C  47.06500 6.82200 48.69300
C  46.88100 8.22400 48.46200
C  45.53800 8.36500 48.19400
C  44.90300 7.04300 48.22900
C  48.00200 9.25700 48.50900
C  44.54200 9.25800 47.85500
O  44.53800 10.47700 47.72400
C  43.25000 8.46300 47.71000
C  42.17900 8.96100 48.71400
O  41.76100 8.34600 49.70100
O  41.59800 10.04400 48.12500
C  40.30600 10.40100 48.74300
H  41.39000 1.87400 47.84300
H  47.58600 0.50400 48.67500
H  49.17900 6.67400 48.86200
H  40.73800 6.31600 48.62500
H  40.53000 4.09700 46.73100
H  38.79000 3.58800 48.00900
H  38.95800 4.93500 48.88100
H  39.92300 3.59600 49.50600
H  41.33900 6.65700 45.80400
H  40.61300 7.91600 46.76400
H  38.70800 7.50400 46.29900
H  38.82700 5.75000 46.56900
H  42.54200 -1.23800 46.79800
H  41.38200 -0.13200 47.54000
H  42.14200 -1.40000 48.46500
H  47.22000 -1.65200 49.08900
H  47.51100 -1.45500 47.20900
H  46.99800 -2.91900 47.91300
H  49.77300 2.14000 48.19800
H  49.77800 4.24200 50.32600
H  50.17500 2.02200 51.04100
H  50.66800 0.92500 49.94300
H  48.89900 0.92400 50.63100
H  50.68000 5.21800 47.77300
H  51.55400 3.68700 48.12200
H  51.98400 6.36000 48.95700
H  52.89800 4.88900 49.53400
H  51.56300 5.58400 50.46500
H  48.38400 9.51100 47.52100
H  48.73900 8.82200 49.18400
H  47.55700 10.08800 49.05700
H  42.91500 8.72600 46.70700
H  39.79700 10.96300 47.96000
H  40.36000 10.94400 49.68700
H  39.68500 9.52400 48.92300

