158

Mg 26.88300 49.71800 26.10200
C  24.68700 50.88900 28.83000
C  28.91800 48.61600 28.49900
C  28.84200 49.11400 23.63100
C  24.66700 51.52900 23.98600
N  26.84800 49.92500 28.33200
C  25.84500 50.28300 29.22500
C  26.14600 49.81700 30.65600
C  27.65300 49.47700 30.58100
C  27.85700 49.29100 29.04400
C  28.65700 50.53200 31.18800
C  25.15100 48.70600 31.11600
C  24.22200 49.17400 32.20300
H  24.16800 48.41300 33.54100
N  28.67100 48.91800 26.07600
C  29.29700 48.41700 27.16500
C  30.46700 47.77100 26.67200
C  30.50100 47.94000 25.29000
C  29.30800 48.68800 24.92200
C  31.40200 47.05900 27.55800
C  31.47100 47.41300 24.23600
O  31.34200 47.61400 23.01400
C  32.65300 46.53700 24.57900
N  26.84000 50.36300 24.19300
C  27.75800 49.91100 23.27800
C  27.40000 50.18900 21.81600
C  25.99400 50.69100 21.91500
C  25.77300 50.90900 23.46600
C  28.43700 51.15200 21.18600
C  24.92600 49.71300 21.36700
C  23.95400 50.36300 20.50200
N  25.17400 51.14900 26.29700
C  24.41200 51.72900 25.33400
C  23.30500 52.30100 25.92300
C  23.40500 52.09300 27.28000
C  24.55700 51.31300 27.45900
C  22.20800 53.05800 25.30400
C  22.63100 52.29400 28.56000
O  21.63700 52.94200 28.76600
C  23.46700 51.49300 29.53800
C  23.86100 52.41100 30.67300
O  24.95000 52.94700 30.81300
O  22.80400 52.37300 31.56800
C  22.99000 53.01700 32.87000
H  29.46700 48.07500 29.27200
H  29.53500 48.86800 22.82300
H  23.96300 51.98100 23.28500
H  26.05600 50.69700 31.29300
H  27.85800 48.50000 31.02100
H  29.41200 50.00000 31.76800
H  28.08800 51.25500 31.77200
H  29.12000 51.11400 30.39200
H  25.70000 47.81800 31.42800
H  24.60900 48.39300 30.22300
H  23.23700 49.02400 31.76200
H  24.28200 50.22200 32.49700
H  32.37400 47.51500 27.36600
H  31.40200 46.01000 27.26400
H  31.21000 47.17100 28.62500
H  33.13000 46.11800 23.69300
H  32.26800 45.72500 25.19600
H  33.38900 47.09300 25.16000
H  27.51700 49.27700 21.23000
H  25.86600 51.71400 21.56100
H  29.31400 51.16500 21.83300
H  27.98500 52.11700 20.95800
H  28.85600 50.68600 20.29400
H  24.37600 49.17800 22.14000
H  25.24900 48.81900 20.83300
H  24.07400 50.02500 19.47300
H  23.95600 51.43400 20.30100
H  22.94500 50.12200 20.83500
H  22.67500 53.95500 24.89800
H  21.48700 53.37800 26.05600
H  21.67300 52.43400 24.58900
H  22.89800 50.63100 29.88600
H  22.04600 52.82600 33.37900
H  23.03000 54.10600 32.90300
H  23.78200 52.53200 33.44100
Mg -13.50700 15.47000 41.81500
C  -10.51300 13.75100 41.54200
C  -12.08900 18.07200 40.07000
C  -16.57800 16.90700 41.32100
C  -14.86300 12.66500 43.42000
N  -11.56500 15.75600 40.84600
C  -10.47700 15.01400 40.91900
C  -9.29500 15.58000 40.09700
C  -9.70900 17.01100 39.89200
C  -11.24000 16.97000 40.26400
C  -8.86400 18.07500 40.51200
C  -8.99400 14.70700 38.82200
C  -7.54700 14.20900 38.58800
H  -6.75600 14.95800 37.47100
N  -14.20800 17.31600 40.87100
C  -13.45900 18.23900 40.22800
C  -14.31900 19.28600 39.71000
C  -15.63400 18.94000 40.03100
C  -15.53300 17.69500 40.82600
C  -13.75600 20.43400 38.85100
C  -16.88000 19.67500 39.56100
O  -16.85400 20.69600 38.90100
C  -18.30200 19.17500 39.81000
N  -15.43500 14.78000 42.19200
C  -16.53100 15.64100 41.95800
C  -17.82100 14.89600 42.41000
C  -17.24200 13.74300 43.33600
C  -15.76000 13.65700 42.93600
C  -18.94100 15.75500 43.09700
C  -18.04100 12.38300 43.29200
C  -17.74700 11.63100 42.00100
N  -12.86100 13.50000 42.41500
C  -13.51200 12.46700 43.05800
C  -12.64300 11.39100 43.24400
C  -11.39800 11.81800 42.69800
C  -11.58600 13.11200 42.22800
C  -12.93900 10.03200 43.85100
C  -9.98000 11.42600 42.45200
O  -9.34100 10.35400 42.61800
C  -9.34400 12.76800 41.75500
C  -8.20400 13.41000 42.61000
O  -8.29900 14.29700 43.45600
O  -6.96800 12.89100 42.18700
C  -5.81800 13.63700 42.64700
H  -11.58000 18.92100 39.61000
H  -17.54500 17.41400 41.30800
H  -15.29700 11.87400 44.03600
H  -8.49200 15.55700 40.83300
H  -9.61700 17.19700 38.82200
H  -8.62000 18.77700 39.71400
H  -7.89300 17.62300 40.71300
H  -9.31500 18.48100 41.41800
H  -9.36100 15.26200 37.95800
H  -9.68200 13.86200 38.80000
H  -7.49800 13.13300 38.42000
H  -6.85100 14.37900 39.40900
H  -14.11100 20.39300 37.82100
H  -12.67800 20.46100 38.69100
H  -14.02000 21.39700 39.28800
H  -18.40600 18.12800 39.52500
H  -18.98300 19.77100 39.20300
H  -18.56900 19.33900 40.85400
H  -18.13200 14.45200 41.46400
H  -17.31500 13.97000 44.39900
H  -19.23200 15.35600 44.06900
H  -19.86000 15.86900 42.52100
H  -18.54800 16.76300 43.22900
H  -19.06500 12.75700 43.27200
H  -17.70900 11.85100 44.18300
H  -18.70700 11.39800 41.54000
H  -17.35100 10.65200 42.27100
H  -17.31400 12.19700 41.17700
H  -13.35100 10.26900 44.83200
H  -12.01700 9.46300 43.73400
H  -13.71800 9.54300 43.26500
H  -8.93500 12.46500 40.79200
H  -6.04900 14.28300 43.49400
H  -5.47000 14.27500 41.83500
H  -5.06200 12.91800 42.96200

