158

Mg 53.85600 24.46800 42.96700
C  51.48400 26.99400 42.28100
C  51.74600 22.10900 42.00400
C  56.49000 22.30400 42.92100
C  56.05800 27.02700 43.90400
N  51.87000 24.62300 42.05400
C  51.06200 25.67800 41.83500
C  49.66500 25.20800 41.39200
C  49.67700 23.66300 41.83400
C  51.20000 23.45100 42.07800
C  48.80700 23.26600 43.06100
C  49.27800 25.49000 39.91700
C  50.33300 25.16700 38.85800
H  49.85300 24.32000 37.66200
N  54.10700 22.49000 42.38900
C  53.08100 21.69400 42.13000
C  53.52300 20.29700 42.16600
C  54.87500 20.31500 42.60700
C  55.23600 21.74000 42.67800
C  52.64600 19.08300 41.86400
C  55.71100 19.05000 42.79600
O  55.31600 17.94900 42.50000
C  57.04500 19.03100 43.50500
N  56.03100 24.67300 43.12400
C  56.91100 23.60100 43.22900
C  58.39200 24.03600 43.50300
C  58.18300 25.57200 43.95900
C  56.68300 25.80200 43.63500
C  59.11200 23.14800 44.57500
C  59.12300 26.66600 43.35200
C  59.82300 27.49700 44.30300
N  53.81700 26.64600 43.12700
C  54.76200 27.48600 43.57100
C  54.10000 28.74600 43.80100
C  52.81700 28.68900 43.25200
C  52.69200 27.34000 42.84900
C  54.74200 29.90700 44.47600
C  51.58700 29.37300 42.92500
O  51.21100 30.45900 43.23900
C  50.63000 28.27900 42.31600
C  50.01700 28.75700 41.04700
O  50.45900 28.69800 39.96900
O  48.76700 29.19500 41.37400
C  47.90400 29.73600 40.31100
H  50.95100 21.38600 41.81000
H  57.30400 21.58200 43.01000
H  56.79200 27.69400 44.36000
H  48.88700 25.71300 41.96400
H  49.50600 23.07400 40.93300
H  48.06300 22.52300 42.77300
H  48.33900 24.05300 43.65400
H  49.46200 22.86000 43.83100
H  48.89900 26.50700 39.81600
H  48.34700 24.97000 39.69200
H  51.10500 24.59000 39.36600
H  50.77300 26.07000 38.43500
H  52.33900 18.54100 42.75900
H  53.10400 18.26300 41.31000
H  51.77700 19.45700 41.32300
H  57.12700 18.10300 44.07200
H  57.01100 19.86200 44.21000
H  57.92700 19.00000 42.86500
H  58.97200 23.98600 42.58200
H  58.23200 25.56700 45.04800
H  58.64600 22.27800 45.03600
H  59.63900 23.77000 45.29800
H  60.01600 22.78800 44.08400
H  58.59300 27.34700 42.68500
H  59.82100 26.15500 42.68800
H  59.35800 28.48000 44.37100
H  60.85200 27.70900 44.01300
H  59.77600 27.15300 45.33700
H  54.74400 30.78500 43.83100
H  55.74400 29.62100 44.79500
H  54.24100 29.98000 45.44100
H  49.79300 28.12000 42.99500
H  48.28100 30.72700 40.05900
H  46.94600 29.99600 40.76300
H  47.78500 29.06100 39.46300
Mg 48.80900 35.46900 27.57900
C  46.57500 33.79400 29.69100
C  49.13600 37.91900 29.88900
C  50.74500 37.09300 25.36300
C  47.89600 33.09200 24.97600
N  47.92500 35.77700 29.57900
C  47.09700 34.93400 30.26900
C  47.25500 35.24700 31.72100
C  47.61500 36.80700 31.61900
C  48.29500 36.89400 30.27700
C  46.41700 37.86100 31.72900
C  48.32300 34.37500 32.49800
C  48.24200 34.24600 33.99800
H  47.20700 35.08100 34.72400
N  49.92600 37.20700 27.65200
C  49.89200 38.12200 28.67500
C  50.77500 39.25400 28.26800
C  51.28800 38.98700 27.01100
C  50.59100 37.74800 26.56300
C  51.04100 40.34800 29.20200
C  52.20000 39.77900 26.08500
O  52.37600 39.61300 24.91300
C  52.96700 40.93400 26.70600
N  49.13900 35.18500 25.40900
C  50.17100 35.92000 24.79500
C  50.68000 35.21300 23.55800
C  49.66400 34.03500 23.29600
C  48.83600 34.07200 24.59200
C  50.69300 36.06900 22.25400
C  50.22900 32.65300 23.04300
C  49.67300 31.68200 21.91200
N  47.49600 33.80700 27.31700
C  47.27500 32.90200 26.23500
C  46.40600 31.81500 26.65800
C  46.11800 32.18300 28.03800
C  46.80800 33.36400 28.36800
C  45.96200 30.65200 25.81600
C  45.28200 31.73200 29.09500
O  44.54400 30.75600 29.18700
C  45.50900 32.79300 30.27600
C  45.89200 32.05100 31.57500
O  46.74600 31.16700 31.57400
O  45.08700 32.33200 32.62900
C  45.25600 31.40500 33.75000
H  49.33600 38.70300 30.62300
H  51.65200 37.39800 24.83500
H  47.63700 32.40700 24.16600
H  46.29000 35.29500 32.22500
H  48.41400 36.93600 32.35000
H  46.72400 38.62000 32.44900
H  45.46100 37.42000 32.01300
H  46.39300 38.34700 30.75400
H  49.28000 34.73800 32.12300
H  48.18200 33.36600 32.10900
H  49.28700 34.32500 34.29800
H  47.88000 33.22400 34.10900
H  51.91500 40.17300 29.82900
H  50.10900 40.46800 29.75400
H  51.18700 41.30600 28.70400
H  53.31000 40.54500 27.66500
H  52.24600 41.74400 26.80900
H  53.80700 41.22400 26.07500
H  51.60800 34.68500 23.77700
H  48.96700 34.15200 22.46700
H  50.20600 36.99200 22.57200
H  50.20100 35.62800 21.38700
H  51.74200 36.19200 21.98700
H  50.07800 32.11100 23.97600
H  51.31700 32.67500 22.97700
H  50.34100 31.63500 21.05300
H  48.63600 31.78400 21.59100
H  49.68200 30.65800 22.28400
H  46.81500 29.98100 25.71400
H  45.80800 31.05200 24.81400
H  45.06000 30.12400 26.12300
H  44.60200 33.38400 30.40000
H  45.70000 30.42900 33.55700
H  44.30700 31.24200 34.26000
H  45.92000 31.95100 34.42100

