158

Mg 8.36600 4.38600 28.24400
C  9.82100 2.87700 31.13600
C  6.39400 6.17100 30.36300
C  7.00000 5.69600 25.44000
C  10.03300 1.99900 26.17000
N  8.18000 4.51000 30.50100
C  8.86800 3.86100 31.50400
C  8.53100 4.32800 32.91900
C  7.36600 5.28000 32.58900
C  7.28700 5.35600 31.07000
C  5.93000 5.01500 33.22600
C  9.78300 4.83500 33.74200
C  9.45400 5.71100 34.91200
H  10.08300 5.35700 36.31300
N  6.91100 5.68000 27.94400
C  6.18400 6.31600 28.96200
C  5.32700 7.26700 28.28900
C  5.64600 7.21700 26.92000
C  6.54700 6.18500 26.69700
C  4.26700 8.12600 29.00100
C  5.14300 8.18000 25.74600
O  5.56500 8.06500 24.61500
C  4.31800 9.38500 25.99400
N  8.34800 3.75200 26.10900
C  7.82000 4.59100 25.14900
C  8.08900 4.13300 23.70900
C  9.21200 3.07600 24.00100
C  9.16700 2.84800 25.50100
C  6.88900 3.42600 23.03800
C  10.58400 3.31200 23.36200
C  11.56300 4.25900 24.00200
N  9.70900 2.85900 28.55700
C  10.24900 1.98100 27.60400
C  11.14200 1.05200 28.29200
C  11.04600 1.39900 29.71800
C  10.08500 2.43600 29.80400
C  11.92300 0.00400 27.63700
C  11.43500 1.01100 31.00100
O  12.16200 0.05500 31.37800
C  10.82700 2.08300 31.94500
C  10.29600 1.39800 33.17900
O  9.17600 0.91800 33.24700
O  11.28600 1.45100 34.13600
C  11.13300 0.57000 35.35600
H  5.89900 7.02100 30.83700
H  6.57400 6.01900 24.48800
H  10.47100 1.19600 25.57400
H  8.07000 3.49000 33.44200
H  7.58200 6.27400 32.98000
H  5.91700 3.97700 33.55600
H  5.13900 5.05100 32.47700
H  5.58600 5.68600 34.01400
H  10.50100 5.41900 33.16600
H  10.36700 4.04200 34.20700
H  8.37200 5.72200 35.04400
H  9.84200 6.70100 34.67400
H  4.59900 9.15800 28.88000
H  4.05100 7.92100 30.04900
H  3.30600 8.03200 28.49600
H  3.25900 9.20900 26.18300
H  4.45700 10.12300 25.20400
H  4.81400 9.86700 26.83600
H  8.50300 4.97100 23.14700
H  8.84400 2.15500 23.55000
H  7.02800 3.02400 22.03400
H  6.10000 4.16200 22.88800
H  6.60100 2.64000 23.73600
H  10.42100 3.69800 22.35600
H  11.14200 2.37900 23.29900
H  11.03400 4.79800 24.78700
H  12.04300 4.96800 23.32700
H  12.29300 3.63000 24.51200
H  11.32800 -0.62600 26.97600
H  12.33300 -0.63400 28.42000
H  12.81000 0.29300 27.07200
H  11.52400 2.81100 32.36200
H  10.78900 1.30100 36.08800
H  12.05200 0.07000 35.66300
H  10.33400 -0.15800 35.21100
Mg -6.56900 24.89700 25.90900
C  -5.34100 26.26800 29.05200
C  -8.46400 22.76200 27.75100
C  -7.24500 23.26600 23.05600
C  -4.46100 27.05600 24.28000
N  -6.79700 24.46800 28.15400
C  -6.32900 25.22300 29.18200
C  -6.95500 24.78500 30.52100
C  -7.78000 23.57000 30.16700
C  -7.69800 23.58000 28.62400
C  -7.34400 22.24200 30.88700
C  -7.73400 26.07300 31.17000
C  -7.84500 26.06900 32.70700
H  -7.38000 24.92700 33.71700
N  -7.73900 23.28000 25.43000
C  -8.50400 22.55600 26.33000
C  -9.26400 21.56500 25.65700
C  -8.93500 21.68700 24.24500
C  -7.93100 22.76300 24.18800
C  -10.24600 20.63400 26.29100
C  -9.48000 20.81800 22.95900
O  -9.08700 20.84200 21.82000
C  -10.61500 19.83400 23.24900
N  -5.82000 25.05200 23.95400
C  -6.23700 24.24800 22.93300
C  -5.43000 24.59100 21.69100
C  -4.94300 26.04400 21.97600
C  -5.14400 26.14000 23.50000
C  -4.45600 23.46900 21.37100
C  -5.57900 27.20300 21.15800
C  -4.66500 27.77500 20.06800
N  -5.08500 26.35500 26.52700
C  -4.39600 27.21100 25.71100
C  -3.63200 28.08900 26.54800
C  -3.96000 27.83200 27.86200
C  -4.91800 26.78300 27.79600
C  -2.80500 29.15900 26.05200
C  -3.76900 28.19200 29.22600
O  -3.03100 29.01200 29.72300
C  -4.73600 27.24600 30.12300
C  -3.84900 26.80200 31.24200
O  -3.10500 25.80800 31.27300
O  -3.95400 27.70900 32.29800
C  -3.10400 27.49100 33.52100
H  -9.10000 22.10300 28.34600
H  -7.66900 22.82300 22.15200
H  -3.83100 27.75900 23.73100
H  -6.08900 24.49100 31.11400
H  -8.78700 23.88800 30.43900
H  -6.56100 22.39700 31.62900
H  -7.02100 21.46900 30.18900
H  -8.18400 21.89100 31.48600
H  -8.72600 25.99300 30.72700
H  -7.43100 27.06800 30.84600
H  -8.93000 26.01700 32.79700
H  -7.66400 27.04100 33.16400
H  -10.81500 21.29400 26.94600
H  -9.79800 19.77200 26.78600
H  -10.99700 20.24600 25.60300
H  -10.45600 19.02500 23.96200
H  -10.89700 19.51900 22.24500
H  -11.44900 20.43300 23.61400
H  -6.10200 24.70600 20.84100
H  -3.85300 26.07800 21.97700
H  -4.36200 22.92300 22.31000
H  -3.51900 23.88400 21.00000
H  -4.86800 22.79300 20.62100
H  -5.81200 28.03800 21.81900
H  -6.56100 26.97600 20.74300
H  -5.25700 28.24100 19.28100
H  -4.03800 27.08500 19.50400
H  -4.04500 28.52900 20.55400
H  -2.52300 29.04200 25.00600
H  -1.95000 29.12500 26.72600
H  -3.39200 30.02700 26.35000
H  -5.46200 27.85700 30.65900
H  -2.08200 27.73400 33.23100
H  -3.09900 26.46300 33.88100
H  -3.52300 28.15300 34.27900

