158

Mg 47.77200 16.45900 28.70800
C  45.45500 15.80300 31.19000
C  49.41500 18.60700 30.81200
C  49.89600 17.15500 26.21800
C  45.73900 14.77400 26.42200
N  47.41300 17.21200 30.71500
C  46.44700 16.73300 31.61400
C  46.65700 17.21000 33.02600
C  47.78900 18.30700 32.83300
C  48.24700 18.05400 31.39100
C  47.27500 19.81100 32.99100
C  47.11900 16.00700 33.98900
C  46.75400 16.08000 35.47900
H  47.90000 16.03700 36.52000
N  49.41700 17.75400 28.54900
C  49.98500 18.54600 29.55200
C  51.15500 19.17900 29.07100
C  51.39800 18.62800 27.76000
C  50.21300 17.78600 27.47100
C  52.04800 20.18700 29.85600
C  52.59700 18.75600 26.83900
O  52.68000 18.20100 25.73000
C  53.76200 19.58200 27.29900
N  47.76000 16.09600 26.54700
C  48.83500 16.37400 25.78100
C  48.68500 15.83700 24.34800
C  47.39500 14.92000 24.44600
C  46.94400 15.19900 25.85900
C  48.49800 17.03400 23.35800
C  47.55100 13.48100 24.02900
C  47.47400 12.33900 25.04300
N  46.00500 15.52900 28.74200
C  45.26800 14.88600 27.73100
C  44.01800 14.35500 28.30500
C  44.04800 14.66900 29.67500
C  45.27100 15.31200 29.87700
C  42.90400 13.63100 27.53100
C  43.27600 14.64600 30.85800
O  42.14600 14.37300 31.11400
C  44.27800 15.32700 31.93200
C  43.51300 16.33000 32.70600
O  43.16400 17.36700 32.25400
O  43.40600 15.91900 34.04400
C  42.50900 16.83300 34.83900
H  49.89700 19.18800 31.60200
H  50.70300 17.15900 25.48200
H  45.09400 14.20000 25.75400
H  45.79100 17.79700 33.33300
H  48.62200 18.29600 33.53500
H  46.19400 19.94500 32.98700
H  47.67100 20.36600 32.14000
H  47.78200 20.13500 33.90000
H  48.20600 15.99900 33.92200
H  46.73600 15.04700 33.64100
H  46.15000 15.20700 35.72700
H  46.13500 16.97600 35.51800
H  51.39000 20.59800 30.62100
H  52.24600 20.97000 29.12500
H  52.88300 19.60300 30.24600
H  53.50600 20.64000 27.34000
H  54.55800 19.38700 26.58100
H  54.05900 19.23800 28.29000
H  49.60500 15.33900 24.04200
H  46.54700 15.30400 23.87900
H  49.06200 16.80600 22.45300
H  48.87100 17.96700 23.78000
H  47.46200 17.05700 23.01900
H  48.49700 13.39700 23.49400
H  46.73400 13.20600 23.36300
H  46.93700 12.64700 25.94000
H  48.45000 11.97300 25.36000
H  46.86900 11.47100 24.77700
H  42.82200 12.62800 27.94800
H  43.17400 13.35200 26.51200
H  41.92700 14.11500 27.55200
H  44.65800 14.61600 32.66600
H  42.50900 16.41600 35.84600
H  41.46300 16.82500 34.53100
H  42.97500 17.81500 34.91200
Mg 0.43300 42.82800 25.96400
C  3.00900 42.73000 28.31900
C  -1.77500 42.38200 28.50100
C  -2.03700 42.79400 23.63300
C  2.85000 43.10000 23.47600
N  0.63100 42.58800 28.16200
C  1.79100 42.57600 28.91100
C  1.42000 42.42400 30.34100
C  -0.08100 41.93800 30.34800
C  -0.47500 42.28600 28.96500
C  -0.33800 40.39100 30.74600
C  1.75200 43.75700 31.10400
C  1.31100 43.88900 32.59000
H  1.03700 42.63900 33.39900
N  -1.68200 42.52200 26.05100
C  -2.37000 42.43800 27.23000
C  -3.83800 42.43400 26.84200
C  -3.86500 42.53600 25.43400
C  -2.50300 42.60800 24.98600
C  -4.79000 42.48600 27.88200
C  -5.09300 42.53700 24.51500
O  -5.06400 42.65100 23.31200
C  -6.44000 42.60700 25.05500
N  0.38000 42.87700 23.85700
C  -0.74000 42.93600 23.09100
C  -0.43700 43.17900 21.62300
C  1.06500 43.19600 21.56300
C  1.52100 43.10700 23.03300
C  -1.08300 42.09200 20.66700
C  1.62700 44.35500 20.74000
C  1.81000 45.76000 21.44900
N  2.50600 42.87100 25.84100
C  3.33500 43.05200 24.77700
C  4.71000 43.02300 25.17000
C  4.63600 42.80800 26.57800
C  3.26100 42.82700 26.93400
C  5.92400 43.04900 24.28100
C  5.42300 42.55800 27.77500
O  6.62500 42.39100 27.90900
C  4.37600 42.58200 28.93400
C  4.61300 41.38000 29.79500
O  4.20300 40.25700 29.60200
O  5.31900 41.69500 30.91600
C  5.36800 40.69300 31.98300
H  -2.43000 42.29100 29.37000
H  -2.73700 42.95800 22.81100
H  3.46100 43.24300 22.58200
H  1.99500 41.65600 30.85800
H  -0.67400 42.52500 31.04900
H  -0.87000 40.33700 31.69600
H  0.46900 39.68700 30.94900
H  -1.03900 39.98700 30.01600
H  1.22800 44.57200 30.60300
H  2.78200 44.11600 31.08000
H  0.36900 44.43400 32.64000
H  2.08600 44.50100 33.05200
H  -5.76000 42.85200 27.54500
H  -4.54000 43.23900 28.63000
H  -4.79100 41.47600 28.29300
H  -6.48700 41.83900 25.82800
H  -7.21200 42.29500 24.35200
H  -6.60500 43.60900 25.45100
H  -0.69200 44.17800 21.26900
H  1.41500 42.26700 21.11400
H  -1.45900 41.30200 21.31700
H  -0.36400 41.51700 20.08400
H  -1.90600 42.40800 20.02500
H  1.05400 44.48700 19.82100
H  2.61500 43.96500 20.49800
H  1.37300 45.59400 22.43300
H  1.22800 46.54000 20.95700
H  2.86000 46.05200 21.45900
H  6.73200 42.50800 24.77400
H  6.27000 44.06800 24.10700
H  5.66100 42.47800 23.39100
H  4.68600 43.40900 29.57300
H  5.88800 39.77500 31.71000
H  4.38600 40.43400 32.37900
H  5.91200 41.24700 32.74800

