158

Mg 42.60800 42.24000 25.82200
C  41.33300 44.35900 28.26300
C  43.81500 40.23500 28.24000
C  43.60700 40.06400 23.44100
C  41.57500 44.50300 23.44600
N  42.39100 42.23400 28.02300
C  41.91200 43.21500 28.86300
C  42.07600 42.94900 30.31200
C  43.00200 41.60700 30.30100
C  43.15900 41.35100 28.74700
C  44.39400 41.75800 30.96300
C  40.77400 42.74000 31.16800
C  40.83500 43.43400 32.55300
H  39.60700 43.58400 33.44900
N  43.63600 40.39900 25.81900
C  43.95500 39.73600 26.97500
C  44.49500 38.44800 26.57500
C  44.57300 38.39600 25.17200
C  43.92500 39.59300 24.73000
C  44.96600 37.38100 27.64800
C  45.31300 37.44700 24.31200
O  45.35900 37.64900 23.08500
C  46.08700 36.30900 24.83600
N  42.63000 42.25800 23.75200
C  43.16500 41.32000 22.92500
C  43.18300 41.82400 21.46500
C  42.36300 43.09100 21.51700
C  42.15600 43.34500 22.97500
C  44.58500 42.00800 20.82000
C  41.07800 42.88100 20.69000
C  40.52000 44.18800 19.96300
N  41.53200 44.02800 25.78000
C  41.17400 44.85100 24.75400
C  40.55300 46.08100 25.21200
C  40.59000 45.89700 26.65300
C  41.19400 44.66600 26.87200
C  40.00600 47.21100 24.42800
C  40.25200 46.46400 27.96900
O  39.70600 47.52100 28.24300
C  40.67600 45.52900 29.05700
C  41.74700 46.13000 29.82300
O  42.85200 46.29900 29.38600
O  41.28300 46.54000 31.02200
C  42.32600 47.10100 31.88100
H  44.24600 39.58000 29.00000
H  43.99100 39.45000 22.62400
H  41.19000 45.23500 22.73300
H  42.68200 43.73500 30.76300
H  42.56500 40.72600 30.77100
H  44.63000 41.07800 31.78100
H  44.55100 42.69000 31.50400
H  45.21500 41.76000 30.24600
H  40.71800 41.67000 31.36500
H  39.95100 43.05300 30.52600
H  41.49300 44.30200 32.52100
H  41.53300 42.82400 33.12600
H  44.32500 37.59400 28.50400
H  46.01000 37.56000 27.90600
H  44.84500 36.33500 27.36600
H  46.59600 35.74100 24.05800
H  45.45000 35.63000 25.40300
H  46.81200 36.74100 25.52600
H  42.72400 40.95900 20.98700
H  42.92100 44.00300 21.30200
H  44.76600 43.06400 20.62000
H  44.57000 41.44000 19.88900
H  45.27600 41.53700 21.51900
H  40.34400 42.51200 21.40600
H  41.34100 42.14600 19.93000
H  39.49600 44.44700 20.23000
H  40.56600 43.95900 18.89900
H  41.12400 45.07600 20.15100
H  39.54400 47.96700 25.06300
H  39.27700 46.83900 23.70900
H  40.80200 47.73400 23.89900
H  39.88700 45.19000 29.72800
H  43.04400 46.34400 32.19800
H  41.90400 47.64300 32.72700
H  42.86900 47.78300 31.22600
Mg 1.78600 42.17500 25.70500
C  2.97500 42.27900 29.06100
C  -1.17400 41.10300 26.83800
C  0.93500 41.74000 22.46700
C  4.92500 43.31900 24.66100
N  1.03000 41.91300 27.75200
C  1.63200 41.95000 28.95800
C  0.63400 41.78000 30.08400
C  -0.63600 41.25600 29.34700
C  -0.27400 41.49200 27.84200
C  -0.91500 39.76300 29.65400
C  0.51100 43.05000 30.96300
C  -0.38500 43.03900 32.21100
H  -0.82100 41.70700 32.81300
N  0.12000 41.52800 24.76700
C  -1.09700 41.17400 25.42600
C  -2.07900 40.75400 24.39400
C  -1.46000 40.85200 23.11500
C  -0.08800 41.44600 23.44500
C  -3.52500 40.31800 24.77300
C  -1.98000 40.49600 21.80400
O  -1.25500 40.44400 20.82500
C  -3.38300 39.81200 21.72100
N  2.77900 42.43400 23.83300
C  2.17900 42.26700 22.60900
C  3.11000 42.56700 21.44700
C  4.25700 43.30500 22.14300
C  4.02800 43.02900 23.62200
C  3.50900 41.30800 20.62900
C  4.45300 44.80900 21.66100
C  5.55200 45.12400 20.71100
N  3.54800 42.78900 26.60400
C  4.73700 43.20000 26.07700
C  5.71800 43.46600 27.15000
C  5.10800 43.05000 28.33800
C  3.79000 42.71400 27.98200
C  7.15300 43.86000 26.94200
C  5.24100 42.82400 29.73300
O  6.21500 42.97000 30.50700
C  3.86800 42.37200 30.24400
C  4.05000 41.01400 30.86900
O  4.31100 39.92000 30.29600
O  3.98000 41.12000 32.19900
C  4.15200 39.89900 32.96100
H  -2.14800 40.70500 27.13200
H  0.64500 41.68600 21.41600
H  5.77800 43.82700 24.20600
H  1.09900 41.04800 30.74400
H  -1.46900 41.85000 29.72100
H  -1.93500 39.57800 29.99100
H  -0.24400 39.30400 30.38100
H  -0.60300 39.27600 28.73000
H  0.08000 43.82000 30.32300
H  1.54200 43.38300 31.08100
H  -1.19800 43.74900 32.05800
H  0.23200 43.51700 32.97200
H  -4.22100 40.93500 24.20500
H  -3.82400 40.63400 25.77200
H  -3.72900 39.24800 24.72900
H  -4.08200 40.64200 21.61600
H  -3.49400 39.04300 22.48500
H  -3.50200 39.26700 20.78500
H  2.54300 43.30000 20.87300
H  5.17100 42.86100 21.74800
H  3.44000 40.39800 21.22500
H  4.52500 41.34300 20.23800
H  2.75300 41.05900 19.88400
H  4.52300 45.36000 22.59800
H  3.47500 45.18500 21.35800
H  6.12800 44.23100 20.46900
H  6.12500 45.93000 21.17100
H  5.13400 45.40300 19.74300
H  7.78200 42.97000 26.94900
H  7.48100 44.61700 27.65500
H  7.24500 44.29800 25.94800
H  3.48700 43.03300 31.02200
H  5.20200 39.62300 33.05800
H  3.67600 39.05000 32.47000
H  3.73300 39.82500 33.96500

