158

Mg -0.13600 7.12300 26.93200
C  1.13500 9.33300 29.26300
C  -0.15500 4.62400 29.50600
C  -0.92600 4.90800 24.74900
C  0.80000 9.42100 24.41000
N  0.54800 6.95000 29.05500
C  0.97200 8.02300 29.77900
C  0.84100 7.69200 31.32400
C  0.73800 6.12100 31.33100
C  0.40000 5.82900 29.85200
C  2.00100 5.36100 31.80700
C  -0.32700 8.40000 32.09500
C  -0.22100 8.62500 33.66700
H  0.79800 7.94800 34.46800
N  -0.67800 5.02600 27.15400
C  -0.56500 4.18500 28.23000
C  -1.09100 2.87400 27.85200
C  -1.29000 2.89700 26.42600
C  -0.99400 4.28900 26.08900
C  -1.11400 1.68400 28.76200
C  -1.64800 1.83500 25.43700
O  -1.58000 2.02900 24.20600
C  -2.02400 0.51400 25.97500
N  0.03000 7.14200 24.91200
C  -0.47900 6.04700 24.22800
C  -0.89000 6.50200 22.79600
C  -0.19300 7.91800 22.64700
C  0.25500 8.22400 24.09000
C  -0.50900 5.46800 21.62900
C  -1.01100 9.00400 22.02000
C  -2.07600 9.69800 22.93200
N  0.75900 9.01700 26.80200
C  1.03300 9.88100 25.70400
C  1.36600 11.17700 26.17800
C  1.37000 11.07900 27.58200
C  1.04900 9.72800 27.88600
C  1.61200 12.36300 25.24900
C  1.66300 11.70800 28.83500
O  2.02200 12.85400 29.08400
C  1.48600 10.64200 29.97300
C  2.72100 10.72900 30.74900
O  3.79500 10.27500 30.40100
O  2.50700 11.51800 31.85700
C  3.62900 11.62300 32.73300
H  -0.32600 3.86400 30.27100
H  -1.48500 4.25300 24.07800
H  0.91500 10.24600 23.70400
H  1.76000 8.12800 31.71700
H  -0.07100 5.83500 32.00400
H  2.76000 6.06800 32.14300
H  2.46000 4.85100 30.96000
H  1.76100 4.53300 32.47400
H  -1.23100 7.79300 32.04700
H  -0.46900 9.31400 31.51800
H  -1.21600 8.42400 34.06300
H  -0.16600 9.70000 33.84200
H  -2.13500 1.34900 28.94000
H  -0.50200 1.85900 29.64700
H  -0.57900 0.95800 28.14900
H  -1.19100 -0.02800 26.42100
H  -2.43600 -0.10500 25.17700
H  -2.85000 0.53600 26.68600
H  -1.97200 6.57000 22.68800
H  0.64500 8.04600 21.96300
H  -0.19900 5.93900 20.69600
H  -1.28500 4.76400 21.32900
H  0.39400 4.92600 21.90900
H  -1.66900 8.56200 21.27200
H  -0.32400 9.68400 21.51700
H  -2.04500 10.78800 22.91200
H  -2.01700 9.48600 24.00000
H  -3.01000 9.48500 22.41200
H  1.25400 13.21800 25.82200
H  1.12000 12.34700 24.27600
H  2.70000 12.39200 25.19400
H  0.66800 11.01800 30.58700
H  4.54900 12.07200 32.35900
H  4.07900 10.69400 33.08400
H  3.25600 12.09900 33.64000
Mg 26.51600 50.15300 26.17300
C  24.59800 51.34600 28.78500
C  28.75800 49.19500 28.59000
C  28.61500 49.30300 23.69400
C  24.18400 51.25000 23.86800
N  26.51400 50.12300 28.46800
C  25.63300 50.60700 29.34600
C  26.01400 50.43000 30.75500
C  27.59600 49.94800 30.65100
C  27.65400 49.79600 29.15000
C  28.83100 50.90700 31.21300
C  25.03300 49.40600 31.44000
C  24.43300 49.56600 32.81900
H  25.19600 50.25600 33.97900
N  28.40900 49.26900 26.12900
C  29.20600 48.88400 27.22600
C  30.42800 48.20600 26.71800
C  30.41000 48.42000 25.35200
C  29.10800 49.11300 24.93100
C  31.39600 47.41700 27.66200
C  31.60100 48.09900 24.42400
O  31.57200 48.47500 23.25800
C  32.86200 47.43700 24.87000
N  26.53100 50.38600 24.07100
C  27.42500 49.85900 23.20600
C  27.04600 49.96400 21.67900
C  25.57900 50.66200 21.87000
C  25.38500 50.68900 23.35900
C  28.03400 50.82000 20.90200
C  24.45500 49.87500 21.13400
C  24.13500 50.32900 19.76900
N  24.79700 51.18000 26.25800
C  23.86300 51.46100 25.28500
C  22.69000 52.20000 25.85300
C  22.91600 52.10300 27.24000
C  24.20700 51.53000 27.47200
C  21.52800 52.79300 25.14600
C  22.40300 52.50900 28.52300
O  21.39600 53.14900 28.80100
C  23.46100 51.92900 29.64600
C  23.90700 53.11000 30.47900
O  24.70900 53.92600 30.13500
O  23.33500 53.08700 31.68100
C  23.67400 54.18700 32.63900
H  29.48900 48.80600 29.30200
H  29.25400 48.87900 22.91600
H  23.48700 51.61400 23.11100
H  26.08500 51.39100 31.26600
H  27.61700 48.91800 31.00800
H  28.37800 51.60800 31.91300
H  29.41400 51.34800 30.40400
H  29.46200 50.13600 31.65500
H  25.45700 48.40800 31.32100
H  24.14600 49.30500 30.81400
H  24.29200 48.53300 33.13500
H  23.45300 50.04100 32.76800
H  31.47200 46.36400 27.39300
H  31.09100 47.42200 28.70800
H  32.35100 47.94300 27.66800
H  33.35100 48.11200 25.57300
H  33.47500 47.22000 23.99500
H  32.47000 46.50600 25.28000
H  26.92000 48.95200 21.29400
H  25.53700 51.69800 21.53100
H  28.86800 51.20200 21.49100
H  27.55400 51.65300 20.38800
H  28.37800 50.05300 20.20800
H  23.54200 50.02200 21.71000
H  24.70500 48.81400 21.11900
H  24.49700 49.62700 19.01800
H  24.76500 51.17900 19.50800
H  23.07800 50.56200 19.63700
H  20.59500 52.26200 25.33800
H  21.68000 52.66400 24.07400
H  21.45000 53.81700 25.51100
H  22.88700 51.20300 30.22200
H  24.01600 55.08000 32.11500
H  24.41700 53.74200 33.30100
H  22.83700 54.47900 33.27300

