158

Mg 35.18100 2.72700 30.27200
C  33.01200 3.93200 32.74300
C  37.78600 2.85900 32.37200
C  37.22700 1.47200 27.77800
C  32.70700 3.28600 27.92000
N  35.38900 3.29900 32.36100
C  34.28700 3.64400 33.20100
C  34.82900 3.75700 34.68300
C  36.36800 3.81700 34.44600
C  36.58100 3.27900 32.99500
C  37.00100 5.22400 34.76900
C  34.33400 2.48800 35.44200
C  33.68500 2.71700 36.79700
H  34.23900 3.85700 37.63900
N  37.15900 2.17600 30.15000
C  38.08800 2.42400 31.13300
C  39.35000 2.08400 30.69600
C  39.25000 1.58700 29.39500
C  37.86100 1.74400 29.00400
C  40.63100 2.00400 31.66700
C  40.29800 1.00300 28.46100
O  39.96300 0.64200 27.29400
C  41.71500 0.90500 28.81500
N  34.96600 2.37600 28.18100
C  35.88900 1.70200 27.41200
C  35.50100 1.79400 25.91700
C  33.97000 2.18900 25.98600
C  33.92700 2.77500 27.45500
C  36.41300 2.83500 25.22000
C  33.06800 0.96800 25.69800
C  32.73600 0.85100 24.25400
N  33.23800 3.44200 30.25800
C  32.34000 3.59700 29.23100
C  31.07200 4.04500 29.78300
C  31.26300 4.27000 31.12400
C  32.58000 3.83600 31.41400
C  29.76000 4.41500 29.00100
C  30.73800 4.82100 32.42000
O  29.66300 5.34900 32.72100
C  31.86100 4.45600 33.50900
C  32.12300 5.79900 34.11900
O  32.78600 6.68200 33.61500
O  31.51200 5.88000 35.25700
C  31.51600 7.12200 35.97600
H  38.59200 2.86200 33.10800
H  37.80400 1.26100 26.87500
H  32.00100 3.52300 27.12200
H  34.29600 4.58600 35.14900
H  36.91800 3.11200 35.07000
H  36.22300 5.89000 35.14200
H  37.68000 5.48900 33.95800
H  37.73600 5.08400 35.56200
H  35.17100 1.79100 35.47100
H  33.51400 1.98100 34.93300
H  33.79900 1.72900 37.24200
H  32.63500 2.98500 36.68800
H  40.49100 2.32400 32.70000
H  41.50900 2.58000 31.37200
H  40.89300 0.94900 31.59100
H  42.08300 1.90100 29.06200
H  42.34400 0.56500 27.99300
H  41.95900 0.19300 29.60300
H  35.62300 0.78400 25.52400
H  33.80000 2.99500 25.27100
H  35.84000 3.49200 24.56600
H  37.00600 2.19300 24.56900
H  36.98200 3.46300 25.90600
H  32.26700 1.03000 26.43500
H  33.46200 0.02300 26.07100
H  31.71000 1.13600 24.02300
H  32.91800 -0.17300 23.92900
H  33.39400 1.46300 23.63700
H  29.07700 5.07800 29.53200
H  29.34500 3.42300 28.82600
H  30.02800 4.81000 28.02100
H  31.37400 3.67200 34.08900
H  30.63200 7.73800 35.81300
H  32.40700 7.70700 35.75300
H  31.51300 6.88400 37.04000
Mg -11.06200 38.76200 41.36100
C  -9.19800 36.10000 40.07800
C  -8.93800 40.87400 39.65900
C  -13.28600 41.32000 41.72700
C  -13.46300 36.50700 42.36300
N  -9.23300 38.49900 39.98300
C  -8.66000 37.33700 39.64500
C  -7.40700 37.52600 38.84700
C  -7.20500 39.12100 38.91700
C  -8.50700 39.53300 39.58500
C  -5.92300 39.62700 39.52100
C  -7.42700 36.88400 37.37800
C  -6.19400 35.98600 37.05200
H  -5.42100 36.21600 35.69700
N  -11.16900 40.74200 40.75300
C  -10.12000 41.45000 40.15800
C  -10.44600 42.81100 40.09300
C  -11.75100 42.96400 40.58500
C  -12.10700 41.66200 41.05300
C  -9.54100 43.95100 39.56500
C  -12.50900 44.30100 40.53500
O  -12.03300 45.33700 40.07500
C  -13.95700 44.32500 40.88100
N  -13.22500 38.86600 41.84900
C  -13.71200 40.09200 42.16800
C  -15.03000 39.93100 42.87900
C  -15.03400 38.41300 43.28500
C  -13.83100 37.87100 42.46900
C  -15.11700 41.07800 43.98100
C  -16.38800 37.68000 42.92900
C  -17.49300 37.63200 43.95900
N  -11.30400 36.62700 41.34600
C  -12.35800 35.88800 41.83900
C  -11.96500 34.55600 41.71300
C  -10.74700 34.58400 40.99600
C  -10.41500 35.88000 40.79100
C  -12.68100 33.35400 42.33300
C  -9.69200 33.68900 40.43600
O  -9.58100 32.48900 40.49300
C  -8.61800 34.65200 39.70900
C  -7.28700 34.46800 40.36800
O  -6.37700 33.87400 39.83700
O  -7.15900 35.02500 41.59800
C  -5.90700 34.80400 42.27400
H  -8.13600 41.46700 39.21600
H  -13.97400 42.10100 42.05800
H  -14.28200 35.92900 42.79700
H  -6.63200 37.09300 39.47900
H  -7.13500 39.35600 37.85500
H  -6.26100 39.85300 40.53200
H  -5.55400 40.53300 39.04000
H  -5.11800 38.90200 39.63800
H  -7.37700 37.58100 36.54100
H  -8.28000 36.21200 37.28900
H  -6.47300 34.93400 36.99500
H  -5.47200 36.03000 37.86800
H  -9.82900 44.30700 38.57500
H  -8.50400 43.62100 39.51200
H  -9.61800 44.77300 40.27600
H  -13.98000 44.31000 41.97100
H  -14.54800 43.54500 40.40300
H  -14.38500 45.27000 40.54500
H  -15.70400 40.17400 42.05800
H  -14.88100 38.36300 44.36300
H  -14.08100 41.19700 44.29900
H  -15.69900 40.81500 44.86400
H  -15.47100 42.03500 43.59900
H  -16.27100 36.64800 42.59900
H  -16.78300 38.14400 42.02500
H  -17.62400 36.58500 44.23000
H  -18.35500 38.07500 43.46000
H  -17.25900 38.14900 44.89000
H  -12.47800 32.50700 41.67700
H  -13.75700 33.50700 42.41800
H  -12.37700 33.11100 43.35200
H  -8.58700 34.54500 38.62500
H  -5.00400 34.69300 41.67400
H  -6.08900 33.88300 42.82900
H  -5.78900 35.55400 43.05600

