158

Mg 26.21100 0.76000 29.05200
C  28.20400 0.44100 31.74900
C  23.49600 1.26900 31.17700
C  24.22000 0.64100 26.34200
C  28.91600 -0.33800 26.95900
N  25.92600 0.70100 31.30000
C  26.92800 0.81300 32.08800
C  26.50600 1.02300 33.53800
C  24.91300 1.20100 33.39500
C  24.75500 1.13500 31.86300
C  24.05200 0.25900 34.26800
C  27.23800 2.20700 34.19200
C  26.67100 2.92500 35.45000
H  27.46500 2.78400 36.72900
N  24.13800 0.95300 28.77200
C  23.20100 1.01000 29.82600
C  21.95200 0.81100 29.23600
C  22.06200 0.73000 27.82300
C  23.50500 0.87200 27.57100
C  20.64000 0.98000 29.96000
C  21.00600 0.60800 26.80200
O  21.27400 0.67100 25.62000
C  19.62700 0.29000 27.16300
N  26.51700 0.12900 26.90600
C  25.55700 0.39300 26.02200
C  25.99500 0.13500 24.58400
C  27.53200 -0.07200 24.73000
C  27.69800 -0.12800 26.29700
C  25.35300 -1.10300 23.91100
C  28.42100 1.02700 23.92200
C  28.33300 0.84700 22.43800
N  28.10000 0.21100 29.28300
C  29.09500 -0.22500 28.38200
C  30.32400 -0.49600 29.09700
C  30.03200 -0.21500 30.40200
C  28.66600 0.16200 30.50300
C  31.64900 -1.04200 28.49200
C  30.59700 -0.10300 31.74100
O  31.71700 -0.46800 32.19600
C  29.44200 0.33700 32.68500
C  29.25900 -0.64200 33.80300
O  28.82300 -1.76800 33.64700
O  29.70300 -0.23800 35.02700
C  29.76700 -1.25300 36.08600
H  22.61600 1.45300 31.79700
H  23.55900 0.51200 25.48200
H  29.72700 -0.69600 26.32200
H  26.74800 0.13900 34.12700
H  24.48400 2.19000 33.55200
H  23.70600 -0.64600 33.76700
H  23.17100 0.87100 34.46100
H  24.53300 0.07100 35.22800
H  27.58700 2.92900 33.45400
H  28.10200 1.71000 34.63500
H  25.62300 2.66500 35.60300
H  26.67000 3.96800 35.13200
H  20.07500 1.76200 29.45300
H  20.74200 1.20400 31.02200
H  19.98500 0.11400 29.87200
H  19.07300 1.19100 27.42800
H  19.71600 -0.43300 27.97400
H  19.12000 -0.17400 26.31700
H  25.76100 1.08900 24.11100
H  27.77800 -1.08700 24.41800
H  24.66700 -1.61400 24.58700
H  26.01500 -1.81900 23.42400
H  24.71000 -0.72200 23.11800
H  29.45000 0.78900 24.19200
H  28.18100 2.04600 24.22300
H  28.35500 1.74600 21.82200
H  27.48500 0.24900 22.10300
H  29.23400 0.32200 22.12300
H  31.55100 -2.12600 28.42100
H  32.45600 -0.87100 29.20500
H  31.85800 -0.72600 27.47000
H  29.62200 1.27400 33.21300
H  30.80400 -1.27600 36.42100
H  29.39900 -2.23200 35.77900
H  29.02100 -0.99300 36.83600
Mg 47.14900 24.77800 28.84900
C  47.76100 26.97600 31.49000
C  45.66600 22.62400 31.17300
C  46.43400 22.56400 26.38500
C  48.84500 26.80700 26.72600
N  46.89400 24.75200 31.13300
C  47.11100 25.84900 31.94500
C  46.73800 25.58300 33.38100
C  46.14000 24.18100 33.26200
C  46.17600 23.84200 31.79700
C  46.91700 23.12700 34.16300
C  45.64800 26.64800 33.91100
C  46.03200 27.48600 35.13900
H  45.11500 27.48800 36.43000
N  46.17000 22.84500 28.79000
C  45.65400 22.12500 29.80900
C  45.02600 20.89200 29.31300
C  45.21200 20.91200 27.89700
C  45.99000 22.14000 27.61600
C  44.18400 19.92300 30.21800
C  44.72000 19.98300 26.80800
O  44.93600 20.09700 25.56300
C  43.70700 18.91300 27.18900
N  47.46400 24.73600 26.90600
C  47.18800 23.72600 26.04800
C  47.69900 23.94900 24.63600
C  48.13600 25.41100 24.72800
C  48.19900 25.64100 26.21400
C  48.77600 22.94400 24.06600
C  47.19200 26.45300 23.96700
C  45.79200 26.53200 24.55600
N  48.10200 26.50600 29.00500
C  48.77500 27.28300 28.05400
C  49.29400 28.51600 28.64800
C  48.93600 28.41200 30.01200
C  48.22100 27.12600 30.21200
C  50.00600 29.65100 27.91100
C  48.92200 29.09700 31.23800
O  49.26400 30.19000 31.44200
C  48.19500 28.19600 32.29200
C  49.22100 27.96100 33.34100
O  50.09700 27.09500 33.32200
O  49.12500 28.95800 34.30200
C  50.05500 28.82600 35.44200
H  45.22000 21.91100 31.87000
H  46.33200 21.91100 25.51600
H  49.41100 27.42100 26.02300
H  47.65900 25.61400 33.96500
H  45.10300 24.20300 33.59800
H  46.92200 22.16400 33.65200
H  46.35400 23.02700 35.09000
H  47.91300 23.49200 34.41400
H  44.64400 26.23800 34.01800
H  45.64900 27.33200 33.06200
H  45.92200 28.51800 34.80500
H  47.08000 27.29400 35.37200
H  43.23900 19.75000 29.70400
H  43.90300 20.36900 31.17300
H  44.71900 18.98500 30.36400
H  42.84100 19.24900 27.75900
H  44.18400 18.04100 27.63700
H  43.26100 18.55800 26.26000
H  46.83200 23.83700 23.98500
H  49.16800 25.43800 24.37700
H  48.56200 21.94900 24.45700
H  49.82000 23.23200 24.18700
H  48.57900 22.94500 22.99400
H  47.01100 26.01100 22.98700
H  47.71100 27.41100 23.96700
H  45.82600 27.30600 25.32300
H  45.44100 25.55500 24.88900
H  45.10800 26.88700 23.78500
H  49.78000 29.67700 26.84500
H  51.08600 29.56800 28.03400
H  49.70600 30.61900 28.31100
H  47.38000 28.79400 32.69800
H  49.67600 28.06800 36.12800
H  50.19000 29.78500 35.94200
H  51.05700 28.51700 35.14500

