158

Mg 25.55500 1.29800 30.02500
C  27.35500 1.46200 33.21700
C  22.65600 1.85400 31.92800
C  23.79400 0.66400 27.29600
C  28.53400 0.61000 28.44900
N  25.09100 1.65800 32.35400
C  25.98500 1.65900 33.40500
C  25.32300 2.00500 34.76700
C  23.82600 1.88000 34.27900
C  23.85200 1.83900 32.74400
C  23.14100 0.57500 34.78200
C  25.71300 3.35200 35.41100
C  26.42500 3.25500 36.82900
H  26.05100 4.31100 37.86500
N  23.44200 1.28700 29.68700
C  22.41300 1.62800 30.53500
C  21.15600 1.64300 29.81600
C  21.52500 1.23700 28.48300
C  22.97700 0.98900 28.40700
C  19.80600 2.05000 30.41900
C  20.57700 1.13900 27.37900
O  20.91100 0.57800 26.34000
C  19.15900 1.68400 27.48600
N  26.11300 0.66300 28.17300
C  25.22200 0.59200 27.15600
C  25.87900 0.26800 25.78700
C  27.40300 0.49000 26.14000
C  27.33100 0.63900 27.66400
C  25.52800 -1.20700 25.37100
C  28.10800 1.73800 25.46600
C  27.19700 2.96200 25.35600
N  27.55500 1.01600 30.63600
C  28.69200 0.82000 29.84500
C  29.78400 0.82100 30.70700
C  29.35100 1.13000 31.99600
C  27.99600 1.23900 31.93500
C  31.21100 0.52000 30.36900
C  29.79800 1.37700 33.33300
O  30.92600 1.46100 33.77600
C  28.49100 1.52900 34.22700
C  28.34900 0.45000 35.22400
O  27.86400 -0.65100 35.00500
O  28.70500 0.85600 36.55100
C  28.78600 -0.14200 37.52600
H  21.84300 2.18900 32.57600
H  23.26900 0.43300 26.36700
H  29.47500 0.46800 27.91400
H  25.49700 1.30900 35.58800
H  23.35500 2.77700 34.68200
H  22.57100 -0.00400 34.05500
H  22.43300 0.92900 35.53100
H  23.92000 -0.03500 35.24000
H  24.84600 3.98700 35.59500
H  26.40500 3.68100 34.63600
H  27.45900 3.53000 36.62000
H  26.44300 2.25800 37.27000
H  19.09500 1.26900 30.15000
H  19.51300 2.97400 29.92000
H  19.80800 2.08800 31.50800
H  18.41300 1.05000 27.96600
H  18.75600 1.56300 26.48100
H  19.11600 2.72200 27.81600
H  25.49600 0.91400 24.99700
H  28.07500 -0.31600 25.84600
H  24.68300 -1.59100 25.94300
H  26.32300 -1.95200 25.38800
H  25.13200 -1.14400 24.35800
H  28.38600 1.35200 24.48500
H  28.94000 1.96200 26.13400
H  26.28000 2.86300 25.93700
H  26.94600 3.05200 24.29900
H  27.70200 3.89500 25.60700
H  31.44100 0.98600 29.41000
H  31.35400 -0.56000 30.38200
H  31.84600 0.68600 31.23900
H  28.45300 2.52500 34.66700
H  27.79400 -0.31000 37.94600
H  29.60300 -0.01300 38.23600
H  29.00300 -1.13500 37.13100
Mg 10.43300 47.42200 26.29100
C  8.63700 47.62200 29.19100
C  13.11800 49.03300 27.96200
C  12.19700 47.34300 23.51400
C  7.48300 46.89000 24.43600
N  10.77000 48.27700 28.32800
C  9.89800 48.14500 29.34100
C  10.42200 48.80700 30.66500
C  11.73300 49.56800 30.19400
C  11.91200 48.95400 28.75900
C  11.54800 51.06600 30.01500
C  10.63000 47.70500 31.81100
C  10.12800 47.95100 33.21800
H  9.79700 46.77100 34.08000
N  12.40300 47.91600 25.85100
C  13.35800 48.57400 26.62900
C  14.60700 48.54900 25.83800
C  14.44000 47.90900 24.60900
C  12.96200 47.77600 24.57600
C  15.80500 49.16100 26.42100
C  15.42800 47.51700 23.50300
O  15.16500 47.15500 22.32100
C  16.86800 47.51400 23.97400
N  9.90900 47.31800 24.20200
C  10.80100 47.10300 23.26600
C  10.31100 46.74600 21.86900
C  8.79600 46.58500 22.21100
C  8.68500 46.89700 23.73200
C  10.54300 47.73000 20.66000
C  8.19900 45.21900 21.93300
C  8.84200 44.02200 22.64400
N  8.45600 47.18300 26.69700
C  7.36300 46.97600 25.87500
C  6.18600 46.99300 26.74400
C  6.55400 47.25400 28.03000
C  7.97700 47.26700 27.92000
C  4.83400 46.91500 26.12900
C  6.11800 47.48800 29.38900
O  5.03900 47.54800 29.92200
C  7.50000 47.60400 30.19600
C  7.56600 46.38400 30.96900
O  8.16800 45.35600 30.64000
O  6.83800 46.62800 32.10400
C  6.56100 45.38300 32.88500
H  13.99500 49.54800 28.36100
H  12.76900 47.02500 22.64100
H  6.62500 46.57200 23.84000
H  9.64100 49.44500 31.07800
H  12.55200 49.32500 30.87200
H  10.51300 51.31200 30.25200
H  11.59800 51.41600 28.98400
H  12.26100 51.55600 30.67800
H  11.69800 47.52300 31.92400
H  10.23200 46.78200 31.39000
H  9.28200 48.63900 33.23000
H  10.91500 48.54900 33.67600
H  16.58200 48.40000 26.49300
H  15.78900 49.47300 27.46500
H  16.16500 50.03100 25.87200
H  16.87100 46.90100 24.87500
H  17.20700 48.48100 24.34400
H  17.53200 47.12000 23.20400
H  10.65700 45.74600 21.60600
H  8.14600 47.21400 21.60300
H  11.16300 47.19900 19.93800
H  11.08400 48.63300 20.94300
H  9.57400 47.92900 20.20200
H  8.14000 45.09000 20.85200
H  7.16600 45.18500 22.27900
H  9.70100 44.23800 23.27900
H  9.20200 43.45700 21.78400
H  8.08100 43.40100 23.11800
H  4.68600 45.87900 25.82500
H  4.60700 47.68700 25.39300
H  4.17400 47.17100 26.95800
H  7.38600 48.44100 30.88600
H  6.83100 45.52300 33.93200
H  7.03900 44.44700 32.59500
H  5.51300 45.13500 32.71700

