158

Mg 1.41700 8.07500 26.31500
C  1.95200 10.20500 29.00700
C  1.72100 5.45700 28.55300
C  0.83800 6.02600 23.82000
C  1.56300 10.80600 24.09000
N  1.83300 7.89000 28.59100
C  1.78700 8.95000 29.50300
C  1.84900 8.45900 30.98300
C  2.02900 6.86100 30.76900
C  1.80400 6.72300 29.23500
C  3.29900 6.14900 31.38000
C  0.64500 8.95900 31.79900
C  1.15200 9.64500 33.09500
H  2.10100 8.87300 34.02300
N  1.39600 6.05600 26.15800
C  1.55400 5.14900 27.18300
C  1.42600 3.78200 26.66500
C  1.13600 3.96700 25.27000
C  1.10700 5.41800 25.01700
C  1.36400 2.54500 27.61600
C  0.70000 2.84400 24.29700
O  0.28200 3.06300 23.13900
C  0.72300 1.31100 24.67900
N  1.33100 8.38400 24.18600
C  0.95100 7.38200 23.41700
C  0.74200 7.84000 21.98300
C  0.79800 9.38400 22.14800
C  1.33000 9.54200 23.51000
C  1.72600 7.17600 20.97300
C  -0.61500 10.02800 21.91000
C  -1.28300 9.98400 20.53500
N  1.64200 10.08500 26.45700
C  1.73000 11.06600 25.46200
C  2.05100 12.30500 26.14900
C  2.08000 12.00900 27.52200
C  1.88000 10.61500 27.64500
C  2.05600 13.71600 25.51500
C  2.35000 12.59200 28.83800
O  2.59500 13.74900 29.17300
C  2.17600 11.43300 29.78800
C  3.36000 11.43100 30.66500
O  4.43800 10.92800 30.31200
O  3.15000 12.06400 31.82000
C  4.24700 12.05500 32.80100
H  1.78300 4.62700 29.26000
H  0.72600 5.36900 22.95500
H  1.59600 11.62300 23.36600
H  2.73100 8.95800 31.38300
H  1.23000 6.37200 31.32700
H  3.96700 6.92400 31.75600
H  3.82600 5.49500 30.68600
H  2.94700 5.46300 32.15000
H  0.00000 8.17300 32.19300
H  0.05200 9.74400 31.33100
H  0.25500 9.85900 33.67700
H  1.51400 10.65600 32.91100
H  1.76400 1.67200 27.10000
H  0.31800 2.31900 27.82500
H  1.85400 2.71400 28.57500
H  0.08700 1.12700 25.54500
H  1.79300 1.11900 24.75900
H  0.26100 0.88500 23.78900
H  -0.21600 7.43300 21.65900
H  1.46700 9.86700 21.43700
H  1.16700 6.58300 20.25000
H  2.36000 6.49600 21.54200
H  2.32500 7.99400 20.57400
H  -0.57100 11.07500 22.21000
H  -1.26700 9.52600 22.62500
H  -0.64400 9.44200 19.83900
H  -1.44400 10.95800 20.07200
H  -2.20100 9.40700 20.64500
H  2.12000 14.48900 26.28100
H  1.11300 13.66900 24.97100
H  2.92100 13.91800 24.88200
H  1.24400 11.56300 30.33800
H  5.11800 12.59600 32.43200
H  4.52500 11.05500 33.13300
H  3.88000 12.67300 33.62100
Mg 46.99300 24.26000 28.38400
C  47.64100 26.74100 30.77500
C  46.17900 22.05000 30.70400
C  46.56300 21.89800 25.88700
C  48.23300 26.54100 26.02100
N  46.99000 24.39700 30.50600
C  47.11500 25.55000 31.31400
C  46.75100 25.26100 32.81200
C  46.41200 23.71100 32.75700
C  46.54700 23.32100 31.24100
C  47.36100 22.74100 33.48000
C  45.52800 26.07800 33.24800
C  44.93400 25.58600 34.57500
H  44.72800 26.64400 35.70000
N  46.49500 22.23000 28.34000
C  46.17400 21.49700 29.38500
C  45.81900 20.12000 28.98600
C  45.89000 20.05400 27.54600
C  46.39500 21.44300 27.21800
C  45.52100 19.08300 30.08700
C  45.60000 18.86000 26.69500
O  45.67000 18.92100 25.46700
C  44.93500 17.66600 27.28600
N  47.46000 24.14600 26.30700
C  47.07400 23.14800 25.49600
C  47.19200 23.63400 24.02500
C  47.43800 25.15700 24.05300
C  47.69000 25.31000 25.53500
C  48.10200 22.78000 23.12000
C  46.22900 26.14100 23.55800
C  44.81600 25.80800 24.11400
N  47.90600 26.17500 28.37100
C  48.31300 26.95500 27.34900
C  48.79100 28.24200 27.77900
C  48.49000 28.26500 29.19300
C  47.98600 26.95700 29.44400
C  49.36500 29.28400 26.92600
C  48.49500 29.05900 30.40500
O  48.86700 30.22500 30.53000
C  47.88600 28.09400 31.48000
C  48.79000 27.85300 32.69700
O  49.93800 27.42100 32.60200
O  48.19100 28.12800 33.87900
C  48.84700 27.63800 35.07800
H  45.87000 21.39200 31.51900
H  46.37200 21.24300 25.03500
H  48.48800 27.28300 25.26100
H  47.56300 25.52000 33.49200
H  45.38400 23.51700 33.06300
H  46.73800 21.99400 33.97200
H  47.89400 23.33200 34.22400
H  48.09900 22.20200 32.88500
H  44.79200 26.06700 32.44300
H  45.80300 27.10200 33.50100
H  45.47500 24.73200 34.98300
H  43.90300 25.27300 34.41100
H  44.49100 18.72500 30.08500
H  45.54600 19.49900 31.09500
H  46.23300 18.26600 29.96700
H  44.13100 18.07400 27.89900
H  45.62500 17.18600 27.98000
H  44.48800 16.92300 26.62600
H  46.17900 23.49800 23.64400
H  48.33900 25.34300 23.46900
H  47.64700 22.21800 22.30500
H  48.54600 22.03400 23.77900
H  48.91100 23.40200 22.73600
H  46.15300 26.02900 22.47700
H  46.55900 27.13700 23.85100
H  44.16100 25.36800 23.36200
H  44.45100 26.79500 24.40000
H  44.81500 25.20200 25.02000
H  48.56100 29.95500 26.62200
H  49.78000 28.86800 26.00800
H  50.18900 29.79000 27.42900
H  46.99900 28.52400 31.94600
H  49.92800 27.66100 34.93300
H  48.55500 26.62200 35.34100
H  48.55700 28.23100 35.94600

