158

Mg 55.91200 24.65400 45.16900
C  53.24800 26.50900 43.87000
C  54.49000 21.82500 43.67900
C  58.78000 22.98600 45.80000
C  57.27000 27.61800 46.47100
N  54.13400 24.27100 43.59900
C  53.19600 25.19600 43.34400
C  52.15100 24.63000 42.38100
C  52.25100 23.13500 42.88000
C  53.75900 22.98400 43.26700
C  51.25000 22.78500 43.95200
C  52.64000 24.91500 40.93300
C  51.70100 25.25100 39.81200
H  51.71600 24.45600 38.39700
N  56.52900 22.65000 44.82800
C  55.78000 21.60900 44.14500
C  56.56800 20.42800 44.16300
C  57.72600 20.68400 45.02400
C  57.73500 22.18000 45.31400
C  56.11800 19.18900 43.39400
C  58.68600 19.60400 45.44100
O  58.47800 18.42500 45.09900
C  59.93600 19.78500 46.19300
N  57.83200 25.29300 45.83700
C  58.79700 24.35000 46.17400
C  60.00300 25.05200 46.79700
C  59.52400 26.47000 47.14200
C  58.15800 26.49100 46.46500
C  60.66200 24.27900 47.98400
C  60.47700 27.68600 46.76600
C  60.90200 28.59700 47.93000
N  55.48500 26.71800 45.07500
C  56.01600 27.78500 45.78100
C  55.24100 28.97700 45.67300
C  54.12800 28.53100 44.88400
C  54.29300 27.17200 44.61500
C  55.41900 30.25200 46.42300
C  52.85500 28.93300 44.32900
O  52.21700 30.00100 44.48400
C  52.22600 27.65500 43.56400
C  52.13400 27.96800 42.17900
O  52.96500 28.51600 41.47900
O  50.79200 27.86800 41.81800
C  50.33200 28.67000 40.66200
H  54.03900 20.87500 43.38600
H  59.66900 22.45500 46.14700
H  57.59700 28.45900 47.08600
H  51.10300 24.89400 42.52400
H  52.04800 22.48700 42.02700
H  50.60000 23.65000 44.08000
H  51.85400 22.42900 44.78700
H  50.65900 21.96500 43.54300
H  53.12400 24.00100 40.59000
H  53.46000 25.62600 41.03500
H  51.76400 26.32400 39.63000
H  50.70900 25.01200 40.19600
H  55.63900 18.49600 44.08700
H  56.95400 18.60100 43.01600
H  55.61100 19.36000 42.44400
H  60.28300 18.78100 46.43700
H  59.59200 20.25500 47.11400
H  60.82200 20.21300 45.72400
H  60.77300 25.10800 46.02700
H  59.39000 26.47800 48.22300
H  61.71200 24.25900 47.69200
H  60.34600 23.26600 48.23000
H  60.66300 24.91100 48.87300
H  60.03200 28.30000 45.98300
H  61.42700 27.28900 46.40800
H  60.90900 29.64600 47.63200
H  61.91200 28.28100 48.19200
H  60.25200 28.38600 48.77900
H  56.46500 30.49600 46.61000
H  54.93400 30.20400 47.39700
H  55.07500 31.02700 45.73800
H  51.20900 27.50300 43.92600
H  49.29100 28.96000 40.80000
H  50.27200 28.12900 39.71700
H  50.92300 29.58200 40.57800
Mg -0.19000 44.04100 25.71200
C  2.27000 44.17500 28.39600
C  -2.44300 43.13600 28.04000
C  -2.19900 43.66000 23.15900
C  2.56200 44.30400 23.55900
N  0.00400 43.59100 27.93800
C  1.00400 43.85100 28.84800
C  0.59300 43.73600 30.34200
C  -0.95300 43.22000 30.08900
C  -1.13800 43.28200 28.57200
C  -1.38000 41.84700 30.70000
C  0.61600 45.10400 31.03100
C  0.83500 45.07200 32.66200
H  0.44900 43.82800 33.44500
N  -2.11200 43.55400 25.61500
C  -2.91600 43.25200 26.71500
C  -4.28300 43.05800 26.23700
C  -4.19500 43.25600 24.79700
C  -2.77800 43.50200 24.43900
C  -5.40800 42.67500 27.05200
C  -5.32600 43.09700 23.69600
O  -5.08400 43.06900 22.52700
C  -6.71700 42.82000 24.01000
N  0.14800 43.89400 23.72800
C  -0.87300 43.73400 22.79400
C  -0.35100 43.68300 21.33100
C  1.07900 44.18300 21.49000
C  1.27000 44.08700 23.01500
C  -0.54700 42.26800 20.67000
C  1.36900 45.64400 20.89600
C  1.27200 46.89700 21.88400
N  1.94000 44.36700 25.88800
C  2.88200 44.40400 24.92100
C  4.28100 44.40200 25.49500
C  4.01900 44.42600 26.88700
C  2.61900 44.32500 27.02000
C  5.57700 44.62200 24.75000
C  4.71200 44.52400 28.21800
O  5.87900 44.62000 28.47700
C  3.53900 44.41700 29.30500
C  3.81000 43.24600 30.13000
O  3.67900 42.12600 29.72100
O  4.14200 43.67900 31.37200
C  4.48500 42.64900 32.30100
H  -3.25200 42.96900 28.75400
H  -2.87100 43.77000 22.30600
H  3.30200 44.39000 22.76000
H  1.26500 43.06900 30.88300
H  -1.70300 43.90100 30.49300
H  -0.47100 41.35000 31.04100
H  -1.92100 41.27000 29.95000
H  -1.96800 41.97800 31.60800
H  -0.33500 45.62500 30.92000
H  1.32300 45.65700 30.41300
H  0.55300 45.97500 33.20500
H  1.92500 45.08700 32.66500
H  -6.28300 43.06900 26.53500
H  -5.40900 43.25800 27.97300
H  -5.45800 41.60700 27.26300
H  -6.65600 41.95100 24.66400
H  -7.27800 42.50800 23.12900
H  -7.17700 43.63000 24.57600
H  -1.08000 44.34500 20.86500
H  1.79200 43.54300 20.97000
H  -1.37700 41.84400 21.23600
H  0.38100 41.69700 20.63600
H  -0.97800 42.36300 19.67300
H  0.58600 45.70200 20.13900
H  2.26800 45.68500 20.28100
H  0.63600 47.73300 21.59100
H  2.25000 47.28100 22.17400
H  0.75200 46.55000 22.77600
H  6.10000 45.49300 25.14500
H  5.27000 44.74800 23.71200
H  6.20800 43.76000 24.96700
H  3.52800 45.34500 29.87800
H  4.06800 43.00300 33.24400
H  5.56600 42.56100 32.41000
H  4.23900 41.60500 32.10700

