158

Mg 48.00100 15.36700 27.57000
C  45.75200 15.79400 30.49800
C  50.04400 17.47200 29.24900
C  49.70300 15.15900 24.90400
C  45.19600 13.91000 25.93200
N  47.85300 16.51500 29.59600
C  46.96000 16.37600 30.64500
C  47.41800 17.01300 31.96200
C  48.55800 17.91800 31.40100
C  48.86700 17.29700 29.98400
C  48.22700 19.37400 31.30400
C  47.82300 16.04400 33.12300
C  47.60700 16.50100 34.52700
H  48.68000 16.07500 35.52400
N  49.72200 16.17900 27.12000
C  50.48900 17.00200 27.97100
C  51.76400 17.20600 27.34600
C  51.69700 16.38300 26.13900
C  50.37000 15.89100 26.04500
C  52.97000 17.98900 27.98500
C  52.83500 16.13800 25.19600
O  52.69500 15.47100 24.14200
C  54.21900 16.61300 25.45000
N  47.52500 14.80200 25.63500
C  48.43700 14.77900 24.66100
C  47.90800 14.19700 23.31100
C  46.65000 13.42700 23.86100
C  46.39500 14.11500 25.23000
C  47.50200 15.31900 22.30200
C  46.93500 11.88100 24.07400
C  47.49500 11.04500 22.90400
N  45.91900 14.88800 28.08600
C  44.96000 14.24100 27.31500
C  43.72700 14.13900 28.06000
C  44.00400 14.69600 29.31500
C  45.32400 15.22300 29.27200
C  42.47900 13.44100 27.63500
C  43.42900 14.97200 30.62500
O  42.35300 14.72000 31.15100
C  44.65500 15.63100 31.44600
C  44.12500 16.85400 32.02400
O  43.69700 17.84400 31.41000
O  43.76300 16.58100 33.31200
C  43.14800 17.60200 34.09800
H  50.71300 18.03200 29.90600
H  50.25500 15.06200 23.96700
H  44.37700 13.44100 25.38200
H  46.60300 17.64800 32.31000
H  49.48300 17.75400 31.95300
H  48.08000 19.59600 30.24700
H  49.08100 19.96700 31.63100
H  47.34400 19.72300 31.83900
H  48.89700 15.88200 33.03600
H  47.33700 15.08800 32.93000
H  46.66100 16.03500 34.80200
H  47.32400 17.55200 34.58700
H  53.79100 17.37200 28.34900
H  52.63200 18.67300 28.76300
H  53.29200 18.60300 27.14300
H  54.25300 17.68500 25.25400
H  54.84800 16.07400 24.74100
H  54.46700 16.31100 26.46700
H  48.71600 13.57900 22.91800
H  45.74000 13.52600 23.27000
H  48.21500 15.26400 21.47900
H  47.43200 16.32600 22.71200
H  46.52600 14.96500 21.96700
H  45.99300 11.38800 24.31300
H  47.54700 11.81000 24.97300
H  48.43400 10.64000 23.28100
H  47.70000 11.78200 22.12700
H  46.83000 10.23200 22.61300
H  42.78200 12.85500 26.76700
H  41.77900 14.22600 27.34900
H  42.00600 12.85500 28.42300
H  44.98300 14.94300 32.22500
H  43.06700 18.54100 33.55000
H  43.82900 17.76200 34.93400
H  42.21500 17.25400 34.53900
Mg -9.42700 40.51200 41.96000
C  -8.27600 37.27100 41.01300
C  -7.18900 41.70700 39.82100
C  -11.06300 43.46900 41.99400
C  -12.24300 38.82400 43.34600
N  -7.88600 39.63200 40.71800
C  -7.50800 38.28500 40.52900
C  -6.30600 38.11700 39.54700
C  -5.96100 39.60100 39.23600
C  -7.01600 40.39000 40.04000
C  -4.48700 39.82100 39.61500
C  -6.54600 37.26600 38.22600
C  -5.77300 35.95800 38.10300
H  -4.88600 35.77200 36.85500
N  -9.14300 42.33400 41.14400
C  -8.11800 42.62800 40.24500
C  -8.09400 44.00500 39.95700
C  -9.10700 44.61100 40.67700
C  -9.83500 43.52300 41.29800
C  -7.10100 44.80200 39.03200
C  -9.33100 46.10500 40.68600
O  -8.59600 46.89800 40.17700
C  -10.57800 46.61100 41.56500
N  -11.40100 41.07400 42.51100
C  -11.80600 42.38000 42.46200
C  -13.34000 42.40200 42.85400
C  -13.69600 41.00800 43.39700
C  -12.37200 40.22400 43.05500
C  -13.75900 43.56700 43.70500
C  -14.84900 40.42700 42.58800
C  -15.68100 39.35600 43.24200
N  -10.03000 38.45700 42.37900
C  -11.16900 37.95500 42.96200
C  -11.08800 36.54300 43.06100
C  -9.91600 36.15600 42.36900
C  -9.38800 37.38300 41.87700
C  -12.09900 35.62000 43.61300
C  -9.03800 35.08300 41.88300
O  -9.11400 33.86600 42.09900
C  -7.91300 35.74600 40.99900
C  -6.65000 35.63000 41.67800
O  -6.37600 36.35300 42.66500
O  -5.96400 34.63500 41.08200
C  -4.53900 34.42700 41.45900
H  -6.43900 42.13800 39.15400
H  -11.53000 44.45500 42.04300
H  -13.01900 38.25900 43.86600
H  -5.46700 37.65700 40.06900
H  -6.10300 39.87100 38.19000
H  -4.30300 40.89300 39.55000
H  -3.75300 39.31500 38.98800
H  -4.26800 39.50000 40.63400
H  -6.11700 37.88500 37.43800
H  -7.61400 37.12100 38.06300
H  -6.50000 35.14700 38.15800
H  -5.08700 35.86800 38.94600
H  -7.73100 45.35500 38.33500
H  -6.44100 44.13800 38.47400
H  -6.37700 45.43500 39.54500
H  -10.52000 47.69900 41.55500
H  -10.39300 46.15100 42.53600
H  -11.42100 46.18000 41.02500
H  -13.83700 42.54600 41.89400
H  -13.95800 40.94300 44.45300
H  -14.59900 43.25300 44.32400
H  -14.03900 44.35800 43.00900
H  -12.95300 44.01500 44.28500
H  -14.53800 40.03800 41.61800
H  -15.54600 41.19600 42.25500
H  -15.47900 39.25300 44.30800
H  -15.45200 38.41100 42.74900
H  -16.73600 39.48600 43.00100
H  -12.69800 36.09600 44.39000
H  -11.53400 34.78400 44.02600
H  -12.74800 35.36800 42.77400
H  -7.89000 35.41100 39.96200
H  -4.47300 33.34300 41.35500
H  -4.28400 34.79600 42.45200
H  -3.86400 34.76500 40.67200

