158

Mg 47.46800 15.65900 27.79800
C  45.22300 15.22000 30.55900
C  49.67900 17.21500 30.06800
C  49.30200 16.44400 25.15600
C  45.00800 14.42800 25.74800
N  47.36500 16.24600 30.01100
C  46.37800 15.88500 30.93800
C  46.74400 16.40500 32.34000
C  48.03900 17.18900 32.05900
C  48.38700 16.87200 30.60900
C  47.99500 18.68700 32.28200
C  46.85400 15.21000 33.33400
C  46.20200 15.39000 34.74200
H  45.89700 16.78300 35.38000
N  49.24500 16.67100 27.67500
C  50.00900 17.22100 28.72500
C  51.23800 17.72000 28.13800
C  51.10300 17.40900 26.70000
C  49.81700 16.88500 26.45800
C  52.26600 18.48700 28.87300
C  52.11600 17.59700 25.59100
O  51.92100 17.31300 24.41100
C  53.53800 17.85100 25.98600
N  47.21900 15.38500 25.69600
C  48.17200 15.74800 24.86200
C  47.69400 15.60200 23.37900
C  46.33500 14.86900 23.51200
C  46.17800 14.82400 25.06800
C  47.50200 17.02200 22.78800
C  46.29200 13.53500 22.75700
C  46.73200 12.22300 23.48400
N  45.58600 14.86300 28.04100
C  44.70800 14.42100 27.08700
C  43.53500 13.95200 27.67800
C  43.63800 14.25300 28.99900
C  44.95900 14.72100 29.18400
C  42.39000 13.26500 27.00300
C  42.92500 14.24000 30.29400
O  41.78100 14.04100 30.66900
C  43.98000 14.85200 31.40300
C  43.35300 16.20900 32.01100
O  43.64400 17.30900 31.59900
O  42.46600 16.02400 33.02100
C  41.90100 17.24100 33.65100
H  50.40700 17.61200 30.77800
H  49.80500 16.63100 24.20500
H  44.25100 13.99600 25.09100
H  45.93800 17.11600 32.52600
H  48.81700 16.75300 32.68600
H  48.99100 19.08500 32.47700
H  47.50700 18.83100 33.24600
H  47.44500 19.27000 31.54300
H  47.88800 15.03800 33.63500
H  46.43000 14.32300 32.86300
H  46.85900 14.84300 35.41800
H  45.29700 14.78300 34.73400
H  52.11000 19.54300 28.65300
H  53.29300 18.18600 28.66500
H  52.11400 18.40600 29.94900
H  54.04700 17.95900 25.02900
H  53.82900 17.02000 26.62800
H  53.67900 18.78500 26.53100
H  48.38500 14.92500 22.87700
H  45.48000 15.49500 23.26100
H  47.90100 17.75300 23.49100
H  46.49300 17.24200 22.43800
H  48.06200 17.04400 21.85400
H  47.01100 13.72200 21.95900
H  45.27700 13.43700 22.37100
H  46.70300 12.37700 24.56200
H  47.71500 11.85300 23.19100
H  46.03600 11.40500 23.29500
H  41.82300 12.62600 27.67900
H  42.78600 12.71300 26.15100
H  41.82500 14.08000 26.55100
H  44.16600 14.25100 32.29300
H  40.81600 17.13900 33.66800
H  42.20300 18.20200 33.23400
H  42.23200 17.09000 34.67900
Mg 46.67400 24.37200 28.53900
C  46.95700 26.61900 31.39200
C  45.77000 21.96000 30.68400
C  46.65200 22.45500 25.71600
C  47.90900 27.12900 26.52900
N  46.46800 24.33100 30.88100
C  46.52600 25.32300 31.78100
C  46.21400 24.74700 33.19800
C  45.96900 23.14700 32.91200
C  45.95300 23.13900 31.39600
C  47.07600 22.21600 33.53200
C  45.02000 25.53500 33.79300
C  45.18300 25.96800 35.25700
H  45.37100 24.95600 36.35800
N  46.30900 22.46200 28.25800
C  45.93700 21.58700 29.27800
C  45.69800 20.24900 28.66400
C  45.85200 20.45200 27.23400
C  46.32100 21.88200 26.99500
C  45.25500 19.06600 29.50200
C  45.43100 19.47600 26.07700
O  45.50000 19.85600 24.95000
C  44.78200 18.14300 26.50500
N  47.05200 24.78900 26.43700
C  46.99200 23.82400 25.46900
C  47.29100 24.36700 24.07400
C  47.47900 25.89100 24.33800
C  47.57100 25.92900 25.86200
C  48.48200 23.73800 23.40200
C  46.35800 26.73600 23.68600
C  44.95000 26.39700 24.18600
N  47.17800 26.41000 28.82900
C  47.66600 27.44000 27.86000
C  48.03100 28.62200 28.63200
C  47.61200 28.33500 29.95700
C  47.17800 27.01100 30.03000
C  48.56500 29.83600 28.04300
C  47.66200 28.93300 31.31200
O  48.00000 30.04300 31.70300
C  47.24100 27.79700 32.22600
C  48.36400 27.56100 33.22000
O  48.94900 26.51200 33.38800
O  48.55000 28.60900 34.14700
C  49.11800 28.17900 35.43500
H  45.44500 21.08800 31.25400
H  46.67800 21.79900 24.84300
H  48.22400 27.99500 25.94300
H  47.16200 24.83300 33.72900
H  45.00900 22.76000 33.25200
H  47.45000 21.74700 32.62200
H  46.69900 21.38900 34.13400
H  47.79800 22.81700 34.08500
H  44.27700 24.74300 33.89200
H  44.59000 26.27000 33.11200
H  44.35400 26.62400 35.52000
H  46.07400 26.59100 35.33600
H  44.16900 18.99000 29.43900
H  45.53400 19.26200 30.53700
H  45.74000 18.18900 29.07400
H  45.40800 17.35200 26.91900
H  44.53500 17.71300 25.53400
H  43.88200 18.25400 27.10900
H  46.42300 24.07800 23.48100
H  48.36800 26.29700 23.85500
H  48.42600 23.64700 22.31700
H  48.58500 22.73300 23.81200
H  49.37300 24.29500 23.68800
H  46.19400 26.66000 22.61100
H  46.50600 27.79900 23.87500
H  44.55700 25.44300 23.83500
H  44.29300 27.16400 23.77700
H  44.83500 26.30400 25.26600
H  48.22800 29.87600 27.00700
H  49.65100 29.76300 28.10100
H  48.20200 30.68400 28.62300
H  46.36000 28.03700 32.82100
H  48.22400 27.79600 35.92600
H  49.58000 28.96300 36.03500
H  49.89000 27.41100 35.39600

