158

Mg 49.29500 45.11800 43.14300
C  45.87100 45.02200 42.49800
C  49.57700 41.85000 42.33300
C  52.66800 45.46500 43.28600
C  49.04600 48.70200 43.26800
N  47.84900 43.70900 42.60100
C  46.51600 43.85300 42.32300
C  45.95700 42.63800 41.65000
C  47.05100 41.58100 41.89700
C  48.28300 42.39500 42.25900
C  46.71400 40.46000 42.97000
C  45.68600 43.00400 40.11000
C  44.32800 42.38600 39.57500
H  44.55500 41.76100 38.13900
N  50.91700 43.81600 42.95400
C  50.81200 42.50100 42.63900
C  52.06100 41.87600 42.60500
C  52.96400 42.84000 43.07800
C  52.19800 44.13600 43.10900
C  52.36400 40.39300 42.30000
C  54.40100 42.66700 43.37000
O  54.99900 41.59100 43.25300
C  55.30200 43.88500 43.74400
N  50.59900 46.85600 43.16300
C  51.95600 46.67400 43.21800
C  52.73500 48.04800 43.32900
C  51.56100 49.08900 43.11900
C  50.33700 48.20600 43.16700
C  53.60800 48.14100 44.60800
C  51.64400 49.94100 41.81300
C  51.72200 51.47400 41.95700
N  47.79400 46.58000 43.09000
C  47.86200 47.99000 43.12700
C  46.53700 48.51500 42.95200
C  45.70300 47.36800 42.79300
C  46.55900 46.21000 42.83000
C  46.04200 49.94600 42.84800
C  44.27800 46.89800 42.65800
O  43.16900 47.44900 42.68200
C  44.38600 45.32700 42.43600
C  43.50400 44.59900 43.49200
O  42.63300 43.71200 43.25200
O  43.86400 45.06000 44.81400
C  43.24600 44.32100 45.94000
H  49.79600 40.78000 42.35000
H  53.72700 45.72400 43.22800
H  49.02700 49.79300 43.23100
H  44.99300 42.37100 42.08100
H  47.32100 41.04000 40.99000
H  46.02600 40.98400 43.63400
H  47.57900 40.26700 43.60400
H  46.34800 39.55800 42.48000
H  46.51000 42.71900 39.45600
H  45.65700 44.09300 40.08400
H  43.54500 43.14200 39.51500
H  44.00900 41.62200 40.28400
H  52.46800 39.81800 43.22100
H  53.32200 40.20900 41.81400
H  51.61700 39.91600 41.66500
H  54.92900 44.39000 44.63500
H  55.44700 44.50500 42.85900
H  56.24400 43.42400 44.03900
H  53.34800 48.22900 42.44600
H  51.60500 49.83100 43.91600
H  53.33400 48.94800 45.28800
H  54.57100 48.25400 44.11000
H  53.64800 47.14500 45.04800
H  50.75600 49.61200 41.27300
H  52.54700 49.61100 41.30100
H  51.24700 52.01500 41.13900
H  52.74200 51.85300 41.89100
H  51.31800 51.95900 42.84600
H  45.65700 50.06700 41.83500
H  46.76600 50.71000 43.13200
H  45.14900 49.93800 43.47200
H  44.06800 45.13500 41.41100
H  43.46500 43.25500 45.89200
H  42.16500 44.38500 45.81500
H  43.55500 44.72300 46.90500
Mg -5.45600 25.27300 26.02600
C  -4.02200 26.48500 28.99900
C  -7.25600 22.92200 27.96300
C  -6.42000 23.77400 23.13200
C  -3.69300 27.60100 24.20700
N  -5.72500 24.83900 28.29200
C  -4.97900 25.47700 29.26400
C  -5.38600 24.91300 30.63000
C  -6.36500 23.71700 30.24100
C  -6.50600 23.78200 28.70800
C  -5.88800 22.34000 30.78800
C  -5.83000 26.05900 31.70900
C  -6.75600 25.50800 32.80200
H  -6.19800 24.78500 33.96700
N  -6.70300 23.63200 25.64100
C  -7.34900 22.77500 26.53500
C  -8.16100 21.83500 25.76800
C  -7.91600 22.15200 24.42000
C  -6.98700 23.22400 24.33100
C  -9.01500 20.71200 26.37800
C  -8.55000 21.44300 23.16400
O  -8.32700 21.79500 22.04500
C  -9.41500 20.29600 23.32800
N  -4.90600 25.55300 23.89400
C  -5.55100 24.83400 22.89800
C  -5.20400 25.38200 21.50900
C  -4.51100 26.73400 21.86000
C  -4.35800 26.70000 23.38600
C  -4.37300 24.33900 20.71100
C  -5.39300 27.94000 21.31200
C  -4.82000 28.64500 20.00400
N  -4.10900 26.71700 26.44400
C  -3.44500 27.61800 25.59900
C  -2.51300 28.46600 26.31700
C  -2.74400 28.02800 27.64600
C  -3.73500 27.01500 27.67500
C  -1.56700 29.49500 25.84800
C  -2.26800 28.24600 29.01500
O  -1.38800 28.98100 29.52200
C  -3.18400 27.38500 29.92100
C  -2.36100 26.50900 30.80800
O  -1.66500 25.51100 30.52700
O  -2.46200 26.94400 32.01700
C  -1.70100 26.27400 33.06000
H  -7.83600 22.23400 28.58200
H  -6.76000 23.38600 22.17000
H  -3.17000 28.33800 23.59300
H  -4.44600 24.46100 30.94900
H  -7.39000 23.84900 30.58900
H  -4.89200 22.28600 31.22700
H  -5.66900 21.51600 30.10900
H  -6.50400 22.02700 31.63100
H  -6.25800 26.96600 31.28100
H  -4.91100 26.44300 32.15000
H  -7.46500 24.80100 32.37100
H  -7.32800 26.32400 33.24300
H  -10.01800 20.88500 25.98700
H  -9.05500 20.68900 27.46700
H  -8.68800 19.69900 26.14800
H  -8.82200 19.52800 23.82400
H  -9.83300 19.88400 22.40900
H  -10.27700 20.60500 23.91900
H  -6.11400 25.51300 20.92500
H  -3.55600 26.70700 21.33500
H  -5.01300 23.56300 20.29100
H  -3.62500 23.85000 21.33500
H  -3.94600 24.94300 19.91100
H  -5.44200 28.70800 22.08300
H  -6.38300 27.65000 20.95900
H  -4.99400 27.93700 19.19300
H  -3.73400 28.74500 19.97800
H  -5.18700 29.65100 19.79700
H  -1.04400 29.98000 26.67200
H  -2.15700 30.33100 25.47100
H  -0.78600 29.25500 25.12700
H  -3.80300 28.03000 30.54500
H  -1.07200 27.11700 33.34800
H  -1.02400 25.43500 32.90000
H  -2.30000 26.04700 33.94100

