158

Mg 45.79000 6.39400 48.13000
C  43.50800 8.92300 47.34600
C  43.52200 4.12900 47.00600
C  48.28500 4.12100 48.03400
C  48.25100 8.95300 48.68700
N  43.78800 6.48400 47.19500
C  43.05700 7.62000 47.16700
C  41.65700 7.33100 46.63100
C  41.57500 5.81000 46.94800
C  43.06100 5.43700 46.98300
C  40.75400 5.34800 48.18600
C  41.61000 7.70900 45.08600
C  40.22400 8.18500 44.59900
H  39.66000 7.48600 43.36500
N  45.89900 4.43900 47.75900
C  44.85700 3.66400 47.34000
C  45.34700 2.30400 47.17700
C  46.74600 2.29100 47.36100
C  47.01600 3.70500 47.76800
C  44.39200 1.24200 46.64800
C  47.61000 1.09600 47.26000
O  47.08900 -0.04200 47.14400
C  48.99300 1.01300 47.32000
N  47.96600 6.55400 48.30400
C  48.74900 5.42400 48.28500
C  50.16400 5.70300 48.74800
C  50.09400 7.16800 49.31400
C  48.75000 7.60800 48.68400
C  50.91800 4.62400 49.71700
C  51.23400 8.07600 48.92500
C  51.48100 9.28900 49.94600
N  45.90700 8.53200 48.18500
C  46.92700 9.42500 48.39200
C  46.38700 10.80000 48.26100
C  45.07800 10.64800 47.87800
C  44.81800 9.23800 47.78400
C  47.09800 12.07300 48.57200
C  43.81500 11.32800 47.56100
O  43.62700 12.56000 47.57500
C  42.78500 10.19700 47.20800
C  41.77500 10.28000 48.35000
O  41.95200 9.94400 49.48700
O  40.53300 10.64100 47.83300
C  39.32300 10.54000 48.65100
H  42.69300 3.42000 46.95400
H  49.13100 3.43200 48.08200
H  48.89900 9.73900 49.07800
H  40.90100 7.90100 47.17100
H  41.08000 5.31800 46.11000
H  39.72300 5.09200 47.94300
H  40.83000 6.17800 48.88800
H  41.20600 4.42700 48.55500
H  42.02800 6.91400 44.46900
H  42.39600 8.43600 44.88000
H  40.29800 9.25900 44.42600
H  39.46300 7.99500 45.35500
H  44.92200 0.53300 46.01200
H  43.57300 1.76100 46.15000
H  43.88800 0.84300 47.52800
H  49.26700 -0.03900 47.24900
H  49.31300 1.25300 48.33400
H  49.46900 1.57700 46.51800
H  50.69600 5.80900 47.80300
H  49.88400 7.14500 50.38300
H  50.29200 3.82800 50.12000
H  51.45600 5.14700 50.50700
H  51.74700 4.16800 49.17600
H  51.07000 8.66200 48.02100
H  52.20700 7.62400 48.73400
H  52.38700 9.05500 50.50600
H  50.58900 9.47300 50.54500
H  51.68700 10.23700 49.45000
H  46.86600 12.33900 49.60300
H  46.77000 12.92000 47.96900
H  48.17100 11.88100 48.54400
H  42.35700 10.38900 46.22400
H  39.24900 11.47100 49.21200
H  39.35100 9.68400 49.32600
H  38.38500 10.43400 48.10600
Mg 42.09900 41.36900 26.91600
C  41.23700 43.89600 29.11200
C  42.92200 39.54500 29.64500
C  43.32200 39.03500 24.85200
C  42.19800 43.68400 24.31300
N  41.99400 41.65400 29.10500
C  41.44000 42.71800 29.78500
C  41.31900 42.40400 31.31600
C  42.17000 41.18100 31.49600
C  42.43800 40.74400 29.98400
C  43.54600 41.34900 32.19300
C  39.88400 42.52800 31.82800
C  39.37700 41.66000 33.03100
H  38.70700 42.31100 34.24100
N  42.76900 39.45600 27.19600
C  43.03700 38.90000 28.39500
C  43.62100 37.55200 28.28800
C  43.66100 37.37400 26.87100
C  43.24600 38.64900 26.21500
C  44.07200 36.65300 29.47200
C  43.93100 36.13100 26.07500
O  43.99500 36.05700 24.84900
C  44.20600 34.92800 26.88100
N  42.64900 41.32500 24.85200
C  43.02300 40.20900 24.21900
C  42.97800 40.42100 22.61200
C  42.69800 41.97100 22.51600
C  42.50700 42.38900 23.98800
C  44.21700 39.95700 21.89900
C  41.61000 42.37100 21.58800
C  41.80500 43.70000 20.95300
N  41.75000 43.41400 26.71700
C  41.79100 44.19600 25.60000
C  41.48800 45.54000 25.96300
C  41.18600 45.48200 27.33300
C  41.44000 44.16700 27.73100
C  41.31200 46.59600 24.91500
C  40.70600 46.23600 28.43700
O  40.34600 47.40200 28.54900
C  40.78900 45.20800 29.70200
C  41.77600 45.76000 30.68100
O  42.99800 45.75700 30.61700
O  41.17000 46.27200 31.80100
C  41.98300 46.73600 32.95300
H  43.15300 38.94800 30.52900
H  43.74000 38.27500 24.19000
H  42.37500 44.40000 23.50800
H  41.90700 43.26100 31.64500
H  41.56100 40.53000 32.12200
H  44.41300 41.37700 31.53300
H  43.67600 40.62600 32.99900
H  43.58400 42.28600 32.74900
H  39.29900 42.19700 30.96900
H  39.74200 43.60500 31.92400
H  40.16500 41.09300 33.52900
H  38.90300 40.85100 32.47600
H  43.76300 35.60900 29.41800
H  43.68900 36.87000 30.46900
H  45.16200 36.64800 29.46100
H  44.93200 35.09700 27.67600
H  44.53700 34.06200 26.30800
H  43.34800 34.74500 27.52800
H  42.07900 39.93100 22.23700
H  43.64400 42.41400 22.20500
H  44.79900 40.71300 21.37200
H  44.12800 39.06700 21.27600
H  44.91400 39.59600 22.65500
H  40.62000 42.37000 22.04400
H  41.67700 41.68300 20.74500
H  41.48800 43.49400 19.93000
H  42.82500 44.05800 20.81200
H  41.19700 44.45200 21.45600
H  40.74800 46.18100 24.07900
H  42.33000 46.87500 24.64200
H  40.76900 47.44300 25.33400
H  39.82400 45.13000 30.20300
H  41.44000 47.62600 33.27200
H  43.01600 47.01300 32.74600
H  41.87800 46.02600 33.77400

