158

Mg 6.75300 54.55000 41.75100
C  4.60700 51.72200 41.68000
C  9.25300 52.47400 40.50000
C  8.73700 57.23900 41.54100
C  4.11500 56.42900 42.99900
N  6.78700 52.40800 40.99200
C  5.83700 51.48100 41.08700
C  6.41500 50.06700 40.53000
C  8.00900 50.38300 40.49600
C  8.02700 51.83900 40.81800
C  8.81300 49.60600 41.45900
C  5.85600 49.73400 39.08300
C  5.25100 48.27500 38.87700
H  5.44300 47.64400 37.52100
N  8.67100 54.91500 40.91400
C  9.53800 53.91600 40.49500
C  10.83500 54.51300 40.03300
C  10.70500 55.87900 40.32400
C  9.36100 56.06900 40.95700
C  11.97700 53.72100 39.52300
C  11.72000 56.92000 40.10500
O  12.82500 56.62600 39.63100
C  11.43600 58.31600 40.32300
N  6.37900 56.66700 42.02000
C  7.44300 57.47400 42.02400
C  6.98700 58.88300 42.40400
C  5.53000 58.64600 43.04400
C  5.25800 57.23300 42.60300
C  7.95200 59.82100 43.28300
C  4.46300 59.74400 42.71000
C  3.84100 60.41500 43.97800
N  4.76600 54.26400 42.18400
C  3.76400 55.11300 42.70400
C  2.54300 54.39600 42.92100
C  2.88200 53.08100 42.61400
C  4.13900 53.04800 42.09600
C  1.21000 54.97200 43.30400
C  2.37900 51.67300 42.66200
O  1.35400 51.16200 43.17900
C  3.50100 50.84800 42.01800
C  3.01700 50.13000 40.85200
O  2.64200 50.64700 39.83800
O  2.76700 48.80500 41.11000
C  1.63800 48.22300 40.41700
H  10.08900 51.79600 40.31800
H  9.42300 58.08900 41.57200
H  3.31000 57.02200 43.43800
H  6.16300 49.39200 41.34800
H  8.35000 50.29600 39.46400
H  9.47600 48.90300 40.95500
H  8.21100 49.03000 42.16200
H  9.47100 50.29700 41.98600
H  6.62600 49.82500 38.31700
H  4.98200 50.36900 38.94000
H  4.20900 48.21400 39.19000
H  5.85600 47.68600 39.56600
H  12.61800 54.37800 38.93500
H  11.71400 52.81500 38.97600
H  12.54200 53.46200 40.41800
H  12.30400 58.89000 39.99800
H  11.54400 58.35000 41.40700
H  10.61200 58.92100 39.94400
H  6.80600 59.37600 41.44900
H  5.59500 58.60700 44.13100
H  8.83200 59.19700 43.43800
H  7.63000 60.06000 44.29600
H  8.27400 60.74200 42.79800
H  3.66700 59.37200 42.06600
H  4.89300 60.54200 42.10400
H  4.04000 61.48600 44.00600
H  4.37600 60.03500 44.84900
H  2.75500 60.33900 44.03300
H  0.57200 54.38800 43.96600
H  0.58300 55.20400 42.44300
H  1.33800 55.90300 43.85500
H  3.94300 50.11100 42.68900
H  1.85100 47.97500 39.37700
H  0.71800 48.80400 40.35000
H  1.35300 47.26300 40.84700
Mg 9.43500 48.09400 26.98600
C  7.48500 47.79000 29.92700
C  11.98800 49.45100 28.81500
C  11.23800 48.36100 24.15200
C  6.69300 46.86900 25.11900
N  9.61800 48.72300 29.14000
C  8.79200 48.24200 30.11000
C  9.59000 48.37900 31.42600
C  10.75900 49.35400 31.05800
C  10.86600 49.10100 29.58600
C  10.54400 50.83700 31.44900
C  10.01700 46.99300 31.99400
C  9.66000 46.77500 33.50500
H  10.52800 47.53200 34.60600
N  11.34800 48.78100 26.49000
C  12.27100 49.24800 27.41400
C  13.53100 49.42800 26.75300
C  13.31100 49.01700 25.39200
C  11.92100 48.76200 25.26800
C  14.80500 49.84100 27.61700
C  14.32100 48.83200 24.29800
O  14.03100 48.74200 23.09200
C  15.79600 48.83500 24.61100
N  8.98000 47.75300 24.96700
C  9.89700 47.93200 23.97200
C  9.43700 47.43400 22.58500
C  8.02800 46.72800 22.98000
C  7.90300 47.08100 24.47500
C  9.36200 48.51400 21.48500
C  7.86100 45.19100 22.85300
C  8.97000 44.34600 23.50800
N  7.41300 47.60600 27.38900
C  6.46600 47.11000 26.48600
C  5.22800 46.93300 27.26400
C  5.56200 47.16700 28.57600
C  6.91800 47.51800 28.67000
C  3.92400 46.48800 26.71400
C  5.08800 47.19700 29.95300
O  3.97400 47.10900 30.48000
C  6.31100 47.39800 30.85400
C  6.55900 46.02300 31.42700
O  7.17900 45.12700 30.90400
O  6.02800 45.93400 32.68600
C  6.21000 44.74000 33.48900
H  12.81500 49.71100 29.47800
H  11.79300 48.35500 23.21200
H  5.79800 46.72500 24.51000
H  9.02200 48.79200 32.26000
H  11.70500 49.03900 31.50000
H  9.73700 51.13200 30.77900
H  11.44700 51.34900 31.11700
H  10.39800 50.97800 32.52000
H  11.05400 46.73100 31.78500
H  9.38600 46.21200 31.56900
H  9.98600 45.74300 33.63100
H  8.59900 46.73900 33.75200
H  15.42300 48.97000 27.83800
H  14.53600 50.32100 28.55800
H  15.41600 50.56500 27.07800
H  16.08000 48.27000 25.49900
H  16.00400 49.90400 24.64700
H  16.34200 48.38600 23.78100
H  10.07900 46.63800 22.20800
H  7.19600 47.26900 22.53000
H  9.90700 49.43100 21.71000
H  8.33300 48.80600 21.27700
H  9.73900 48.04300 20.57600
H  7.52000 44.84000 21.87900
H  6.94000 44.98600 23.39700
H  8.48900 43.61300 24.15500
H  9.73000 44.91500 24.04500
H  9.43900 43.89500 22.63400
H  4.14600 45.72400 25.96900
H  3.46400 47.27900 26.12100
H  3.23400 46.04200 27.43000
H  6.11900 48.04200 31.71200
H  5.26800 44.44600 33.95100
H  6.93300 44.84400 34.29800
H  6.39200 43.74100 33.09200

