158

Mg 44.38700 3.33900 48.26500
C  41.82800 5.81500 47.79000
C  41.99800 0.95000 48.01900
C  46.94300 1.16000 48.44700
C  46.66300 6.11800 48.21700
N  42.15900 3.42800 47.86600
C  41.29400 4.50900 47.77800
C  39.91300 4.04900 47.34800
C  39.88900 2.52600 47.61300
C  41.43100 2.23700 47.85500
C  38.94000 2.13700 48.80400
C  39.70100 4.25700 45.81400
C  38.45900 5.05900 45.31400
H  38.75700 6.07900 44.14900
N  44.42100 1.30900 48.27100
C  43.31000 0.47500 48.12300
C  43.78700 -0.88800 48.09100
C  45.23800 -0.84600 48.06600
C  45.61100 0.57000 48.21400
C  42.88000 -2.10800 48.00800
C  46.12100 -2.06500 48.00100
O  45.59800 -3.11300 47.80900
C  47.63200 -1.98300 48.09800
N  46.59800 3.60400 48.21800
C  47.36300 2.51100 48.49300
C  48.68100 3.04800 49.18100
C  48.77300 4.53200 48.61900
C  47.23200 4.83800 48.38100
C  48.53200 3.09800 50.72500
C  49.68000 4.92500 47.36900
C  50.87800 5.86300 47.76300
N  44.34000 5.54600 48.07700
C  45.32900 6.47600 48.09500
C  44.79600 7.83500 48.06000
C  43.40700 7.60600 47.98900
C  43.16300 6.22100 47.99500
C  45.55300 9.12600 48.00800
C  42.06800 8.21600 47.98100
O  41.67800 9.42400 48.14200
C  41.08000 7.12600 47.64700
C  39.91300 7.23600 48.51300
O  39.77900 6.75400 49.63000
O  38.93100 7.94000 47.78900
C  37.62300 8.04700 48.43600
H  41.22000 0.19200 47.91000
H  47.81500 0.51500 48.57000
H  47.38500 6.90700 48.43800
H  39.12000 4.53300 47.91700
H  39.59400 1.89700 46.77300
H  38.53900 3.03800 49.26800
H  39.58500 1.76000 49.59700
H  38.25700 1.33000 48.54000
H  39.56400 3.29700 45.31700
H  40.61800 4.73500 45.46900
H  38.09800 5.75100 46.07500
H  37.66900 4.33600 45.11300
H  43.02800 -2.69500 47.10200
H  41.84400 -1.78000 47.92000
H  42.97000 -2.70400 48.91600
H  48.03900 -1.40000 47.27100
H  47.91200 -3.03600 48.10900
H  47.73000 -1.55900 49.09800
H  49.56400 2.45300 48.95000
H  49.23700 5.07700 49.44100
H  49.20700 2.39200 51.21100
H  47.50900 2.81200 50.96900
H  48.60100 4.07900 51.19400
H  49.20600 5.43300 46.53000
H  50.16800 4.04500 46.95000
H  50.60100 6.90700 47.61900
H  51.72800 5.74900 47.08900
H  51.06900 5.70600 48.82400
H  46.09300 9.36300 48.92600
H  44.86500 9.92700 47.73800
H  46.29000 9.07200 47.20700
H  40.70900 7.34000 46.64400
H  37.21400 7.23600 49.03800
H  36.87600 8.06800 47.64200
H  37.44700 8.98000 48.97200
Mg 35.39000 48.80200 24.82900
C  35.61100 47.38500 27.84800
C  34.50300 51.85000 26.26100
C  34.92800 50.34600 21.70800
C  36.34900 46.00800 23.27600
N  35.16900 49.57600 26.85900
C  35.26600 48.75500 27.97200
C  35.22200 49.64000 29.21800
C  34.76400 51.05700 28.68500
C  34.86100 50.85200 27.15000
C  33.28200 51.53700 29.12200
C  36.57200 49.80900 30.00900
C  36.59800 49.34500 31.46200
H  35.32200 49.56500 32.26200
N  34.75900 50.80200 24.04700
C  34.40000 51.86700 24.87100
C  34.02000 52.99800 24.06100
C  34.18300 52.58300 22.69900
C  34.60500 51.18500 22.81100
C  33.58000 54.34700 24.58900
C  33.92300 53.33100 21.44000
O  33.92200 52.76600 20.37100
C  33.67400 54.82800 21.45000
N  35.60800 48.24500 22.75000
C  35.42200 49.00000 21.64200
C  35.82200 48.28800 20.38500
C  36.72400 47.04900 21.00700
C  36.27200 47.11800 22.48200
C  34.59600 47.99300 19.49800
C  38.26800 47.16000 20.82400
C  39.01000 45.80600 20.73600
N  35.89800 47.00300 25.38500
C  36.21800 45.89100 24.67800
C  36.43800 44.73400 25.58400
C  36.10500 45.31200 26.82300
C  35.81300 46.67500 26.66400
C  36.69600 43.35100 25.12300
C  35.94800 44.98200 28.23400
O  36.02700 43.95100 28.89600
C  35.74400 46.35800 28.94000
C  34.45000 46.28800 29.87200
O  33.32900 46.61900 29.48500
O  34.74000 45.55600 31.02200
C  33.59000 45.17700 31.80800
H  34.20100 52.80400 26.69800
H  34.89500 50.68300 20.67000
H  36.52600 45.09300 22.70800
H  34.41100 49.28400 29.85400
H  35.45700 51.88900 28.80500
H  33.28000 52.49700 29.63700
H  32.75500 50.84500 29.77800
H  32.66800 51.74900 28.24700
H  36.87300 50.84800 30.14100
H  37.43000 49.41200 29.46700
H  37.41800 49.76700 32.04200
H  36.69300 48.26000 31.51200
H  32.56300 54.55700 24.25800
H  34.24800 55.06800 24.11700
H  33.53000 54.42400 25.67500
H  34.45100 55.43900 21.90900
H  32.73300 54.98300 21.97800
H  33.48600 55.18500 20.43700
H  36.57100 48.85500 19.83200
H  36.38200 46.07700 20.65100
H  34.66700 48.28200 18.44900
H  33.65600 48.40400 19.86600
H  34.53000 46.90900 19.58300
H  38.80900 47.79700 21.52500
H  38.56900 47.60000 19.87300
H  39.22500 45.61100 19.68600
H  38.39600 45.05200 21.22900
H  40.02600 45.86900 21.12600
H  35.76600 42.82500 24.90300
H  37.29500 42.87700 25.90000
H  37.28000 43.32700 24.20300
H  36.54200 46.58200 29.64800
H  33.00200 44.50600 31.18100
H  32.92000 46.01900 31.98200
H  33.87900 44.78700 32.78400

