158

Mg 30.04900 59.09500 39.99700
C  27.00900 57.58600 38.76300
C  31.62700 56.30200 39.14900
C  32.87500 60.94600 40.12600
C  28.12100 62.08600 40.15800
N  29.36100 57.18200 39.13000
C  28.12700 56.75300 38.62200
C  28.23600 55.29000 38.10500
C  29.58600 54.82400 38.74800
C  30.22600 56.19800 39.04900
C  29.32400 53.97600 39.98500
C  28.30400 55.11400 36.51800
C  27.15700 54.33300 35.82400
H  26.08400 55.15900 35.17800
N  31.99700 58.63000 39.81500
C  32.45800 57.48600 39.35800
C  33.86200 57.50900 39.33500
C  34.29900 58.81100 39.69100
C  33.04100 59.53000 39.91600
C  34.66700 56.30100 38.90600
C  35.73900 59.24800 39.84200
O  36.61400 58.45900 39.57700
C  36.15700 60.53100 40.35700
N  30.42500 61.29600 39.98500
C  31.68300 61.72700 40.13500
C  31.65900 63.21900 40.37300
C  30.19700 63.68700 40.27800
C  29.52200 62.31000 40.19200
C  32.45500 63.54600 41.68500
C  29.86600 64.56800 39.03700
C  30.30600 66.07000 39.16400
N  27.95600 59.65500 39.83500
C  27.42100 60.87900 39.93100
C  26.00600 60.83800 39.55800
C  25.75700 59.46800 39.32000
C  26.97100 58.81800 39.35600
C  25.04600 61.94000 39.34500
C  24.75200 58.50300 38.91100
O  23.55600 58.66600 38.80200
C  25.58600 57.19700 38.52600
C  25.12500 56.10000 39.44100
O  25.21800 56.13600 40.66600
O  24.65500 55.03000 38.71700
C  24.40500 53.79300 39.55700
H  32.19900 55.40800 38.89100
H  33.76400 61.57500 40.20600
H  27.43200 62.92700 40.06100
H  27.35800 54.72500 38.41900
H  30.26200 54.33800 38.04400
H  29.77700 54.59000 40.76400
H  29.93300 53.07500 40.05500
H  28.28600 53.69100 40.15600
H  29.27100 54.67800 36.26800
H  28.27600 56.09200 36.03900
H  26.82900 53.60300 36.56400
H  27.61800 53.73300 35.03900
H  35.10100 55.83500 39.79000
H  35.48400 56.61500 38.25600
H  34.14300 55.53700 38.33100
H  37.24300 60.47700 40.44000
H  35.74300 60.53200 41.36500
H  35.76000 61.34600 39.75100
H  32.18600 63.55500 39.48000
H  29.89700 64.19100 41.19600
H  31.72900 63.85400 42.43800
H  33.14400 64.37400 41.51700
H  32.99400 62.70000 42.11100
H  28.78700 64.57700 38.88200
H  30.17300 64.06400 38.12000
H  29.45600 66.75200 39.18900
H  30.75200 66.32400 38.20300
H  30.96000 66.22200 40.02300
H  24.06500 61.64400 38.97500
H  25.58400 62.58900 38.65400
H  25.03700 62.50400 40.27800
H  25.43600 56.97700 37.46900
H  23.96000 53.05100 38.89400
H  23.66700 53.98000 40.33800
H  25.26100 53.33600 40.05400
Mg 16.60300 52.51600 25.05100
C  18.25400 51.48600 28.09500
C  13.90500 53.42100 26.90000
C  15.05200 52.80600 22.17900
C  19.47500 51.07500 23.30500
N  16.23000 52.47200 27.21700
C  17.06000 52.08500 28.25600
C  16.38200 52.43000 29.59400
C  14.92000 52.85200 29.14500
C  15.00100 52.92100 27.62800
C  13.86400 51.83500 29.65100
C  17.09400 53.55100 30.42400
C  17.22400 53.32500 31.96800
H  16.40700 52.24900 32.58100
N  14.74400 53.19800 24.52700
C  13.74300 53.55100 25.48400
C  12.52700 53.93700 24.68300
C  12.89100 53.79100 23.27300
C  14.29300 53.23000 23.30100
C  11.16600 54.35000 25.29200
C  12.07400 54.22100 22.03900
O  12.50100 54.07900 20.90900
C  10.75700 54.77300 22.21000
N  17.27300 52.17700 22.98900
C  16.30000 52.29800 21.99300
C  16.92000 51.77900 20.59300
C  18.42800 51.41900 21.01100
C  18.41200 51.49900 22.55200
C  16.05600 50.60100 20.02800
C  19.49700 52.40700 20.44300
C  19.27900 53.92100 20.59900
N  18.48200 51.55000 25.55400
C  19.51700 51.04300 24.76000
C  20.58300 50.64800 25.58000
C  20.14000 50.76800 26.91100
C  18.82900 51.29100 26.83300
C  21.98400 50.25000 25.20400
C  20.48000 50.53400 28.29200
O  21.48400 50.08500 28.78800
C  19.28100 50.97400 29.14800
C  18.92300 49.75100 29.97300
O  18.47100 48.69400 29.49500
O  19.27700 49.96300 31.29300
C  18.97200 48.82600 32.12200
H  13.01000 53.69100 27.46500
H  14.43800 52.81900 21.27600
H  20.22100 50.54300 22.71100
H  16.29200 51.50500 30.16300
H  14.68500 53.82000 29.58800
H  13.14600 51.45700 28.92300
H  13.23000 52.33000 30.38700
H  14.28100 51.01500 30.23500
H  16.62800 54.53700 30.41900
H  18.05300 53.70700 29.92900
H  17.09700 54.31000 32.41800
H  18.22800 53.00500 32.24800
H  10.31000 53.85400 24.83600
H  10.89400 55.38800 25.10500
H  11.22900 54.17800 26.36600
H  10.19300 54.00000 22.73300
H  10.26500 54.70000 21.24000
H  10.74400 55.77800 22.63300
H  16.90900 52.66600 19.95900
H  18.59100 50.44600 20.54800
H  15.77800 50.83300 19.00000
H  15.18100 50.42700 20.65400
H  16.72100 49.73700 20.06300
H  19.65800 52.03800 19.43000
H  20.40700 52.20200 21.00800
H  19.01900 54.30200 19.61100
H  20.15000 54.54400 20.79700
H  18.64500 54.07900 21.47100
H  22.28700 50.44300 24.17500
H  22.12700 49.17500 25.30700
H  22.60800 50.72400 25.96200
H  19.56400 51.80800 29.79000
H  19.64400 48.06100 31.73400
H  17.94800 48.45100 32.13300
H  19.34400 49.19300 33.07800

