158

Mg 53.33800 23.37800 43.74600
C  50.42800 25.38900 43.54000
C  51.40300 20.76600 42.70900
C  56.17100 21.67600 43.48600
C  55.28100 26.43900 44.05300
N  51.13400 23.08700 43.13700
C  50.13200 24.03900 43.21100
C  48.73200 23.35300 43.14800
C  49.08100 21.83800 43.24000
C  50.63200 21.87200 43.01000
C  48.61800 21.17000 44.50700
C  47.77700 23.90000 42.04000
C  48.32000 24.19600 40.58400
H  47.78100 23.41000 39.39000
N  53.73900 21.48200 43.14800
C  52.80800 20.50500 42.80700
C  53.52600 19.26100 42.72700
C  54.90800 19.50800 42.91000
C  55.00500 20.90600 43.22600
C  52.87500 17.94800 42.26100
C  56.02700 18.48100 42.80200
O  55.82500 17.37100 42.50200
C  57.48300 18.82000 42.99200
N  55.36200 23.99300 43.72000
C  56.39100 23.05800 43.70900
C  57.75300 23.63400 43.92700
C  57.43500 25.21200 43.88200
C  55.89600 25.24900 43.88700
C  58.53300 23.16700 45.17600
C  58.16200 25.94000 42.68700
C  57.62200 25.57300 41.26000
N  53.01000 25.53100 43.94400
C  53.83900 26.60000 44.05700
C  52.98500 27.78500 44.37700
C  51.65100 27.35400 44.14800
C  51.70900 25.93600 43.86700
C  53.46300 29.17200 44.85400
C  50.26700 27.74100 44.13500
O  49.66300 28.73000 44.47500
C  49.48500 26.51000 43.51400
C  49.09700 26.96500 42.18300
O  49.90100 27.23000 41.20400
O  47.82600 27.34900 42.24000
C  47.15200 27.71400 40.98700
H  50.64700 20.01800 42.46100
H  57.15300 21.20300 43.42300
H  55.89400 27.33200 44.18900
H  48.17900 23.63000 44.04600
H  48.64700 21.32100 42.38400
H  49.46200 20.93100 45.15300
H  47.94700 20.35600 44.23200
H  48.05000 21.85900 45.13200
H  47.25600 24.79900 42.36900
H  46.95300 23.20700 41.86900
H  49.40500 24.12600 40.50400
H  47.97900 25.21200 40.38100
H  53.14900 17.86100 41.21000
H  51.78600 17.92900 42.27000
H  53.32000 17.15200 42.85900
H  57.75300 19.52400 42.20500
H  58.17100 17.97900 42.90000
H  57.61600 19.27200 43.97500
H  58.33500 23.26800 43.08100
H  57.75900 25.67200 44.81500
H  59.47100 22.77600 44.78100
H  57.90600 22.48400 45.74900
H  58.92700 23.99200 45.77000
H  59.21900 25.68800 42.77000
H  57.88800 26.99300 42.74100
H  58.48300 25.24600 40.67600
H  57.19400 26.47000 40.81300
H  56.91000 24.74900 41.21200
H  54.52900 29.07900 45.06500
H  52.86300 29.33900 45.74800
H  53.24500 29.83600 44.01800
H  48.63800 26.40600 44.19200
H  47.71100 27.48500 40.08000
H  46.94900 28.78400 41.03500
H  46.24500 27.10900 41.00000
Mg 15.86300 52.52800 25.36600
C  17.86200 51.24300 28.10100
C  13.57900 53.50000 27.56500
C  14.15800 53.47800 22.75000
C  18.38100 51.07000 23.23300
N  15.79200 52.41800 27.66200
C  16.73300 51.90600 28.60800
C  16.31200 52.11900 30.01000
C  14.84300 52.70700 29.79600
C  14.70600 52.92100 28.23700
C  13.71000 51.82500 30.38400
C  17.30000 53.16600 30.60700
C  16.84300 53.77900 31.96100
H  15.92700 53.01400 32.91700
N  14.10500 53.36200 25.21000
C  13.26200 53.74400 26.22000
C  12.07400 54.40200 25.66400
C  12.23900 54.40600 24.19600
C  13.52700 53.73600 23.98800
C  11.06700 55.05400 26.59200
C  11.37900 54.92300 23.11900
O  11.66800 54.78700 21.95100
C  10.07500 55.59800 23.52800
N  16.26900 52.31400 23.23900
C  15.35000 52.80600 22.41600
C  15.77300 52.61100 20.89000
C  17.29400 52.15700 21.09400
C  17.35600 51.75800 22.56200
C  14.97500 51.72700 20.06800
C  18.27700 53.36100 20.95600
C  19.13500 53.25900 19.64200
N  17.70700 51.40200 25.57700
C  18.57200 50.93600 24.60400
C  19.66800 50.33900 25.23200
C  19.44100 50.48300 26.60200
C  18.25800 51.15400 26.73700
C  20.94800 49.66400 24.62000
C  19.97500 50.07300 27.88400
O  20.91900 49.30800 28.16000
C  19.03600 50.76100 28.92800
C  18.53300 49.72100 29.89100
O  17.85600 48.74500 29.69300
O  18.98600 49.92500 31.16400
C  18.20300 49.12000 32.15800
H  12.79700 53.79900 28.26600
H  13.67500 53.73200 21.80400
H  19.14900 50.71900 22.54000
H  16.20200 51.15000 30.49700
H  14.63900 53.69100 30.21900
H  14.01100 50.98100 31.00400
H  13.04900 51.37000 29.64600
H  12.99200 52.43100 30.93800
H  17.33500 54.00600 29.91300
H  18.28800 52.77800 30.85200
H  16.38600 54.75300 31.78700
H  17.70100 53.93000 32.61600
H  10.05800 54.71900 26.35300
H  11.04600 56.13800 26.48400
H  11.21700 54.95100 27.66700
H  9.35000 54.85700 23.86500
H  9.59500 56.14400 22.71600
H  10.24600 56.30700 24.33800
H  15.82300 53.59500 20.42300
H  17.59000 51.28300 20.51400
H  14.41200 51.03600 20.69600
H  15.63400 51.19600 19.38100
H  14.34400 52.28100 19.37200
H  19.01700 53.39000 21.75500
H  17.85300 54.36500 20.96200
H  18.60900 52.59000 18.96100
H  20.17000 52.93000 19.73500
H  19.10000 54.26900 19.23300
H  21.71600 49.56200 25.38700
H  21.34600 50.31100 23.83700
H  20.70500 48.66600 24.25600
H  19.53800 51.52700 29.51900
H  18.66800 49.32400 33.12300
H  18.25000 48.08800 31.81000
H  17.17600 49.47900 32.22000

