158

Mg -1.98400 17.72400 27.74600
C  -3.04300 15.74500 30.39200
C  -3.04300 20.49700 29.44900
C  -1.81100 19.46400 24.81800
C  -1.82400 14.75600 25.76700
N  -2.79800 18.13200 29.69300
C  -3.18000 17.11700 30.65000
C  -3.66200 17.88400 31.90900
C  -3.76000 19.42300 31.56400
C  -3.16700 19.35600 30.19900
C  -5.14600 19.94300 31.76200
C  -2.71300 17.71100 33.11400
C  -3.34800 17.65300 34.50500
H  -2.44400 17.29900 35.63700
N  -2.11400 19.72400 27.32500
C  -2.56200 20.70400 28.16100
C  -2.53700 21.96200 27.47400
C  -2.02300 21.72300 26.17000
C  -1.98900 20.23300 26.04600
C  -2.91300 23.33100 28.16600
C  -1.61600 22.63900 24.99800
O  -1.17100 22.21200 23.91900
C  -1.74800 24.08000 25.14000
N  -1.84800 17.15800 25.63900
C  -1.68500 18.10500 24.64300
C  -1.48100 17.46300 23.21500
C  -1.36700 15.97900 23.61600
C  -1.63900 15.98700 25.14100
C  -2.62100 17.76200 22.23700
C  -0.09300 15.25800 23.23500
C  1.15100 15.77400 23.94100
N  -2.24400 15.58800 28.01800
C  -2.09900 14.52700 27.13000
C  -2.32200 13.30500 27.79600
C  -2.66800 13.73400 29.08800
C  -2.50900 15.11800 29.22400
C  -2.30100 12.01800 27.18600
C  -3.07300 13.21300 30.40600
O  -3.23800 12.10500 30.84600
C  -3.31600 14.52500 31.26700
C  -2.55900 14.35100 32.54300
O  -1.35900 14.57100 32.77600
O  -3.51600 14.02100 33.50600
C  -3.00800 13.84400 34.88600
H  -3.47000 21.39600 29.89800
H  -1.78200 20.04200 23.89200
H  -1.79700 13.95500 25.02600
H  -4.59300 17.44300 32.26400
H  -3.19600 20.08600 32.22100
H  -5.52900 20.00100 30.74300
H  -5.07200 20.92900 32.22000
H  -5.81400 19.36100 32.39700
H  -2.01800 18.54900 33.16700
H  -2.00800 16.90900 32.90000
H  -4.05000 16.82000 34.53200
H  -3.82300 18.60100 34.75800
H  -2.25700 24.13800 27.83700
H  -2.76400 23.19400 29.23700
H  -3.91500 23.58700 27.82000
H  -2.78600 24.36300 25.31300
H  -1.45300 24.54800 24.20000
H  -1.14600 24.54100 25.92300
H  -0.54800 17.77600 22.74600
H  -2.15700 15.42600 23.10700
H  -2.97500 18.71300 22.63500
H  -3.47300 17.08200 22.19900
H  -2.24000 17.92600 21.22900
H  0.23400 15.30900 22.19700
H  -0.28800 14.20200 23.42300
H  1.05300 16.76200 24.39200
H  1.95800 15.94700 23.22900
H  1.41500 14.97600 24.63500
H  -1.94700 12.16000 26.16500
H  -3.36000 11.78000 27.28500
H  -1.67100 11.39600 27.82300
H  -4.38100 14.47500 31.49400
H  -2.31300 14.67500 35.00800
H  -2.57400 12.85700 35.04200
H  -3.77100 14.04000 35.64000
Mg 41.08300 9.02700 28.92200
C  42.74600 10.34500 31.75600
C  38.95000 7.31200 31.04500
C  39.32100 8.01900 26.34600
C  43.64500 10.34600 26.95600
N  40.91100 8.71400 31.21400
C  41.62100 9.50200 32.14500
C  41.02100 9.27600 33.54600
C  39.80100 8.30700 33.24000
C  39.89500 8.08200 31.77300
C  39.80000 6.90900 34.01300
C  40.56500 10.66700 34.22400
C  40.16100 10.62500 35.71700
H  41.12500 11.19400 36.72800
N  39.42800 7.79800 28.67800
C  38.69700 7.18200 29.67000
C  37.54400 6.51400 29.16600
C  37.57100 6.75900 27.77800
C  38.77500 7.51400 27.55800
C  36.63600 5.61300 30.08300
C  36.55400 6.33000 26.72700
O  36.79200 6.63400 25.54500
C  35.32200 5.59800 27.09100
N  41.57300 9.00700 26.92900
C  40.61800 8.60200 26.02300
C  41.10500 8.90100 24.58200
C  42.41700 9.77000 24.76700
C  42.57000 9.68800 26.28500
C  41.24800 7.77900 23.54300
C  42.47100 11.17300 24.15900
C  41.84100 12.36300 24.86200
N  42.84700 10.13700 29.19100
C  43.76800 10.56900 28.33800
C  44.75500 11.39900 29.06800
C  44.35700 11.39000 30.40100
C  43.26300 10.55100 30.45600
C  45.96100 12.16100 28.48000
C  44.67800 11.84800 31.69800
O  45.59200 12.50100 32.16100
C  43.56500 11.36600 32.64100
C  44.19200 10.62500 33.84200
O  44.31000 9.39800 34.03900
O  44.75300 11.54900 34.66800
C  45.43000 10.95200 35.88500
H  38.16900 6.92900 31.70400
H  38.66000 7.91300 25.48400
H  44.41800 10.83800 26.36300
H  41.83200 8.87200 34.15300
H  38.88500 8.84100 33.49300
H  39.19500 7.03700 34.91000
H  40.77500 6.56500 34.36100
H  39.42100 6.14200 33.33800
H  39.72400 11.09600 33.67900
H  41.46800 11.27600 34.25600
H  39.89900 9.62100 36.04900
H  39.27300 11.25700 35.73500
H  36.29400 6.37200 30.78700
H  37.44900 5.02000 30.50100
H  35.87500 4.95700 29.65800
H  35.60700 4.60600 27.44100
H  34.72500 5.58500 26.17900
H  34.61800 6.17000 27.69600
H  40.47100 9.68100 24.16100
H  43.32700 9.26600 24.43900
H  42.29900 7.51900 23.41500
H  40.75900 8.15200 22.64300
H  40.57600 6.98500 23.86900
H  42.11200 11.02700 23.14000
H  43.51700 11.36300 23.91400
H  41.45900 12.10300 25.84900
H  41.00700 12.74400 24.27300
H  42.64300 13.09000 24.98700
H  45.66500 12.80300 27.65000
H  46.69300 11.47800 28.04800
H  46.49000 12.77100 29.21200
H  42.96000 12.22000 32.94400
H  44.64500 10.53800 36.51800
H  45.96600 11.75500 36.39200
H  46.16100 10.18400 35.63200

