158

Mg 40.48300 8.35400 29.65300
C  42.33400 9.62300 32.55000
C  38.22200 7.08900 31.83300
C  39.30700 6.45500 27.15000
C  43.28900 9.02800 27.67800
N  40.26900 8.46900 31.98300
C  41.07600 9.13300 32.96400
C  40.48200 9.10200 34.32500
C  39.19300 8.15300 34.06100
C  39.23900 7.75400 32.60800
C  39.02800 7.02300 35.08100
C  40.09900 10.44300 34.97800
C  39.22400 10.40600 36.22800
H  39.59600 11.32900 37.32600
N  38.90900 7.14500 29.52000
C  38.10300 6.77000 30.46700
C  36.99600 6.02500 29.90700
C  37.20400 5.97200 28.56200
C  38.51400 6.55500 28.31100
C  35.80900 5.48400 30.78900
C  36.30900 5.37200 27.49000
O  36.54500 5.40200 26.32300
C  35.02800 4.81300 27.78100
N  41.24100 7.64400 27.77300
C  40.56200 6.88600 26.86900
C  41.20400 6.89300 25.46100
C  42.23800 8.06200 25.52300
C  42.26800 8.26200 27.11500
C  41.93600 5.54200 25.03700
C  41.93200 9.31100 24.67600
C  40.71200 10.07900 25.12100
N  42.41500 9.16900 29.94400
C  43.41700 9.36900 29.05200
C  44.50500 10.10700 29.74600
C  44.09000 10.21400 31.06800
C  42.82600 9.57900 31.19800
C  45.85300 10.51000 29.12700
C  44.48900 10.73300 32.37100
O  45.52800 11.35200 32.62000
C  43.37700 10.38100 33.40000
C  43.96700 9.63300 34.51300
O  44.35700 8.47400 34.44800
O  43.99300 10.37300 35.62000
C  44.54600 9.81600 36.90300
H  37.43900 6.62900 32.44100
H  38.77500 5.83100 26.42800
H  44.11000 9.42200 27.07600
H  41.12800 8.50500 34.96800
H  38.24400 8.67500 34.18600
H  39.14400 6.00200 34.71700
H  38.07400 7.04500 35.60800
H  39.77300 7.15800 35.86500
H  39.53900 10.94400 34.18800
H  40.94600 11.06600 35.26600
H  39.28900 9.44000 36.72800
H  38.20500 10.56300 35.87600
H  34.88400 5.71400 30.26100
H  35.71100 5.96000 31.76500
H  36.00000 4.41800 30.90900
H  35.03900 4.13100 28.63100
H  34.74500 4.21500 26.91500
H  34.21100 5.53100 27.86100
H  40.40400 7.09600 24.74900
H  43.28200 7.86700 25.27900
H  41.56000 4.82900 25.77100
H  43.02000 5.62500 25.10300
H  41.78000 5.19100 24.01700
H  41.69000 9.01000 23.65700
H  42.85700 9.88800 24.65300
H  40.40300 9.79300 26.12600
H  39.89200 9.97300 24.41100
H  40.83400 11.15900 25.20000
H  46.39300 10.72700 30.04900
H  45.60000 11.35700 28.48900
H  46.27400 9.67600 28.56600
H  43.03200 11.34900 33.76300
H  45.41200 10.37700 37.25600
H  44.93600 8.82900 36.65000
H  43.88200 9.83400 37.76800
Mg -1.55100 35.13500 26.06100
C  -2.89300 33.41300 28.70400
C  -0.36100 37.55100 28.42100
C  -0.28300 36.93400 23.63400
C  -3.11800 32.94200 23.88200
N  -1.57500 35.39200 28.35700
C  -2.12800 34.47000 29.15800
C  -1.93000 34.82500 30.68100
C  -1.30700 36.29300 30.55500
C  -1.05200 36.48900 29.01500
C  -2.19000 37.42200 31.15100
C  -1.19100 33.77200 31.53300
C  -1.98400 33.05900 32.71900
H  -1.30600 32.96200 34.06500
N  -0.43700 36.97100 26.04200
C  -0.01500 37.80700 27.05900
C  0.81600 38.75600 26.53300
C  0.79200 38.62300 25.15000
C  0.06900 37.45500 24.89800
C  1.47100 39.76800 27.53600
C  1.52100 39.49500 24.16100
O  1.63900 39.14000 23.05100
C  2.26800 40.72200 24.63000
N  -1.86800 35.12700 24.05000
C  -1.05700 35.85300 23.24500
C  -1.43200 35.62600 21.79700
C  -2.27700 34.28900 21.81500
C  -2.44000 34.09400 23.35500
C  -2.16100 36.77700 21.12500
C  -1.61600 33.12400 20.93800
C  -0.36300 32.46200 21.41700
N  -2.68800 33.43100 26.17100
C  -3.27100 32.66400 25.25900
C  -4.03700 31.60000 25.86900
C  -3.92200 31.81400 27.20800
C  -3.08100 33.01200 27.33900
C  -4.80200 30.57300 25.21500
C  -4.42400 31.49300 28.52200
O  -5.23600 30.63000 28.88400
C  -3.64300 32.39800 29.54500
C  -4.67800 32.98800 30.39900
O  -5.33100 33.99100 30.26400
O  -4.76400 32.16000 31.48200
C  -5.81800 32.50200 32.47900
H  0.03100 38.16700 29.23300
H  0.17400 37.40200 22.76000
H  -3.62100 32.30800 23.14900
H  -2.93700 34.89700 31.09300
H  -0.32700 36.28800 31.03100
H  -2.53600 38.07400 30.34900
H  -1.68800 38.01800 31.91400
H  -3.07700 37.03700 31.65500
H  -0.29100 34.23300 31.93900
H  -0.93000 32.98100 30.83000
H  -2.21600 32.10900 32.23800
H  -2.89600 33.63200 32.88700
H  2.15900 40.52600 27.16200
H  1.86800 39.27800 28.42500
H  0.69700 40.36100 28.02500
H  1.58800 41.36300 25.19000
H  2.77600 41.26200 23.83100
H  3.10100 40.29300 25.18600
H  -0.48500 35.39100 21.31100
H  -3.25800 34.54300 21.41300
H  -2.37700 37.61900 21.78200
H  -3.12900 36.52100 20.69300
H  -1.42800 37.02700 20.35800
H  -1.38800 33.50000 19.94100
H  -2.29000 32.30700 20.67900
H  0.04500 32.93900 22.30800
H  0.34800 32.65700 20.61500
H  -0.47100 31.38700 21.56400
H  -5.70400 30.97500 24.75200
H  -4.99500 29.82900 25.98700
H  -4.10000 30.22200 24.45900
H  -2.96400 31.80600 30.15800
H  -5.33300 32.68100 33.43800
H  -6.40700 31.58700 32.54700
H  -6.52300 33.26400 32.14700

