158

Mg 24.27500 -7.35600 46.70300
C  27.00900 -5.47100 45.85900
C  22.32600 -5.45100 44.62300
C  21.99900 -9.69800 46.93500
C  26.47900 -9.46200 48.61700
N  24.72400 -5.83300 45.14900
C  25.94700 -5.14000 45.05700
C  25.75900 -3.98500 44.05400
C  24.26800 -4.00300 43.75200
C  23.69300 -5.11800 44.58400
C  23.63300 -2.63000 43.99600
C  26.66200 -4.23200 42.88000
C  26.86700 -2.89200 42.02900
H  25.95500 -2.76700 40.73400
N  22.41000 -7.58200 45.91900
C  21.69700 -6.64700 45.17700
C  20.40100 -7.21800 44.75700
C  20.38500 -8.50700 45.28300
C  21.59500 -8.66000 46.08300
C  19.40400 -6.48100 43.91000
C  19.16900 -9.42600 45.13000
O  18.15600 -9.12000 44.56000
C  19.21000 -10.78500 45.75400
N  24.28000 -9.26100 47.71100
C  23.16700 -10.01900 47.68800
C  23.34500 -11.36800 48.35400
C  24.76600 -11.29400 48.96000
C  25.19900 -9.87600 48.41400
C  22.22400 -11.80900 49.33700
C  25.86100 -12.42300 48.36300
C  26.27700 -13.42700 49.43400
N  26.33600 -7.44400 47.31600
C  27.06600 -8.27900 48.10900
C  28.38800 -7.74500 48.36400
C  28.42100 -6.63600 47.45900
C  27.15200 -6.53400 46.79800
C  29.50600 -8.23900 49.27800
C  29.32400 -5.53100 46.88200
O  30.52800 -5.26700 47.10200
C  28.38300 -4.71900 45.86500
C  28.26500 -3.35700 46.44100
O  27.83200 -2.96000 47.51900
O  28.62900 -2.48900 45.41600
C  28.41400 -1.10200 45.69000
H  21.66200 -4.77500 44.08000
H  21.31200 -10.53300 47.09000
H  27.21100 -9.94400 49.26900
H  26.10300 -3.07700 44.54900
H  24.13800 -4.24700 42.69800
H  23.00000 -2.61500 44.88300
H  22.87000 -2.46300 43.23600
H  24.29800 -1.76900 43.92600
H  26.19400 -4.91900 42.17500
H  27.65500 -4.61600 43.11300
H  27.90400 -2.79400 41.71000
H  26.83700 -2.03800 42.70500
H  19.89600 -6.18800 42.98200
H  19.19000 -5.53800 44.41300
H  18.43500 -6.93800 43.71200
H  20.11400 -11.28600 45.40800
H  18.34700 -11.34900 45.40100
H  19.12500 -10.66900 46.83500
H  23.41800 -12.05800 47.51300
H  24.63900 -11.32600 50.04200
H  21.45700 -12.32800 48.76100
H  21.90400 -10.88500 49.81800
H  22.64300 -12.41500 50.14000
H  26.78100 -11.95500 48.01100
H  25.45700 -12.93800 47.49200
H  26.29000 -14.39900 48.94000
H  25.58600 -13.50100 50.27500
H  27.30900 -13.31900 49.76700
H  29.93400 -9.12700 48.81400
H  28.84500 -8.54300 50.09000
H  30.22600 -7.59400 49.78300
H  28.85500 -4.77500 44.88300
H  27.49200 -0.83700 46.20900
H  28.27600 -0.59800 44.73400
H  29.24800 -0.61900 46.19900
Mg 26.05900 -0.49100 29.04200
C  28.02000 -0.33000 31.85400
C  23.21900 0.06200 31.12200
C  24.07000 -0.62200 26.28000
C  28.73900 -1.45200 27.09300
N  25.71000 -0.29600 31.18700
C  26.69200 -0.09100 32.12800
C  26.13600 0.14100 33.56200
C  24.54300 0.31700 33.23100
C  24.43600 -0.03600 31.80300
C  23.49700 -0.29900 34.22100
C  26.93100 1.23300 34.33400
C  26.23600 1.99400 35.42700
H  27.06000 2.10600 36.76800
N  23.96100 -0.37900 28.73600
C  23.00800 -0.16200 29.74300
C  21.72400 -0.15200 29.05000
C  21.97000 -0.26800 27.67300
C  23.38600 -0.37600 27.49500
C  20.48700 -0.10000 29.77800
C  20.99600 -0.09100 26.50100
O  21.36300 -0.08600 25.36100
C  19.58400 0.00200 26.74800
N  26.35000 -0.79700 27.07900
C  25.36800 -0.80900 26.11500
C  25.89400 -0.93100 24.66200
C  27.42500 -1.12100 24.89700
C  27.55000 -1.12900 26.44900
C  25.28700 -2.09700 23.80500
C  28.36800 -0.12300 24.17700
C  28.83400 1.17200 24.91100
N  28.01100 -0.96800 29.39800
C  29.03200 -1.30100 28.47300
C  30.26400 -1.39400 29.23000
C  29.87700 -0.99800 30.55300
C  28.51700 -0.73700 30.55800
C  31.59200 -1.72400 28.54200
C  30.33700 -0.84300 31.84300
O  31.48300 -0.97800 32.24200
C  29.24100 -0.39200 32.79400
C  29.16600 -1.48700 33.91100
O  28.59800 -2.55500 33.73900
O  29.71000 -0.95500 35.12300
C  29.41900 -1.89500 36.23800
H  22.33200 0.33500 31.69800
H  23.51600 -0.72600 25.34500
H  29.56500 -1.57900 26.39100
H  26.30600 -0.70400 34.22800
H  24.32800 1.38000 33.34600
H  22.76300 -1.00600 33.83400
H  22.93200 0.51300 34.67700
H  24.12800 -0.68400 35.02200
H  27.47800 1.87800 33.64700
H  27.79000 0.78300 34.83100
H  25.33000 1.44800 35.69000
H  25.99900 3.00700 35.10200
H  20.10100 -1.08600 29.51800
H  19.88700 0.78000 29.54700
H  20.66200 -0.12600 30.85400
H  18.92700 0.30200 25.93100
H  19.52600 0.74600 27.54300
H  19.26500 -0.97700 27.10500
H  25.75700 -0.04300 24.04600
H  27.61700 -2.16900 24.66800
H  26.06400 -2.53700 23.17900
H  24.57000 -1.55200 23.19100
H  24.75900 -2.82100 24.42600
H  27.97400 0.20100 23.21300
H  29.28100 -0.71600 24.11700
H  28.18900 1.39000 25.76300
H  28.86300 2.06600 24.28900
H  29.82700 1.01800 25.33300
H  31.71300 -1.34400 27.52700
H  31.75200 -2.79900 28.45800
H  32.41800 -1.30700 29.11900
H  29.49700 0.58900 33.19400
H  28.50200 -1.50100 36.67700
H  30.21100 -1.79500 36.98000
H  29.30300 -2.94300 35.96000

