158

Mg 26.33100 50.35300 25.46700
C  24.11800 51.64400 28.11800
C  28.32800 49.25000 28.08900
C  28.44400 49.57300 23.16300
C  24.25800 52.05400 23.17200
N  26.25300 50.45500 27.89300
C  25.24100 50.95900 28.69900
C  25.58000 50.79700 30.18500
C  26.88800 50.00800 30.16400
C  27.15900 49.85200 28.61600
C  28.08900 50.64800 30.87900
C  24.44100 50.19900 31.04700
C  24.72100 49.56400 32.43200
H  24.36900 50.32400 33.69100
N  28.05800 49.47700 25.54500
C  28.75600 49.06700 26.66100
C  30.07400 48.63000 26.27600
C  30.13000 48.69000 24.86200
C  28.89600 49.27400 24.47400
C  31.21400 48.30100 27.25800
C  31.26400 48.38400 23.84700
O  31.14900 48.56200 22.61900
C  32.56400 47.94400 24.45100
N  26.39800 50.81300 23.34900
C  27.34000 50.26000 22.59500
C  26.98600 50.45300 21.07400
C  25.53000 51.10400 21.10200
C  25.39400 51.42700 22.60400
C  28.03600 51.43600 20.35000
C  24.37100 50.18300 20.52200
C  23.92400 50.62100 19.17000
N  24.54100 51.58200 25.56600
C  23.85100 52.20600 24.55500
C  22.66800 52.88300 25.14800
C  22.77500 52.68300 26.48400
C  23.92700 51.87500 26.78200
C  21.65900 53.72000 24.34600
C  22.10000 52.95900 27.78400
O  21.03700 53.55900 28.04500
C  23.01400 52.32900 28.82000
C  23.44900 53.32100 29.78500
O  24.54600 53.86200 29.95100
O  22.40600 53.46000 30.73000
C  22.65600 54.01800 32.04900
H  28.85900 48.66100 28.84000
H  29.05300 49.15000 22.36100
H  23.56600 52.39500 22.39900
H  25.75200 51.75400 30.67900
H  26.68700 48.99600 30.51500
H  28.56900 49.91300 31.52500
H  27.71300 51.48900 31.46200
H  28.93000 51.02200 30.29400
H  23.92100 49.46000 30.43700
H  23.77200 51.03500 31.24700
H  25.79200 49.38000 32.52400
H  24.26400 48.58200 32.30900
H  31.71800 47.37600 26.97800
H  30.89400 47.99900 28.25600
H  31.96100 49.08800 27.34900
H  32.63000 46.99200 24.97800
H  32.94600 48.74700 25.08200
H  33.15900 47.78100 23.55200
H  27.17800 49.47300 20.63700
H  25.45300 52.10500 20.67800
H  28.71400 51.68200 21.16800
H  27.56000 52.29500 19.87900
H  28.61100 50.84900 19.63300
H  23.52900 50.13100 21.21300
H  24.74500 49.16400 20.42100
H  24.66400 50.45000 18.38800
H  23.64500 51.66900 19.07100
H  23.02400 50.05100 18.94200
H  21.79900 53.65000 23.26700
H  21.55900 54.76900 24.62400
H  20.71100 53.20700 24.50700
H  22.40300 51.65900 29.42500
H  23.51300 54.69100 32.01100
H  23.03600 53.23600 32.70600
H  21.74700 54.43200 32.48500
Mg 8.60000 47.84700 27.31900
C  7.03100 47.65600 30.32200
C  11.74600 48.22200 29.09100
C  10.34200 48.58200 24.52300
C  5.57900 48.06300 25.68000
N  9.32200 47.98400 29.52700
C  8.45200 47.86400 30.56800
C  9.19100 47.99000 31.87200
C  10.69200 48.36600 31.44900
C  10.62800 48.15000 29.88800
C  11.24900 49.74000 31.94800
C  9.09300 46.76400 32.81300
C  8.96600 47.03600 34.31200
H  9.53300 45.99100 35.26100
N  10.79200 48.06500 26.83000
C  11.86700 48.18100 27.63100
C  13.06400 48.35700 26.83200
C  12.63500 48.26800 25.49600
C  11.15400 48.32800 25.54600
C  14.43900 48.70700 27.55500
C  13.50500 48.25300 24.30600
O  13.11300 48.27100 23.14300
C  15.08200 48.20700 24.48300
N  8.08200 48.20600 25.42200
C  8.95800 48.64200 24.43100
C  8.16000 48.99400 23.21700
C  6.73000 48.31600 23.47700
C  6.77800 48.07100 24.94400
C  8.02200 50.49500 22.92900
C  6.51900 47.05500 22.60400
C  5.40500 47.21200 21.51000
N  6.65000 47.78500 27.79500
C  5.49400 47.86400 27.02000
C  4.32700 47.74000 27.90800
C  4.88800 47.60300 29.19700
C  6.29200 47.69000 29.07000
C  2.83000 47.67000 27.51400
C  4.57100 47.49600 30.58100
O  3.49700 47.42700 31.13900
C  5.92100 47.56900 31.37800
C  5.91800 46.19800 32.04400
O  5.79900 45.12500 31.42100
O  5.95900 46.31800 33.37500
C  6.33900 45.08500 34.10400
H  12.64800 48.45500 29.66100
H  10.82700 48.81600 23.57300
H  4.69500 48.03900 25.03900
H  8.79000 48.89700 32.32600
H  11.35500 47.59900 31.85000
H  11.10500 50.48500 31.16600
H  12.29500 49.53500 32.17700
H  10.75800 50.07600 32.86200
H  9.95300 46.13100 32.59600
H  8.32500 46.07400 32.46300
H  7.90700 47.22100 34.49000
H  9.51600 47.94800 34.54500
H  14.30400 49.10800 28.56000
H  14.90500 49.40100 26.85500
H  14.91500 47.72900 27.63300
H  15.26900 47.44600 25.24000
H  15.51500 49.13900 24.84600
H  15.51100 47.87700 23.53700
H  8.63900 48.47800 22.38500
H  5.87900 48.97300 23.29500
H  8.73800 50.76000 22.15100
H  8.17600 51.07200 23.84100
H  7.03100 50.70300 22.52700
H  6.13100 46.22500 23.19400
H  7.45900 46.65900 22.21900
H  4.49500 46.83300 21.97500
H  5.67400 46.68800 20.59300
H  5.39700 48.26100 21.21400
H  2.35000 47.11500 28.32000
H  2.70000 47.10500 26.59100
H  2.41900 48.67900 27.46600
H  5.93800 48.40100 32.08300
H  6.49900 45.22000 35.17400
H  7.18800 44.52800 33.70900
H  5.44200 44.46800 34.04200

