158

Mg 29.82100 57.70200 39.40500
C  27.06600 55.56000 38.79100
C  31.93300 55.19800 38.48400
C  32.17900 60.11800 38.92200
C  27.38100 60.41800 39.87600
N  29.47900 55.62500 38.68200
C  28.26300 54.93100 38.47800
C  28.54400 53.54600 37.83200
C  30.05800 53.40200 38.14400
C  30.57500 54.82100 38.57700
C  30.51500 52.38400 39.13500
C  28.18700 53.21600 36.40700
C  28.35200 54.24000 35.37300
H  27.40000 54.27400 34.13800
N  31.90300 57.65500 38.91700
C  32.55500 56.50500 38.61800
C  33.90600 56.90400 38.20300
C  33.95700 58.34300 38.27800
C  32.65100 58.81800 38.78400
C  35.00400 55.84400 37.88100
C  35.13700 59.11300 37.78400
O  36.02000 58.54900 37.15000
C  35.24000 60.58400 38.03800
N  29.78000 59.94400 39.60700
C  30.91500 60.61200 39.22100
C  30.68100 62.15900 39.33700
C  29.13400 62.27400 39.68600
C  28.74300 60.81300 39.79300
C  31.59700 62.82600 40.37100
C  28.29400 63.05900 38.69800
C  27.85100 64.37000 39.19000
N  27.68500 57.98300 39.40000
C  26.87900 59.09200 39.58900
C  25.49900 58.68700 39.52100
C  25.52700 57.32100 39.20500
C  26.86600 56.97900 39.10800
C  24.29900 59.62400 39.89700
C  24.77200 56.16000 38.96200
O  23.57100 55.89300 38.93600
C  25.67100 55.03200 38.51900
C  25.28900 53.84000 39.37300
O  25.10900 53.82800 40.59200
O  25.06300 52.78200 38.51400
C  24.53600 51.49700 39.02200
H  32.52500 54.37400 38.08100
H  32.86000 60.93300 38.66500
H  26.60800 61.18900 39.91700
H  28.04900 52.84700 38.50600
H  30.56500 53.12400 37.22000
H  31.09100 52.73900 39.99000
H  31.00900 51.55600 38.62700
H  29.58300 52.01300 39.56000
H  27.20000 52.76600 36.30200
H  28.72700 52.34700 36.03200
H  29.33500 54.24500 34.90100
H  28.37000 55.22300 35.84500
H  35.43900 55.87300 36.88300
H  34.60600 54.84800 38.07400
H  35.72500 56.09800 38.65800
H  36.17500 61.07700 37.76800
H  34.94900 60.80700 39.06400
H  34.53500 60.96100 37.29700
H  30.89400 62.48400 38.31800
H  29.03800 62.68300 40.69100
H  32.63000 62.94900 40.04400
H  31.58700 62.28000 41.31400
H  31.20900 63.84200 40.44300
H  27.49500 62.49100 38.22100
H  28.83700 63.23500 37.77000
H  28.37900 64.96800 38.44700
H  28.21800 64.66100 40.17400
H  26.78400 64.57400 39.09600
H  24.14200 60.16700 38.96500
H  24.70900 60.32600 40.62300
H  23.43900 59.07200 40.27600
H  25.44900 54.81400 37.47500
H  23.57300 51.39700 38.52200
H  24.47300 51.49000 40.11000
H  25.05600 50.62000 38.63600
Mg -2.49100 34.48100 27.16800
C  -3.89000 32.40100 29.63100
C  -0.97300 36.19400 29.77000
C  -1.31300 36.49300 24.89800
C  -4.03300 32.52400 24.70800
N  -2.61700 34.43600 29.42300
C  -3.35900 33.57100 30.17200
C  -3.20000 33.86400 31.69900
C  -2.39600 35.18900 31.68300
C  -1.94800 35.30100 30.21000
C  -3.22200 36.52700 31.94800
C  -2.48400 32.65800 32.41300
C  -3.22400 32.24300 33.67800
H  -2.27700 32.22900 34.91500
N  -1.17000 36.03700 27.29400
C  -0.58500 36.59800 28.47400
C  0.33200 37.59200 28.16500
C  0.22800 37.74700 26.76800
C  -0.78200 36.76400 26.25100
C  1.24100 38.34700 29.21000
C  1.03500 38.62700 25.77900
O  0.78100 38.68400 24.56100
C  2.18000 39.38800 26.38000
N  -2.87500 34.66900 25.10800
C  -2.22500 35.61400 24.38700
C  -2.52200 35.56600 22.83300
C  -3.27700 34.18600 22.74200
C  -3.39500 33.73000 24.25000
C  -3.22100 36.80800 22.31800
C  -2.60800 33.18000 21.77000
C  -1.33600 32.51500 22.25500
N  -3.70800 32.80900 27.07400
C  -4.12500 32.00800 26.03600
C  -4.71300 30.78500 26.54500
C  -4.67600 30.92200 27.91900
C  -4.03700 32.14000 28.23300
C  -5.32200 29.76800 25.60600
C  -5.05300 30.27800 29.04500
O  -5.60100 29.21000 29.24900
C  -4.55400 31.23400 30.27100
C  -5.76400 31.66700 30.97800
O  -6.60500 32.40900 30.47200
O  -5.84900 31.10100 32.27100
C  -6.93300 31.47900 33.17800
H  -0.52500 36.79800 30.56100
H  -1.01300 37.22300 24.14300
H  -4.30500 31.90300 23.85200
H  -4.20800 34.11600 32.02700
H  -1.60500 34.98900 32.40700
H  -2.93800 37.36500 31.31200
H  -3.12900 36.75700 33.01000
H  -4.26400 36.28400 31.74400
H  -1.48400 32.91000 32.76500
H  -2.35500 31.82800 31.71900
H  -3.61600 31.23000 33.58200
H  -4.01400 32.92800 33.98400
H  2.32300 38.23200 29.15100
H  1.04700 38.10900 30.25600
H  1.10800 39.40700 28.99500
H  1.74400 40.24600 26.89100
H  2.86200 39.85700 25.67000
H  2.70200 38.64500 26.98200
H  -1.53600 35.55000 22.36900
H  -4.27000 34.33500 22.31800
H  -2.43100 37.23000 21.69700
H  -3.42600 37.41800 23.19900
H  -4.15200 36.56300 21.80700
H  -2.49100 33.67800 20.80700
H  -3.37600 32.40900 21.70900
H  -1.24400 31.44100 22.09000
H  -1.12100 32.68700 23.31000
H  -0.63500 33.16100 21.72700
H  -4.74600 29.40200 24.75600
H  -6.26600 30.26600 25.38200
H  -5.61900 28.87600 26.15700
H  -3.88100 30.59900 30.84900
H  -6.42300 31.76500 34.09700
H  -7.55100 30.59500 33.33400
H  -7.64400 32.23900 32.85400

