158

Mg 48.69300 35.74200 26.46200
C  46.90400 34.17000 28.87200
C  48.66300 38.68800 28.34800
C  50.60900 37.26900 24.08300
C  48.29700 33.07700 24.36300
N  47.99600 36.30600 28.39600
C  47.39900 35.43200 29.30200
C  47.35700 36.12900 30.64800
C  47.49700 37.64200 30.33200
C  48.00900 37.58900 28.88700
C  46.22800 38.60300 30.56900
C  48.46100 35.69400 31.63200
C  47.99000 35.31900 33.10800
H  46.92700 36.19600 33.77300
N  49.54600 37.64600 26.25400
C  49.39400 38.71100 27.08800
C  50.23600 39.78600 26.72800
C  50.94900 39.35500 25.59700
C  50.33800 38.04200 25.23500
C  50.37000 41.07600 27.50200
C  52.03200 40.06000 24.74700
O  52.51300 39.46300 23.78600
C  52.52700 41.40800 25.19100
N  49.15200 35.27600 24.40400
C  50.06500 36.05500 23.67700
C  50.28300 35.44600 22.30700
C  49.52800 34.08600 22.38700
C  48.96900 34.09100 23.77800
C  49.72800 36.40600 21.16700
C  50.56400 32.89200 22.15600
C  51.03100 32.74100 20.66700
N  47.72200 34.02300 26.50600
C  47.64100 33.02800 25.60200
C  46.91900 31.91300 26.15300
C  46.54400 32.31900 27.43800
C  47.00800 33.65600 27.55100
C  46.70900 30.61000 25.51000
C  45.93200 31.87200 28.69400
O  45.42600 30.82400 29.10100
C  46.03100 33.14900 29.59900
C  46.61900 32.68600 30.86700
O  47.83600 32.44300 31.06300
O  45.60300 32.37700 31.79500
C  46.07000 31.57700 32.97200
H  48.58300 39.47900 29.09600
H  51.28900 37.68200 23.33500
H  48.37200 32.14200 23.80400
H  46.41500 35.95300 31.16700
H  48.23700 38.10500 30.98400
H  45.38000 38.06600 30.99400
H  46.08300 39.11700 29.61900
H  46.48600 39.39600 31.27000
H  49.17600 36.49800 31.80500
H  48.99000 34.80600 31.28500
H  48.83500 35.39200 33.79300
H  47.68700 34.27300 33.13300
H  51.35500 41.53000 27.61300
H  49.93600 40.97400 28.49700
H  49.70000 41.86600 27.16100
H  51.83100 42.24200 25.09900
H  53.37800 41.62900 24.54700
H  52.88000 41.30800 26.21700
H  51.33900 35.20100 22.18600
H  48.71100 33.97500 21.67400
H  49.75300 37.49300 21.23400
H  48.72400 36.08700 20.88800
H  50.47500 36.28600 20.38200
H  50.20800 31.88100 22.35600
H  51.40100 33.06900 22.83200
H  50.98000 31.72300 20.28100
H  52.08400 33.00000 20.55300
H  50.45900 33.39500 20.01000
H  45.75300 30.18100 25.81100
H  47.44800 29.89100 25.86300
H  46.61800 30.63900 24.42400
H  45.10800 33.69600 29.79300
H  46.79600 32.15300 33.54500
H  46.67500 30.68200 32.83000
H  45.17800 31.24300 33.50100
Mg 0.79000 42.81500 25.35800
C  2.16000 43.04800 28.68600
C  -2.22300 42.26200 26.66400
C  -0.35600 42.35100 22.23000
C  3.88700 43.36100 24.16400
N  0.14400 42.60200 27.53000
C  0.75400 42.77100 28.70400
C  -0.22000 42.68300 29.82000
C  -1.57400 42.28400 29.09100
C  -1.18900 42.41700 27.61900
C  -2.05100 40.86100 29.47300
C  -0.40700 44.03400 30.50700
C  -1.28800 44.00600 31.82900
H  -2.26200 42.83600 32.09800
N  -1.10900 42.34700 24.57800
C  -2.22000 42.15300 25.24600
C  -3.30300 41.90200 24.27500
C  -2.65800 41.89400 22.97900
C  -1.27800 42.21700 23.23500
C  -4.74300 41.64700 24.78800
C  -3.27900 41.65400 21.66400
O  -2.67800 41.65500 20.56000
C  -4.72800 41.37300 21.62500
N  1.60900 42.79700 23.48000
C  0.95700 42.59400 22.35300
C  1.88500 42.65400 21.12200
C  3.12100 43.29500 21.75300
C  2.90000 43.06200 23.22400
C  2.11400 41.40000 20.26100
C  3.40100 44.78600 21.39300
C  2.94300 45.98500 22.28600
N  2.59800 43.25900 26.20500
C  3.77500 43.49600 25.58000
C  4.88900 43.81300 26.54700
C  4.25700 43.61700 27.76100
C  2.88800 43.30900 27.51900
C  6.40000 44.18100 26.20500
C  4.45300 43.61100 29.19600
O  5.42800 43.77700 29.92200
C  3.06400 43.22400 29.83600
C  3.24500 41.99500 30.57100
O  3.88700 41.00600 30.20500
O  2.55700 42.12000 31.75100
C  2.44200 40.89100 32.58700
H  -3.18500 42.00900 27.11600
H  -0.58800 42.26600 21.16700
H  4.82500 43.73600 23.75000
H  0.06800 41.97700 30.59900
H  -2.32900 43.03200 29.33100
H  -3.12200 40.89100 29.67300
H  -1.46500 40.34100 30.23000
H  -1.82800 40.26000 28.59100
H  -0.92300 44.71700 29.83300
H  0.60200 44.35500 30.76700
H  -2.05400 44.76800 31.68800
H  -0.75300 44.27700 32.73900
H  -5.40300 42.42900 24.41100
H  -4.75900 41.62400 25.87800
H  -5.02600 40.67000 24.39800
H  -4.95200 40.46900 22.19200
H  -5.02000 41.11000 20.60800
H  -5.35600 42.16300 22.03600
H  1.30900 43.35200 20.51500
H  4.01500 42.73200 21.48600
H  3.15000 41.19000 19.99600
H  1.54800 41.52000 19.33700
H  1.85300 40.51100 20.83500
H  3.09500 45.00700 20.37000
H  4.49000 44.78200 21.36300
H  2.54800 45.74300 23.27300
H  2.25200 46.57700 21.68500
H  3.76300 46.68700 22.43500
H  7.22600 43.50100 26.41400
H  6.54300 45.17400 26.63000
H  6.56300 44.40500 25.15100
H  2.73300 43.97400 30.55300
H  2.56300 41.24400 33.61100
H  3.12400 40.05900 32.41000
H  1.39200 40.61200 32.50900

