158

Mg 25.89700 1.37300 29.14000
C  27.72400 1.06900 32.12100
C  23.06900 1.83700 31.02300
C  23.99100 1.45600 26.24900
C  28.69000 0.68900 27.27900
N  25.39500 1.05200 31.37800
C  26.32400 1.19500 32.42100
C  25.68000 1.59800 33.74800
C  24.20500 1.78800 33.30500
C  24.17100 1.53300 31.84900
C  23.12400 0.91300 34.06700
C  26.30800 2.86500 34.43600
C  26.91400 2.59900 35.83000
H  26.42000 3.49000 36.92200
N  23.88500 1.63900 28.70700
C  22.86300 1.76500 29.65100
C  21.58100 1.91200 29.00500
C  21.80900 1.78800 27.59700
C  23.30100 1.63800 27.50100
C  20.32300 2.16300 29.80800
C  20.76300 1.83700 26.51300
O  21.08500 1.80300 25.30300
C  19.31400 2.08100 26.83100
N  26.32100 1.11000 27.15000
C  25.37000 1.19300 26.15300
C  25.92800 0.94000 24.71900
C  27.42500 0.77300 25.04500
C  27.51700 0.84200 26.58200
C  25.34500 -0.24600 24.00300
C  28.39800 1.80000 24.35500
C  29.01600 1.24900 23.05500
N  27.84200 0.94300 29.49700
C  28.88700 0.71900 28.65300
C  30.03500 0.36800 29.43600
C  29.62100 0.55300 30.77100
C  28.27200 0.87000 30.80400
C  31.40200 -0.17900 28.94400
C  30.11900 0.54600 32.15500
O  31.25300 0.45100 32.66100
C  28.90700 0.94000 33.09600
C  28.77100 -0.11000 34.12600
O  28.38300 -1.24400 33.92300
O  29.12000 0.35700 35.39100
C  29.20100 -0.49700 36.55800
H  22.25500 2.30300 31.58300
H  23.32500 1.60600 25.39800
H  29.59000 0.33600 26.77000
H  25.80500 0.72700 34.39200
H  23.96500 2.83300 33.49900
H  22.45400 0.38800 33.38600
H  22.55000 1.48700 34.79400
H  23.55200 0.11100 34.66800
H  25.61600 3.70700 34.42200
H  27.18500 3.23400 33.90500
H  27.97600 2.82900 35.91600
H  26.81100 1.58400 36.21400
H  19.82100 1.26600 30.17000
H  19.55800 2.69500 29.24200
H  20.58300 2.83500 30.62600
H  18.68800 1.94700 25.95000
H  19.17900 3.14900 27.00200
H  18.91200 1.47600 27.64400
H  25.59100 1.73100 24.05000
H  27.74800 -0.22200 24.74000
H  25.64500 -0.40200 22.96600
H  24.26500 -0.13800 24.10600
H  25.71700 -1.11200 24.55000
H  29.22100 1.99400 25.04300
H  27.89900 2.75200 24.17500
H  28.82900 1.84000 22.15800
H  28.49400 0.32800 22.80100
H  30.05800 0.93500 23.11800
H  31.11400 -0.94100 28.22000
H  31.94000 -0.72100 29.72100
H  32.02900 0.55300 28.43500
H  29.15600 1.86000 33.62400
H  28.38100 -0.17800 37.20200
H  30.12500 -0.34000 37.11400
H  29.20300 -1.57100 36.37000
Mg 6.21900 54.03100 40.87300
C  5.24200 50.69300 40.67500
C  9.28400 53.09600 39.64900
C  6.89400 57.22900 40.16900
C  2.78400 54.82400 41.61300
N  7.15000 52.09600 40.31700
C  6.57500 50.84100 40.36000
C  7.58100 49.76000 39.92800
C  8.92900 50.55900 40.03700
C  8.46300 52.03100 39.97800
C  9.93500 50.12400 41.18400
C  7.41300 49.14400 38.48000
C  6.62300 49.91800 37.43800
H  7.39900 50.67900 36.32200
N  7.91800 55.07600 40.03300
C  9.12200 54.45100 39.68000
C  10.07800 55.42800 39.31200
C  9.39800 56.67100 39.31600
C  7.97900 56.38700 39.78900
C  11.53600 55.10200 38.97100
C  9.95600 57.96400 38.96100
O  11.10600 58.07000 38.61600
C  9.09600 59.27000 38.87800
N  4.88300 55.77000 40.69700
C  5.53300 56.99300 40.55200
C  4.47500 58.11000 40.70400
C  3.18000 57.31800 41.13800
C  3.64700 55.86800 41.17600
C  4.89200 59.08600 41.82900
C  1.84900 57.54100 40.28400
C  0.47000 57.64200 40.92600
N  4.32400 53.00200 41.12100
C  3.06000 53.49200 41.54000
C  2.20100 52.39900 41.79700
C  3.00800 51.28000 41.47900
C  4.27600 51.71000 41.05200
C  0.79200 52.40400 42.19900
C  3.06900 49.81000 41.45500
O  2.20900 48.94300 41.83500
C  4.49800 49.33600 40.94200
C  4.38700 48.48000 39.76000
O  3.79900 48.83300 38.74700
O  5.04600 47.32300 40.06300
C  5.03300 46.25800 39.02100
H  10.25600 52.64900 39.42900
H  7.06900 58.30200 40.27100
H  1.78900 55.16400 41.91100
H  7.54700 48.92500 40.62700
H  9.57500 50.46500 39.16400
H  10.79300 49.56800 40.80500
H  9.44800 49.50500 41.93700
H  10.33600 50.98200 41.72300
H  6.93700 48.16400 38.50800
H  8.32400 49.00600 37.89900
H  6.14400 50.69200 38.03800
H  5.75600 49.38000 37.05500
H  11.71000 54.02600 38.99700
H  12.24700 55.36800 39.75200
H  11.75600 55.41000 37.94900
H  8.13400 58.98100 38.45500
H  9.62300 60.03700 38.31100
H  9.08700 59.77100 39.84600
H  4.54700 58.54000 39.70500
H  2.87900 57.55400 42.15900
H  5.35500 59.94200 41.33700
H  5.63100 58.54600 42.41900
H  4.14900 59.42200 42.55200
H  1.90600 56.65600 39.65100
H  2.03600 58.43800 39.69300
H  -0.02000 58.44400 40.37400
H  0.59600 57.91900 41.97300
H  -0.05500 56.68800 40.89200
H  0.26200 52.15600 41.27900
H  0.47900 53.34200 42.65900
H  0.63100 51.60500 42.92200
H  4.98400 48.86600 41.79700
H  5.92500 45.66800 39.23000
H  5.05900 46.61900 37.99300
H  4.04700 45.79900 39.09700

