158

Mg 29.77700 59.50100 39.64100
C  26.78200 57.88100 38.79100
C  31.36900 56.70300 38.47500
C  32.47400 61.23000 39.41400
C  27.88000 62.51100 40.12700
N  29.12200 57.47100 38.85100
C  27.90800 57.05300 38.53400
C  27.86000 55.74200 37.80800
C  29.29900 55.23900 38.17200
C  29.99500 56.55000 38.47600
C  29.25300 54.24600 39.36300
C  27.73600 55.85700 36.22200
C  26.43700 55.26300 35.68700
H  25.65600 56.09500 34.64400
N  31.65800 58.98500 39.31400
C  32.15300 57.83500 38.82300
C  33.56800 57.93000 38.69500
C  33.99200 59.21300 39.08400
C  32.71900 59.88300 39.29600
C  34.52300 56.73300 38.21100
C  35.43200 59.87100 39.12600
O  36.36200 59.24800 38.65700
C  35.67200 61.21100 39.79100
N  30.08500 61.54000 39.75800
C  31.34500 62.00100 39.69200
C  31.36100 63.50600 39.88200
C  29.92900 63.87000 40.25600
C  29.21200 62.57300 40.02900
C  32.47500 64.10000 40.80200
C  29.29300 65.04000 39.39200
C  28.62700 66.26400 40.20700
N  27.67100 60.11900 39.67100
C  27.07000 61.32900 39.91900
C  25.61700 61.09500 39.72900
C  25.48200 59.72700 39.33700
C  26.74100 59.22200 39.30000
C  24.48600 62.12600 39.90400
C  24.51300 58.75100 38.84600
O  23.30500 58.74600 38.75400
C  25.31400 57.47000 38.41400
C  24.89500 56.30000 39.15000
O  25.21500 55.92500 40.28600
O  24.12800 55.52000 38.36700
C  23.33500 54.55600 39.15600
H  31.72900 55.76800 38.04100
H  33.31500 61.89700 39.21500
H  27.21200 63.37000 40.21200
H  26.99800 55.19500 38.19100
H  29.81400 54.68600 37.38700
H  29.85800 54.70600 40.14400
H  29.73600 53.27500 39.25300
H  28.23900 53.96600 39.64700
H  28.61100 55.48100 35.69300
H  27.74600 56.88700 35.86400
H  25.82800 54.87800 36.50600
H  26.65100 54.40900 35.04400
H  34.07000 55.81000 38.57000
H  35.50200 56.85200 38.67700
H  34.64200 56.59600 37.13600
H  36.63300 61.22000 40.30700
H  34.92400 61.48000 40.53700
H  35.80400 61.84400 38.91400
H  31.55200 63.82500 38.85700
H  29.92500 64.10300 41.32100
H  33.02600 64.82500 40.20200
H  33.08600 63.29400 41.20900
H  32.02200 64.53000 41.69500
H  28.52000 64.58700 38.77200
H  30.03600 65.42900 38.69600
H  27.65900 66.56200 39.80400
H  29.34600 67.08300 40.23600
H  28.55400 65.76000 41.17000
H  24.91400 63.08800 40.18400
H  23.96100 61.98300 40.84900
H  23.81900 62.04600 39.04600
H  25.24900 57.25300 37.34800
H  22.94500 54.85200 40.13000
H  23.91500 53.65700 39.36500
H  22.46800 54.27000 38.56100
Mg -10.08500 18.41100 41.89700
C  -6.78500 17.66500 41.80200
C  -9.39500 21.74400 41.35000
C  -13.37300 19.01300 41.35600
C  -10.78000 15.04900 42.17800
N  -8.29900 19.46200 41.36700
C  -6.99500 19.00000 41.55100
C  -5.97000 20.07900 41.46700
C  -6.81700 21.39500 41.45900
C  -8.29700 20.83100 41.42200
C  -6.52300 22.38400 42.58200
C  -5.02800 19.88200 40.27100
C  -5.63600 19.11300 39.06500
H  -4.83400 19.21200 37.75800
N  -11.22800 20.14800 41.31100
C  -10.76400 21.40500 41.18400
C  -11.88700 22.31600 40.92500
C  -13.08400 21.55300 40.93400
C  -12.61000 20.18500 41.16700
C  -11.75400 23.76500 40.68100
C  -14.44200 22.13300 40.67000
O  -14.56900 23.32900 40.53200
C  -15.61300 21.18800 40.53800
N  -11.76700 17.25800 41.86300
C  -12.95100 17.71200 41.71200
C  -14.11600 16.69400 41.90400
C  -13.32300 15.39300 41.77500
C  -11.85200 15.89300 41.84200
C  -14.90500 16.92100 43.24400
C  -13.66100 14.50700 40.48400
C  -15.14300 14.10400 40.22800
N  -8.99600 16.66400 42.07100
C  -9.38800 15.34300 42.21600
C  -8.25300 14.45000 42.28700
C  -7.20500 15.39100 42.23900
C  -7.69100 16.67500 41.99800
C  -8.16900 12.98300 42.44000
C  -5.79200 15.48500 42.36500
O  -4.92500 14.60000 42.64200
C  -5.46100 16.94600 42.06100
C  -4.63600 17.52300 43.14100
O  -3.61000 18.09700 43.05500
O  -5.21100 17.20100 44.39500
C  -4.42300 17.51600 45.61600
H  -9.22400 22.81700 41.24600
H  -14.43600 19.05600 41.10800
H  -11.07200 14.01300 41.99200
H  -5.33900 20.01500 42.35400
H  -6.74000 21.90800 40.50000
H  -5.59200 22.18700 43.11200
H  -7.29300 22.50700 43.34400
H  -6.38500 23.29500 41.99900
H  -4.19300 19.32300 40.69200
H  -4.70600 20.84800 39.88100
H  -6.63200 19.53300 38.92300
H  -5.80100 18.07000 39.33600
H  -12.41500 24.16300 39.91100
H  -10.77600 24.07800 40.31800
H  -11.95300 24.35200 41.57800
H  -15.72700 20.76200 41.53400
H  -15.25400 20.48400 39.78700
H  -16.50900 21.59700 40.07000
H  -14.83900 16.92200 41.12100
H  -13.54000 14.89100 42.71900
H  -15.74000 17.57300 42.99000
H  -14.21900 17.39000 43.94800
H  -15.21100 15.95600 43.64700
H  -13.09200 13.58400 40.58900
H  -13.16900 14.97700 39.63200
H  -15.56600 14.53700 39.32100
H  -15.69100 14.49500 41.08500
H  -15.05900 13.02700 40.08700
H  -7.38100 12.37700 41.99200
H  -9.12000 12.53700 42.14700
H  -8.04400 12.90700 43.52000
H  -4.84400 16.93500 41.16200
H  -5.03900 17.98300 46.38500
H  -3.62400 18.20700 45.34600
H  -3.77400 16.75200 46.04500

