158

Mg 26.32100 1.60800 29.25100
C  28.24400 1.06400 32.19700
C  23.57300 2.13500 31.35500
C  24.37300 1.65600 26.52400
C  29.05000 0.42100 27.44600
N  25.96700 1.54900 31.49500
C  26.92200 1.37800 32.47800
C  26.35500 1.58500 33.92800
C  24.78700 1.72300 33.59500
C  24.74600 1.80800 32.01800
C  23.86900 0.51200 34.14100
C  26.97300 2.82900 34.74600
C  26.38500 3.21200 36.11400
H  27.34900 3.62200 37.20700
N  24.24400 1.97300 28.94300
C  23.31900 2.15200 29.92700
C  22.07800 2.49700 29.25800
C  22.22900 2.17200 27.92200
C  23.67800 1.96200 27.72800
C  20.75900 2.74800 30.00700
C  21.23600 2.07100 26.78800
O  21.56100 1.68900 25.71800
C  19.79400 2.38300 27.05600
N  26.63500 1.14900 27.31200
C  25.72000 1.31800 26.32800
C  26.38800 1.00900 24.95400
C  27.85900 0.82500 25.27800
C  27.83100 0.71100 26.80500
C  25.70100 -0.17400 24.17900
C  28.83500 1.91700 24.75800
C  30.30700 1.57200 24.59300
N  28.24600 0.92800 29.68300
C  29.20900 0.41000 28.84400
C  30.33500 -0.04600 29.57800
C  30.06000 0.21400 30.90600
C  28.76900 0.83700 30.93900
C  31.43600 -0.74600 28.97400
C  30.55700 0.03900 32.24700
O  31.57200 -0.41600 32.62200
C  29.40500 0.63200 33.15000
C  28.97400 -0.49100 34.06700
O  28.29900 -1.47000 33.77800
O  29.53000 -0.25000 35.30100
C  29.30800 -1.27000 36.34900
H  22.61000 2.29200 31.84400
H  23.84000 1.70100 25.57200
H  29.93300 0.08600 26.89700
H  26.65000 0.63700 34.37800
H  24.56500 2.72200 33.97100
H  24.57800 -0.25100 34.46200
H  23.28100 0.20900 33.27500
H  23.15100 0.81500 34.90300
H  26.80800 3.58400 33.97800
H  28.03800 2.68500 34.92900
H  25.90700 2.35600 36.59000
H  25.60800 3.96100 35.96100
H  20.43500 3.72100 29.63700
H  20.88600 2.83000 31.08600
H  19.93300 2.04700 29.89400
H  19.25100 1.62900 27.62500
H  19.30600 2.36500 26.08200
H  19.61500 3.39500 27.41900
H  26.32600 1.93700 24.38700
H  28.18800 -0.09300 24.79000
H  24.82500 -0.61700 24.65200
H  26.47500 -0.91300 23.97400
H  25.23000 0.20300 23.27100
H  28.64200 2.79500 25.37500
H  28.34300 2.19600 23.82700
H  30.64800 1.96900 23.63700
H  30.54900 0.51100 24.64900
H  30.82300 2.04600 25.42800
H  32.14200 0.02900 28.67300
H  31.22100 -1.45700 28.17600
H  31.78500 -1.31500 29.83500
H  29.59200 1.54200 33.72000
H  29.00900 -2.26700 36.02500
H  28.44100 -0.96900 36.93600
H  30.12600 -1.23200 37.06800
Mg -5.26500 26.11600 26.91700
C  -4.21900 27.80400 29.82400
C  -7.34400 24.25800 28.80000
C  -5.89100 24.24800 24.13600
C  -2.90800 27.90600 25.16100
N  -5.65200 26.02000 29.09900
C  -5.25300 26.88500 30.10300
C  -6.01800 26.66700 31.36500
C  -6.84200 25.43600 31.08400
C  -6.55600 25.15800 29.58200
C  -6.52700 24.09900 31.94600
C  -6.87900 27.96200 31.69200
C  -7.47600 27.99500 33.09500
H  -7.15500 26.93900 34.17500
N  -6.60000 24.58200 26.46700
C  -7.38300 23.92800 27.41800
C  -8.19400 22.91100 26.71000
C  -7.80100 22.88000 25.36200
C  -6.67600 23.89000 25.27700
C  -9.32100 22.12700 27.41800
C  -8.19500 21.99300 24.22400
O  -7.68500 22.07900 23.15800
C  -9.22700 20.94000 24.48400
N  -4.70000 26.22100 24.89300
C  -4.96600 25.24000 23.95100
C  -4.29200 25.58800 22.60000
C  -3.42600 26.83500 22.95300
C  -3.68600 27.02500 24.44300
C  -3.58600 24.45700 21.85300
C  -3.74400 28.13600 22.12700
C  -3.27300 28.13000 20.63500
N  -3.80900 27.45800 27.36000
C  -2.97700 28.15700 26.51900
C  -2.22000 29.15800 27.28300
C  -2.75500 29.11300 28.49400
C  -3.66900 28.01600 28.55700
C  -1.33200 30.24900 26.78400
C  -2.61400 29.73200 29.79500
O  -1.90100 30.67600 30.13700
C  -3.57900 28.93800 30.73500
C  -2.70500 28.19200 31.73400
O  -1.77000 27.48600 31.39100
O  -3.17000 28.44600 32.99700
C  -2.45700 27.77300 34.01500
H  -7.97700 23.75100 29.53100
H  -6.12300 23.69800 23.22200
H  -2.04300 28.43800 24.75900
H  -5.36700 26.49000 32.22100
H  -7.90200 25.59100 31.28500
H  -6.38200 23.26200 31.26300
H  -7.48000 23.99100 32.46500
H  -5.71500 24.16900 32.66900
H  -7.64800 28.15100 30.94400
H  -6.14400 28.76000 31.80700
H  -8.55100 28.14900 33.00200
H  -7.07700 28.81300 33.69400
H  -8.89200 21.16900 27.71400
H  -10.15700 21.94600 26.74200
H  -9.66200 22.77600 28.22400
H  -10.16400 21.46100 24.68200
H  -9.03000 20.31400 25.35400
H  -9.24900 20.30600 23.59700
H  -4.98200 25.90200 21.81600
H  -2.38000 26.55500 22.82300
H  -2.51800 24.60200 21.68900
H  -4.02600 24.32200 20.86500
H  -3.62000 23.50200 22.37900
H  -3.50000 29.01600 22.72200
H  -4.82400 28.27300 22.07600
H  -2.64700 27.25400 20.46500
H  -2.57900 28.95700 20.48200
H  -4.08400 28.30300 19.92800
H  -1.93300 30.98600 26.25100
H  -0.62400 29.77000 26.10800
H  -0.85900 30.86100 27.55200
H  -4.34400 29.56300 31.19500
H  -1.50400 28.22600 34.28800
H  -2.18800 26.75300 33.73800
H  -3.01100 27.75400 34.95300

