158

Mg 17.25500 -1.67700 27.08700
C  16.24800 0.10600 29.88700
C  19.30900 -3.64500 28.97400
C  18.62300 -2.81900 24.16000
C  15.25400 0.51100 25.13900
N  17.87500 -1.59500 29.18000
C  17.28300 -0.86400 30.16400
C  17.69600 -1.42500 31.60600
C  18.82800 -2.50400 31.27200
C  18.67800 -2.62400 29.72500
C  20.28800 -2.14700 31.80900
C  16.53700 -2.04100 32.43500
C  16.50500 -1.70400 33.94100
H  17.64900 -0.91300 34.64900
N  18.53400 -3.22100 26.61300
C  19.27000 -3.86600 27.56000
C  19.91400 -4.96000 26.81400
C  19.74200 -4.72600 25.41400
C  18.90600 -3.54900 25.36000
C  20.82900 -5.90600 27.53800
C  20.23900 -5.59600 24.30000
O  20.00500 -5.39800 23.09300
C  20.97400 -6.87000 24.55900
N  16.95400 -1.30300 25.01400
C  17.78300 -1.71200 24.04600
C  17.30200 -1.20700 22.64800
C  16.09900 -0.28300 22.99700
C  16.07000 -0.37100 24.47400
C  18.37700 -0.56400 21.85100
C  14.82900 -0.74500 22.27300
C  14.49100 -0.07000 20.96000
N  15.99200 -0.01300 27.43500
C  15.20400 0.72600 26.49500
C  14.56700 1.78500 27.21300
C  14.87500 1.51700 28.59900
C  15.76700 0.44700 28.64300
C  13.69500 2.92700 26.64200
C  14.77200 2.07000 29.99400
O  14.15700 3.01900 30.43100
C  15.58900 1.12800 30.87200
C  16.61100 1.93500 31.54300
O  17.72900 2.26200 31.07200
O  16.07000 2.34700 32.80900
C  16.98700 3.27800 33.56700
H  19.92400 -4.26900 29.62600
H  19.07200 -3.21100 23.24500
H  14.58000 1.16600 24.58400
H  18.09200 -0.66500 32.27800
H  18.60400 -3.45400 31.75500
H  21.02200 -2.39000 31.04100
H  20.68100 -2.62100 32.70800
H  20.25000 -1.08300 32.04200
H  16.47700 -3.12900 32.39800
H  15.57000 -1.60300 32.18500
H  16.23300 -2.55000 34.57200
H  15.64600 -1.04400 34.06000
H  20.45400 -6.92700 27.46900
H  20.70100 -5.66500 28.59400
H  21.87100 -5.89600 27.22200
H  21.78000 -6.68600 25.26900
H  21.47900 -7.20000 23.65100
H  20.31000 -7.62900 24.97400
H  17.03900 -2.15600 22.18100
H  16.39800 0.74400 22.78800
H  18.84900 -1.18700 21.09100
H  19.20000 -0.25400 22.49600
H  17.87400 0.21100 21.27300
H  13.96000 -0.63100 22.92100
H  14.92700 -1.82800 22.19800
H  15.08600 0.84200 20.91700
H  13.43400 0.19000 21.01500
H  14.66600 -0.72900 20.11000
H  13.16800 2.62900 25.73600
H  14.28200 3.83500 26.49700
H  12.93200 3.29600 27.32800
H  14.96500 0.59200 31.58600
H  17.76800 2.67300 34.02700
H  16.37500 3.69800 34.36500
H  17.31100 4.12700 32.96500
Mg 52.74800 23.90300 44.76200
C  49.77800 25.85800 44.01200
C  51.11900 21.10500 43.86000
C  55.67400 22.36800 44.76600
C  54.23900 26.93000 45.56900
N  50.64300 23.62500 43.83900
C  49.58400 24.47600 43.73500
C  48.23800 23.67200 43.47200
C  48.67000 22.19500 43.64200
C  50.22400 22.25800 43.86500
C  47.99900 21.40700 44.79800
C  47.66500 24.00000 42.10700
C  48.69600 23.81500 40.87900
H  48.03700 23.25700 39.54200
N  53.36800 22.01000 44.27900
C  52.57300 20.98400 43.89500
C  53.32200 19.76800 43.72000
C  54.74300 20.13800 43.88900
C  54.70200 21.53800 44.34200
C  52.62900 18.52200 43.28600
C  55.95000 19.18700 43.70900
O  55.73400 18.00000 43.50800
C  57.37700 19.58900 43.79400
N  54.73900 24.58800 45.15100
C  55.80100 23.75200 45.04500
C  57.09600 24.52600 45.13100
C  56.68400 26.00900 45.50700
C  55.13000 25.88900 45.37300
C  58.17900 23.85900 46.08700
C  57.22500 27.17300 44.58000
C  58.25500 28.20400 45.13100
N  52.16000 25.93700 44.96500
C  52.85000 27.02800 45.38600
C  52.04800 28.26200 45.48700
C  50.80300 27.79200 44.93900
C  50.94900 26.37300 44.59500
C  52.42300 29.59500 45.91300
C  49.51700 28.23200 44.57900
O  48.95400 29.34600 44.62200
C  48.75400 26.96800 43.99700
C  48.35200 27.33100 42.58300
O  49.13100 27.31000 41.59500
O  47.01400 27.68800 42.50800
C  46.52200 27.88400 41.18900
H  50.59200 20.14900 43.89300
H  56.68000 21.95900 44.65100
H  54.71300 27.89000 45.78700
H  47.52700 23.88800 44.27000
H  48.39800 21.64200 42.74300
H  48.66100 20.62300 45.16500
H  47.12100 20.92800 44.36500
H  47.75900 22.09900 45.60500
H  47.00900 24.86900 42.06600
H  46.87000 23.26100 42.01300
H  49.43100 23.04500 41.11000
H  49.21700 24.75800 40.70900
H  51.55500 18.60900 43.12300
H  52.80000 17.70900 43.99200
H  53.07800 18.12600 42.37600
H  57.59400 20.28400 42.98300
H  57.94200 18.67300 43.62100
H  57.67000 20.00200 44.75900
H  57.56900 24.64200 44.15600
H  56.91800 26.09100 46.56800
H  57.85800 22.88400 46.45300
H  58.46400 24.47100 46.94300
H  59.01400 23.77900 45.39100
H  56.39200 27.78000 44.22200
H  57.65800 26.75700 43.67000
H  58.87700 27.72000 45.88500
H  57.74900 29.11200 45.45900
H  58.71100 28.53800 44.19900
H  52.79300 30.31900 45.18700
H  53.06900 29.41700 46.77200
H  51.49600 29.99100 46.32800
H  47.89100 26.72600 44.61700
H  46.79900 27.17600 40.40800
H  46.91700 28.83100 40.82200
H  45.43700 27.95500 41.26200

