158

Mg 1.18200 -1.23400 44.15200
C  4.44800 -0.65600 43.59000
C  0.32500 1.48300 42.21400
C  -2.10100 -2.20100 44.20200
C  2.08500 -4.41300 45.48200
N  2.26500 0.25300 42.99200
C  3.62900 0.30000 42.92900
C  4.05800 1.55600 42.13000
C  2.67700 2.30500 41.93700
C  1.67200 1.30100 42.36000
C  2.51100 3.67100 42.75600
C  4.81600 1.12400 40.79600
C  6.06500 1.92300 40.35500
H  5.86100 2.98500 39.28300
N  -0.61700 -0.37600 43.45500
C  -0.74700 0.73700 42.71300
C  -2.15700 1.08700 42.62700
C  -2.99200 0.08400 43.30800
C  -1.90000 -0.87600 43.74200
C  -2.61700 2.40600 41.92600
C  -4.49100 0.02300 43.38900
O  -5.19100 0.91400 42.97400
C  -5.14400 -1.02000 44.18300
N  0.10600 -3.08300 44.64200
C  -1.21500 -3.22900 44.63600
C  -1.68500 -4.66500 44.90300
C  -0.42800 -5.17100 45.70800
C  0.68100 -4.22500 45.21500
C  -3.04000 -4.95300 45.67400
C  -0.27800 -6.73000 45.65800
C  -0.41400 -7.50200 47.01700
N  2.89400 -2.33600 44.54400
C  3.14800 -3.56000 45.14700
C  4.55400 -3.75900 45.26000
C  5.11200 -2.61000 44.69600
C  4.00800 -1.82600 44.24100
C  5.27500 -4.91100 45.94800
C  6.37800 -1.91900 44.32800
O  7.54700 -2.14600 44.43000
C  5.96700 -0.57900 43.65200
C  6.37100 0.46800 44.52100
O  6.00400 0.42400 45.67000
O  7.36700 1.35300 44.03300
C  7.88300 2.33100 44.99800
H  0.15800 2.43800 41.71200
H  -3.13700 -2.47300 43.98700
H  2.38100 -5.40600 45.82800
H  4.69300 2.21300 42.72400
H  2.59100 2.60500 40.89200
H  2.23000 4.44300 42.03900
H  3.45400 3.83600 43.27500
H  1.69800 3.61700 43.47900
H  4.03700 1.28900 40.05100
H  5.04100 0.05900 40.83800
H  6.80900 1.19700 40.02800
H  6.39800 2.41000 41.27200
H  -2.67600 2.28200 40.84500
H  -1.95000 3.25200 42.09200
H  -3.57700 2.70600 42.34800
H  -5.99700 -0.66000 44.75900
H  -4.51500 -1.17500 45.06000
H  -5.39800 -1.89800 43.59000
H  -1.71200 -5.12100 43.91300
H  -0.70100 -4.97200 46.74400
H  -3.57400 -5.66800 45.04900
H  -3.77800 -4.15100 45.63900
H  -2.78800 -5.33000 46.66500
H  0.75400 -6.91500 45.35900
H  -1.02200 -7.12500 44.96600
H  -1.04000 -8.34900 46.73600
H  -1.01000 -6.95800 47.75000
H  0.58500 -7.71200 47.39800
H  6.34200 -4.83100 46.15900
H  5.17200 -5.82400 45.36200
H  4.73600 -5.07500 46.88100
H  6.40500 -0.37100 42.67600
H  8.33900 1.76500 45.81000
H  6.98200 2.86600 45.30000
H  8.60200 2.98300 44.50300
Mg 43.95500 3.22400 47.52600
C  41.76300 5.89400 46.94100
C  41.23200 1.08000 47.29400
C  46.03100 0.57900 47.86300
C  46.56800 5.45400 47.54000
N  41.73600 3.52800 47.29800
C  41.02900 4.68900 47.01800
C  39.52800 4.48800 46.75600
C  39.44800 2.96000 47.15000
C  40.92700 2.44300 47.22400
C  38.77600 2.69000 48.55600
C  39.08400 4.83500 45.31400
C  37.72100 5.55000 45.17500
H  37.63400 6.62100 44.00800
N  43.65500 1.04800 47.64500
C  42.47000 0.42800 47.44500
C  42.68000 -1.00800 47.53400
C  44.09800 -1.21400 47.59100
C  44.67500 0.16200 47.74100
C  41.56200 -2.01100 47.35600
C  44.74000 -2.60900 47.46500
O  43.97300 -3.59200 47.36500
C  46.26800 -2.80200 47.43500
N  46.04500 3.00000 47.59900
C  46.61700 1.78900 47.82100
C  48.15000 2.06000 47.92100
C  48.41000 3.57800 47.69500
C  46.94900 4.06300 47.64900
C  48.80600 1.21800 49.10100
C  49.43900 4.02600 46.64200
C  50.84500 4.51700 47.17600
N  44.20300 5.32700 47.17300
C  45.35200 6.06800 47.22400
C  44.97900 7.47300 46.96000
C  43.60900 7.44400 46.96900
C  43.16400 6.10300 47.07300
C  45.85200 8.60700 46.96500
C  42.44100 8.31100 46.77900
O  42.48200 9.56000 46.60000
C  41.20000 7.28200 46.76100
C  40.25300 7.68800 47.81400
O  40.04300 7.08000 48.83200
O  39.52200 8.83500 47.40700
C  38.48000 9.30000 48.34500
H  40.41400 0.35800 47.34100
H  46.71500 -0.26300 47.98500
H  47.31000 6.25300 47.59500
H  38.91600 4.95300 47.52800
H  38.89200 2.38800 46.40600
H  39.54800 2.39000 49.26600
H  38.04800 1.87900 48.58200
H  38.29700 3.56000 49.00400
H  38.89500 3.86500 44.85400
H  39.85100 5.25800 44.66700
H  37.26400 5.86700 46.11200
H  37.04200 4.74600 44.89100
H  41.45300 -2.49900 46.38700
H  40.60400 -1.58200 47.64600
H  41.61800 -2.78300 48.12300
H  46.87900 -2.50100 46.58400
H  46.35300 -3.88700 47.51000
H  46.60800 -2.44200 48.40600
H  48.45900 1.61200 46.97700
H  48.76500 4.02200 48.62500
H  48.01000 1.07400 49.83200
H  49.55600 1.96300 49.36400
H  49.25100 0.24400 48.89800
H  48.94300 4.89900 46.21800
H  49.51200 3.22700 45.90400
H  51.67100 3.88300 46.85400
H  50.83500 4.38400 48.25800
H  51.13900 5.52100 46.86800
H  45.51600 9.20000 46.11500
H  46.90700 8.49300 46.71900
H  45.86300 9.15700 47.90600
H  40.62500 7.47500 45.85500
H  37.74300 9.83300 47.74400
H  38.94100 9.98800 49.05400
H  38.02000 8.44200 48.83500

