158

Mg -2.26700 17.25700 27.09000
C  -2.98400 14.95800 29.63500
C  -2.51000 19.80700 29.34600
C  -2.06700 19.45700 24.48300
C  -2.67500 14.69600 24.74600
N  -2.71400 17.32100 29.25600
C  -2.88100 16.28400 30.10700
C  -2.98300 16.88200 31.51000
C  -2.93500 18.41200 31.42000
C  -2.74400 18.52100 29.88800
C  -4.19300 19.14600 32.08200
C  -1.83600 16.41100 32.49500
C  -1.87900 17.06900 33.99100
H  -1.89600 16.24800 35.24800
N  -2.19300 19.32600 26.93100
C  -2.24900 20.23700 28.00200
C  -2.08000 21.59700 27.58100
C  -1.69900 21.40500 26.19200
C  -2.00700 20.01900 25.77300
C  -2.39500 22.80200 28.56200
C  -1.12100 22.36200 25.34900
O  -0.72000 22.11600 24.27100
C  -0.93100 23.85300 25.78200
N  -2.59800 17.12200 24.98000
C  -2.40800 18.17000 24.16300
C  -2.55800 17.77000 22.64600
C  -2.73500 16.19100 22.67800
C  -2.55000 15.97300 24.23800
C  -3.56400 18.49100 21.75600
C  -1.92300 15.25400 21.72900
C  -0.53100 14.74100 22.24600
N  -2.58200 15.19900 27.11200
C  -2.69900 14.25800 26.09100
C  -2.86800 12.95800 26.61700
C  -2.92000 13.14900 28.04100
C  -2.84000 14.53000 28.27700
C  -2.98800 11.73600 25.78400
C  -3.08600 12.40600 29.28900
O  -3.23700 11.22500 29.56000
C  -3.17900 13.61000 30.36900
C  -2.06700 13.31500 31.34000
O  -0.94800 13.71300 31.24700
O  -2.47000 12.52300 32.37300
C  -1.53800 12.10700 33.38600
H  -2.38700 20.61600 30.06800
H  -1.98800 20.19500 23.68200
H  -2.64700 13.84800 24.05900
H  -3.90300 16.38600 31.81800
H  -1.99400 18.81300 31.79900
H  -4.76800 18.31900 32.49700
H  -4.80700 19.64400 31.33100
H  -3.98000 19.78500 32.93800
H  -0.88700 16.54500 31.97500
H  -1.94000 15.33300 32.61800
H  -2.73900 17.71700 34.16100
H  -1.14600 17.87300 33.92700
H  -2.14500 23.80300 28.20900
H  -1.82600 22.57400 29.46300
H  -3.46700 22.71100 28.73800
H  -0.22000 24.16300 25.01600
H  -0.51300 23.94300 26.78400
H  -1.77500 24.52300 25.62200
H  -1.56800 18.06100 22.29300
H  -3.77300 16.02900 22.38700
H  -3.55900 17.93200 20.82000
H  -3.28400 19.53400 21.60400
H  -4.54600 18.43300 22.22500
H  -1.70700 15.78100 20.80000
H  -2.56300 14.42700 21.42300
H  0.28300 14.83700 21.52800
H  -0.53000 13.66200 22.40100
H  -0.23400 15.20300 23.18700
H  -2.72500 11.97400 24.75400
H  -3.98800 11.30600 25.72500
H  -2.34700 10.98300 26.24100
H  -4.12400 13.50400 30.90100
H  -0.81100 11.39200 33.00000
H  -1.95300 11.55500 34.23000
H  -1.01800 12.93400 33.86900
Mg 7.20900 3.12600 27.49800
C  8.32400 1.93400 30.62200
C  5.12400 5.26500 29.21500
C  5.84800 4.13500 24.61800
C  8.96600 0.76900 25.92200
N  6.58000 3.32500 29.71200
C  7.27300 2.83800 30.77900
C  6.68400 3.31000 32.16500
C  5.58100 4.27500 31.59100
C  5.81100 4.37700 30.04700
C  4.05600 3.98800 31.96900
C  7.69600 3.99700 33.13900
C  7.22100 3.88700 34.62700
H  8.17400 3.66100 35.73900
N  5.90900 4.72800 26.96500
C  5.12000 5.43100 27.82000
C  4.29100 6.30900 27.14400
C  4.42100 5.96900 25.81700
C  5.36300 4.87100 25.72600
C  3.22900 7.19700 27.77000
C  3.75300 6.64000 24.59900
O  3.90400 6.26300 23.45500
C  2.88100 7.91700 24.70600
N  7.32700 2.51600 25.52000
C  6.71900 3.11600 24.44400
C  7.22400 2.53700 23.09100
C  8.28700 1.51800 23.57400
C  8.15500 1.55000 25.10700
C  5.98100 1.98000 22.26700
C  9.73000 1.84600 22.98900
C  10.55200 2.87000 23.74000
N  8.31900 1.48300 28.06900
C  9.13600 0.72500 27.32600
C  10.11600 -0.01000 28.16900
C  9.72500 0.38100 29.50200
C  8.72100 1.34500 29.36800
C  11.29100 -0.90100 27.80400
C  10.06900 0.15500 30.83600
O  10.98400 -0.58600 31.28800
C  9.17600 1.19600 31.70500
C  8.38100 0.44400 32.74400
O  7.26600 -0.01500 32.57400
O  8.99400 0.37500 33.99100
C  8.30500 -0.16900 35.12700
H  4.51700 5.96700 29.79100
H  5.37000 4.44600 23.68700
H  9.49700 0.02000 25.33100
H  6.18400 2.48200 32.66700
H  5.68600 5.26200 32.04300
H  3.97800 3.20200 32.72000
H  3.50100 3.84200 31.04100
H  3.59400 4.87300 32.40800
H  7.75600 5.03400 32.80600
H  8.71300 3.63100 32.99600
H  6.41300 3.16200 34.72700
H  6.86200 4.88500 34.87800
H  3.18500 7.25700 28.85800
H  2.19100 7.01800 27.49100
H  3.48000 8.19300 27.40700
H  3.54500 8.63500 25.18700
H  2.08800 7.79900 25.44500
H  2.44300 8.24300 23.76300
H  7.72200 3.28200 22.47000
H  8.02300 0.52200 23.22100
H  5.11300 2.23000 22.87700
H  6.02500 0.89500 22.17200
H  5.88600 2.53300 21.33200
H  9.81200 2.28300 21.99400
H  10.22100 0.88100 22.86400
H  11.40800 2.30500 24.11000
H  9.99600 3.35600 24.54200
H  10.85600 3.70800 23.11400
H  11.85600 -0.53600 26.94600
H  10.87900 -1.88400 27.57600
H  11.97500 -0.90500 28.65300
H  9.84400 1.85700 32.25800
H  8.36800 -1.25000 34.99900
H  7.33900 0.32700 35.22100
H  8.81200 -0.03800 36.08300

