158

Mg 42.45400 41.48500 26.63400
C  41.43400 43.67200 29.10000
C  43.22300 39.24400 29.21300
C  44.12200 39.62700 24.46800
C  41.97200 43.99400 24.25700
N  42.25200 41.44600 28.92600
C  41.79500 42.48200 29.68100
C  41.78600 42.19700 31.19500
C  42.38500 40.76200 31.23400
C  42.62600 40.40800 29.70800
C  43.63300 40.56400 32.12200
C  40.32500 42.25600 31.74700
C  40.04300 42.96700 33.04600
H  39.31200 42.25900 34.17600
N  43.52300 39.62300 26.83100
C  43.71400 38.83400 27.93100
C  44.36100 37.60200 27.51400
C  44.71200 37.76000 26.19800
C  44.18500 39.06400 25.81700
C  44.46000 36.39700 28.40200
C  45.36100 36.83000 25.16200
O  45.63900 37.02500 24.00300
C  45.67800 35.43000 25.59900
N  42.93900 41.82600 24.60000
C  43.62100 40.84600 23.88000
C  43.55800 41.10000 22.36500
C  42.77100 42.47600 22.29400
C  42.46400 42.76500 23.78800
C  44.91200 40.97700 21.55300
C  41.39100 42.46500 21.55000
C  40.43000 41.37700 22.00700
N  41.77800 43.46200 26.63100
C  41.67500 44.37600 25.58300
C  41.23500 45.61900 26.13700
C  41.10000 45.45800 27.54500
C  41.48600 44.08300 27.71600
C  40.86500 46.85900 25.41500
C  40.81000 46.07500 28.73600
O  40.56900 47.25800 29.00400
C  41.01600 45.01300 29.81100
C  42.03000 45.51500 30.77200
O  43.23200 45.34700 30.59200
O  41.51100 45.98900 31.90600
C  42.44900 46.22600 33.03600
H  43.33600 38.59100 30.08100
H  44.71100 39.08000 23.72900
H  41.84000 44.74200 23.47300
H  42.39000 42.94300 31.71000
H  41.68900 39.99300 31.57000
H  44.52700 40.71200 31.51700
H  43.74900 39.57300 32.56100
H  43.46400 41.32400 32.88500
H  39.91600 41.24700 31.80200
H  39.69800 42.73400 30.99400
H  39.39500 43.82200 32.85500
H  41.02400 43.23200 33.44100
H  43.84200 36.50000 29.29400
H  45.49900 36.15800 28.63100
H  44.07500 35.50100 27.91500
H  46.14700 34.87100 24.78900
H  44.75700 34.87600 25.77900
H  46.32900 35.43500 26.47300
H  42.80000 40.41100 21.99300
H  43.37300 43.35300 22.05400
H  44.91400 41.95400 21.06900
H  44.79000 40.12300 20.88600
H  45.83700 40.89000 22.12400
H  41.51900 42.41000 20.46900
H  40.87700 43.40600 21.74900
H  40.65300 40.79700 22.90200
H  40.25300 40.72500 21.15100
H  39.45100 41.72300 22.34000
H  39.92800 47.12500 25.90500
H  40.84000 46.66000 24.34300
H  41.63100 47.57600 25.71100
H  40.08000 44.91400 30.35900
H  43.06800 45.34500 33.20800
H  41.86000 46.50800 33.90800
H  43.11200 47.06400 32.82000
Mg 27.11200 50.75100 25.63600
C  25.02900 51.90900 28.26700
C  29.49700 49.93600 28.15900
C  29.23300 50.23300 23.06900
C  24.97100 52.37700 23.34700
N  27.27900 50.89300 27.95100
C  26.23100 51.34500 28.77200
C  26.61900 51.02400 30.25600
C  28.18000 50.79400 30.20000
C  28.37700 50.52700 28.68900
C  29.15000 51.92100 30.62500
C  25.91400 49.81000 30.99900
C  25.23800 49.98700 32.35800
H  25.97100 50.63600 33.52500
N  29.08800 49.99300 25.63500
C  29.88400 49.65800 26.75700
C  31.03100 49.00100 26.18700
C  30.91500 49.10000 24.74700
C  29.71200 49.81600 24.40700
C  32.15500 48.38000 27.01200
C  31.86400 48.53800 23.64900
O  31.68100 48.74600 22.44200
C  33.09400 47.72000 23.98200
N  27.09900 51.14000 23.56100
C  28.09300 50.88100 22.76400
C  27.84700 51.22600 21.26000
C  26.39300 51.77000 21.39100
C  26.09700 51.76700 22.89400
C  28.90000 52.26000 20.65700
C  25.28400 51.12800 20.52600
C  24.85900 49.72300 20.90300
N  25.36400 51.96900 25.72000
C  24.61000 52.49300 24.70300
C  23.44100 53.14800 25.25900
C  23.53000 52.87000 26.66500
C  24.69800 52.11200 26.90200
C  22.40800 53.82400 24.41700
C  22.90400 53.02800 27.95900
O  21.81400 53.56700 28.21100
C  23.78400 52.20700 29.01200
C  24.00200 53.07100 30.11200
O  24.78800 53.92800 30.19300
O  23.27800 52.58700 31.18600
C  23.57700 53.15400 32.50300
H  30.36200 49.68400 28.77700
H  29.97000 50.09400 22.27500
H  24.34700 52.97100 22.67600
H  26.36900 51.90900 30.84000
H  28.46000 49.90500 30.76600
H  28.61500 52.86200 30.75700
H  29.94400 52.20000 29.93300
H  29.62800 51.78500 31.59600
H  26.52500 48.91100 31.08600
H  25.19500 49.48900 30.24500
H  25.03400 48.95700 32.65100
H  24.29000 50.50400 32.20600
H  32.07900 47.31900 26.77500
H  31.99400 48.46800 28.08700
H  33.13900 48.72300 26.69600
H  33.97400 48.30200 24.25200
H  33.29000 47.07700 23.12400
H  32.76600 47.04200 24.77000
H  27.96200 50.29800 20.69900
H  26.35200 52.83700 21.17300
H  28.37100 53.15200 20.32200
H  29.48100 51.96200 19.78500
H  29.66600 52.43900 21.41100
H  25.72600 51.04800 19.53300
H  24.48300 51.82400 20.27700
H  24.86000 49.07400 20.02700
H  23.90000 49.72200 21.42200
H  25.55500 49.23100 21.58200
H  22.73300 54.86200 24.48600
H  21.48200 53.69900 24.97900
H  22.37900 53.45900 23.39100
H  23.34300 51.27900 29.37500
H  24.54100 53.66300 32.52600
H  23.76000 52.37100 33.24000
H  22.75700 53.79900 32.81900

