158

Mg 51.40600 45.73500 41.88700
C  48.68500 47.02600 40.29200
C  50.48000 42.47800 41.06500
C  54.72000 44.67800 42.41000
C  52.64600 48.97700 42.47500
N  49.73600 44.84900 40.79700
C  48.68900 45.62600 40.35900
C  47.61300 44.67200 39.91600
C  48.10900 43.19900 40.28600
C  49.52900 43.46900 40.81800
C  47.28500 42.36300 41.27400
C  47.26100 44.91800 38.37600
C  45.78800 44.68000 38.11200
H  45.31700 43.40400 37.35200
N  52.47300 43.74800 41.85400
C  51.88700 42.61900 41.43700
C  52.85800 41.56600 41.40900
C  54.11900 42.14600 41.82700
C  53.83800 43.54300 42.08100
C  52.48700 40.05700 41.07400
C  55.34400 41.33900 42.02400
O  55.30200 40.13100 41.71400
C  56.52400 41.98600 42.62700
N  53.40100 46.71100 42.17600
C  54.46500 46.05300 42.59900
C  55.59400 46.97400 43.02200
C  54.93900 48.30000 43.23800
C  53.56700 48.00100 42.57800
C  56.47800 46.50100 44.17900
C  55.66000 49.57800 42.62600
C  56.10100 50.65600 43.70400
N  50.78300 47.60800 41.47500
C  51.39900 48.79400 41.84600
C  50.54000 49.87400 41.39000
C  49.42000 49.21900 40.84400
C  49.64900 47.85100 40.89400
C  50.85700 51.35700 41.38100
C  48.17700 49.40900 40.14100
O  47.60500 50.44100 39.74300
C  47.64900 47.95800 39.69600
C  46.22200 47.87500 40.16700
O  45.77700 47.69200 41.26700
O  45.45400 47.89500 39.08600
C  44.03700 47.76400 39.32600
H  50.18900 41.43900 40.89600
H  55.79200 44.47300 42.35600
H  52.92200 49.97400 42.82300
H  46.79600 44.99000 40.56300
H  48.13400 42.71500 39.31000
H  46.40000 42.93300 41.55800
H  47.86100 42.23700 42.19100
H  46.95000 41.43500 40.81100
H  47.78900 44.14600 37.81600
H  47.52300 45.88500 37.94700
H  45.45100 45.55200 37.55200
H  45.26600 44.76100 39.06500
H  52.84400 39.48000 41.92700
H  52.94400 39.63900 40.17800
H  51.42800 39.90000 40.86900
H  56.25400 42.66000 43.43900
H  56.94400 42.54800 41.79300
H  57.33400 41.29400 42.86000
H  56.28000 46.90000 42.17800
H  54.70700 48.47900 44.28800
H  56.46500 47.29500 44.92500
H  57.48900 46.32200 43.81300
H  56.05000 45.55000 44.49700
H  55.02200 50.11000 41.91900
H  56.55200 49.20900 42.12000
H  55.60900 51.58400 43.41100
H  57.18400 50.69400 43.82100
H  55.69800 50.31600 44.65800
H  50.25900 51.89200 40.64300
H  51.92100 51.47600 41.17400
H  50.66300 51.75800 42.37600
H  47.73900 47.91200 38.61000
H  43.47800 47.36000 38.48200
H  43.62500 48.76800 39.43100
H  43.66100 47.14500 40.14100
Mg 41.68000 41.21400 26.68000
C  41.33900 43.79700 29.01200
C  42.25400 39.14900 29.27300
C  42.16200 38.76600 24.41700
C  41.07700 43.40500 24.12200
N  41.85200 41.42300 28.96600
C  41.60100 42.56500 29.69300
C  41.55700 42.29100 31.22500
C  42.10900 40.81500 31.26300
C  42.23700 40.45600 29.75000
C  43.37600 40.65400 32.12800
C  40.16200 42.53300 31.91300
C  40.36600 43.13700 33.29400
H  39.71800 42.61300 34.54900
N  42.16100 39.23400 26.85100
C  42.22200 38.50400 27.98200
C  42.62800 37.10600 27.59300
C  42.71200 37.02100 26.17400
C  42.31300 38.37300 25.74900
C  42.84600 36.04500 28.64000
C  43.26900 35.90100 25.25400
O  43.51100 36.07100 24.05900
C  43.58800 34.52100 25.81300
N  41.58000 41.14700 24.54800
C  41.89400 40.03300 23.85600
C  41.74600 40.19800 22.37300
C  41.33100 41.66700 22.18700
C  41.25500 42.12500 23.72900
C  43.02000 39.83600 21.58200
C  40.07600 41.78400 21.34600
C  38.70600 41.24300 22.00000
N  41.44200 43.22900 26.52000
C  41.19200 44.03300 25.39000
C  40.94300 45.36800 25.90500
C  40.98900 45.30500 27.24700
C  41.32600 44.02300 27.61100
C  40.73200 46.54300 25.00500
C  40.75300 46.09100 28.43100
O  40.36800 47.26600 28.51000
C  41.06500 45.21900 29.65800
C  42.33800 45.71700 30.36500
O  43.47400 45.85500 29.91700
O  42.03100 46.00300 31.70200
C  43.14200 46.45000 32.57800
H  42.28500 38.41500 30.08100
H  42.33800 37.99000 23.67000
H  40.88100 44.05100 23.26400
H  42.28300 42.95400 31.69600
H  41.37800 40.08200 31.60500
H  44.24500 40.35000 31.54500
H  43.13100 39.83500 32.80500
H  43.58500 41.57400 32.67400
H  39.71500 41.55800 32.10800
H  39.49800 43.19600 31.36000
H  39.89800 44.10000 33.08700
H  41.36500 43.49400 33.54300
H  42.69400 36.41600 29.65400
H  43.90600 35.80100 28.56100
H  42.26400 35.13500 28.49300
H  42.70600 33.88900 25.70900
H  43.73200 34.56700 26.89300
H  44.53500 34.13800 25.43600
H  40.90100 39.58500 22.05800
H  42.08200 42.27800 21.68600
H  43.73500 39.30300 22.20800
H  43.52400 40.71100 21.17300
H  42.79100 39.22900 20.70700
H  40.22000 41.25200 20.40600
H  40.04600 42.81500 20.99300
H  38.32400 40.43400 21.37700
H  38.02000 42.08800 21.96300
H  38.76800 40.93700 23.04500
H  40.07100 47.32200 25.38500
H  40.29500 46.10900 24.10600
H  41.71200 46.87200 24.66000
H  40.32200 45.21900 30.45600
H  42.85200 47.35700 33.10800
H  44.10900 46.60000 32.09900
H  43.34300 45.73100 33.37300

