158

Mg 34.83800 2.91500 30.04000
C  32.56300 4.22000 32.53900
C  37.35000 3.29200 32.24400
C  36.82000 2.11100 27.56000
C  32.14700 3.13700 27.88800
N  34.91800 3.74300 32.14800
C  33.88100 4.00100 32.98900
C  34.35400 4.12800 34.44900
C  35.91300 4.10500 34.28100
C  36.06300 3.69100 32.81400
C  36.57800 5.42100 34.59600
C  33.85900 2.93700 35.32600
C  33.74400 3.05700 36.84000
H  34.40700 4.29900 37.31800
N  36.84400 2.71800 29.88200
C  37.70300 2.90700 30.91800
C  39.08100 2.61200 30.44000
C  38.92500 2.18800 29.08100
C  37.49100 2.28100 28.77900
C  40.17300 2.75800 31.29000
C  39.98600 1.58600 28.05900
O  39.78200 1.41900 26.84800
C  41.29900 1.01300 28.58800
N  34.59900 3.00100 27.98300
C  35.50100 2.37000 27.14900
C  34.97100 2.32600 25.69600
C  33.44100 2.33100 25.97600
C  33.42500 2.88200 27.36300
C  35.40800 3.43600 24.75400
C  32.60500 1.04000 25.73400
C  31.47900 1.19300 24.64700
N  32.75800 3.48200 30.16600
C  31.79100 3.44900 29.19400
C  30.48900 3.89700 29.78900
C  30.80500 4.13400 31.09100
C  32.19200 4.00200 31.22000
C  29.21800 4.07600 29.03000
C  30.17500 4.61100 32.25500
O  29.05300 4.96500 32.55700
C  31.33700 4.67700 33.27200
C  31.44800 5.99900 33.90600
O  32.19900 6.89200 33.52900
O  30.72300 6.03500 35.11100
C  30.91100 7.23100 35.96900
H  38.20200 3.44800 32.90900
H  37.40100 1.97700 26.64500
H  31.23400 3.15000 27.28900
H  34.10000 5.12400 34.81400
H  36.39800 3.32600 34.87000
H  36.89400 5.36900 35.63800
H  35.91300 6.26100 34.39300
H  37.42800 5.65900 33.95700
H  34.53700 2.10100 35.15600
H  32.89500 2.62200 34.92700
H  34.29000 2.23100 37.29600
H  32.71400 3.01100 37.19200
H  40.28400 3.80700 31.56300
H  41.10700 2.43400 30.82900
H  39.95600 2.14200 32.16200
H  41.34300 0.49000 29.54300
H  41.83700 1.93700 28.80400
H  41.89800 0.41100 27.90400
H  35.11900 1.32700 25.28500
H  32.90600 3.15400 25.50100
H  35.94500 4.16700 25.35800
H  34.61000 3.95900 24.22800
H  36.08300 3.08000 23.97500
H  32.06300 0.80600 26.65000
H  33.22500 0.23500 25.33900
H  31.43800 2.20500 24.24600
H  30.47300 1.02400 25.03100
H  31.77900 0.60100 23.78200
H  28.43700 3.37100 29.31300
H  29.40400 4.08100 27.95600
H  28.82200 5.05900 29.28300
H  31.11000 4.01300 34.10600
H  31.77500 7.04100 36.60600
H  30.07300 7.33600 36.65800
H  30.98400 8.16100 35.40500
Mg 40.70500 9.89400 30.04500
C  42.56300 11.10300 32.68300
C  38.23200 8.79300 32.12300
C  39.12200 8.54200 27.49700
C  43.36300 10.82900 27.83400
N  40.49100 9.84500 32.19200
C  41.33700 10.48800 33.04400
C  40.65000 10.55900 34.49500
C  39.34100 9.73700 34.26000
C  39.35300 9.41700 32.83500
C  39.20900 8.42500 35.06400
C  40.28400 11.96700 34.94200
C  39.95200 12.06600 36.42400
H  40.91500 12.90000 37.34500
N  38.96000 8.64400 29.85600
C  38.04100 8.41000 30.83800
C  36.86000 7.87200 30.31500
C  37.13400 7.67600 28.90000
C  38.46900 8.24700 28.68900
C  35.69300 7.29700 31.20100
C  36.29500 7.07800 27.76700
O  36.72900 6.90000 26.58500
C  34.92000 6.60100 28.17500
N  41.20400 9.79600 27.93700
C  40.32800 9.11900 27.16500
C  40.81500 9.14000 25.70600
C  42.15300 10.00900 25.74500
C  42.31000 10.13100 27.24500
C  41.11500 7.66000 25.16000
C  41.89100 11.46700 25.23400
C  40.60200 12.25400 25.60500
N  42.60200 10.78500 30.20100
C  43.48500 11.15400 29.25700
C  44.59200 11.79800 29.84100
C  44.21200 11.95000 31.21100
C  43.03600 11.19300 31.35600
C  45.93300 12.21000 29.20800
C  44.66900 12.49100 32.46000
O  45.63000 13.12700 32.76900
C  43.45900 12.03400 33.48500
C  44.11200 11.33100 34.54200
O  44.86300 10.36700 34.46500
O  43.71100 11.83500 35.72500
C  44.06400 11.13900 36.92300
H  37.33600 8.54800 32.69700
H  38.67800 8.27300 26.53600
H  44.26000 11.06900 27.26000
H  41.27800 10.08600 35.25000
H  38.40000 10.28700 34.27400
H  38.14200 8.20500 35.08700
H  39.66300 8.64600 36.02900
H  39.80800 7.67000 34.55600
H  39.51000 12.29900 34.25100
H  41.15000 12.61900 34.83200
H  39.99500 11.07900 36.88600
H  38.93500 12.45600 36.43200
H  34.68900 7.37900 30.78400
H  35.69700 7.54500 32.26200
H  35.73600 6.20800 31.21700
H  35.08800 5.84700 28.94400
H  34.43200 6.13800 27.31700
H  34.39600 7.51600 28.45200
H  40.10200 9.59600 25.02000
H  42.96900 9.40900 25.34200
H  41.67200 7.03100 25.85400
H  41.61500 7.61900 24.19200
H  40.16800 7.13300 25.04400
H  42.04200 11.49500 24.15500
H  42.65300 12.19500 25.51300
H  40.18600 12.56400 24.64700
H  40.77000 13.11100 26.25600
H  39.89000 11.59100 26.09700
H  46.69300 12.43800 29.95600
H  45.79100 13.06700 28.54900
H  46.38500 11.43800 28.58500
H  43.15900 13.00000 33.89200
H  45.15300 11.13300 36.97000
H  43.70400 10.11800 36.79400
H  43.59400 11.50800 37.83400

