158

Mg 7.34700 1.62300 27.49600
C  8.75800 0.16300 30.59600
C  5.51200 3.54300 29.56100
C  5.72700 2.42100 24.91400
C  9.08300 -1.02500 25.90800
N  7.25600 1.77400 29.83500
C  7.92600 1.24800 30.86500
C  7.58600 1.86400 32.22900
C  6.47400 2.88000 31.79600
C  6.35700 2.72900 30.30800
C  5.11100 2.65500 32.45700
C  8.82100 2.60000 32.94300
C  8.48900 3.03400 34.42100
H  9.45300 2.54800 35.50200
N  5.89500 2.96800 27.20400
C  5.23200 3.67000 28.18100
C  4.24700 4.53700 27.51000
C  4.34800 4.26500 26.12700
C  5.29200 3.13900 26.02000
C  3.31200 5.58100 28.21500
C  3.57700 4.86600 24.99200
O  3.73200 4.45300 23.82400
C  2.57200 5.93100 25.28100
N  7.17600 0.62200 25.70700
C  6.57800 1.35700 24.72800
C  6.94100 0.65200 23.37400
C  8.09200 -0.31700 23.69200
C  8.20200 -0.21200 25.19500
C  5.74900 -0.10600 22.76600
C  9.48100 -0.05100 23.02900
C  10.43000 0.99500 23.71000
N  8.70700 -0.10100 28.01500
C  9.28800 -1.05800 27.25400
C  10.09300 -1.96900 28.10200
C  9.90700 -1.47700 29.43800
C  9.00600 -0.39500 29.27400
C  10.92900 -3.13600 27.53800
C  10.29000 -1.65100 30.80600
O  11.07800 -2.43100 31.32100
C  9.54700 -0.59100 31.58500
C  8.77100 -1.25700 32.69300
O  7.68700 -1.87200 32.63000
O  9.44500 -1.08900 33.91300
C  9.13800 -1.75900 35.15000
H  4.89800 4.23100 30.14600
H  5.21900 2.75900 24.00900
H  9.46600 -1.80100 25.24200
H  7.16500 1.07300 32.84900
H  6.81600 3.90900 31.90300
H  5.38200 2.20100 33.41000
H  4.51300 2.00600 31.81600
H  4.44600 3.51600 32.52700
H  9.02000 3.46600 32.31200
H  9.76700 2.06300 32.87400
H  7.47400 2.64400 34.48400
H  8.39800 4.12000 34.38000
H  3.66800 5.60500 29.24500
H  2.27100 5.25900 28.22900
H  3.63100 6.55900 27.85500
H  3.06700 6.78800 25.73800
H  1.82500 5.47800 25.93200
H  2.15600 6.19800 24.30900
H  7.32200 1.36000 22.63800
H  7.75100 -1.30000 23.36800
H  4.93800 -0.09300 23.49400
H  5.93100 -1.10900 22.38000
H  5.40800 0.40900 21.86700
H  9.34400 0.27300 21.99800
H  9.98000 -1.01600 22.93700
H  9.90500 1.50700 24.51600
H  10.70900 1.79800 23.02800
H  11.37000 0.50600 23.96900
H  11.27200 -2.93500 26.52400
H  10.49900 -4.13700 27.54200
H  11.81600 -3.16000 28.17000
H  10.29400 -0.01800 32.13300
H  8.43600 -2.56200 34.92400
H  8.70700 -1.03600 35.84300
H  10.00800 -2.14400 35.68200
Mg 40.30800 9.78700 29.98300
C  42.18400 10.61600 32.90300
C  37.96200 8.34400 32.02000
C  38.55100 8.89100 27.25200
C  42.84200 11.00200 28.02500
N  40.19000 9.36500 32.20100
C  40.92100 9.93100 33.22900
C  40.35100 9.72800 34.59700
C  39.19200 8.73100 34.28200
C  39.05600 8.81300 32.75100
C  39.21000 7.27200 34.83300
C  39.85500 10.99100 35.49500
C  39.84500 10.87200 36.97200
H  40.74700 11.78900 37.81400
N  38.54700 8.63000 29.66500
C  37.64300 8.19400 30.59600
C  36.49800 7.61200 29.98900
C  36.64300 7.86100 28.58100
C  37.96600 8.49300 28.44400
C  35.34000 6.93800 30.71600
C  35.73000 7.43500 27.39300
O  36.00100 7.69700 26.22700
C  34.54500 6.53900 27.67400
N  40.64000 9.90700 27.97700
C  39.79700 9.45300 26.99900
C  40.25000 9.97700 25.64800
C  41.53100 10.74900 25.87500
C  41.76600 10.54000 27.34300
C  40.25900 9.00400 24.45400
C  41.52200 12.24100 25.41400
C  40.42400 13.09700 25.99200
N  42.17100 10.61000 30.35000
C  43.08600 11.12600 29.41900
C  44.24400 11.74300 30.15700
C  43.94600 11.51900 31.57400
C  42.69600 10.85100 31.57300
C  45.53400 12.27200 29.58200
C  44.43800 11.61100 32.93900
O  45.36300 12.15400 33.46400
C  43.23100 11.17000 33.84300
C  43.81500 10.24500 34.78700
O  43.92800 9.04800 34.63300
O  44.05400 10.88000 36.00200
C  44.18800 10.16700 37.26600
H  37.16700 8.02000 32.69500
H  38.04600 8.58100 26.33500
H  43.62200 11.40600 27.37600
H  41.09400 9.17200 35.16900
H  38.29400 9.17900 34.70700
H  38.32700 6.97500 35.39800
H  40.06500 7.22200 35.50800
H  39.33900 6.49600 34.07900
H  38.83600 11.22400 35.18600
H  40.57900 11.71400 35.11700
H  40.09300 9.85500 37.27500
H  38.81300 10.92300 37.31900
H  34.39600 7.48000 30.77900
H  35.61400 6.67900 31.73900
H  35.09600 5.95800 30.30300
H  33.85700 6.46200 26.83300
H  34.00600 7.07500 28.45600
H  34.85100 5.55100 28.02000
H  39.54100 10.79400 25.51800
H  42.42700 10.44200 25.33600
H  39.67900 8.11700 24.70800
H  41.29400 8.76300 24.21400
H  39.74900 9.54200 23.65400
H  41.49000 12.33000 24.32800
H  42.45000 12.65800 25.80400
H  39.88700 13.52700 25.14700
H  40.92500 13.94700 26.45400
H  39.84400 12.52800 26.71900
H  45.76400 11.76100 28.64700
H  46.27600 12.04200 30.34600
H  45.49300 13.34700 29.40500
H  42.76100 12.01100 34.35200
H  44.39300 10.83900 38.09900
H  44.98500 9.43600 37.13600
H  43.23100 9.66300 37.40200

