158

Mg 49.31600 46.85600 43.61100
C  45.79200 46.75400 42.77800
C  49.44600 43.39900 43.05600
C  52.50200 47.10500 43.91700
C  48.91100 50.43300 43.70900
N  47.76800 45.32900 42.81500
C  46.43900 45.52600 42.58400
C  45.84900 44.13600 42.17600
C  46.98200 43.15700 42.40400
C  48.15600 44.02200 42.77200
C  46.63600 42.04600 43.51100
C  45.20200 44.01700 40.70800
C  46.17800 44.47900 39.55900
H  45.67200 44.25200 38.08500
N  50.74500 45.41000 43.62900
C  50.67600 44.05900 43.36800
C  51.93500 43.42800 43.62000
C  52.92100 44.52900 43.79600
C  52.08300 45.74800 43.79700
C  52.19200 41.98200 43.61600
C  54.41000 44.32800 44.03600
O  54.97700 43.25400 44.02900
C  55.26100 45.50200 44.45600
N  50.50200 48.53000 43.70300
C  51.85900 48.34900 43.88700
C  52.56600 49.65700 44.13400
C  51.43400 50.80900 44.14300
C  50.19400 49.87900 43.77600
C  53.58400 49.75200 45.31500
C  51.70200 51.98000 43.15500
C  51.45400 53.39800 43.76900
N  47.70600 48.35000 43.45500
C  47.71000 49.71200 43.52400
C  46.40200 50.22700 43.29400
C  45.59800 49.11800 43.00200
C  46.42400 48.02000 43.07900
C  45.93800 51.67800 43.54400
C  44.25500 48.65300 42.64000
O  43.26100 49.36400 42.33900
C  44.33200 47.03500 42.54900
C  43.42900 46.37400 43.54800
O  43.65200 46.43200 44.72500
O  42.34200 45.77700 43.00200
C  41.28100 45.32400 43.94100
H  49.49700 42.32300 42.87400
H  53.55800 47.28800 44.12700
H  48.75000 51.51200 43.74700
H  44.96500 43.97900 42.79500
H  47.22900 42.59300 41.50500
H  47.10600 42.34200 44.44900
H  46.93800 41.04700 43.19600
H  45.56400 41.97800 43.69600
H  44.30400 44.59800 40.49600
H  44.96300 42.98800 40.44200
H  47.07100 43.85400 39.59100
H  46.43200 45.52700 39.71900
H  53.01900 41.66600 44.25200
H  52.40700 41.63900 42.60400
H  51.34200 41.37900 43.93900
H  54.87200 45.97500 45.35800
H  55.37400 46.14900 43.58600
H  56.25100 45.10500 44.68200
H  53.11900 49.83000 43.21100
H  51.24500 51.15200 45.16000
H  53.54800 48.87300 45.96000
H  53.39500 50.62400 45.94100
H  54.59900 49.67300 44.92400
H  50.98300 51.79400 42.35800
H  52.71600 51.98900 42.75400
H  50.59000 53.84100 43.27300
H  52.34100 54.00000 43.56900
H  51.25300 53.38300 44.84000
H  46.08800 52.30300 42.66300
H  46.65800 52.06900 44.26300
H  44.88900 51.72300 43.83600
H  43.96900 46.78700 41.55200
H  40.43500 45.11200 43.28700
H  40.87700 45.98100 44.71100
H  41.31400 44.38700 44.49700
Mg 36.57700 49.41600 24.59800
C  36.97000 47.81600 27.76400
C  35.23800 52.09200 26.36300
C  35.86900 50.74400 21.71800
C  37.84700 46.41700 23.07300
N  36.22400 49.83900 26.85100
C  36.48000 49.05400 27.92100
C  36.31600 49.78800 29.22300
C  35.66800 51.12900 28.73900
C  35.69500 51.03200 27.23400
C  34.27900 51.47600 29.24100
C  37.65900 50.02500 29.99900
C  37.77300 49.76900 31.55500
H  36.52300 49.69500 32.47200
N  35.69500 51.16000 24.08400
C  35.21700 52.09800 24.90600
C  34.63100 53.10700 24.08900
C  34.78100 52.78800 22.68300
C  35.47700 51.50100 22.79700
C  33.88300 54.31700 24.65900
C  34.37000 53.56600 21.37100
O  34.73400 53.14900 20.25400
C  33.54000 54.80200 21.43100
N  36.66300 48.56400 22.63400
C  36.37800 49.40800 21.63300
C  36.83800 48.76900 20.27400
C  37.45900 47.37000 20.71800
C  37.35900 47.41900 22.23100
C  35.68500 48.56400 19.22500
C  38.90300 47.19400 20.27200
C  40.03600 48.12100 20.84300
N  37.31800 47.49100 25.23800
C  37.81000 46.42500 24.50500
C  38.24300 45.35300 25.37300
C  37.91300 45.84800 26.66600
C  37.37400 47.19700 26.53100
C  38.95900 44.05300 25.02300
C  37.84700 45.49400 28.05100
O  38.20900 44.52200 28.67400
C  37.31000 46.76100 28.81800
C  36.07000 46.38600 29.66300
O  35.04400 46.02200 29.20800
O  36.31000 46.38200 31.02900
C  35.24300 45.83100 31.93400
H  34.91500 53.00900 26.86000
H  35.75300 51.22300 20.74400
H  38.33200 45.50000 22.73400
H  35.55900 49.27400 29.81400
H  36.27700 51.95600 29.10300
H  33.92200 51.03600 30.17200
H  33.57600 51.11700 28.48900
H  34.27000 52.56200 29.33300
H  38.02100 51.04200 29.84900
H  38.37000 49.36800 29.49800
H  38.48500 50.46700 31.99700
H  38.23900 48.78400 31.53900
H  34.55900 55.17100 24.60400
H  33.59100 54.08700 25.68400
H  32.86800 54.48200 24.29700
H  32.76400 54.45400 22.11300
H  33.17100 54.92900 20.41300
H  34.00500 55.69200 21.85500
H  37.59400 49.41500 19.82600
H  36.81300 46.56100 20.37500
H  35.76400 49.44700 18.59100
H  34.70300 48.67100 19.68400
H  35.70100 47.63000 18.66200
H  38.95100 47.40300 19.20300
H  39.21200 46.15000 20.33500
H  39.55500 48.81100 21.53700
H  40.62100 48.55500 20.03200
H  40.78600 47.60300 21.44000
H  39.43000 43.92500 24.04800
H  38.29100 43.22500 25.25700
H  39.70700 44.16200 25.80800
H  38.06100 47.10900 29.52700
H  34.85300 44.88800 31.55000
H  34.39500 46.51400 31.97200
H  35.57000 45.64800 32.95700

