158

Mg 47.17400 15.40100 27.60600
C  45.18100 15.59300 30.54600
C  49.41500 17.63900 29.24200
C  48.67300 15.81200 24.78600
C  44.60900 13.60900 26.11200
N  47.39100 16.35100 29.75300
C  46.37100 16.30900 30.72800
C  46.78900 17.12500 31.95200
C  47.94300 18.06300 31.36800
C  48.31700 17.30800 30.07100
C  47.57300 19.56000 31.31800
C  47.39900 16.12800 33.08700
C  47.12100 16.68000 34.51500
H  48.16600 16.40800 35.57600
N  48.87700 16.35700 27.14500
C  49.69900 17.13100 27.94700
C  50.98600 17.42200 27.20100
C  50.76300 16.92300 25.88000
C  49.33800 16.32400 25.89600
C  52.08500 18.18500 27.77000
C  51.76700 16.90300 24.65900
O  51.45700 16.31100 23.66700
C  53.20200 17.42500 24.79000
N  46.63100 14.78200 25.69600
C  47.44300 15.15800 24.66500
C  46.98600 14.46900 23.39700
C  45.68300 13.74000 23.86100
C  45.58500 14.10500 25.26500
C  46.71500 15.58900 22.23700
C  45.65800 12.16800 23.59700
C  46.31900 11.23500 24.53900
N  45.30700 14.68500 28.12400
C  44.40400 13.92200 27.46000
C  43.33600 13.55600 28.31600
C  43.59400 14.10700 29.54300
C  44.78700 14.84200 29.39300
C  42.28800 12.45400 27.95600
C  43.21100 14.20400 30.90500
O  42.26700 13.73600 31.54400
C  44.19800 15.20100 31.60400
C  43.50700 16.40700 32.13500
O  43.11000 17.29900 31.41000
O  43.60600 16.42800 33.50300
C  43.54000 17.81400 34.01000
H  50.12400 18.24400 29.81100
H  49.14900 16.06100 23.83500
H  43.82500 12.98500 25.67700
H  45.95400 17.73700 32.29200
H  48.87700 18.07500 31.92900
H  47.63900 20.04600 30.34500
H  48.24600 20.00800 32.04900
H  46.55600 19.81900 31.61300
H  48.47500 16.01000 32.95400
H  46.91800 15.15800 32.96400
H  46.19300 16.20700 34.83600
H  46.89400 17.74600 34.53100
H  53.01700 17.75700 27.40000
H  52.09800 18.23000 28.85900
H  51.99400 19.18600 27.35000
H  53.67400 17.58000 23.81900
H  53.83700 16.74300 25.35600
H  53.23800 18.35900 25.35000
H  47.70800 13.73500 23.04000
H  44.92100 14.24300 23.26500
H  45.70100 15.99000 22.23800
H  46.95200 15.20300 21.24600
H  47.46100 16.36700 22.39500
H  46.07600 11.95700 22.61300
H  44.59600 11.93100 23.53400
H  46.86400 11.62600 25.39800
H  47.06600 10.74700 23.91300
H  45.59400 10.55100 24.98100
H  42.25600 11.91500 28.90200
H  42.80200 11.68200 27.38400
H  41.32900 12.81100 27.58200
H  44.78400 14.75800 32.41000
H  42.53700 18.08800 34.33700
H  43.72200 18.57400 33.25100
H  44.22000 17.96600 34.84800
Mg 9.72000 47.45200 27.23500
C  7.59100 46.73800 29.96000
C  12.32800 47.66200 29.47700
C  11.67000 48.19800 24.67500
C  6.87300 47.43900 25.21200
N  9.93000 47.03100 29.48500
C  8.93300 46.85700 30.35800
C  9.52100 46.92300 31.78700
C  11.00300 47.41000 31.63100
C  11.12700 47.32700 30.10400
C  11.26700 48.83400 32.24500
C  9.12200 45.80300 32.86000
C  10.18000 45.52200 34.02900
H  9.81300 44.89600 35.31900
N  11.73800 47.74400 27.06900
C  12.65800 47.75100 28.10200
C  14.01400 47.96300 27.57300
C  13.77800 48.20600 26.17500
C  12.39500 48.00400 25.93100
C  15.27800 48.05800 28.43600
C  14.77800 48.56500 25.14600
O  14.52500 48.75700 23.93200
C  16.30800 48.49900 25.40900
N  9.36700 47.89900 25.23800
C  10.31000 48.18900 24.33000
C  9.80200 48.25300 22.87300
C  8.29500 47.97100 23.08700
C  8.16500 47.80500 24.62300
C  10.09300 49.68400 22.30400
C  7.96000 46.62700 22.43900
C  7.28500 46.60500 21.05500
N  7.61200 47.29600 27.46500
C  6.60900 47.21300 26.56200
C  5.28900 47.06900 27.21400
C  5.58400 46.82400 28.58000
C  7.03800 47.03100 28.65700
C  3.89100 47.14200 26.62800
C  5.07400 46.64200 29.96000
O  3.93600 46.66900 30.43400
C  6.35400 46.55200 30.84800
C  6.35100 45.22700 31.44500
O  6.86100 44.20800 30.93200
O  5.59300 45.26600 32.63300
C  5.62600 43.97300 33.32100
H  13.20800 47.84100 30.09800
H  12.17500 48.42800 23.73500
H  6.01000 47.43300 24.54300
H  8.88100 47.74000 32.11900
H  11.75200 46.68200 31.94500
H  10.48200 49.06900 32.96400
H  11.16800 49.50200 31.38900
H  12.27900 48.97400 32.62800
H  8.89500 44.84100 32.40100
H  8.25900 46.11000 33.45000
H  10.64100 46.44400 34.38300
H  11.03200 44.91300 33.72700
H  15.88200 47.33600 27.88700
H  15.05400 47.78400 29.46700
H  15.79900 49.01500 28.41100
H  16.86400 48.73200 24.50100
H  16.52900 47.52900 25.85500
H  16.41600 49.34700 26.08600
H  10.33100 47.48100 22.31500
H  7.63000 48.72400 22.66600
H  9.44500 50.37900 22.83700
H  9.98400 49.74500 21.22100
H  11.13400 49.93600 22.50600
H  7.18400 46.12600 23.01800
H  8.81000 45.94600 22.42700
H  7.78000 45.87100 20.41800
H  7.18000 47.60200 20.62700
H  6.24400 46.30700 21.17500
H  3.81500 46.70900 25.63100
H  3.69200 48.20800 26.51800
H  3.05300 46.72100 27.18400
H  6.32200 47.34100 31.60000
H  4.83000 43.32800 32.95100
H  5.50300 44.16600 34.38700
H  6.55400 43.40700 33.24100

