158

Mg 44.11800 3.68500 46.81400
C  42.17300 6.51400 47.14300
C  41.19400 1.89800 46.47200
C  45.88900 1.03600 45.57400
C  46.99300 5.59100 46.75000
N  41.91400 4.22200 46.64600
C  41.34500 5.40600 46.99600
C  39.80800 5.20800 47.28400
C  39.57300 3.66800 47.14900
C  40.99400 3.23100 46.87100
C  38.98000 3.06100 48.40400
C  38.87000 6.16600 46.47600
C  38.93800 5.88300 44.95600
H  39.13400 7.08100 43.96400
N  43.59100 1.63700 46.22600
C  42.30600 1.08700 46.13900
C  42.43200 -0.25700 45.79100
C  43.79400 -0.50700 45.52900
C  44.50400 0.77400 45.79900
C  41.19100 -1.14000 45.58500
C  44.25900 -1.81400 44.95200
O  43.47900 -2.75500 44.79000
C  45.70700 -2.16700 44.63800
N  46.25400 3.32000 46.43000
C  46.69000 2.11000 45.97600
C  48.16300 2.31200 45.60000
C  48.66100 3.67600 46.26900
C  47.24200 4.21600 46.62500
C  49.07700 1.16700 45.71800
C  49.44500 4.50500 45.18300
C  50.87300 4.98500 45.63700
N  44.56200 5.60500 46.86500
C  45.75300 6.24800 46.79800
C  45.50900 7.67300 47.08800
C  44.13400 7.81800 47.15400
C  43.57900 6.56300 47.02600
C  46.47500 8.67100 47.21000
C  43.04900 8.70400 47.43300
O  43.13000 9.90400 47.78500
C  41.77600 7.91200 47.49100
C  41.01900 8.14800 48.78400
O  41.32900 7.68600 49.88200
O  39.84800 8.85000 48.46100
C  38.98500 9.08400 49.68800
H  40.25600 1.33800 46.46200
H  46.39800 0.25100 45.01100
H  47.87400 6.23000 46.66500
H  39.62400 5.56100 48.29900
H  38.93700 3.34100 46.32600
H  38.65600 3.68900 49.23500
H  39.66300 2.42900 48.97200
H  38.05500 2.50900 48.23700
H  39.25800 7.17300 46.63000
H  37.82600 6.10100 46.78000
H  38.03300 5.43600 44.54400
H  39.74200 5.15100 44.88300
H  41.19200 -1.97900 46.28100
H  41.20700 -1.63300 44.61300
H  40.22900 -0.62800 45.59100
H  46.29100 -1.80900 45.48600
H  46.05000 -1.75900 43.68700
H  45.86900 -3.23600 44.50000
H  48.00500 2.59500 44.55900
H  49.11200 3.47100 47.24000
H  49.24400 0.86700 44.68400
H  48.66800 0.40000 46.37600
H  50.02400 1.48400 46.15600
H  48.86500 5.39000 44.92000
H  49.60300 3.97000 44.24600
H  50.68500 6.00800 45.96500
H  51.46700 5.05200 44.72600
H  51.44000 4.43400 46.38700
H  47.24400 8.51800 46.45300
H  46.91100 8.67200 48.20900
H  46.09200 9.65800 46.94700
H  41.08400 8.26600 46.72600
H  39.17100 10.13900 49.88800
H  39.18900 8.56800 50.62600
H  37.94300 8.90500 49.42200
Mg 27.38400 50.60500 27.06400
C  24.84100 51.22600 29.50600
C  29.44100 49.73800 29.50900
C  29.50700 49.57500 24.62000
C  25.10800 51.64800 24.73500
N  27.06200 50.33600 29.22700
C  26.01000 50.70700 30.01000
C  26.39400 50.47400 31.51900
C  27.91000 50.13100 31.46700
C  28.14100 50.00500 29.93900
C  28.85000 51.16300 32.16000
C  25.40200 49.38900 32.10500
C  24.56200 49.80700 33.37600
H  24.53900 48.90300 34.58200
N  29.28000 49.93100 27.04700
C  29.92600 49.64800 28.20500
C  31.30700 49.27100 27.88300
C  31.40800 49.19900 26.39700
C  30.06700 49.55600 25.92300
C  32.39300 48.94700 28.85300
C  32.48900 48.67900 25.55800
O  32.41300 48.83000 24.35400
C  33.80800 48.16400 26.01800
N  27.27800 50.55700 24.94000
C  28.30500 50.06300 24.11200
C  27.91400 50.05300 22.62600
C  26.59400 50.94700 22.66500
C  26.26500 51.08400 24.18100
C  28.95300 50.47400 21.50700
C  25.43300 50.52700 21.74100
C  24.29500 49.75600 22.32600
N  25.48700 51.40500 27.05900
C  24.68400 51.74000 26.03100
C  23.42700 52.32600 26.45600
C  23.46800 52.18500 27.84400
C  24.67300 51.55900 28.11600
C  22.33100 53.05600 25.60800
C  22.76000 52.41600 29.11500
O  21.75200 53.07500 29.42900
C  23.64900 51.75800 30.21300
C  23.82100 52.80100 31.30600
O  24.52700 53.81800 31.17200
O  22.96600 52.65000 32.32700
C  23.00700 53.58100 33.46800
H  30.11300 49.47500 30.32900
H  30.28800 49.29000 23.91200
H  24.46200 52.02700 23.94000
H  26.28900 51.42800 32.03600
H  27.94600 49.17000 31.98000
H  29.83200 51.05200 31.70100
H  28.83500 50.95500 33.23000
H  28.44100 52.16800 32.05900
H  25.87000 48.44900 32.39600
H  24.64000 49.03500 31.41100
H  23.52100 50.08800 33.21400
H  25.00000 50.73100 33.75300
H  32.33500 47.88000 29.07100
H  32.31800 49.57900 29.73800
H  33.35500 49.04200 28.34900
H  34.32700 48.92600 26.59800
H  34.48300 47.71800 25.28800
H  33.46300 47.37800 26.69000
H  27.62900 49.00400 22.54900
H  26.92400 51.92900 22.32800
H  29.51400 49.63900 21.08700
H  29.57700 51.34100 21.72300
H  28.43200 50.92400 20.66200
H  25.87300 49.89200 20.97200
H  25.07400 51.47700 21.34500
H  23.95700 49.03200 21.58500
H  23.55800 50.50600 22.61400
H  24.64300 49.22800 23.21300
H  22.21000 54.03700 26.06800
H  21.33200 52.63200 25.50700
H  22.66400 53.25500 24.58900
H  23.10800 50.92500 30.66200
H  23.72900 53.17500 34.17600
H  22.07200 53.64300 34.02500
H  23.36000 54.59200 33.26200

