158

Mg 9.36300 3.30000 27.70200
C  10.38000 1.67100 30.50100
C  7.73500 5.59600 29.78000
C  8.45100 5.01700 24.89400
C  10.71100 0.70600 25.67300
N  9.00200 3.54600 29.88000
C  9.74400 2.89200 30.75800
C  9.56700 3.48000 32.23500
C  8.43600 4.59400 31.95400
C  8.28600 4.54900 30.42000
C  7.14100 4.22700 32.72000
C  10.84500 4.04100 32.91800
C  10.68500 4.19200 34.44200
H  11.41500 3.19200 35.37500
N  8.19600 5.08200 27.37000
C  7.65900 5.92500 28.36400
C  6.95400 7.02000 27.67000
C  7.08900 6.89400 26.27300
C  7.98300 5.65400 26.12400
C  6.16500 8.08200 28.43100
C  6.55800 7.73100 25.14800
O  6.81700 7.54600 23.94500
C  5.75300 8.92000 25.44400
N  9.43200 2.79400 25.59100
C  9.13200 3.75700 24.69200
C  9.43500 3.24800 23.27000
C  10.27900 1.99600 23.51100
C  10.14100 1.77500 25.01300
C  8.25700 3.05600 22.27700
C  11.75500 2.20900 23.09300
C  11.97000 2.37300 21.61400
N  10.20800 1.37300 28.02600
C  10.86200 0.57700 27.10300
C  11.51500 -0.46900 27.90100
C  11.43900 -0.08300 29.23400
C  10.56500 1.05500 29.24100
C  12.22000 -1.65400 27.22800
C  11.88000 -0.36200 30.61600
O  12.53600 -1.31700 31.05200
C  11.26300 0.77400 31.45600
C  10.50300 0.14700 32.55600
O  9.50300 -0.50800 32.30700
O  11.06100 0.46300 33.78700
C  10.43000 -0.13400 34.99000
H  7.27700 6.37700 30.39200
H  8.22700 5.38000 23.88900
H  11.22800 -0.08500 25.12500
H  9.16700 2.63400 32.79300
H  8.83900 5.56700 32.23800
H  6.38400 3.83900 32.03800
H  6.75900 5.10300 33.24500
H  7.25000 3.50700 33.53100
H  11.03100 5.02200 32.48000
H  11.65100 3.38900 32.58100
H  9.62900 4.05700 34.67800
H  10.97100 5.20800 34.71400
H  6.68200 8.99600 28.72400
H  5.83700 7.58800 29.34600
H  5.30400 8.30100 27.79900
H  4.71300 8.61200 25.55400
H  5.62100 9.52800 24.54900
H  6.04600 9.61100 26.23500
H  10.08700 4.04000 22.89900
H  9.93600 1.06300 23.06600
H  7.32900 3.39800 22.73600
H  8.22100 2.01500 21.95500
H  8.61200 3.73100 21.49900
H  12.24400 1.28300 23.39500
H  12.11200 3.00700 23.74300
H  12.11100 3.39200 21.25200
H  11.04200 1.97300 21.20600
H  12.78900 1.79900 21.18100
H  11.52700 -2.43000 26.90500
H  12.83100 -2.17300 27.96700
H  12.74000 -1.42600 26.29800
H  12.10500 1.41300 31.72100
H  9.39500 -0.35700 34.73400
H  10.46800 0.43500 35.91900
H  10.92700 -1.06800 35.25100
Mg 26.07200 -0.78400 29.74900
C  28.09100 -0.96300 32.63600
C  23.36200 -0.08400 31.81300
C  24.26800 -0.35200 27.01400
C  28.82800 -1.46700 27.69600
N  25.82300 -0.56800 32.07300
C  26.79400 -0.67200 33.00700
C  26.25000 -0.50900 34.43900
C  24.71800 -0.17600 34.11200
C  24.57800 -0.32600 32.61000
C  23.73300 -1.14200 34.82300
C  26.95000 0.69400 35.12800
C  27.51800 0.32400 36.57000
H  27.01500 1.26600 37.71800
N  24.10900 -0.33900 29.39700
C  23.16000 -0.09900 30.38800
C  21.90900 0.10300 29.70400
C  22.10800 -0.15400 28.32600
C  23.56000 -0.37100 28.16800
C  20.66200 0.45300 30.34900
C  21.05300 -0.15300 27.16800
O  21.37900 -0.37000 25.99600
C  19.57500 0.07600 27.43700
N  26.47200 -0.98700 27.70300
C  25.51500 -0.62100 26.75100
C  26.06200 -0.81000 25.31700
C  27.61200 -0.93400 25.57400
C  27.68500 -1.14800 27.07500
C  25.46000 -2.02700 24.45600
C  28.47900 0.28100 25.09900
C  29.96800 -0.04100 24.76300
N  28.01300 -1.28100 30.09800
C  29.04200 -1.60900 29.17600
C  30.23200 -1.96600 29.94500
C  29.95700 -1.62400 31.28900
C  28.56600 -1.27900 31.34000
C  31.44200 -2.46200 29.45200
C  30.45000 -1.54100 32.60400
O  31.55700 -1.94400 33.00900
C  29.31800 -1.14300 33.49800
C  29.25700 -2.25600 34.52100
O  28.52100 -3.23800 34.47400
O  30.00900 -1.89900 35.64100
C  29.74800 -2.56300 36.86300
H  22.56700 0.20300 32.50400
H  23.67500 -0.25300 26.10200
H  29.68900 -1.58400 27.03500
H  26.37000 -1.46500 34.94900
H  24.45900 0.85100 34.37000
H  23.45000 -2.04200 34.27700
H  22.80500 -0.59000 34.97600
H  24.15600 -1.43400 35.78400
H  26.26900 1.53500 35.26000
H  27.73900 1.00200 34.44300
H  28.60700 0.35000 36.60000
H  27.18000 -0.69400 36.76300
H  20.85500 0.97600 31.28600
H  20.20900 -0.49900 30.62500
H  19.99800 1.06800 29.74100
H  19.46300 -0.58900 28.29400
H  18.96400 -0.32700 26.62900
H  19.30500 1.11700 27.61100
H  25.99300 0.09200 24.71000
H  27.99800 -1.83100 25.08900
H  24.77300 -2.65000 25.02900
H  26.27500 -2.67500 24.13300
H  24.89300 -1.52900 23.66900
H  28.60100 0.89000 25.99500
H  27.93800 0.83200 24.33000
H  30.11400 -1.12000 24.73000
H  30.65800 0.14900 25.58500
H  30.14700 0.35700 23.76400
H  32.13500 -1.64100 29.26600
H  31.16700 -2.84300 28.46800
H  31.95300 -3.14700 30.12700
H  29.48800 -0.19300 34.00500
H  29.26200 -1.72800 37.36700
H  30.73600 -2.75500 37.28200
H  29.18900 -3.48700 36.71400

