158

Mg 24.34000 -5.47600 46.00700
C  26.59000 -3.17400 44.41300
C  21.96400 -4.41900 43.67800
C  22.24800 -7.82000 47.02400
C  26.97100 -6.88000 47.72100
N  24.38600 -4.12400 44.08300
C  25.33500 -3.16900 43.84700
C  24.85700 -2.18700 42.76600
C  23.30700 -2.34500 42.89600
C  23.18600 -3.71700 43.65200
C  22.58600 -1.13200 43.60800
C  25.49100 -2.44600 41.32800
C  26.10300 -1.29300 40.50700
H  25.78200 -1.39200 38.99900
N  22.44400 -6.13400 45.37900
C  21.65800 -5.58600 44.43900
C  20.39000 -6.36700 44.30700
C  20.35900 -7.28700 45.30800
C  21.73200 -7.17000 45.88700
C  19.38600 -5.88600 43.34100
C  19.18400 -8.25400 45.69700
O  18.15300 -8.24900 45.02300
C  19.21300 -9.05800 46.91800
N  24.52400 -7.15700 47.16500
C  23.50500 -7.94000 47.58800
C  24.03400 -9.07100 48.49000
C  25.47000 -8.66400 48.81800
C  25.69700 -7.51800 47.83900
C  23.22200 -9.47300 49.77000
C  26.53800 -9.84000 48.82900
C  27.35700 -9.84800 50.14000
N  26.32700 -5.13600 46.10200
C  27.27900 -5.74300 46.89500
C  28.57600 -5.04100 46.75700
C  28.29900 -3.97400 45.78600
C  26.97800 -4.15400 45.41600
C  29.78300 -5.43000 47.46000
C  28.88700 -2.76600 45.15600
O  29.99900 -2.24200 45.31400
C  27.76500 -2.22500 44.08100
C  27.45400 -0.82700 44.36900
O  26.68800 -0.32000 45.16200
O  28.28700 -0.03700 43.56100
C  28.29300 1.36100 43.92400
H  21.12600 -3.95400 43.15400
H  21.60700 -8.53500 47.54400
H  27.74900 -7.42000 48.26500
H  25.18100 -1.20800 43.11700
H  22.81100 -2.51200 41.94000
H  23.32000 -0.33200 43.70600
H  22.23300 -1.49500 44.57300
H  21.73800 -0.71400 43.06500
H  24.75900 -2.96700 40.71100
H  26.35100 -3.08700 41.51900
H  27.18900 -1.34200 40.42400
H  25.76700 -0.33600 40.90700
H  18.68400 -5.21100 43.83100
H  18.83400 -6.77100 43.02600
H  19.75200 -5.48000 42.39900
H  18.27200 -9.56700 47.12700
H  19.39600 -8.36900 47.74200
H  20.04000 -9.75800 46.79500
H  24.09000 -9.91200 47.79900
H  25.38900 -8.24400 49.82000
H  22.35600 -8.81100 49.77700
H  23.83000 -9.49600 50.67400
H  22.73800 -10.41500 49.51100
H  27.23500 -9.81200 47.99100
H  25.98400 -10.77600 48.89000
H  28.43200 -9.81900 49.96300
H  27.12000 -10.62100 50.87100
H  27.27300 -8.85400 50.57900
H  29.57000 -5.44800 48.52900
H  30.53400 -4.71500 47.12500
H  30.02700 -6.47400 47.26100
H  28.15300 -2.35800 43.07100
H  28.30000 1.56500 44.99500
H  27.42100 1.91200 43.57300
H  29.20200 1.81200 43.52600
Mg -5.55500 26.01600 25.77700
C  -4.48700 27.45300 28.75200
C  -7.57200 23.76200 27.54100
C  -6.26100 24.56400 22.88500
C  -3.14300 28.01600 24.02600
N  -5.73900 25.55200 27.86500
C  -5.40300 26.39700 28.87400
C  -6.06100 25.97400 30.18100
C  -6.71500 24.57500 29.79500
C  -6.73900 24.65300 28.27800
C  -5.86500 23.36400 30.28000
C  -6.99400 26.97800 30.86200
C  -7.03900 27.20400 32.36100
H  -6.45000 26.10000 33.20100
N  -6.74900 24.36100 25.25500
C  -7.55000 23.61300 26.10500
C  -8.28200 22.65400 25.29200
C  -7.92800 22.80000 23.92600
C  -6.95400 23.95000 23.95000
C  -9.12100 21.63000 25.93400
C  -8.29700 21.96700 22.73400
O  -7.83600 22.14600 21.62000
C  -9.36900 20.83300 22.95500
N  -4.72600 26.15600 23.75900
C  -5.19100 25.45800 22.73100
C  -4.55000 25.79900 21.41200
C  -3.60300 26.93200 21.79100
C  -3.80200 27.05100 23.28700
C  -3.78800 24.67200 20.69900
C  -3.99400 28.19800 20.92200
C  -2.86100 29.23100 20.67100
N  -4.20600 27.49400 26.22100
C  -3.35300 28.22100 25.45000
C  -2.70400 29.20500 26.23100
C  -3.09800 28.95200 27.58400
C  -4.00400 27.89400 27.51000
C  -1.74000 30.14900 25.75900
C  -2.95300 29.31900 28.99800
O  -2.24600 30.18900 29.52500
C  -3.80500 28.33000 29.75900
C  -2.83800 27.65900 30.61000
O  -2.02600 26.86200 30.23700
O  -3.05800 27.88200 31.97400
C  -2.29800 27.17000 32.96300
H  -8.13200 23.10000 28.20400
H  -6.59400 24.21000 21.90800
H  -2.41100 28.67400 23.55300
H  -5.28000 25.82900 30.92800
H  -7.77200 24.43600 30.02300
H  -5.04200 23.61200 30.95100
H  -5.38300 22.84700 29.45100
H  -6.50000 22.65100 30.80500
H  -8.00100 26.60300 30.67800
H  -6.88800 27.96000 30.40100
H  -8.10800 27.32600 32.53800
H  -6.52400 28.12200 32.64300
H  -10.13500 21.67900 25.53700
H  -9.09400 21.56800 27.02200
H  -8.72700 20.64000 25.70300
H  -9.10300 20.09700 23.71300
H  -9.59200 20.35200 22.00300
H  -10.27200 21.38100 23.22600
H  -5.37300 26.10400 20.76600
H  -2.57500 26.66400 21.54600
H  -2.91800 25.08600 20.18900
H  -4.37400 24.33900 19.84300
H  -3.58100 23.74300 21.23100
H  -4.85900 28.68900 21.36700
H  -4.10700 27.80400 19.91200
H  -2.47700 29.23600 19.65100
H  -1.97500 29.10900 21.29400
H  -3.29400 30.17700 20.99500
H  -0.79800 29.76200 25.37100
H  -1.40900 30.94700 26.42400
H  -2.21000 30.74500 24.97800
H  -4.49400 28.89200 30.38900
H  -1.26600 27.02100 32.64600
H  -2.74600 26.22700 33.27400
H  -2.36700 27.77300 33.86900

