158

Mg 16.45700 51.10200 26.61200
C  18.58100 49.87900 29.12700
C  14.42800 52.20100 29.24400
C  14.52800 52.63000 24.32900
C  18.58700 50.02100 24.09200
N  16.48900 50.91000 28.95000
C  17.50100 50.43000 29.72600
C  17.29800 50.57600 31.23900
C  15.76400 51.00800 31.22600
C  15.56700 51.42200 29.72900
C  14.86800 49.78000 31.55200
C  18.20100 51.63700 31.96000
C  18.90700 51.09300 33.18100
H  18.25300 51.36200 34.46200
N  14.70100 52.20200 26.79100
C  14.08100 52.63900 27.98200
C  12.96600 53.46500 27.65600
C  12.92400 53.54500 26.18500
C  14.02100 52.75400 25.70200
C  11.94400 53.95200 28.73800
C  11.91100 54.21700 25.28500
O  11.93400 54.19200 24.04700
C  10.88400 55.00500 25.92400
N  16.47800 51.19100 24.43300
C  15.57400 51.96100 23.72100
C  15.78100 51.78000 22.19800
C  17.17000 51.01100 22.15000
C  17.45800 50.77300 23.60000
C  14.50700 51.06700 21.54500
C  18.33700 51.76000 21.46900
C  19.24000 50.77900 20.60900
N  18.13200 50.07000 26.53100
C  18.92300 49.70200 25.43800
C  20.08400 49.02800 26.02900
C  19.97300 49.03900 27.43800
C  18.76500 49.75100 27.68100
C  21.13500 48.39500 25.23500
C  20.60700 48.68100 28.66600
O  21.70800 48.06400 28.81700
C  19.75700 49.16500 29.82700
C  19.33000 48.13900 30.77700
O  18.31500 47.46000 30.76200
O  20.22900 48.02800 31.86600
C  19.92400 47.01300 32.91100
H  13.87000 52.53500 30.12100
H  14.03300 53.28900 23.61200
H  19.23300 49.65400 23.29100
H  17.43500 49.56100 31.61300
H  15.62500 51.85300 31.90100
H  13.95800 50.22400 31.95700
H  15.27500 48.96200 32.14700
H  14.67700 49.35000 30.56800
H  17.60400 52.47900 32.31100
H  18.97300 52.05900 31.31700
H  19.87300 51.58200 33.30800
H  19.11900 50.03600 33.02400
H  11.11200 53.27600 28.93300
H  11.59300 54.97300 28.58800
H  12.37100 53.92800 29.74000
H  10.09200 55.15800 25.19200
H  11.28800 55.93800 26.31800
H  10.44700 54.39800 26.71800
H  15.79000 52.72800 21.66100
H  16.99900 50.00200 21.77600
H  13.76500 50.95700 22.33600
H  14.84600 50.13700 21.08600
H  14.03800 51.75300 20.84000
H  19.08200 52.17500 22.14800
H  17.96600 52.60800 20.89300
H  19.08300 50.78200 19.53100
H  19.23700 49.77200 21.02600
H  20.29000 51.04600 20.73000
H  22.02300 48.20200 25.83800
H  21.49100 48.95000 24.36700
H  20.77100 47.39400 25.00200
H  20.28100 49.82900 30.51400
H  18.86400 46.85800 33.11500
H  20.37400 47.35700 33.84300
H  20.43000 46.11400 32.56000
Mg 0.51000 42.38200 26.88400
C  2.08100 42.41500 29.97400
C  -2.34800 41.23600 28.25500
C  -0.69200 41.72200 23.78600
C  3.64900 43.20500 25.37300
N  -0.02800 41.99000 28.83600
C  0.72700 42.15700 29.98800
C  -0.18100 41.96400 31.20100
C  -1.55500 41.35200 30.71400
C  -1.30400 41.59100 29.14100
C  -1.79000 39.90500 31.18300
C  -0.39400 43.25500 32.03100
C  -0.01200 43.11500 33.56800
H  -0.31200 41.84400 34.39900
N  -1.24600 41.60400 26.11400
C  -2.39600 41.23900 26.84700
C  -3.48500 40.82200 25.94900
C  -2.96000 40.92300 24.65100
C  -1.54500 41.45000 24.79300
C  -4.90300 40.37400 26.39900
C  -3.70500 40.73300 23.35400
O  -3.21500 41.04300 22.27300
C  -5.10400 40.22900 23.23800
N  1.31500 42.41900 24.87100
C  0.64700 42.14300 23.78700
C  1.43500 42.46400 22.53200
C  2.73500 43.12600 23.02000
C  2.52600 43.02700 24.57500
C  1.65500 41.25500 21.61200
C  2.95800 44.60300 22.48600
C  3.78200 44.73800 21.13800
N  2.42600 42.81000 27.51000
C  3.61000 43.04400 26.78800
C  4.75300 43.20000 27.73600
C  4.13100 42.99900 29.04400
C  2.80300 42.69600 28.82400
C  6.15900 43.51800 27.41100
C  4.36600 42.85500 30.51700
O  5.41200 42.93800 31.17700
C  3.02100 42.61500 31.23800
C  3.06800 41.34400 32.01000
O  2.92000 40.24900 31.51600
O  3.54000 41.55700 33.30700
C  3.74500 40.36600 34.23800
H  -3.27600 40.96600 28.76400
H  -1.11700 41.53400 22.79800
H  4.59100 43.62100 25.01100
H  0.42400 41.30600 31.82600
H  -2.41000 41.90700 31.09800
H  -2.77300 39.71100 31.61400
H  -0.95100 39.51700 31.76100
H  -1.93400 39.33100 30.26800
H  -1.37900 43.70800 31.91900
H  0.30800 43.95500 31.57700
H  -0.63200 43.87500 34.04500
H  1.04800 43.30700 33.73400
H  -5.73300 41.04500 26.17700
H  -4.81300 40.35900 27.48500
H  -5.05400 39.35000 26.05600
H  -5.26900 39.25700 23.70300
H  -5.30100 40.08300 22.17600
H  -5.92500 40.93000 23.38900
H  0.87700 43.27900 22.07200
H  3.57800 42.50700 22.71300
H  1.18700 41.51700 20.66400
H  1.06700 40.43200 22.01900
H  2.70900 40.98400 21.53600
H  3.41400 45.17300 23.29600
H  1.98100 45.06100 22.33600
H  3.23300 45.29600 20.37900
H  4.08600 43.78800 20.69900
H  4.68100 45.33200 21.30400
H  6.39200 43.23300 26.38400
H  6.82600 42.97600 28.08100
H  6.31400 44.57800 27.61000
H  2.82700 43.47900 31.87300
H  4.72000 40.38000 34.72400
H  3.62100 39.34100 33.88700
H  2.96300 40.54800 34.97500

