158

Mg 7.43300 52.16300 40.92300
C  6.99200 48.64900 40.81800
C  10.81300 51.58000 40.54100
C  7.83000 55.43700 40.39000
C  4.01900 52.45200 41.16300
N  8.74400 50.28600 40.51400
C  8.29300 49.00000 40.50400
C  9.49900 48.10200 40.26400
C  10.71600 49.07800 40.55600
C  10.05100 50.40300 40.47200
C  11.53300 48.85000 41.85000
C  9.56800 47.45400 38.92100
C  9.39100 48.37100 37.64600
H  8.24700 48.28000 36.62600
N  9.07800 53.35900 40.36900
C  10.38500 52.93900 40.38400
C  11.25100 54.13300 40.26600
C  10.44200 55.25900 40.16600
C  9.04000 54.73400 40.30400
C  12.67500 53.90000 40.14400
C  10.84400 56.71900 39.97000
O  12.02600 57.01000 39.92300
C  9.93600 57.86700 39.79500
N  6.08900 53.71400 40.61700
C  6.54200 55.00900 40.45500
C  5.32300 55.96000 40.72000
C  4.10400 55.00800 40.92200
C  4.72600 53.62900 40.81800
C  5.55300 56.94400 41.90300
C  3.00400 55.20800 39.86400
C  2.06400 56.40800 39.99700
N  5.73900 50.86100 41.07500
C  4.43800 51.17800 41.30300
C  3.72300 49.91300 41.56600
C  4.64800 48.92900 41.35200
C  5.91200 49.54000 41.04700
C  2.30000 49.63600 42.14900
C  4.86300 47.57600 41.38000
O  4.09400 46.65400 41.63500
C  6.35500 47.25800 40.99700
C  6.38200 46.40700 39.75400
O  6.22200 46.76700 38.60700
O  6.59700 45.07900 40.11400
C  6.48900 44.21500 38.97500
H  11.89500 51.58200 40.68900
H  7.88600 56.52400 40.30800
H  2.95200 52.56100 41.36800
H  9.45900 47.25700 40.95200
H  11.34000 49.04900 39.66200
H  11.27800 49.44600 42.72600
H  12.60700 48.84100 41.66300
H  11.32400 47.78500 41.94800
H  8.87700 46.61200 38.96800
H  10.56600 47.01600 38.90300
H  10.21700 48.04900 37.01300
H  9.57000 49.41500 37.90300
H  12.87800 53.28300 39.26900
H  13.25600 53.42000 40.93100
H  13.23600 54.81900 39.97500
H  9.65500 58.13100 40.81500
H  9.09400 57.73200 39.11700
H  10.53300 58.65400 39.33500
H  5.36600 56.47200 39.75900
H  3.70100 55.03400 41.93400
H  4.97300 56.53900 42.73100
H  5.20600 57.95200 41.67200
H  6.57800 57.05200 42.25800
H  2.29500 54.38100 39.90100
H  3.48900 55.13100 38.89100
H  0.99000 56.29800 40.14400
H  2.14600 57.00800 39.09100
H  2.57700 56.93500 40.80200
H  1.55800 49.62700 41.35000
H  1.99000 50.44600 42.80900
H  2.40600 48.70200 42.70200
H  6.98300 46.69100 41.68400
H  7.34600 44.28200 38.30600
H  5.54300 44.35800 38.45200
H  6.52900 43.26500 39.50800
Mg 10.34600 47.37200 26.07400
C  8.32100 47.61200 28.90100
C  13.01900 48.18100 27.88700
C  12.26100 47.56800 23.08100
C  7.44300 47.32000 24.11200
N  10.56100 48.04900 28.24100
C  9.70800 47.79300 29.20000
C  10.39800 47.86800 30.52800
C  11.77000 48.57000 30.12600
C  11.82600 48.20800 28.64500
C  11.76100 50.14400 30.34000
C  10.47200 46.53900 31.35700
C  10.30700 46.62500 32.90300
H  10.47600 45.40900 33.87500
N  12.35700 47.74800 25.63200
C  13.30900 47.99700 26.53000
C  14.64100 47.83800 25.89500
C  14.41900 47.65000 24.54500
C  13.01300 47.69600 24.32700
C  15.99800 47.95200 26.66600
C  15.42500 47.37500 23.44300
O  15.15400 46.90800 22.33400
C  16.89600 47.47200 23.72300
N  9.93800 47.44500 23.88700
C  10.88600 47.57800 22.92800
C  10.24000 47.64200 21.59000
C  8.66500 47.57000 21.90200
C  8.66800 47.44600 23.45000
C  10.70300 48.93400 20.83000
C  7.94800 46.41400 21.15000
C  7.95400 45.03500 21.79300
N  8.33700 47.28500 26.35900
C  7.25200 47.26600 25.49100
C  6.05500 47.11400 26.26400
C  6.43100 47.30600 27.57200
C  7.81900 47.39500 27.62600
C  4.69900 46.95400 25.67900
C  5.80300 47.53400 28.90600
O  4.67800 47.80400 29.23400
C  7.08000 47.47200 29.83800
C  6.99500 46.13100 30.49900
O  6.98200 45.09400 29.87300
O  7.09800 46.31600 31.83200
C  7.13900 45.08400 32.56000
H  13.92200 48.37900 28.46800
H  12.74200 47.48400 22.10400
H  6.53900 47.26600 23.50200
H  9.79600 48.46900 31.20900
H  12.54600 48.20000 30.79700
H  12.67600 50.30600 30.91000
H  10.94200 50.50400 30.96300
H  11.85300 50.64700 29.37800
H  11.28400 45.95100 30.92700
H  9.55000 45.96500 31.26700
H  9.26800 46.93300 33.02100
H  10.92800 47.47500 33.18700
H  15.91800 47.78500 27.74000
H  16.37600 48.93600 26.39000
H  16.64900 47.12100 26.39300
H  17.22200 48.23800 24.42700
H  17.36500 47.50100 22.73900
H  17.27700 46.55500 24.17100
H  10.52100 46.65000 21.23700
H  8.16900 48.50300 21.63300
H  11.61200 49.41600 21.19100
H  9.80700 49.49600 20.56500
H  10.98200 48.50500 19.86700
H  8.37700 46.24700 20.16200
H  6.91400 46.68100 20.93300
H  7.12900 45.02300 22.50500
H  8.91100 44.87200 22.28900
H  7.66300 44.30400 21.03900
H  4.46200 47.77600 25.00300
H  4.05800 47.14400 26.54000
H  4.47900 45.95100 25.31400
H  7.07000 48.20800 30.64100
H  6.23400 44.52700 32.31800
H  6.92300 45.36800 33.59000
H  7.99600 44.41700 32.47300

