158

Mg 46.89700 16.31900 28.25400
C  45.03100 15.85200 31.16800
C  49.23800 17.99200 30.02200
C  48.30600 17.26500 25.30400
C  44.37900 14.69300 26.58200
N  46.99400 16.94400 30.34300
C  46.24800 16.51500 31.38700
C  46.89900 16.82900 32.76100
C  48.18200 17.71600 32.33700
C  48.14100 17.48800 30.82300
C  48.02400 19.18900 32.74500
C  47.15100 15.52600 33.60900
C  46.75300 15.53200 35.16900
H  46.34300 16.84600 35.85300
N  48.51100 17.48500 27.71500
C  49.43600 18.01400 28.62800
C  50.56300 18.59800 27.92800
C  50.30700 18.47900 26.58500
C  48.98200 17.73800 26.46900
C  51.61100 19.38000 28.72900
C  51.23100 18.88300 25.38700
O  50.92900 18.61400 24.20700
C  52.60100 19.52900 25.59200
N  46.39200 16.10100 26.26600
C  47.16000 16.53300 25.17600
C  46.64700 15.91200 23.86000
C  45.29500 15.34800 24.30900
C  45.38900 15.32200 25.82800
C  46.61100 16.92300 22.66400
C  44.96100 13.97500 23.75100
C  45.65100 12.72400 24.22100
N  45.09100 15.34200 28.71900
C  44.19000 14.68400 27.92800
C  43.04900 14.27500 28.70400
C  43.39900 14.64800 30.00500
C  44.59800 15.33400 29.96300
C  41.93400 13.60200 28.24900
C  42.93300 14.64800 31.36200
O  41.82500 14.22400 31.72900
C  43.98600 15.41300 32.13100
C  43.36600 16.54500 32.85900
O  43.36700 17.69100 32.46000
O  42.95100 16.14100 34.09800
C  42.29900 17.16500 34.96700
H  50.11700 18.26700 30.60900
H  48.76700 17.33400 24.31600
H  43.61500 14.17900 25.99500
H  46.12900 17.44800 33.22100
H  49.10700 17.35300 32.78600
H  46.99800 19.42000 33.03500
H  48.32700 19.93900 32.01400
H  48.70000 19.35000 33.58500
H  48.21300 15.29100 33.54400
H  46.65000 14.70700 33.09200
H  47.57400 15.05400 35.70300
H  45.86400 14.92500 35.34000
H  52.36600 19.85500 28.10200
H  52.08800 18.71300 29.44700
H  51.08300 20.19400 29.22600
H  53.28200 18.88200 26.14500
H  52.62800 20.40000 26.24700
H  53.02000 19.71000 24.60200
H  47.30000 15.09400 23.55300
H  44.50300 16.05500 24.06100
H  47.48600 16.67600 22.06300
H  46.69400 17.97500 22.93700
H  45.66600 16.75900 22.14600
H  45.03400 14.02800 22.66500
H  43.90300 13.85600 23.98300
H  45.35300 12.44600 25.23200
H  46.72600 12.90100 24.23600
H  45.46300 11.95700 23.46900
H  41.84700 13.79000 27.17900
H  41.07700 14.08400 28.71900
H  41.97000 12.57100 28.60100
H  44.37400 14.70500 32.86300
H  42.78000 18.14200 34.92100
H  42.04300 16.75400 35.94300
H  41.36300 17.31600 34.42900
Mg -11.59400 16.96700 41.69600
C  -8.38100 15.58500 41.22300
C  -10.43500 19.94300 40.67600
C  -14.72100 17.92400 41.86000
C  -12.73100 13.50100 41.93800
N  -9.64300 17.67000 41.01800
C  -8.49100 16.93500 40.85100
C  -7.27600 17.86600 40.42700
C  -7.88500 19.32400 40.41100
C  -9.40500 18.97900 40.62100
C  -7.31200 20.33400 41.43300
C  -6.82500 17.36400 39.06600
C  -5.37100 17.72400 38.65000
H  -5.20000 18.34900 37.28800
N  -12.48000 18.76400 41.39400
C  -11.83000 19.88100 40.96200
C  -12.81400 20.94100 40.85400
C  -14.04600 20.46100 41.25700
C  -13.76900 19.03200 41.62300
C  -12.40800 22.38400 40.33400
C  -15.28300 21.23200 41.49400
O  -15.45300 22.40400 41.05900
C  -16.46500 20.55300 42.18700
N  -13.51300 15.84600 41.47900
C  -14.62100 16.56000 41.77000
C  -15.67500 15.63200 42.31600
C  -15.15000 14.19400 42.02100
C  -13.71600 14.50600 41.76200
C  -16.01700 15.78600 43.80300
C  -15.65000 13.58700 40.77800
C  -16.56700 12.33800 40.95500
N  -10.80800 15.00100 41.65900
C  -11.37200 13.75100 41.83900
C  -10.32700 12.75000 41.92000
C  -9.15800 13.45500 41.83600
C  -9.48100 14.78200 41.55700
C  -10.56100 11.27100 42.12500
C  -7.71000 13.22700 41.81100
O  -7.08600 12.20500 41.97100
C  -7.16300 14.68400 41.55000
C  -6.50500 15.07300 42.82700
O  -7.08500 15.47900 43.83600
O  -5.14400 14.94900 42.78500
C  -4.39400 15.67000 43.77800
H  -10.19000 20.96400 40.37600
H  -15.73700 18.17200 42.17600
H  -12.97600 12.43700 41.94900
H  -6.53400 17.65100 41.19600
H  -7.74200 19.77900 39.43000
H  -6.54200 19.73000 41.91300
H  -8.06700 20.72300 42.11600
H  -6.95100 21.22200 40.91500
H  -7.54100 17.74400 38.33700
H  -7.04400 16.29700 39.10300
H  -4.72500 16.84700 38.71400
H  -4.89700 18.55500 39.17100
H  -12.84700 22.45200 39.33800
H  -11.35600 22.46100 40.05900
H  -12.81200 23.22500 40.89700
H  -17.13500 21.37400 42.44300
H  -16.18400 20.10500 43.14000
H  -16.93200 19.79600 41.55700
H  -16.61300 15.83000 41.79900
H  -15.22000 13.63600 42.95500
H  -17.06300 15.53300 43.97500
H  -15.88700 16.80000 44.18000
H  -15.38800 15.14900 44.42500
H  -14.78000 13.33200 40.17400
H  -16.15900 14.31600 40.14800
H  -17.02700 12.21200 41.93500
H  -16.00700 11.42100 40.77400
H  -17.32400 12.43700 40.17700
H  -9.66200 10.81300 42.53900
H  -10.71000 10.90600 41.10900
H  -11.37600 11.02200 42.80400
H  -6.40900 14.53000 40.77700
H  -3.71100 16.19600 43.11100
H  -3.99300 14.85700 44.38300
H  -4.88100 16.42200 44.39900

