158

Mg 25.20400 0.94700 29.79900
C  27.15900 0.70400 32.63300
C  22.46200 1.09900 31.96000
C  23.19500 0.62300 27.15800
C  28.07000 0.35200 27.77100
N  24.89800 1.03600 31.99100
C  25.88100 1.03400 32.98900
C  25.33100 1.24100 34.38800
C  23.84400 1.29800 34.15000
C  23.70800 1.09200 32.58000
C  22.83400 0.37600 34.96900
C  26.06300 2.27800 35.26200
C  26.56100 1.73400 36.63200
H  26.52300 2.62200 37.92000
N  23.08900 0.77200 29.56700
C  22.17500 0.96800 30.59900
C  20.85000 0.96700 29.95500
C  21.02200 0.74100 28.54300
C  22.49900 0.65600 28.33700
C  19.58200 1.13700 30.77900
C  19.94000 0.56500 27.48900
O  20.18100 0.26200 26.31300
C  18.50400 0.95900 27.81000
N  25.71200 0.75400 27.68900
C  24.62600 0.65900 26.87800
C  25.13100 0.44500 25.41600
C  26.68700 0.27800 25.56700
C  26.87800 0.60300 27.05500
C  24.40700 -0.71700 24.68700
C  27.63900 1.29300 24.73000
C  28.21500 0.83600 23.40900
N  27.15500 0.52400 30.11900
C  28.21600 0.34800 29.21300
C  29.39800 0.09900 29.98800
C  29.02700 0.22500 31.32600
C  27.65400 0.50900 31.33900
C  30.76000 -0.22100 29.45400
C  29.57700 0.25600 32.58600
O  30.72700 0.01300 32.95000
C  28.30300 0.39400 33.56400
C  28.23600 -0.94300 34.31200
O  27.77900 -1.99100 33.83200
O  28.59800 -0.79600 35.61400
C  28.49000 -1.85600 36.59100
H  21.65200 1.22100 32.68200
H  22.50800 0.50200 26.31800
H  28.91100 0.02800 27.15500
H  25.33000 0.30300 34.94400
H  23.43500 2.26000 34.46000
H  22.10200 1.00500 35.47600
H  23.32700 -0.25500 35.70900
H  22.40900 -0.40100 34.33300
H  25.43000 3.14800 35.43400
H  26.97800 2.53300 34.72700
H  27.59800 1.50200 36.38800
H  26.02600 0.80100 36.81100
H  18.97700 0.24700 30.60500
H  19.04900 2.07400 30.62000
H  19.63100 1.10800 31.86700
H  18.00900 0.35800 28.57300
H  17.93600 0.84200 26.88800
H  18.56200 2.00900 28.09800
H  24.88000 1.37500 24.90500
H  26.98600 -0.75900 25.41600
H  23.68500 -1.13800 25.38700
H  25.09300 -1.54200 24.49300
H  23.85200 -0.36300 23.81800
H  28.48100 1.65600 25.31900
H  27.15100 2.26400 24.64100
H  27.79100 -0.11100 23.07600
H  29.25600 0.51300 23.40000
H  28.07200 1.55500 22.60300
H  31.13000 -0.90600 30.21700
H  31.43300 0.63600 29.42800
H  30.75400 -0.80000 28.53000
H  28.44900 1.16200 34.32300
H  28.66000 -2.81900 36.10800
H  27.44800 -1.86500 36.91200
H  29.18900 -1.74700 37.42000
Mg 42.75600 3.32300 46.19000
C  40.91000 6.27200 46.49400
C  39.92700 1.61100 46.27000
C  44.55800 0.70100 45.18900
C  45.54900 5.43500 45.61200
N  40.64200 3.94100 46.30600
C  40.12100 5.18400 46.57000
C  38.56500 5.08200 46.88900
C  38.40500 3.54500 46.97600
C  39.73600 2.98000 46.47800
C  37.97000 3.05100 48.35100
C  37.63000 5.85500 45.81500
C  38.02400 5.53900 44.45500
H  38.44200 6.56400 43.40400
N  42.30200 1.38000 45.92500
C  41.05000 0.89200 46.07600
C  41.07500 -0.53000 45.78800
C  42.36100 -0.78100 45.18500
C  43.14600 0.45000 45.43700
C  39.92600 -1.43500 46.03700
C  42.81700 -2.06000 44.56100
O  41.92200 -2.92300 44.51800
C  44.13200 -2.17800 43.79500
N  44.72400 3.11300 45.10900
C  45.28100 1.91800 45.11000
C  46.80700 2.06400 45.05300
C  47.05700 3.57900 44.90000
C  45.66800 4.12800 45.14900
C  47.64900 1.30400 46.20300
C  47.46200 4.00500 43.40500
C  48.86600 4.00700 43.04200
N  43.20700 5.40200 45.99900
C  44.37400 6.09200 45.93300
C  44.14800 7.52200 46.16100
C  42.81300 7.60500 46.33800
C  42.27400 6.32200 46.21800
C  45.13500 8.58500 46.07600
C  41.77200 8.51500 46.69000
O  41.78600 9.70300 46.95500
C  40.51100 7.71700 46.74600
C  39.86300 7.88300 48.10200
O  40.27100 7.74700 49.24100
O  38.56600 8.28700 47.81400
C  37.64900 8.41800 48.90700
H  39.02600 0.99400 46.28400
H  45.31500 -0.07400 45.04900
H  46.40500 6.11200 45.63900
H  38.42300 5.63300 47.81900
H  37.64200 3.33400 46.22700
H  37.15800 2.32900 48.26600
H  37.66700 3.94200 48.90100
H  38.74500 2.47900 48.86100
H  37.68700 6.94200 45.88700
H  36.57400 5.65600 46.00000
H  37.04000 5.26400 44.07400
H  38.52900 4.59500 44.25400
H  39.26400 -1.14800 46.85400
H  40.08600 -2.50600 46.16600
H  39.44900 -1.31900 45.06400
H  44.84000 -2.36500 44.60300
H  44.25500 -1.18400 43.36600
H  44.06700 -2.95600 43.03500
H  47.01900 1.65000 44.06700
H  47.68000 4.03200 45.67100
H  47.14900 0.96300 47.11000
H  48.32500 2.05400 46.61300
H  48.15900 0.40400 45.85900
H  47.13800 5.03600 43.26700
H  46.95100 3.36300 42.68700
H  49.32800 3.46900 43.87000
H  49.17100 5.05300 43.06600
H  49.12600 3.43600 42.15100
H  44.76500 9.22000 45.27100
H  46.05000 8.19700 45.62900
H  45.20300 9.12000 47.02300
H  39.84500 7.98200 45.92500
H  38.04300 8.97800 49.75600
H  37.38900 7.43300 49.29300
H  36.79600 8.91100 48.44200

