158

Mg 41.06500 9.19500 29.91500
C  43.03800 10.60000 32.33200
C  38.92100 7.96900 32.28800
C  39.18000 7.69100 27.48400
C  43.59400 9.91600 27.46000
N  40.96900 9.29200 32.04600
C  41.89600 9.95000 32.86500
C  41.38600 9.98700 34.27000
C  40.24200 8.94700 34.23300
C  40.01300 8.65300 32.73200
C  40.57400 7.61400 35.07000
C  41.00300 11.41200 34.73400
C  40.48400 11.60200 36.21800
H  41.33500 12.37200 37.31300
N  39.15500 8.14200 29.84200
C  38.43200 7.76800 30.99300
C  37.14800 7.22100 30.48000
C  37.22600 7.14000 29.06200
C  38.55500 7.64700 28.74100
C  36.11800 6.73000 31.51100
C  36.17800 6.69700 28.02500
O  36.33600 6.61500 26.84200
C  34.88100 6.39200 28.50100
N  41.35200 8.80300 27.77700
C  40.39900 8.20000 27.04600
C  40.70300 8.26100 25.52700
C  42.08100 8.98400 25.52400
C  42.38900 9.29100 26.99500
C  40.68500 6.92600 24.74300
C  42.10700 10.22100 24.59600
C  41.80800 11.59600 25.12700
N  42.96100 10.10000 29.84800
C  43.85400 10.27800 28.79000
C  45.04000 10.86400 29.31100
C  44.72200 11.11100 30.70300
C  43.51900 10.52600 30.95000
C  46.33500 11.21300 28.60000
C  45.17600 11.71100 31.91800
O  46.24100 12.20400 32.18100
C  44.16600 11.27900 33.11000
C  44.90100 10.42800 34.04200
O  45.25000 9.24600 33.84000
O  45.14800 11.17500 35.10600
C  45.99000 10.58700 36.10600
H  38.21900 7.63200 33.05300
H  38.55500 7.37400 26.64500
H  44.35500 10.19600 26.72900
H  42.21200 9.58800 34.85800
H  39.38600 9.37200 34.75600
H  41.62300 7.32000 35.03500
H  40.04300 6.75700 34.65500
H  40.29500 7.82200 36.10300
H  40.26800 11.91800 34.10800
H  41.95500 11.91300 34.56200
H  40.23600 10.70000 36.77800
H  39.47900 12.00200 36.35200
H  36.42300 6.67200 32.55600
H  35.83000 5.75800 31.11100
H  35.22800 7.35700 31.45200
H  34.40900 7.25100 28.97800
H  35.06200 5.56600 29.18900
H  34.22100 5.97000 27.74300
H  39.89700 8.90000 25.16500
H  42.90200 8.34600 25.19800
H  40.07800 6.94100 23.83800
H  40.17800 6.16700 25.33900
H  41.70700 6.60500 24.54100
H  41.37300 10.08400 23.80200
H  43.04600 10.37200 24.06500
H  42.79700 11.98700 25.36400
H  41.22500 11.42200 26.03100
H  41.17200 12.22700 24.50700
H  46.14700 11.02800 27.54200
H  47.16600 10.59200 28.93700
H  46.56300 12.21400 28.96600
H  43.76500 12.16700 33.59900
H  45.82900 9.56600 36.45400
H  45.76600 11.24100 36.94900
H  46.96600 10.64200 35.62300
Mg 17.05700 52.63200 26.00400
C  18.66500 51.12900 28.70500
C  14.35400 53.27800 28.35100
C  15.13600 53.75000 23.50900
C  19.31400 51.38900 23.82900
N  16.54900 52.24100 28.22700
C  17.47600 51.66900 29.14000
C  16.93700 51.70100 30.60100
C  15.41300 52.06300 30.38900
C  15.41300 52.52600 28.91600
C  14.47700 50.84500 30.52500
C  17.77100 52.68600 31.50200
C  17.27900 52.96800 32.99000
H  16.29800 52.01800 33.70600
N  14.99400 53.60900 25.94200
C  14.11300 53.76200 27.01100
C  12.94600 54.47500 26.48200
C  13.10400 54.56900 25.08300
C  14.41300 53.91300 24.75500
C  11.83000 54.94900 27.29400
C  12.30100 55.26200 24.06100
O  12.63100 55.35800 22.86100
C  10.98300 56.14600 24.51800
N  17.13700 52.44500 24.00600
C  16.27200 53.04400 23.11600
C  16.81000 52.92800 21.67200
C  18.17200 52.25000 21.75200
C  18.22400 52.03100 23.25600
C  15.83900 52.49200 20.57400
C  19.42700 53.06300 21.08400
C  20.10000 52.37500 19.86100
N  18.65300 51.45700 26.16000
C  19.51600 51.03700 25.18800
C  20.63000 50.28500 25.79500
C  20.36900 50.40700 27.18600
C  19.16000 51.03200 27.37100
C  21.74900 49.60700 25.05700
C  20.88800 49.92900 28.46100
O  21.78900 49.15000 28.75800
C  19.78700 50.49700 29.49400
C  19.39100 49.32600 30.31300
O  18.78200 48.33900 29.86500
O  19.80700 49.46300 31.59700
C  19.42200 48.33900 32.47000
H  13.54800 53.37500 29.08100
H  14.56400 53.88300 22.58900
H  20.07900 51.20400 23.07300
H  17.09200 50.72100 31.05100
H  15.04500 52.91000 30.96700
H  15.14200 50.08000 30.92400
H  14.22800 50.42500 29.55100
H  13.62900 51.04600 31.18100
H  17.67700 53.62900 30.96300
H  18.84200 52.52000 31.62200
H  16.90500 53.99000 32.93800
H  18.10200 53.07400 33.69700
H  11.66200 56.02600 27.31800
H  11.99000 54.62200 28.32100
H  10.92400 54.55600 26.83300
H  11.29900 56.96600 25.16300
H  10.21700 55.53000 24.98800
H  10.56600 56.42100 23.54900
H  16.93200 53.97800 21.40600
H  18.19300 51.24400 21.33300
H  16.00200 53.20600 19.76700
H  14.85200 52.52400 21.03600
H  16.14300 51.50100 20.23900
H  20.17200 53.21200 21.86600
H  19.13300 54.05100 20.72900
H  21.05200 51.91600 20.12900
H  20.34300 53.12400 19.10700
H  19.53700 51.54400 19.43700
H  22.47700 49.51900 25.86300
H  22.04800 50.29200 24.26300
H  21.40000 48.66800 24.62900
H  20.36700 51.25600 30.01800
H  18.63400 47.66100 32.14400
H  18.99400 48.92300 33.28400
H  20.32500 47.87100 32.86200

