158

Mg -3.33400 16.94900 26.52800
C  -3.57700 14.83900 29.32000
C  -3.85200 19.66200 28.63300
C  -3.03000 18.94400 23.92000
C  -3.52400 14.22800 24.52200
N  -3.79000 17.17300 28.72300
C  -3.67300 16.18700 29.73800
C  -3.73700 16.73400 31.10200
C  -3.96300 18.27500 30.90100
C  -3.90900 18.43600 29.32400
C  -5.26100 18.87700 31.49300
C  -2.57500 16.35900 32.16200
C  -2.35900 17.18900 33.39800
H  -1.73100 16.54500 34.59400
N  -3.42000 18.96400 26.31100
C  -3.50200 19.90300 27.31700
C  -3.41400 21.21800 26.72300
C  -2.96900 21.04800 25.39200
C  -3.16200 19.60700 25.13400
C  -3.63000 22.48700 27.54200
C  -2.40400 22.04200 24.43400
O  -2.09700 21.77800 23.26900
C  -2.02000 23.28700 24.84700
N  -3.32900 16.61300 24.54100
C  -3.06300 17.62800 23.65200
C  -3.13000 17.04500 22.22700
C  -2.98000 15.55100 22.41500
C  -3.28100 15.40200 23.89000
C  -4.36400 17.42800 21.39300
C  -1.63800 14.88300 22.00500
C  -0.45900 15.40600 22.92100
N  -3.60300 14.90300 26.75600
C  -3.55300 13.89500 25.89000
C  -3.75100 12.61100 26.55200
C  -3.68300 12.96900 27.86300
C  -3.61800 14.33500 27.98900
C  -3.89500 11.25400 25.87100
C  -3.74100 12.32400 29.11400
O  -3.77900 11.16100 29.38100
C  -3.65200 13.56500 30.17600
C  -2.42000 13.26900 30.97200
O  -1.26600 13.43100 30.64600
O  -2.87300 12.86700 32.21200
C  -1.68900 12.54600 33.03300
H  -3.91300 20.50700 29.32200
H  -2.92200 19.56000 23.02500
H  -3.45200 13.31900 23.92000
H  -4.64200 16.41800 31.62000
H  -3.13300 18.85800 31.30100
H  -5.52600 18.28400 32.36800
H  -6.10000 19.01300 30.81000
H  -5.00700 19.86400 31.88100
H  -1.65900 16.17400 31.60000
H  -2.96500 15.38000 32.43900
H  -3.25300 17.74500 33.68100
H  -1.66900 17.94000 33.01400
H  -4.38300 22.33400 28.31500
H  -3.96600 23.33900 26.95100
H  -2.71200 22.77100 28.05800
H  -1.64600 23.21800 25.86900
H  -2.91200 23.91100 24.89900
H  -1.26100 23.79600 24.25300
H  -2.25200 17.38200 21.67500
H  -3.85000 15.13700 21.90500
H  -4.62700 18.43300 21.72500
H  -5.24100 16.78800 21.49500
H  -4.13100 17.32500 20.33400
H  -1.29300 15.20100 21.02100
H  -1.78200 13.80500 22.09000
H  -0.05500 14.50200 23.37700
H  -0.80200 16.09700 23.69100
H  0.37100 15.81800 22.34600
H  -3.64900 10.47100 26.58800
H  -3.20300 11.27100 25.02900
H  -4.88100 10.93200 25.53700
H  -4.55600 13.55700 30.78400
H  -1.95300 12.80200 34.05800
H  -0.73900 13.04900 32.85200
H  -1.57800 11.46200 33.01300
Mg 7.39100 2.89800 27.37600
C  8.83400 1.56900 30.21200
C  5.40900 4.83600 29.51000
C  5.73500 3.94700 24.78800
C  9.10200 0.49700 25.50900
N  7.15400 3.21900 29.70100
C  7.99200 2.66100 30.56500
C  7.77100 3.26800 31.95000
C  6.46600 4.24100 31.78800
C  6.30900 4.10500 30.22100
C  5.26300 3.86000 32.63900
C  8.98300 3.94500 32.56900
C  8.72900 4.29400 34.10800
H  9.99700 3.97700 34.92600
N  5.95000 4.35900 27.19000
C  5.14800 4.94800 28.11700
C  4.23300 5.88100 27.47900
C  4.31500 5.65100 26.06200
C  5.39500 4.66800 26.00700
C  3.24200 6.76100 28.26700
C  3.41400 6.27700 24.90200
O  3.68000 5.98200 23.73300
C  2.29900 7.30000 25.23200
N  7.60000 2.41000 25.45900
C  6.70800 2.98900 24.60200
C  6.90700 2.35300 23.19900
C  7.89800 1.22700 23.34200
C  8.17200 1.36300 24.84600
C  5.58600 1.86000 22.49000
C  9.24100 1.34400 22.47700
C  9.65000 0.01100 21.74400
N  8.65600 1.25200 27.72000
C  9.35700 0.44100 26.85600
C  10.28500 -0.40300 27.52600
C  10.11900 -0.03500 28.89500
C  9.04800 0.94200 28.93000
C  11.36200 -1.25400 27.00600
C  10.60300 -0.21100 30.19300
O  11.41500 -0.99600 30.66800
C  9.72700 0.80400 31.09700
C  9.25000 0.06100 32.24600
O  8.25900 -0.65700 32.24100
O  10.01500 0.28800 33.36900
C  9.43900 0.08000 34.68900
H  4.90500 5.65400 30.02900
H  5.21700 4.30500 23.89600
H  9.73000 -0.21300 24.96700
H  7.44700 2.44900 32.59200
H  6.68900 5.28100 32.02600
H  4.94300 4.69900 33.25700
H  5.57400 3.04200 33.28900
H  4.44300 3.58700 31.97400
H  9.05600 4.95900 32.17700
H  9.94900 3.49900 32.33200
H  7.82500 3.82600 34.49900
H  8.55000 5.36500 34.19700
H  2.27800 6.62400 27.77800
H  3.59500 7.76600 28.03500
H  3.14300 6.64000 29.34600
H  2.65700 8.15000 25.81400
H  1.46300 6.81200 25.73300
H  1.88700 7.65800 24.28900
H  7.24600 3.18500 22.58200
H  7.52600 0.20800 23.22800
H  4.72900 1.86900 23.16300
H  5.63500 0.90500 21.96700
H  5.47600 2.68800 21.79100
H  10.04100 1.66400 23.14500
H  9.12100 2.13000 21.73200
H  8.79000 -0.54500 21.37000
H  10.25700 -0.48900 22.49900
H  10.34000 0.23000 20.92900
H  11.60000 -0.70600 26.09400
H  11.07600 -2.26500 26.71800
H  12.25100 -1.37100 27.62500
H  10.45700 1.49200 31.52100
H  8.93300 0.99300 35.00300
H  10.20400 -0.34800 35.33700
H  8.61500 -0.62800 34.76200

