158

Mg 41.44100 40.86200 27.38000
C  40.72200 43.18400 29.82900
C  42.66500 38.59700 29.76200
C  42.71600 38.74100 24.89100
C  40.81500 43.39200 24.98700
N  41.49400 40.83500 29.56600
C  41.12400 41.88700 30.39600
C  41.16900 41.51400 31.90400
C  41.76300 40.06800 31.84800
C  42.08800 39.81100 30.26200
C  43.09500 39.89800 32.60400
C  39.76400 41.53400 32.69600
C  39.82700 42.14100 34.11600
H  38.94000 41.54600 35.25400
N  42.42500 38.91600 27.35500
C  42.83300 38.17600 28.43200
C  43.31800 36.88600 28.01400
C  43.21000 36.88200 26.57900
C  42.80600 38.27800 26.23300
C  43.63600 35.78700 29.00400
C  43.46100 35.73100 25.59900
O  43.10700 35.76200 24.41300
C  44.01900 34.44000 26.13900
N  41.70900 41.08000 25.28000
C  42.21800 40.00700 24.44900
C  41.98700 40.37900 22.95900
C  41.55500 41.90400 23.03100
C  41.28400 42.17800 24.54400
C  43.00400 40.18900 21.86900
C  40.34100 42.20100 22.14000
C  38.90400 41.82800 22.62500
N  40.89400 42.92600 27.36400
C  40.74700 43.82700 26.34000
C  40.44700 45.12000 26.86600
C  40.36900 44.89200 28.25500
C  40.67800 43.54900 28.47900
C  40.25300 46.39000 26.11100
C  40.16800 45.52300 29.56900
O  39.90700 46.67400 29.94900
C  40.40500 44.39300 30.63600
C  41.54100 44.91900 31.47200
O  42.67400 45.27900 31.20700
O  41.00800 45.16800 32.74000
C  41.75300 45.97700 33.71500
H  42.92800 37.92500 30.58100
H  43.04900 38.13100 24.04800
H  40.60900 43.99000 24.09800
H  41.88100 42.18900 32.37900
H  40.99100 39.34200 32.10600
H  42.94600 39.19100 33.42000
H  43.42300 40.86100 32.99700
H  43.85000 39.53500 31.90700
H  39.40600 40.53600 32.94900
H  39.05400 41.97700 31.99700
H  39.64200 43.21400 34.06200
H  40.88100 42.13100 34.39400
H  43.09300 34.86400 28.79900
H  43.39100 36.03500 30.03600
H  44.70300 35.56400 29.00200
H  43.22800 33.92900 26.68800
H  44.90500 34.53500 26.76600
H  44.23100 33.80200 25.28200
H  41.06300 39.87600 22.67500
H  42.38000 42.52400 22.68200
H  43.25500 41.14000 21.39800
H  42.63800 39.50100 21.10800
H  43.88900 39.78800 22.36300
H  40.54500 41.63400 21.23200
H  40.34500 43.24400 21.82300
H  38.81200 41.19700 23.51000
H  38.54200 41.18000 21.82700
H  38.23700 42.69000 22.63800
H  40.74000 46.34600 25.13600
H  40.68000 47.16300 26.75000
H  39.17600 46.51400 26.00600
H  39.49300 44.22500 31.20900
H  42.03900 45.22100 34.44700
H  41.11900 46.74500 34.15600
H  42.73000 46.29900 33.35300
Mg -1.74500 34.23100 26.95700
C  -3.68300 32.77500 29.43000
C  -0.63700 36.53500 29.11500
C  -0.16300 35.74200 24.34000
C  -3.22100 32.07400 24.65000
N  -2.20700 34.65400 28.99900
C  -2.89600 33.81600 29.87500
C  -2.70400 34.40600 31.33500
C  -1.83000 35.67500 31.08300
C  -1.54900 35.63200 29.63900
C  -2.27600 37.00900 31.66600
C  -2.06400 33.33200 32.25800
C  -3.00800 32.73400 33.39100
H  -2.27400 32.48800 34.70200
N  -0.46100 35.85700 26.72300
C  -0.09800 36.65800 27.82100
C  0.77800 37.71800 27.26100
C  0.85900 37.50900 25.85500
C  0.05500 36.32600 25.54500
C  1.33300 38.81100 28.15600
C  1.48500 38.44200 24.85400
O  1.46200 38.24800 23.65600
C  2.35500 39.53700 25.29000
N  -1.73400 34.05700 24.72800
C  -0.96400 34.75600 23.91100
C  -1.02600 34.15400 22.46700
C  -1.96500 32.90200 22.61900
C  -2.26700 32.94200 24.10900
C  -1.49000 35.10700 21.23000
C  -1.41000 31.54300 22.14600
C  -0.79300 30.60000 23.14700
N  -3.29400 32.91200 26.92500
C  -3.76200 32.08200 25.93000
C  -4.80600 31.24200 26.43300
C  -4.74900 31.44400 27.87100
C  -3.83700 32.44700 28.06700
C  -5.67900 30.29000 25.67400
C  -5.42100 31.09300 29.11600
O  -6.39300 30.37400 29.28800
C  -4.60200 31.83600 30.25500
C  -5.56300 32.54800 31.19300
O  -6.26400 33.45400 30.85100
O  -5.80600 31.86000 32.35300
C  -6.85900 32.42600 33.23400
H  -0.26500 37.21600 29.88300
H  0.41900 36.09000 23.48400
H  -3.61700 31.32700 23.95900
H  -3.68500 34.68500 31.72000
H  -0.83500 35.55400 31.51200
H  -2.56800 37.81900 30.99800
H  -1.48700 37.38700 32.31700
H  -3.17400 37.01000 32.28400
H  -1.21100 33.79000 32.75900
H  -1.59600 32.50800 31.72100
H  -3.49900 31.79400 33.13800
H  -3.77500 33.50300 33.47900
H  2.42100 38.73500 28.14500
H  1.11300 38.57000 29.19600
H  0.88000 39.79700 28.05800
H  2.66300 40.04400 24.37600
H  3.15300 39.08100 25.87600
H  1.68200 40.18800 25.84900
H  0.02400 33.89400 22.33600
H  -2.89300 33.05200 22.06800
H  -1.79800 36.05400 21.67400
H  -2.24400 34.66700 20.57800
H  -0.59600 35.29100 20.63400
H  -0.74400 31.68000 21.29400
H  -2.34800 31.14000 21.76500
H  -0.06600 29.97800 22.62500
H  -1.60900 30.01500 23.57000
H  -0.31700 31.24300 23.88700
H  -5.35200 30.39200 24.63900
H  -6.72500 30.35500 25.97400
H  -5.30700 29.28200 25.86200
H  -4.06400 31.07500 30.82200
H  -7.85000 32.40000 32.78200
H  -6.79400 33.48700 33.47300
H  -6.78100 31.81200 34.13100

