158

Mg 35.14300 3.15100 30.30100
C  32.91400 3.91700 32.73100
C  37.67500 2.87200 32.80100
C  37.56800 2.65700 27.93700
C  32.77100 3.61900 27.81600
N  35.20400 3.38800 32.48800
C  34.12500 3.72900 33.26400
C  34.53000 3.84100 34.76700
C  36.13100 3.92400 34.64200
C  36.37100 3.35500 33.22100
C  36.64200 5.37500 34.90600
C  34.02600 2.62800 35.50800
C  33.65400 2.85700 36.93500
H  34.29300 4.03800 37.80200
N  37.29500 2.71300 30.39000
C  38.08700 2.56000 31.53400
C  39.35600 2.12700 31.08700
C  39.43800 2.15300 29.71700
C  38.05900 2.51100 29.25800
C  40.31900 1.60700 32.18800
C  40.62700 1.73800 28.76300
O  40.52400 1.89500 27.58200
C  41.89900 1.23500 29.50900
N  35.26800 3.28100 28.20200
C  36.26100 2.88000 27.44900
C  35.93300 2.93500 25.92700
C  34.36400 2.86700 25.92300
C  34.09100 3.25900 27.38800
C  36.63400 4.03800 25.16500
C  33.92900 1.35700 25.82500
C  33.60000 0.94500 24.38100
N  33.24900 3.55400 30.18500
C  32.35200 3.75700 29.10400
C  31.01600 4.15000 29.61100
C  31.14500 4.09000 31.00400
C  32.55100 3.82000 31.34300
C  29.89700 4.42100 28.69900
C  30.42900 4.39300 32.21800
O  29.24300 4.53400 32.42600
C  31.54200 4.30500 33.36900
C  31.50800 5.64300 33.86700
O  31.63700 6.70000 33.25700
O  31.09700 5.71100 35.18200
C  30.85600 7.00600 35.90300
H  38.40100 2.73900 33.60600
H  38.26700 2.48400 27.11500
H  31.99300 3.44000 27.07100
H  34.09600 4.73700 35.21100
H  36.67000 3.27900 35.33600
H  35.77600 6.01400 34.73800
H  37.44200 5.68600 34.23400
H  36.98100 5.54100 35.92900
H  34.67200 1.79600 35.22600
H  33.01200 2.44800 35.15100
H  34.08000 2.04000 37.51700
H  32.56900 2.90700 37.02800
H  41.12700 0.99600 31.78500
H  39.80100 0.98200 32.91600
H  40.85300 2.39900 32.71300
H  42.29100 1.92500 30.25600
H  42.65500 1.19600 28.72500
H  41.66600 0.22400 29.84300
H  36.43400 2.03300 25.57500
H  33.81800 3.46000 25.19000
H  35.92000 4.52200 24.50000
H  37.43000 3.55700 24.59600
H  37.18700 4.78600 25.73400
H  32.96200 1.24900 26.31600
H  34.60600 0.59100 26.20400
H  33.91500 1.76500 23.73500
H  32.56700 0.67500 24.16300
H  34.23200 0.07900 24.18300
H  29.02800 4.61800 29.32700
H  29.73000 3.52000 28.11000
H  30.07900 5.35900 28.17500
H  31.39100 3.59500 34.18200
H  29.86100 7.09800 36.33800
H  31.09100 7.90900 35.34000
H  31.54500 7.07000 36.74600
Mg 49.70700 34.60500 26.15200
C  47.80200 33.49000 28.94900
C  49.93400 37.59900 27.76400
C  51.38800 35.77500 23.43800
C  48.95600 31.68500 24.51700
N  48.95000 35.43400 28.23500
C  48.24400 34.83400 29.15500
C  47.97300 35.74800 30.33600
C  48.54500 37.14700 29.81900
C  49.05600 36.79300 28.41700
C  47.60300 38.36800 29.84200
C  48.58000 35.24500 31.73600
C  47.55000 35.00100 32.95800
H  47.73900 35.81200 34.28600
N  50.65400 36.39400 25.74900
C  50.73400 37.48500 26.53700
C  51.56800 38.48400 25.92800
C  52.02300 37.96200 24.68400
C  51.35300 36.64300 24.50700
C  51.84500 39.88100 26.57900
C  53.02800 38.59700 23.66400
O  53.41900 37.94500 22.69100
C  53.36000 40.01700 23.74200
N  50.01100 33.89200 24.27900
C  50.85900 34.50900 23.34600
C  51.13200 33.53400 22.17400
C  50.47000 32.19600 22.57200
C  49.75100 32.57700 23.86800
C  50.68200 34.10200 20.70300
C  51.47600 30.96900 22.81000
C  51.15500 29.69000 22.05900
N  48.59100 32.94000 26.57100
C  48.34900 31.84500 25.77200
C  47.48700 30.94100 26.44300
C  47.17200 31.56200 27.63400
C  47.95000 32.75000 27.73100
C  47.08900 29.60100 25.92000
C  46.41500 31.40600 28.84000
O  45.59500 30.61700 29.24800
C  46.92000 32.59900 29.80400
C  47.67900 32.00800 30.91200
O  48.85500 31.85800 31.05000
O  46.73600 31.57200 31.83700
C  47.13300 30.98100 33.10700
H  50.10300 38.57300 28.23000
H  51.95200 36.16200 22.58600
H  48.91000 30.72500 23.99900
H  46.90800 35.73900 30.56600
H  49.36900 37.49200 30.44400
H  48.04000 39.21000 30.37900
H  46.62100 38.15400 30.26200
H  47.53200 38.70400 28.80700
H  49.35700 35.92000 32.09300
H  49.02800 34.27200 31.53500
H  47.52400 33.95800 33.27600
H  46.57700 35.23700 32.52800
H  52.89900 39.90300 26.85500
H  51.28600 40.11900 27.48400
H  51.66200 40.60900 25.78800
H  53.67100 40.25900 24.75900
H  52.47100 40.61100 23.52900
H  54.26700 40.14900 23.15200
H  52.18900 33.27700 22.10000
H  49.66900 31.87200 21.90700
H  50.32400 35.13000 20.76700
H  49.97800 33.54200 20.08800
H  51.62600 34.25400 20.17900
H  51.52500 30.80300 23.88600
H  52.50000 31.28900 22.61800
H  52.08500 29.47800 21.53100
H  50.36200 29.87200 21.33300
H  50.67600 28.94200 22.69100
H  47.43900 28.94300 26.71500
H  47.51300 29.33800 24.95100
H  46.00000 29.56500 25.97200
H  46.05100 33.05600 30.27700
H  48.22000 30.91800 33.16800
H  46.77800 29.95700 33.21700
H  46.66700 31.60300 33.87200

